MODEL 1
REMARK VINA RESULT:      -9.8      0.000      0.000
REMARK SMILES CC[C@H]1CCCCN1S(=O)(=O)CC(=O)NCCCNC(=O)c1ccc(-c2c3nc(c(-c4c(F)cccc4F)c4ccc([nH]4)c(-c4c(F)cccc4F)c4nc(c(-c5c(F)cccc5F)c5ccc2[nH]5)C=C4)C=C3)cc1
REMARK SMILES IDX 16 1 15 2 13 3 14 4 12 6 9 7 10 8 11 9 8 10 3 11 4 12 5 13
REMARK SMILES IDX 7 14 6 15 2 16 1 17 17 18 18 19 19 20 20 21 21 23 22 24
REMARK SMILES IDX 23 25 75 26 24 27 74 28 25 29 26 30 27 31 68 32 28 33 73 34
REMARK SMILES IDX 67 35 69 36 29 37 72 38 66 39 65 40 30 42 56 43 39 44 55 45
REMARK SMILES IDX 40 46 43 47 54 48 70 49 41 50 42 51 53 53 71 54 44 55 31 56
REMARK SMILES IDX 32 57 37 58 33 59 34 60 36 61 38 62 35 63 57 64 58 65 63 66
REMARK SMILES IDX 59 67 60 68 62 69 64 70 61 71 45 72 46 73 51 74 47 75 48 76
REMARK SMILES IDX 50 77 52 78 49 79
REMARK H PARENT 15 5 19 22 69 41 43 52
REMARK Flexibility Score: inf
ROOT
ATOM      1  C   UNL A   1      34.399  35.141  28.918  1.00  0.00     0.117 C 
ENDROOT
BRANCH   1   2
ATOM      2  N   UNL A   1      33.330  35.554  29.815  1.00  0.00    -0.355 N 
ATOM      3  C   UNL A   1      33.228  35.411  31.167  1.00  0.00     0.236 C 
ATOM      4  O   UNL A   1      32.150  35.700  31.693  1.00  0.00    -0.274 OA
ATOM      5  H   UNL A   1      32.570  36.005  29.382  1.00  0.00     0.163 HD
BRANCH   3   6
ATOM      6  C   UNL A   1      34.417  35.050  31.995  1.00  0.00     0.253 C 
BRANCH   6   7
ATOM      7  S   UNL A   1      34.478  33.333  32.426  1.00  0.00     0.223 S 
ATOM      8  O   UNL A   1      34.326  32.577  31.203  1.00  0.00    -0.212 OA
ATOM      9  O   UNL A   1      33.553  33.112  33.524  1.00  0.00    -0.212 OA
BRANCH   7  10
ATOM     10  N   UNL A   1      36.051  33.050  33.006  1.00  0.00    -0.198 NA
ATOM     11  C   UNL A   1      37.057  32.624  31.961  1.00  0.00     0.072 C 
ATOM     12  C   UNL A   1      38.348  32.170  32.665  1.00  0.00     0.020 C 
ATOM     13  C   UNL A   1      38.910  33.240  33.590  1.00  0.00     0.003 C 
ATOM     14  C   UNL A   1      36.567  34.086  33.952  1.00  0.00     0.102 C 
ATOM     15  C   UNL A   1      37.857  33.626  34.619  1.00  0.00     0.017 C 
BRANCH  11  16
ATOM     16  C   UNL A   1      37.268  33.710  30.886  1.00  0.00     0.017 C 
ATOM     17  C   UNL A   1      37.901  33.198  29.599  1.00  0.00     0.005 C 
ENDBRANCH  11  16
ENDBRANCH   7  10
ENDBRANCH   6   7
ENDBRANCH   3   6
ENDBRANCH   1   2
BRANCH   1  18
ATOM     18  C   UNL A   1      33.977  33.947  28.066  1.00  0.00     0.042 C 
BRANCH  18  19
ATOM     19  C   UNL A   1      34.855  32.714  28.242  1.00  0.00     0.118 C 
BRANCH  19  20
ATOM     20  N   UNL A   1      34.109  31.470  28.128  1.00  0.00    -0.352 N 
ATOM     21  C   UNL A   1      34.563  30.175  28.074  1.00  0.00     0.251 C 
ATOM     22  H   UNL A   1      33.132  31.572  28.084  1.00  0.00     0.163 HD
ATOM     23  O   UNL A   1      33.779  29.269  27.807  1.00  0.00    -0.269 OA
BRANCH  21  24
ATOM     24  C   UNL A   1      35.991  29.862  28.315  1.00  0.00     0.039 A 
ATOM     25  C   UNL A   1      36.383  29.466  29.597  1.00  0.00     0.014 A 
ATOM     26  C   UNL A   1      36.946  29.992  27.303  1.00  0.00     0.014 A 
ATOM     27  C   UNL A   1      37.718  29.145  29.850  1.00  0.00     0.010 A 
ATOM     28  C   UNL A   1      38.265  29.607  27.538  1.00  0.00     0.010 A 
ATOM     29  C   UNL A   1      38.665  29.186  28.815  1.00  0.00    -0.014 A 
BRANCH  29  30
ATOM     30  C   UNL A   1      40.079  28.798  29.051  1.00  0.00     0.031 A 
ATOM     31  C   UNL A   1      41.036  29.767  29.687  1.00  0.00     0.074 A 
ATOM     32  C   UNL A   1      40.518  27.594  28.636  1.00  0.00     0.049 A 
ATOM     33  N   UNL A   1      42.319  29.636  29.911  1.00  0.00    -0.248 NA
ATOM     34  C   UNL A   1      40.481  31.064  30.104  1.00  0.00     0.031 C 
ATOM     35  C   UNL A   1      39.702  26.578  27.970  1.00  0.00     0.029 A 
ATOM     36  N   UNL A   1      41.765  27.025  28.708  1.00  0.00    -0.354 N 
ATOM     37  C   UNL A   1      42.728  30.838  30.475  1.00  0.00     0.074 A 
ATOM     38  C   UNL A   1      41.567  31.700  30.518  1.00  0.00     0.031 C 
ATOM     39  C   UNL A   1      40.463  25.502  27.715  1.00  0.00     0.029 A 
ATOM     40  C   UNL A   1      41.826  25.763  28.168  1.00  0.00     0.049 A 
ATOM     41  H   UNL A   1      42.542  27.478  29.107  1.00  0.00     0.167 HD
ATOM     42  C   UNL A   1      43.954  31.185  30.934  1.00  0.00     0.037 A 
ATOM     43  C   UNL A   1      42.863  24.915  28.050  1.00  0.00     0.037 A 
ATOM     44  C   UNL A   1      45.102  30.318  30.918  1.00  0.00     0.049 A 
ATOM     45  C   UNL A   1      44.214  25.321  28.567  1.00  0.00     0.074 A 
ATOM     46  C   UNL A   1      46.371  30.556  31.418  1.00  0.00     0.029 A 
ATOM     47  N   UNL A   1      45.120  29.043  30.373  1.00  0.00    -0.354 N 
ATOM     48  N   UNL A   1      44.574  26.439  29.148  1.00  0.00    -0.248 NA
ATOM     49  C   UNL A   1      45.302  24.345  28.412  1.00  0.00     0.031 C 
ATOM     50  C   UNL A   1      47.167  29.437  31.145  1.00  0.00     0.029 A 
ATOM     51  C   UNL A   1      46.383  28.488  30.508  1.00  0.00     0.049 A 
ATOM     52  H   UNL A   1      44.350  28.598  29.953  1.00  0.00     0.167 HD
ATOM     53  C   UNL A   1      45.921  26.293  29.451  1.00  0.00     0.074 A 
ATOM     54  C   UNL A   1      46.312  24.975  28.997  1.00  0.00     0.031 C 
ATOM     55  C   UNL A   1      46.757  27.174  30.052  1.00  0.00     0.037 A 
BRANCH  42  56
ATOM     56  C   UNL A   1      44.111  32.569  31.491  1.00  0.00     0.057 A 
ATOM     57  C   UNL A   1      43.878  32.850  32.844  1.00  0.00     0.134 A 
ATOM     58  C   UNL A   1      44.511  33.630  30.671  1.00  0.00     0.134 A 
ATOM     59  F   UNL A   1      43.479  31.880  33.681  1.00  0.00    -0.206 F 
ATOM     60  C   UNL A   1      44.007  34.143  33.354  1.00  0.00     0.040 A 
ATOM     61  C   UNL A   1      44.667  34.924  31.174  1.00  0.00     0.040 A 
ATOM     62  F   UNL A   1      44.755  33.430  29.367  1.00  0.00    -0.206 F 
ATOM     63  C   UNL A   1      44.406  35.184  32.518  1.00  0.00     0.006 A 
ENDBRANCH  42  56
BRANCH  43  64
ATOM     64  C   UNL A   1      42.654  23.577  27.444  1.00  0.00     0.057 A 
ATOM     65  C   UNL A   1      42.313  22.477  28.239  1.00  0.00     0.134 A 
ATOM     66  C   UNL A   1      42.774  23.370  26.065  1.00  0.00     0.134 A 
ATOM     67  F   UNL A   1      42.202  22.613  29.568  1.00  0.00    -0.206 F 
ATOM     68  C   UNL A   1      42.107  21.212  27.684  1.00  0.00     0.040 A 
ATOM     69  C   UNL A   1      42.552  22.115  25.496  1.00  0.00     0.040 A 
ATOM     70  F   UNL A   1      43.093  24.387  25.252  1.00  0.00    -0.206 F 
ATOM     71  C   UNL A   1      42.220  21.031  26.307  1.00  0.00     0.006 A 
ENDBRANCH  43  64
BRANCH  55  72
ATOM     72  C   UNL A   1      48.170  26.728  30.279  1.00  0.00     0.057 A 
ATOM     73  C   UNL A   1      48.540  26.006  31.420  1.00  0.00     0.134 A 
ATOM     74  C   UNL A   1      49.164  26.993  29.329  1.00  0.00     0.134 A 
ATOM     75  F   UNL A   1      47.637  25.732  32.374  1.00  0.00    -0.206 F 
ATOM     76  C   UNL A   1      49.854  25.579  31.617  1.00  0.00     0.040 A 
ATOM     77  C   UNL A   1      50.476  26.553  29.504  1.00  0.00     0.040 A 
ATOM     78  F   UNL A   1      48.873  27.675  28.211  1.00  0.00    -0.206 F 
ATOM     79  C   UNL A   1      50.824  25.846  30.654  1.00  0.00     0.006 A 
ENDBRANCH  55  72
ENDBRANCH  29  30
ENDBRANCH  21  24
ENDBRANCH  19  20
ENDBRANCH  18  19
ENDBRANCH   1  18
TORSDOF 13
ENDMDL
MODEL 2
REMARK VINA RESULT:      -9.8      4.166      9.309
REMARK SMILES CC[C@H]1CCCCN1S(=O)(=O)CC(=O)NCCCNC(=O)c1ccc(-c2c3nc(c(-c4c(F)cccc4F)c4ccc([nH]4)c(-c4c(F)cccc4F)c4nc(c(-c5c(F)cccc5F)c5ccc2[nH]5)C=C4)C=C3)cc1
REMARK SMILES IDX 16 1 15 2 13 3 14 4 12 6 9 7 10 8 11 9 8 10 3 11 4 12 5 13
REMARK SMILES IDX 7 14 6 15 2 16 1 17 17 18 18 19 19 20 20 21 21 23 22 24
REMARK SMILES IDX 23 25 75 26 24 27 74 28 25 29 26 30 27 31 68 32 28 33 73 34
REMARK SMILES IDX 67 35 69 36 29 37 72 38 66 39 65 40 30 42 56 43 39 44 55 45
REMARK SMILES IDX 40 46 43 47 54 48 70 49 41 50 42 51 53 53 71 54 44 55 31 56
REMARK SMILES IDX 32 57 37 58 33 59 34 60 36 61 38 62 35 63 57 64 58 65 63 66
REMARK SMILES IDX 59 67 60 68 62 69 64 70 61 71 45 72 46 73 51 74 47 75 48 76
REMARK SMILES IDX 50 77 52 78 49 79
REMARK H PARENT 15 5 19 22 69 41 43 52
REMARK Flexibility Score: inf
ROOT
ATOM      1  C   UNL A   1      31.538  30.367  26.239  1.00  0.00     0.117 C 
ENDROOT
BRANCH   1   2
ATOM      2  N   UNL A   1      31.571  30.081  24.812  1.00  0.00    -0.355 N 
ATOM      3  C   UNL A   1      31.446  28.889  24.163  1.00  0.00     0.236 C 
ATOM      4  O   UNL A   1      31.667  28.872  22.950  1.00  0.00    -0.274 OA
ATOM      5  H   UNL A   1      31.701  30.864  24.230  1.00  0.00     0.163 HD
BRANCH   3   6
ATOM      6  C   UNL A   1      30.929  27.678  24.868  1.00  0.00     0.253 C 
BRANCH   6   7
ATOM      7  S   UNL A   1      32.207  26.676  25.574  1.00  0.00     0.223 S 
ATOM      8  O   UNL A   1      31.675  26.090  26.785  1.00  0.00    -0.212 OA
ATOM      9  O   UNL A   1      33.420  27.473  25.638  1.00  0.00    -0.212 OA
BRANCH   7  10
ATOM     10  N   UNL A   1      32.475  25.410  24.472  1.00  0.00    -0.198 NA
ATOM     11  C   UNL A   1      33.917  24.981  24.319  1.00  0.00     0.072 C 
ATOM     12  C   UNL A   1      34.029  24.018  23.125  1.00  0.00     0.020 C 
ATOM     13  C   UNL A   1      33.094  22.825  23.255  1.00  0.00     0.003 C 
ATOM     14  C   UNL A   1      31.516  24.269  24.582  1.00  0.00     0.102 C 
ATOM     15  C   UNL A   1      31.660  23.316  23.402  1.00  0.00     0.017 C 
BRANCH  11  16
ATOM     16  C   UNL A   1      34.499  24.430  25.637  1.00  0.00     0.017 C 
ATOM     17  C   UNL A   1      35.943  23.957  25.532  1.00  0.00     0.005 C 
ENDBRANCH  11  16
ENDBRANCH   7  10
ENDBRANCH   6   7
ENDBRANCH   3   6
ENDBRANCH   1   2
BRANCH   1  18
ATOM     18  C   UNL A   1      31.395  31.864  26.501  1.00  0.00     0.042 C 
BRANCH  18  19
ATOM     19  C   UNL A   1      32.690  32.549  26.924  1.00  0.00     0.118 C 
BRANCH  19  20
ATOM     20  N   UNL A   1      32.476  33.901  27.416  1.00  0.00    -0.352 N 
ATOM     21  C   UNL A   1      33.090  34.567  28.449  1.00  0.00     0.251 C 
ATOM     22  H   UNL A   1      31.789  34.417  26.937  1.00  0.00     0.163 HD
ATOM     23  O   UNL A   1      32.648  35.652  28.818  1.00  0.00    -0.269 OA
BRANCH  21  24
ATOM     24  C   UNL A   1      34.265  33.983  29.135  1.00  0.00     0.039 A 
ATOM     25  C   UNL A   1      34.050  33.083  30.183  1.00  0.00     0.014 A 
ATOM     26  C   UNL A   1      35.569  34.341  28.781  1.00  0.00     0.014 A 
ATOM     27  C   UNL A   1      35.138  32.500  30.837  1.00  0.00     0.010 A 
ATOM     28  C   UNL A   1      36.653  33.708  29.386  1.00  0.00     0.010 A 
ATOM     29  C   UNL A   1      36.449  32.786  30.424  1.00  0.00    -0.014 A 
BRANCH  29  30
ATOM     30  C   UNL A   1      37.618  32.136  31.070  1.00  0.00     0.031 A 
ATOM     31  C   UNL A   1      38.358  31.034  30.366  1.00  0.00     0.074 A 
ATOM     32  C   UNL A   1      37.976  32.497  32.316  1.00  0.00     0.049 A 
ATOM     33  N   UNL A   1      39.355  30.302  30.793  1.00  0.00    -0.248 NA
ATOM     34  C   UNL A   1      37.899  30.692  29.010  1.00  0.00     0.031 C 
ATOM     35  C   UNL A   1      37.317  33.524  33.124  1.00  0.00     0.029 A 
ATOM     36  N   UNL A   1      38.982  32.032  33.126  1.00  0.00    -0.354 N 
ATOM     37  C   UNL A   1      39.629  29.402  29.772  1.00  0.00     0.074 A 
ATOM     38  C   UNL A   1      38.666  29.651  28.721  1.00  0.00     0.031 C 
ATOM     39  C   UNL A   1      37.949  33.628  34.303  1.00  0.00     0.029 A 
ATOM     40  C   UNL A   1      39.035  32.654  34.350  1.00  0.00     0.049 A 
ATOM     41  H   UNL A   1      39.606  31.320  32.857  1.00  0.00     0.167 HD
ATOM     42  C   UNL A   1      40.607  28.467  29.705  1.00  0.00     0.037 A 
ATOM     43  C   UNL A   1      39.864  32.459  35.392  1.00  0.00     0.037 A 
ATOM     44  C   UNL A   1      41.584  28.239  30.736  1.00  0.00     0.049 A 
ATOM     45  C   UNL A   1      40.942  31.417  35.295  1.00  0.00     0.074 A 
ATOM     46  C   UNL A   1      42.653  27.360  30.734  1.00  0.00     0.029 A 
ATOM     47  N   UNL A   1      41.611  28.898  31.956  1.00  0.00    -0.354 N 
ATOM     48  N   UNL A   1      41.225  30.612  34.301  1.00  0.00    -0.248 NA
ATOM     49  C   UNL A   1      41.816  31.259  36.465  1.00  0.00     0.031 C 
ATOM     50  C   UNL A   1      43.307  27.461  31.968  1.00  0.00     0.029 A 
ATOM     51  C   UNL A   1      42.667  28.432  32.723  1.00  0.00     0.049 A 
ATOM     52  H   UNL A   1      40.975  29.594  32.236  1.00  0.00     0.167 HD
ATOM     53  C   UNL A   1      42.323  29.869  34.713  1.00  0.00     0.074 A 
ATOM     54  C   UNL A   1      42.660  30.327  36.045  1.00  0.00     0.031 C 
ATOM     55  C   UNL A   1      42.992  28.897  34.047  1.00  0.00     0.037 A 
BRANCH  42  56
ATOM     56  C   UNL A   1      40.663  27.621  28.467  1.00  0.00     0.057 A 
ATOM     57  C   UNL A   1      39.965  26.410  28.370  1.00  0.00     0.134 A 
ATOM     58  C   UNL A   1      41.411  28.026  27.356  1.00  0.00     0.134 A 
ATOM     59  F   UNL A   1      39.240  25.958  29.405  1.00  0.00    -0.206 F 
ATOM     60  C   UNL A   1      40.034  25.616  27.224  1.00  0.00     0.040 A 
ATOM     61  C   UNL A   1      41.468  27.254  26.193  1.00  0.00     0.040 A 
ATOM     62  F   UNL A   1      42.099  29.178  27.379  1.00  0.00    -0.206 F 
ATOM     63  C   UNL A   1      40.785  26.041  26.129  1.00  0.00     0.006 A 
ENDBRANCH  42  56
BRANCH  43  64
ATOM     64  C   UNL A   1      39.726  33.296  36.608  1.00  0.00     0.057 A 
ATOM     65  C   UNL A   1      40.476  34.469  36.758  1.00  0.00     0.134 A 
ATOM     66  C   UNL A   1      38.839  32.958  37.635  1.00  0.00     0.134 A 
ATOM     67  F   UNL A   1      41.355  34.833  35.813  1.00  0.00    -0.206 F 
ATOM     68  C   UNL A   1      40.355  35.272  37.893  1.00  0.00     0.040 A 
ATOM     69  C   UNL A   1      38.694  33.762  38.767  1.00  0.00     0.040 A 
ATOM     70  F   UNL A   1      38.089  31.849  37.546  1.00  0.00    -0.206 F 
ATOM     71  C   UNL A   1      39.456  34.921  38.899  1.00  0.00     0.006 A 
ENDBRANCH  43  64
BRANCH  55  72
ATOM     72  C   UNL A   1      44.172  28.283  34.737  1.00  0.00     0.057 A 
ATOM     73  C   UNL A   1      44.051  27.124  35.513  1.00  0.00     0.134 A 
ATOM     74  C   UNL A   1      45.450  28.838  34.595  1.00  0.00     0.134 A 
ATOM     75  F   UNL A   1      42.851  26.553  35.698  1.00  0.00    -0.206 F 
ATOM     76  C   UNL A   1      45.157  26.549  36.140  1.00  0.00     0.040 A 
ATOM     77  C   UNL A   1      46.567  28.260  35.199  1.00  0.00     0.040 A 
ATOM     78  F   UNL A   1      45.634  29.945  33.860  1.00  0.00    -0.206 F 
ATOM     79  C   UNL A   1      46.420  27.113  35.977  1.00  0.00     0.006 A 
ENDBRANCH  55  72
ENDBRANCH  29  30
ENDBRANCH  21  24
ENDBRANCH  19  20
ENDBRANCH  18  19
ENDBRANCH   1  18
TORSDOF 13
ENDMDL
MODEL 3
REMARK VINA RESULT:      -9.7      3.623      6.475
REMARK SMILES CC[C@H]1CCCCN1S(=O)(=O)CC(=O)NCCCNC(=O)c1ccc(-c2c3nc(c(-c4c(F)cccc4F)c4ccc([nH]4)c(-c4c(F)cccc4F)c4nc(c(-c5c(F)cccc5F)c5ccc2[nH]5)C=C4)C=C3)cc1
REMARK SMILES IDX 16 1 15 2 13 3 14 4 12 6 9 7 10 8 11 9 8 10 3 11 4 12 5 13
REMARK SMILES IDX 7 14 6 15 2 16 1 17 17 18 18 19 19 20 20 21 21 23 22 24
REMARK SMILES IDX 23 25 75 26 24 27 74 28 25 29 26 30 27 31 68 32 28 33 73 34
REMARK SMILES IDX 67 35 69 36 29 37 72 38 66 39 65 40 30 42 56 43 39 44 55 45
REMARK SMILES IDX 40 46 43 47 54 48 70 49 41 50 42 51 53 53 71 54 44 55 31 56
REMARK SMILES IDX 32 57 37 58 33 59 34 60 36 61 38 62 35 63 57 64 58 65 63 66
REMARK SMILES IDX 59 67 60 68 62 69 64 70 61 71 45 72 46 73 51 74 47 75 48 76
REMARK SMILES IDX 50 77 52 78 49 79
REMARK H PARENT 15 5 19 22 69 41 43 52
REMARK Flexibility Score: inf
ROOT
ATOM      1  C   UNL A   1      31.518  30.409  26.346  1.00  0.00     0.117 C 
ENDROOT
BRANCH   1   2
ATOM      2  N   UNL A   1      31.812  30.151  24.945  1.00  0.00    -0.355 N 
ATOM      3  C   UNL A   1      31.812  28.972  24.261  1.00  0.00     0.236 C 
ATOM      4  O   UNL A   1      32.251  28.979  23.109  1.00  0.00    -0.274 OA
ATOM      5  H   UNL A   1      32.044  30.945  24.412  1.00  0.00     0.163 HD
BRANCH   3   6
ATOM      6  C   UNL A   1      31.178  27.748  24.837  1.00  0.00     0.253 C 
BRANCH   6   7
ATOM      7  S   UNL A   1      32.337  26.652  25.607  1.00  0.00     0.223 S 
ATOM      8  O   UNL A   1      31.665  26.037  26.731  1.00  0.00    -0.212 OA
ATOM      9  O   UNL A   1      33.572  27.385  25.825  1.00  0.00    -0.212 OA
BRANCH   7  10
ATOM     10  N   UNL A   1      32.652  25.427  24.471  1.00  0.00    -0.198 NA
ATOM     11  C   UNL A   1      34.094  24.980  24.388  1.00  0.00     0.072 C 
ATOM     12  C   UNL A   1      34.265  24.064  23.164  1.00  0.00     0.020 C 
ATOM     13  C   UNL A   1      33.305  22.883  23.187  1.00  0.00     0.003 C 
ATOM     14  C   UNL A   1      31.671  24.300  24.475  1.00  0.00     0.102 C 
ATOM     15  C   UNL A   1      31.873  23.393  23.267  1.00  0.00     0.017 C 
BRANCH  11  16
ATOM     16  C   UNL A   1      34.586  24.365  25.715  1.00  0.00     0.017 C 
ATOM     17  C   UNL A   1      36.028  23.877  25.680  1.00  0.00     0.005 C 
ENDBRANCH  11  16
ENDBRANCH   7  10
ENDBRANCH   6   7
ENDBRANCH   3   6
ENDBRANCH   1   2
BRANCH   1  18
ATOM     18  C   UNL A   1      31.333  31.902  26.609  1.00  0.00     0.042 C 
BRANCH  18  19
ATOM     19  C   UNL A   1      32.630  32.648  26.900  1.00  0.00     0.118 C 
BRANCH  19  20
ATOM     20  N   UNL A   1      32.413  33.898  27.612  1.00  0.00    -0.352 N 
ATOM     21  C   UNL A   1      33.137  34.466  28.633  1.00  0.00     0.251 C 
ATOM     22  H   UNL A   1      31.629  34.415  27.319  1.00  0.00     0.163 HD
ATOM     23  O   UNL A   1      32.692  35.449  29.217  1.00  0.00    -0.269 OA
BRANCH  21  24
ATOM     24  C   UNL A   1      34.438  33.893  29.047  1.00  0.00     0.039 A 
ATOM     25  C   UNL A   1      34.489  33.117  30.209  1.00  0.00     0.014 A 
ATOM     26  C   UNL A   1      35.608  34.144  28.325  1.00  0.00     0.014 A 
ATOM     27  C   UNL A   1      35.698  32.547  30.615  1.00  0.00     0.010 A 
ATOM     28  C   UNL A   1      36.800  33.520  28.692  1.00  0.00     0.010 A 
ATOM     29  C   UNL A   1      36.858  32.721  29.843  1.00  0.00    -0.014 A 
BRANCH  29  30
ATOM     30  C   UNL A   1      38.141  32.080  30.228  1.00  0.00     0.031 A 
ATOM     31  C   UNL A   1      39.080  32.772  31.175  1.00  0.00     0.074 A 
ATOM     32  C   UNL A   1      38.488  30.901  29.678  1.00  0.00     0.049 A 
ATOM     33  N   UNL A   1      40.272  32.405  31.575  1.00  0.00    -0.248 NA
ATOM     34  C   UNL A   1      38.631  34.060  31.726  1.00  0.00     0.031 C 
ATOM     35  C   UNL A   1      37.685  30.146  28.716  1.00  0.00     0.029 A 
ATOM     36  N   UNL A   1      39.616  30.136  29.844  1.00  0.00    -0.354 N 
ATOM     37  C   UNL A   1      40.722  33.423  32.405  1.00  0.00     0.074 A 
ATOM     38  C   UNL A   1      39.695  34.443  32.418  1.00  0.00     0.031 C 
ATOM     39  C   UNL A   1      38.334  29.015  28.396  1.00  0.00     0.029 A 
ATOM     40  C   UNL A   1      39.611  28.980  29.101  1.00  0.00     0.049 A 
ATOM     41  H   UNL A   1      40.358  30.391  30.439  1.00  0.00     0.167 HD
ATOM     42  C   UNL A   1      41.876  33.494  33.111  1.00  0.00     0.037 A 
ATOM     43  C   UNL A   1      40.533  28.006  28.999  1.00  0.00     0.037 A 
ATOM     44  C   UNL A   1      42.885  32.467  33.122  1.00  0.00     0.049 A 
ATOM     45  C   UNL A   1      41.806  28.106  29.791  1.00  0.00     0.074 A 
ATOM     46  C   UNL A   1      44.059  32.419  33.854  1.00  0.00     0.029 A 
ATOM     47  N   UNL A   1      42.837  31.307  32.365  1.00  0.00    -0.354 N 
ATOM     48  N   UNL A   1      42.194  29.047  30.615  1.00  0.00    -0.248 NA
ATOM     49  C   UNL A   1      42.767  27.005  29.639  1.00  0.00     0.031 C 
ATOM     50  C   UNL A   1      44.739  31.244  33.514  1.00  0.00     0.029 A 
ATOM     51  C   UNL A   1      43.970  30.543  32.597  1.00  0.00     0.049 A 
ATOM     52  H   UNL A   1      42.107  31.062  31.753  1.00  0.00     0.167 HD
ATOM     53  C   UNL A   1      43.431  28.643  31.099  1.00  0.00     0.074 A 
ATOM     54  C   UNL A   1      43.725  27.366  30.482  1.00  0.00     0.031 C 
ATOM     55  C   UNL A   1      44.248  29.274  31.977  1.00  0.00     0.037 A 
BRANCH  42  56
ATOM     56  C   UNL A   1      42.105  34.731  33.928  1.00  0.00     0.057 A 
ATOM     57  C   UNL A   1      42.707  35.873  33.385  1.00  0.00     0.134 A 
ATOM     58  C   UNL A   1      41.707  34.786  35.269  1.00  0.00     0.134 A 
ATOM     59  F   UNL A   1      43.124  35.881  32.109  1.00  0.00    -0.206 F 
ATOM     60  C   UNL A   1      42.935  37.016  34.155  1.00  0.00     0.040 A 
ATOM     61  C   UNL A   1      41.907  35.932  36.043  1.00  0.00     0.040 A 
ATOM     62  F   UNL A   1      41.119  33.730  35.851  1.00  0.00    -0.206 F 
ATOM     63  C   UNL A   1      42.530  37.048  35.488  1.00  0.00     0.006 A 
ENDBRANCH  42  56
BRANCH  43  64
ATOM     64  C   UNL A   1      40.268  26.831  28.135  1.00  0.00     0.057 A 
ATOM     65  C   UNL A   1      40.837  26.737  26.859  1.00  0.00     0.134 A 
ATOM     66  C   UNL A   1      39.458  25.773  28.562  1.00  0.00     0.134 A 
ATOM     67  F   UNL A   1      41.608  27.729  26.390  1.00  0.00    -0.206 F 
ATOM     68  C   UNL A   1      40.603  25.636  26.035  1.00  0.00     0.040 A 
ATOM     69  C   UNL A   1      39.231  24.657  27.756  1.00  0.00     0.040 A 
ATOM     70  F   UNL A   1      38.889  25.804  29.777  1.00  0.00    -0.206 F 
ATOM     71  C   UNL A   1      39.802  24.588  26.486  1.00  0.00     0.006 A 
ENDBRANCH  43  64
BRANCH  55  72
ATOM     72  C   UNL A   1      45.525  28.578  32.343  1.00  0.00     0.057 A 
ATOM     73  C   UNL A   1      45.591  27.677  33.413  1.00  0.00     0.134 A 
ATOM     74  C   UNL A   1      46.690  28.783  31.594  1.00  0.00     0.134 A 
ATOM     75  F   UNL A   1      44.513  27.449  34.177  1.00  0.00    -0.206 F 
ATOM     76  C   UNL A   1      46.779  27.020  33.738  1.00  0.00     0.040 A 
ATOM     77  C   UNL A   1      47.878  28.115  31.895  1.00  0.00     0.040 A 
ATOM     78  F   UNL A   1      46.690  29.628  30.552  1.00  0.00    -0.206 F 
ATOM     79  C   UNL A   1      47.924  27.234  32.973  1.00  0.00     0.006 A 
ENDBRANCH  55  72
ENDBRANCH  29  30
ENDBRANCH  21  24
ENDBRANCH  19  20
ENDBRANCH  18  19
ENDBRANCH   1  18
TORSDOF 13
ENDMDL
