MODEL 1
REMARK VINA RESULT:     -12.1      0.000      0.000
REMARK SMILES O=C(NCCCNC(=O)c1cccc(-c2c(F)cc(F)cc2F)c1)c1ccc(-c2c3nc(c(-c4c(F)cccc4F)c4ccc([nH]4)c(-c4c(F)cccc4F)c4nc(c(-c5c(F)cccc5F)c5ccc2[nH]5)C=C4)C=C3)cc1
REMARK SMILES IDX 4 1 3 2 1 3 2 4 25 6 26 7 78 8 27 9 77 10 28 11 29 12 30 13
REMARK SMILES IDX 71 14 31 15 76 16 70 17 72 18 32 19 75 20 69 21 68 22 33 24
REMARK SMILES IDX 59 25 42 26 58 27 43 28 46 29 57 30 73 31 44 32 45 33 56 35
REMARK SMILES IDX 74 36 47 37 34 38 35 39 40 40 36 41 37 42 39 43 41 44 38 45
REMARK SMILES IDX 60 46 61 47 66 48 62 49 63 50 65 51 67 52 64 53 48 54 49 55
REMARK SMILES IDX 54 56 50 57 51 58 53 59 55 60 52 61 5 62 6 63 7 64 8 65 9 67
REMARK SMILES IDX 10 68 11 69 24 70 12 71 14 72 13 73 15 74 16 75 22 76 17 77
REMARK SMILES IDX 18 78 21 79 23 80 19 81 20 82
REMARK H PARENT 3 5 72 23 46 34 7 66
REMARK Flexibility Score: inf
ROOT
ATOM      1  C   UNL A   1      38.549  20.227  25.585  1.00  0.00     0.118 C 
ENDROOT
BRANCH   1   2
ATOM      2  N   UNL A   1      39.672  19.303  25.703  1.00  0.00    -0.352 N 
ATOM      3  O   UNL A   1      41.811  18.639  25.932  1.00  0.00    -0.269 OA
ATOM      4  C   UNL A   1      40.976  19.530  26.070  1.00  0.00     0.251 C 
ATOM      5  H   UNL A   1      39.460  18.366  25.487  1.00  0.00     0.163 HD
BRANCH   4   6
ATOM      6  C   UNL A   1      41.385  20.845  26.608  1.00  0.00     0.039 A 
ATOM      7  C   UNL A   1      41.294  21.117  27.973  1.00  0.00     0.014 A 
ATOM      8  C   UNL A   1      41.890  21.815  25.736  1.00  0.00     0.014 A 
ATOM      9  C   UNL A   1      41.535  22.402  28.440  1.00  0.00     0.010 A 
ATOM     10  C   UNL A   1      42.243  23.076  26.228  1.00  0.00     0.010 A 
ATOM     11  C   UNL A   1      42.036  23.390  27.578  1.00  0.00    -0.014 A 
BRANCH  11  12
ATOM     12  C   UNL A   1      42.403  24.714  28.140  1.00  0.00     0.031 A 
ATOM     13  C   UNL A   1      43.825  25.046  28.498  1.00  0.00     0.074 A 
ATOM     14  C   UNL A   1      41.434  25.638  28.291  1.00  0.00     0.049 A 
ATOM     15  N   UNL A   1      44.312  26.161  28.982  1.00  0.00    -0.248 NA
ATOM     16  C   UNL A   1      44.830  23.991  28.297  1.00  0.00     0.031 C 
ATOM     17  C   UNL A   1      40.016  25.428  27.985  1.00  0.00     0.029 A 
ATOM     18  N   UNL A   1      41.489  26.939  28.717  1.00  0.00    -0.354 N 
ATOM     19  C   UNL A   1      45.673  25.942  29.152  1.00  0.00     0.074 A 
ATOM     20  C   UNL A   1      45.931  24.574  28.753  1.00  0.00     0.031 C 
ATOM     21  C   UNL A   1      39.347  26.571  28.183  1.00  0.00     0.029 A 
ATOM     22  C   UNL A   1      40.271  27.573  28.700  1.00  0.00     0.049 A 
ATOM     23  H   UNL A   1      42.322  27.378  29.008  1.00  0.00     0.167 HD
ATOM     24  C   UNL A   1      46.620  26.807  29.591  1.00  0.00     0.037 A 
ATOM     25  C   UNL A   1      39.926  28.815  29.081  1.00  0.00     0.037 A 
ATOM     26  C   UNL A   1      46.356  28.168  29.984  1.00  0.00     0.049 A 
ATOM     27  C   UNL A   1      40.989  29.734  29.608  1.00  0.00     0.074 A 
ATOM     28  C   UNL A   1      47.250  29.129  30.426  1.00  0.00     0.029 A 
ATOM     29  N   UNL A   1      45.101  28.761  29.990  1.00  0.00    -0.354 N 
ATOM     30  N   UNL A   1      42.276  29.521  29.734  1.00  0.00    -0.248 NA
ATOM     31  C   UNL A   1      40.551  31.065  30.048  1.00  0.00     0.031 C 
ATOM     32  C   UNL A   1      46.531  30.286  30.744  1.00  0.00     0.029 A 
ATOM     33  C   UNL A   1      45.196  30.066  30.448  1.00  0.00     0.049 A 
ATOM     34  H   UNL A   1      44.267  28.321  29.709  1.00  0.00     0.167 HD
ATOM     35  C   UNL A   1      42.806  30.697  30.248  1.00  0.00     0.074 A 
ATOM     36  C   UNL A   1      41.702  31.625  30.388  1.00  0.00     0.031 C 
ATOM     37  C   UNL A   1      44.089  30.980  30.577  1.00  0.00     0.037 A 
BRANCH  24  38
ATOM     38  C   UNL A   1      48.034  26.304  29.686  1.00  0.00     0.057 A 
ATOM     39  C   UNL A   1      48.941  26.442  28.627  1.00  0.00     0.134 A 
ATOM     40  C   UNL A   1      48.507  25.719  30.867  1.00  0.00     0.134 A 
ATOM     41  F   UNL A   1      48.552  26.984  27.464  1.00  0.00    -0.206 F 
ATOM     42  C   UNL A   1      50.262  25.998  28.733  1.00  0.00     0.040 A 
ATOM     43  C   UNL A   1      49.832  25.295  30.994  1.00  0.00     0.040 A 
ATOM     44  F   UNL A   1      47.695  25.563  31.923  1.00  0.00    -0.206 F 
ATOM     45  C   UNL A   1      50.712  25.429  29.923  1.00  0.00     0.006 A 
ENDBRANCH  24  38
BRANCH  25  46
ATOM     46  C   UNL A   1      38.510  29.252  28.994  1.00  0.00     0.057 A 
ATOM     47  C   UNL A   1      37.672  29.230  30.114  1.00  0.00     0.134 A 
ATOM     48  C   UNL A   1      37.959  29.700  27.785  1.00  0.00     0.134 A 
ATOM     49  F   UNL A   1      38.136  28.798  31.296  1.00  0.00    -0.206 F 
ATOM     50  C   UNL A   1      36.334  29.617  30.033  1.00  0.00     0.040 A 
ATOM     51  C   UNL A   1      36.633  30.119  27.697  1.00  0.00     0.040 A 
ATOM     52  F   UNL A   1      38.713  29.754  26.677  1.00  0.00    -0.206 F 
ATOM     53  C   UNL A   1      35.813  30.070  28.822  1.00  0.00     0.006 A 
ENDBRANCH  25  46
BRANCH  37  54
ATOM     54  C   UNL A   1      44.370  32.364  31.086  1.00  0.00     0.057 A 
ATOM     55  C   UNL A   1      44.356  32.669  32.453  1.00  0.00     0.134 A 
ATOM     56  C   UNL A   1      44.674  33.401  30.194  1.00  0.00     0.134 A 
ATOM     57  F   UNL A   1      44.056  31.724  33.357  1.00  0.00    -0.206 F 
ATOM     58  C   UNL A   1      44.608  33.962  32.913  1.00  0.00     0.040 A 
ATOM     59  C   UNL A   1      44.956  34.690  30.645  1.00  0.00     0.040 A 
ATOM     60  F   UNL A   1      44.710  33.175  28.872  1.00  0.00    -0.206 F 
ATOM     61  C   UNL A   1      44.916  34.976  32.008  1.00  0.00     0.006 A 
ENDBRANCH  37  54
ENDBRANCH  11  12
ENDBRANCH   4   6
ENDBRANCH   1   2
BRANCH   1  62
ATOM     62  C   UNL A   1      37.378  19.638  24.814  1.00  0.00     0.042 C 
BRANCH  62  63
ATOM     63  C   UNL A   1      36.071  20.387  25.021  1.00  0.00     0.118 C 
BRANCH  63  64
ATOM     64  N   UNL A   1      34.946  19.486  25.227  1.00  0.00    -0.352 N 
ATOM     65  C   UNL A   1      33.598  19.708  25.089  1.00  0.00     0.251 C 
ATOM     66  H   UNL A   1      35.189  18.575  25.510  1.00  0.00     0.163 HD
ATOM     67  O   UNL A   1      32.796  18.893  25.537  1.00  0.00    -0.269 OA
BRANCH  65  68
ATOM     68  C   UNL A   1      33.109  20.928  24.417  1.00  0.00     0.040 A 
ATOM     69  C   UNL A   1      32.521  20.820  23.156  1.00  0.00     0.014 A 
ATOM     70  C   UNL A   1      33.256  22.183  25.019  1.00  0.00     0.022 A 
ATOM     71  C   UNL A   1      32.016  21.960  22.536  1.00  0.00     0.001 A 
ATOM     72  C   UNL A   1      32.711  23.335  24.435  1.00  0.00    -0.012 A 
ATOM     73  C   UNL A   1      32.092  23.201  23.180  1.00  0.00     0.009 A 
BRANCH  72  74
ATOM     74  C   UNL A   1      32.758  24.624  25.143  1.00  0.00     0.053 A 
ATOM     75  C   UNL A   1      33.909  25.429  25.124  1.00  0.00     0.136 A 
ATOM     76  C   UNL A   1      31.644  25.131  25.832  1.00  0.00     0.136 A 
ATOM     77  F   UNL A   1      35.001  25.028  24.453  1.00  0.00    -0.206 F 
ATOM     78  C   UNL A   1      33.957  26.666  25.761  1.00  0.00     0.079 A 
ATOM     79  C   UNL A   1      31.673  26.365  26.478  1.00  0.00     0.079 A 
ATOM     80  F   UNL A   1      30.504  24.425  25.880  1.00  0.00    -0.206 F 
ATOM     81  C   UNL A   1      32.835  27.120  26.437  1.00  0.00     0.129 A 
ATOM     82  F   UNL A   1      32.871  28.309  27.052  1.00  0.00    -0.207 F 
ENDBRANCH  72  74
ENDBRANCH  65  68
ENDBRANCH  63  64
ENDBRANCH  62  63
ENDBRANCH   1  62
TORSDOF 11
ENDMDL
MODEL 2
REMARK VINA RESULT:     -12.1      3.291      7.747
REMARK SMILES O=C(NCCCNC(=O)c1cccc(-c2c(F)cc(F)cc2F)c1)c1ccc(-c2c3nc(c(-c4c(F)cccc4F)c4ccc([nH]4)c(-c4c(F)cccc4F)c4nc(c(-c5c(F)cccc5F)c5ccc2[nH]5)C=C4)C=C3)cc1
REMARK SMILES IDX 4 1 3 2 1 3 2 4 25 6 26 7 78 8 27 9 77 10 28 11 29 12 30 13
REMARK SMILES IDX 71 14 31 15 76 16 70 17 72 18 32 19 75 20 69 21 68 22 33 24
REMARK SMILES IDX 59 25 42 26 58 27 43 28 46 29 57 30 73 31 44 32 45 33 56 35
REMARK SMILES IDX 74 36 47 37 34 38 35 39 40 40 36 41 37 42 39 43 41 44 38 45
REMARK SMILES IDX 60 46 61 47 66 48 62 49 63 50 65 51 67 52 64 53 48 54 49 55
REMARK SMILES IDX 54 56 50 57 51 58 53 59 55 60 52 61 5 62 6 63 7 64 8 65 9 67
REMARK SMILES IDX 10 68 11 69 24 70 12 71 14 72 13 73 15 74 16 75 22 76 17 77
REMARK SMILES IDX 18 78 21 79 23 80 19 81 20 82
REMARK H PARENT 3 5 72 23 46 34 7 66
REMARK Flexibility Score: inf
ROOT
ATOM      1  C   UNL A   1      34.072  28.558  25.977  1.00  0.00     0.118 C 
ENDROOT
BRANCH   1   2
ATOM      2  N   UNL A   1      33.761  29.893  26.473  1.00  0.00    -0.352 N 
ATOM      3  O   UNL A   1      33.847  31.684  27.837  1.00  0.00    -0.269 OA
ATOM      4  C   UNL A   1      34.379  30.649  27.440  1.00  0.00     0.251 C 
ATOM      5  H   UNL A   1      32.984  30.322  26.047  1.00  0.00     0.163 HD
BRANCH   4   6
ATOM      6  C   UNL A   1      35.666  30.214  28.021  1.00  0.00     0.039 A 
ATOM      7  C   UNL A   1      36.864  30.419  27.336  1.00  0.00     0.014 A 
ATOM      8  C   UNL A   1      35.680  29.613  29.284  1.00  0.00     0.014 A 
ATOM      9  C   UNL A   1      38.043  29.869  27.822  1.00  0.00     0.010 A 
ATOM     10  C   UNL A   1      36.888  29.163  29.827  1.00  0.00     0.010 A 
ATOM     11  C   UNL A   1      38.074  29.257  29.085  1.00  0.00    -0.014 A 
BRANCH  11  12
ATOM     12  C   UNL A   1      39.377  28.796  29.627  1.00  0.00     0.031 A 
ATOM     13  C   UNL A   1      39.987  29.433  30.845  1.00  0.00     0.074 A 
ATOM     14  C   UNL A   1      39.992  27.761  29.024  1.00  0.00     0.049 A 
ATOM     15  N   UNL A   1      41.109  29.135  31.453  1.00  0.00    -0.248 NA
ATOM     16  C   UNL A   1      39.253  30.551  31.455  1.00  0.00     0.031 C 
ATOM     17  C   UNL A   1      39.500  27.067  27.830  1.00  0.00     0.029 A 
ATOM     18  N   UNL A   1      41.149  27.095  29.336  1.00  0.00    -0.354 N 
ATOM     19  C   UNL A   1      41.220  30.031  32.509  1.00  0.00     0.074 A 
ATOM     20  C   UNL A   1      40.070  30.908  32.438  1.00  0.00     0.031 C 
ATOM     21  C   UNL A   1      40.317  26.046  27.543  1.00  0.00     0.029 A 
ATOM     22  C   UNL A   1      41.431  26.056  28.483  1.00  0.00     0.049 A 
ATOM     23  H   UNL A   1      41.723  27.338  30.099  1.00  0.00     0.167 HD
ATOM     24  C   UNL A   1      42.188  30.107  33.454  1.00  0.00     0.037 A 
ATOM     25  C   UNL A   1      42.480  25.216  28.444  1.00  0.00     0.037 A 
ATOM     26  C   UNL A   1      43.329  29.229  33.519  1.00  0.00     0.049 A 
ATOM     27  C   UNL A   1      43.560  25.356  29.476  1.00  0.00     0.074 A 
ATOM     28  C   UNL A   1      44.355  29.214  34.449  1.00  0.00     0.029 A 
ATOM     29  N   UNL A   1      43.599  28.213  32.613  1.00  0.00    -0.354 N 
ATOM     30  N   UNL A   1      43.635  26.189  30.485  1.00  0.00    -0.248 NA
ATOM     31  C   UNL A   1      44.702  24.440  29.362  1.00  0.00     0.031 C 
ATOM     32  C   UNL A   1      45.269  28.222  34.078  1.00  0.00     0.029 A 
ATOM     33  C   UNL A   1      44.786  27.581  32.950  1.00  0.00     0.049 A 
ATOM     34  H   UNL A   1      43.031  27.975  31.845  1.00  0.00     0.167 HD
ATOM     35  C   UNL A   1      44.821  25.886  31.139  1.00  0.00     0.074 A 
ATOM     36  C   UNL A   1      45.420  24.776  30.424  1.00  0.00     0.031 C 
ATOM     37  C   UNL A   1      45.366  26.475  32.231  1.00  0.00     0.037 A 
BRANCH  24  38
ATOM     38  C   UNL A   1      42.067  31.188  34.491  1.00  0.00     0.057 A 
ATOM     39  C   UNL A   1      42.631  32.458  34.307  1.00  0.00     0.134 A 
ATOM     40  C   UNL A   1      41.336  30.974  35.667  1.00  0.00     0.134 A 
ATOM     41  F   UNL A   1      43.352  32.729  33.209  1.00  0.00    -0.206 F 
ATOM     42  C   UNL A   1      42.490  33.467  35.263  1.00  0.00     0.040 A 
ATOM     43  C   UNL A   1      41.166  31.983  36.618  1.00  0.00     0.040 A 
ATOM     44  F   UNL A   1      40.761  29.785  35.904  1.00  0.00    -0.206 F 
ATOM     45  C   UNL A   1      41.749  33.232  36.419  1.00  0.00     0.006 A 
ENDBRANCH  24  38
BRANCH  25  46
ATOM     46  C   UNL A   1      42.564  24.184  27.381  1.00  0.00     0.057 A 
ATOM     47  C   UNL A   1      42.114  22.877  27.599  1.00  0.00     0.134 A 
ATOM     48  C   UNL A   1      43.101  24.478  26.120  1.00  0.00     0.134 A 
ATOM     49  F   UNL A   1      41.604  22.529  28.790  1.00  0.00    -0.206 F 
ATOM     50  C   UNL A   1      42.212  21.896  26.612  1.00  0.00     0.040 A 
ATOM     51  C   UNL A   1      43.176  23.516  25.114  1.00  0.00     0.040 A 
ATOM     52  F   UNL A   1      43.541  25.715  25.844  1.00  0.00    -0.206 F 
ATOM     53  C   UNL A   1      42.739  22.217  25.362  1.00  0.00     0.006 A 
ENDBRANCH  25  46
BRANCH  37  54
ATOM     54  C   UNL A   1      46.659  25.902  32.736  1.00  0.00     0.057 A 
ATOM     55  C   UNL A   1      46.693  24.889  33.703  1.00  0.00     0.134 A 
ATOM     56  C   UNL A   1      47.884  26.360  32.235  1.00  0.00     0.134 A 
ATOM     57  F   UNL A   1      45.554  24.418  34.235  1.00  0.00    -0.206 F 
ATOM     58  C   UNL A   1      47.900  24.371  34.173  1.00  0.00     0.040 A 
ATOM     59  C   UNL A   1      49.096  25.830  32.677  1.00  0.00     0.040 A 
ATOM     60  F   UNL A   1      47.922  27.325  31.303  1.00  0.00    -0.206 F 
ATOM     61  C   UNL A   1      49.107  24.838  33.655  1.00  0.00     0.006 A 
ENDBRANCH  37  54
ENDBRANCH  11  12
ENDBRANCH   4   6
ENDBRANCH   1   2
BRANCH   1  62
ATOM     62  C   UNL A   1      33.256  27.469  26.658  1.00  0.00     0.042 C 
BRANCH  62  63
ATOM     63  C   UNL A   1      32.088  26.968  25.823  1.00  0.00     0.118 C 
BRANCH  63  64
ATOM     64  N   UNL A   1      31.235  26.051  26.564  1.00  0.00    -0.352 N 
ATOM     65  C   UNL A   1      30.925  24.736  26.317  1.00  0.00     0.251 C 
ATOM     66  H   UNL A   1      30.813  26.433  27.368  1.00  0.00     0.163 HD
ATOM     67  O   UNL A   1      30.001  24.202  26.925  1.00  0.00    -0.269 OA
BRANCH  65  68
ATOM     68  C   UNL A   1      31.689  23.966  25.316  1.00  0.00     0.040 A 
ATOM     69  C   UNL A   1      31.100  23.684  24.083  1.00  0.00     0.014 A 
ATOM     70  C   UNL A   1      32.977  23.501  25.603  1.00  0.00     0.022 A 
ATOM     71  C   UNL A   1      31.831  22.998  23.116  1.00  0.00     0.001 A 
ATOM     72  C   UNL A   1      33.747  22.853  24.627  1.00  0.00    -0.012 A 
ATOM     73  C   UNL A   1      33.149  22.606  23.380  1.00  0.00     0.009 A 
BRANCH  72  74
ATOM     74  C   UNL A   1      35.146  22.488  24.903  1.00  0.00     0.053 A 
ATOM     75  C   UNL A   1      35.576  21.151  24.859  1.00  0.00     0.136 A 
ATOM     76  C   UNL A   1      36.124  23.457  25.176  1.00  0.00     0.136 A 
ATOM     77  F   UNL A   1      34.706  20.171  24.566  1.00  0.00    -0.206 F 
ATOM     78  C   UNL A   1      36.903  20.794  25.085  1.00  0.00     0.079 A 
ATOM     79  C   UNL A   1      37.456  23.120  25.406  1.00  0.00     0.079 A 
ATOM     80  F   UNL A   1      35.790  24.756  25.218  1.00  0.00    -0.206 F 
ATOM     81  C   UNL A   1      37.831  21.786  25.360  1.00  0.00     0.129 A 
ATOM     82  F   UNL A   1      39.109  21.453  25.577  1.00  0.00    -0.207 F 
ENDBRANCH  72  74
ENDBRANCH  65  68
ENDBRANCH  63  64
ENDBRANCH  62  63
ENDBRANCH   1  62
TORSDOF 11
ENDMDL
MODEL 3
REMARK VINA RESULT:     -12.1      4.733      9.260
REMARK SMILES O=C(NCCCNC(=O)c1cccc(-c2c(F)cc(F)cc2F)c1)c1ccc(-c2c3nc(c(-c4c(F)cccc4F)c4ccc([nH]4)c(-c4c(F)cccc4F)c4nc(c(-c5c(F)cccc5F)c5ccc2[nH]5)C=C4)C=C3)cc1
REMARK SMILES IDX 4 1 3 2 1 3 2 4 25 6 26 7 78 8 27 9 77 10 28 11 29 12 30 13
REMARK SMILES IDX 71 14 31 15 76 16 70 17 72 18 32 19 75 20 69 21 68 22 33 24
REMARK SMILES IDX 59 25 42 26 58 27 43 28 46 29 57 30 73 31 44 32 45 33 56 35
REMARK SMILES IDX 74 36 47 37 34 38 35 39 40 40 36 41 37 42 39 43 41 44 38 45
REMARK SMILES IDX 60 46 61 47 66 48 62 49 63 50 65 51 67 52 64 53 48 54 49 55
REMARK SMILES IDX 54 56 50 57 51 58 53 59 55 60 52 61 5 62 6 63 7 64 8 65 9 67
REMARK SMILES IDX 10 68 11 69 24 70 12 71 14 72 13 73 15 74 16 75 22 76 17 77
REMARK SMILES IDX 18 78 21 79 23 80 19 81 20 82
REMARK H PARENT 3 5 72 23 46 34 7 66
REMARK Flexibility Score: inf
ROOT
ATOM      1  C   UNL A   1      32.688  32.945  26.813  1.00  0.00     0.118 C 
ENDROOT
BRANCH   1   2
ATOM      2  N   UNL A   1      32.479  34.167  27.582  1.00  0.00    -0.352 N 
ATOM      3  O   UNL A   1      32.651  35.597  29.313  1.00  0.00    -0.269 OA
ATOM      4  C   UNL A   1      33.102  34.620  28.719  1.00  0.00     0.251 C 
ATOM      5  H   UNL A   1      31.780  34.763  27.228  1.00  0.00     0.163 HD
BRANCH   4   6
ATOM      6  C   UNL A   1      34.297  33.926  29.246  1.00  0.00     0.039 A 
ATOM      7  C   UNL A   1      34.168  32.793  30.048  1.00  0.00     0.014 A 
ATOM      8  C   UNL A   1      35.569  34.404  28.913  1.00  0.00     0.014 A 
ATOM      9  C   UNL A   1      35.288  32.246  30.659  1.00  0.00     0.010 A 
ATOM     10  C   UNL A   1      36.705  33.779  29.437  1.00  0.00     0.010 A 
ATOM     11  C   UNL A   1      36.572  32.715  30.341  1.00  0.00    -0.014 A 
BRANCH  11  12
ATOM     12  C   UNL A   1      37.753  32.022  30.915  1.00  0.00     0.031 A 
ATOM     13  C   UNL A   1      38.236  32.320  32.307  1.00  0.00     0.074 A 
ATOM     14  C   UNL A   1      38.369  31.083  30.171  1.00  0.00     0.049 A 
ATOM     15  N   UNL A   1      39.240  31.789  32.959  1.00  0.00    -0.248 NA
ATOM     16  C   UNL A   1      37.508  33.350  33.063  1.00  0.00     0.031 C 
ATOM     17  C   UNL A   1      37.995  30.713  28.802  1.00  0.00     0.029 A 
ATOM     18  N   UNL A   1      39.422  30.255  30.458  1.00  0.00    -0.354 N 
ATOM     19  C   UNL A   1      39.271  32.424  34.195  1.00  0.00     0.074 A 
ATOM     20  C   UNL A   1      38.207  33.405  34.189  1.00  0.00     0.031 C 
ATOM     21  C   UNL A   1      38.769  29.701  28.391  1.00  0.00     0.029 A 
ATOM     22  C   UNL A   1      39.742  29.399  29.433  1.00  0.00     0.049 A 
ATOM     23  H   UNL A   1      39.904  30.271  31.318  1.00  0.00     0.167 HD
ATOM     24  C   UNL A   1      40.104  32.200  35.240  1.00  0.00     0.037 A 
ATOM     25  C   UNL A   1      40.725  28.487  29.329  1.00  0.00     0.037 A 
ATOM     26  C   UNL A   1      41.161  31.219  35.238  1.00  0.00     0.049 A 
ATOM     27  C   UNL A   1      41.661  28.294  30.485  1.00  0.00     0.074 A 
ATOM     28  C   UNL A   1      42.048  30.903  36.254  1.00  0.00     0.029 A 
ATOM     29  N   UNL A   1      41.478  30.398  34.165  1.00  0.00    -0.354 N 
ATOM     30  N   UNL A   1      41.658  28.882  31.656  1.00  0.00    -0.248 NA
ATOM     31  C   UNL A   1      42.740  27.315  30.303  1.00  0.00     0.031 C 
ATOM     32  C   UNL A   1      42.930  29.927  35.780  1.00  0.00     0.029 A 
ATOM     33  C   UNL A   1      42.560  29.593  34.488  1.00  0.00     0.049 A 
ATOM     34  H   UNL A   1      41.004  30.387  33.303  1.00  0.00     0.167 HD
ATOM     35  C   UNL A   1      42.720  28.329  32.360  1.00  0.00     0.074 A 
ATOM     36  C   UNL A   1      43.329  27.344  31.489  1.00  0.00     0.031 C 
ATOM     37  C   UNL A   1      43.153  28.614  33.612  1.00  0.00     0.037 A 
BRANCH  24  38
ATOM     38  C   UNL A   1      39.921  33.041  36.472  1.00  0.00     0.057 A 
ATOM     39  C   UNL A   1      40.640  34.227  36.672  1.00  0.00     0.134 A 
ATOM     40  C   UNL A   1      38.979  32.687  37.446  1.00  0.00     0.134 A 
ATOM     41  F   UNL A   1      41.565  34.621  35.783  1.00  0.00    -0.206 F 
ATOM     42  C   UNL A   1      40.443  35.019  37.807  1.00  0.00     0.040 A 
ATOM     43  C   UNL A   1      38.756  33.484  38.572  1.00  0.00     0.040 A 
ATOM     44  F   UNL A   1      38.250  31.569  37.315  1.00  0.00    -0.206 F 
ATOM     45  C   UNL A   1      39.493  34.651  38.756  1.00  0.00     0.006 A 
ENDBRANCH  24  38
BRANCH  25  46
ATOM     46  C   UNL A   1      40.879  27.702  28.079  1.00  0.00     0.057 A 
ATOM     47  C   UNL A   1      40.279  26.446  27.930  1.00  0.00     0.134 A 
ATOM     48  C   UNL A   1      41.633  28.187  27.002  1.00  0.00     0.134 A 
ATOM     49  F   UNL A   1      39.557  25.920  28.930  1.00  0.00    -0.206 F 
ATOM     50  C   UNL A   1      40.439  25.693  26.766  1.00  0.00     0.040 A 
ATOM     51  C   UNL A   1      41.775  27.460  25.821  1.00  0.00     0.040 A 
ATOM     52  F   UNL A   1      42.225  29.389  27.077  1.00  0.00    -0.206 F 
ATOM     53  C   UNL A   1      41.185  26.203  25.705  1.00  0.00     0.006 A 
ENDBRANCH  25  46
BRANCH  37  54
ATOM     54  C   UNL A   1      44.320  27.821  34.124  1.00  0.00     0.057 A 
ATOM     55  C   UNL A   1      44.155  26.580  34.752  1.00  0.00     0.134 A 
ATOM     56  C   UNL A   1      45.628  28.299  33.968  1.00  0.00     0.134 A 
ATOM     57  F   UNL A   1      42.927  26.074  34.946  1.00  0.00    -0.206 F 
ATOM     58  C   UNL A   1      45.247  25.857  35.233  1.00  0.00     0.040 A 
ATOM     59  C   UNL A   1      46.728  27.572  34.420  1.00  0.00     0.040 A 
ATOM     60  F   UNL A   1      45.856  29.478  33.369  1.00  0.00    -0.206 F 
ATOM     61  C   UNL A   1      46.539  26.350  35.061  1.00  0.00     0.006 A 
ENDBRANCH  37  54
ENDBRANCH  11  12
ENDBRANCH   4   6
ENDBRANCH   1   2
BRANCH   1  62
ATOM     62  C   UNL A   1      31.498  32.000  26.871  1.00  0.00     0.042 C 
BRANCH  62  63
ATOM     63  C   UNL A   1      31.887  30.531  26.949  1.00  0.00     0.118 C 
BRANCH  63  64
ATOM     64  N   UNL A   1      33.234  30.345  27.470  1.00  0.00    -0.352 N 
ATOM     65  C   UNL A   1      34.137  29.336  27.245  1.00  0.00     0.251 C 
ATOM     66  H   UNL A   1      33.546  31.054  28.078  1.00  0.00     0.163 HD
ATOM     67  O   UNL A   1      35.130  29.235  27.960  1.00  0.00    -0.269 OA
BRANCH  65  68
ATOM     68  C   UNL A   1      33.912  28.363  26.157  1.00  0.00     0.040 A 
ATOM     69  C   UNL A   1      33.850  28.820  24.840  1.00  0.00     0.014 A 
ATOM     70  C   UNL A   1      33.735  27.004  26.440  1.00  0.00     0.022 A 
ATOM     71  C   UNL A   1      33.683  27.904  23.805  1.00  0.00     0.001 A 
ATOM     72  C   UNL A   1      33.617  26.060  25.409  1.00  0.00    -0.012 A 
ATOM     73  C   UNL A   1      33.589  26.535  24.087  1.00  0.00     0.009 A 
BRANCH  72  74
ATOM     74  C   UNL A   1      33.564  24.622  25.719  1.00  0.00     0.053 A 
ATOM     75  C   UNL A   1      34.709  23.812  25.634  1.00  0.00     0.136 A 
ATOM     76  C   UNL A   1      32.383  24.002  26.156  1.00  0.00     0.136 A 
ATOM     77  F   UNL A   1      35.884  24.343  25.259  1.00  0.00    -0.206 F 
ATOM     78  C   UNL A   1      34.682  22.458  25.956  1.00  0.00     0.079 A 
ATOM     79  C   UNL A   1      32.335  22.648  26.482  1.00  0.00     0.079 A 
ATOM     80  F   UNL A   1      31.254  24.716  26.278  1.00  0.00    -0.206 F 
ATOM     81  C   UNL A   1      33.489  21.888  26.375  1.00  0.00     0.129 A 
ATOM     82  F   UNL A   1      33.454  20.587  26.688  1.00  0.00    -0.207 F 
ENDBRANCH  72  74
ENDBRANCH  65  68
ENDBRANCH  63  64
ENDBRANCH  62  63
ENDBRANCH   1  62
TORSDOF 11
ENDMDL
