MODEL 1
REMARK VINA RESULT:     -11.6      0.000      0.000
REMARK SMILES CCCc1cc(OC(F)(F)F)cc2c1O[C@H](C(F)(F)F)C(C(=O)NCCCNC(=O)c1ccc(-c3c4nc(c(-c5c(F)cccc5F)c5ccc([nH]5)c(-c5c(F)cccc5F)c5nc(c(-c6c(F)cccc6F)c6ccc3[nH]6)C=C5)C=C4)cc1)=C2
REMARK SMILES IDX 26 1 25 2 24 3 22 4 23 5 21 7 4 8 5 9 14 10 6 11 13 12 15 13
REMARK SMILES IDX 12 14 85 15 16 16 3 17 2 18 1 19 7 20 8 21 9 22 10 23 11 24
REMARK SMILES IDX 17 25 18 26 19 27 20 28 27 29 28 30 29 31 30 33 31 34 32 35
REMARK SMILES IDX 84 36 33 37 83 38 34 39 35 40 36 41 77 42 37 43 82 44 76 45
REMARK SMILES IDX 78 46 38 47 81 48 75 49 74 50 39 52 65 53 48 54 64 55 49 56
REMARK SMILES IDX 52 57 63 58 79 59 50 60 51 61 62 63 80 64 53 65 40 66 41 67
REMARK SMILES IDX 46 68 42 69 43 70 45 71 47 72 44 73 66 74 67 75 72 76 68 77
REMARK SMILES IDX 69 78 71 79 73 80 70 81 54 82 55 83 60 84 56 85 57 86 59 87
REMARK SMILES IDX 61 88 58 89
REMARK H PARENT 24 6 28 32 78 51 52 62
REMARK Flexibility Score: inf
ROOT
ATOM      1  C   UNL A   1      34.089  28.390  25.755  1.00  0.00     0.042 C 
ENDROOT
BRANCH   1   2
ATOM      2  C   UNL A   1      32.832  28.180  24.911  1.00  0.00     0.118 C 
BRANCH   2   3
ATOM      3  N   UNL A   1      31.738  27.659  25.712  1.00  0.00    -0.352 N 
ATOM      4  C   UNL A   1      31.363  26.401  26.053  1.00  0.00     0.251 C 
ATOM      5  O   UNL A   1      30.426  26.289  26.843  1.00  0.00    -0.270 OA
ATOM      6  H   UNL A   1      31.151  28.360  26.079  1.00  0.00     0.163 HD
BRANCH   4   7
ATOM      7  C   UNL A   1      32.086  25.178  25.607  1.00  0.00     0.067 C 
ATOM      8  C   UNL A   1      33.351  21.334  24.451  1.00  0.00    -0.002 A 
ATOM      9  C   UNL A   1      34.645  20.921  24.820  1.00  0.00     0.054 A 
ATOM     10  C   UNL A   1      32.927  22.617  24.839  1.00  0.00     0.131 A 
ATOM     11  C   UNL A   1      35.466  21.727  25.614  1.00  0.00     0.130 A 
ATOM     12  C   UNL A   1      33.754  23.445  25.607  1.00  0.00     0.021 A 
ATOM     13  O   UNL A   1      31.658  23.005  24.490  1.00  0.00    -0.475 OA
ATOM     14  C   UNL A   1      35.016  22.991  25.995  1.00  0.00     0.058 A 
ATOM     15  C   UNL A   1      33.257  24.731  26.081  1.00  0.00     0.025 C 
ATOM     16  C   UNL A   1      31.406  24.440  24.467  1.00  0.00     0.314 C 
BRANCH   8  17
ATOM     17  C   UNL A   1      32.425  20.467  23.616  1.00  0.00     0.039 C 
BRANCH  17  18
ATOM     18  C   UNL A   1      32.480  18.944  23.803  1.00  0.00     0.001 C 
ATOM     19  C   UNL A   1      32.456  18.171  22.492  1.00  0.00     0.004 C 
ENDBRANCH  17  18
ENDBRANCH   8  17
BRANCH  11  20
ATOM     20  O   UNL A   1      36.706  21.405  26.086  1.00  0.00    -0.406 OA
BRANCH  20  21
ATOM     21  C   UNL A   1      37.830  21.962  25.425  1.00  0.00     0.573 C 
ATOM     22  F   UNL A   1      37.513  22.381  24.181  1.00  0.00    -0.132 F 
ATOM     23  F   UNL A   1      38.343  22.991  26.132  1.00  0.00    -0.132 F 
ATOM     24  F   UNL A   1      38.783  21.010  25.315  1.00  0.00    -0.132 F 
ENDBRANCH  20  21
ENDBRANCH  11  20
BRANCH  16  25
ATOM     25  C   UNL A   1      31.765  25.016  23.080  1.00  0.00     0.429 C 
ATOM     26  F   UNL A   1      30.864  25.958  22.703  1.00  0.00    -0.167 F 
ATOM     27  F   UNL A   1      32.980  25.602  23.039  1.00  0.00    -0.167 F 
ATOM     28  F   UNL A   1      31.762  24.060  22.117  1.00  0.00    -0.167 F 
ENDBRANCH  16  25
ENDBRANCH   4   7
ENDBRANCH   2   3
ENDBRANCH   1   2
BRANCH   1  29
ATOM     29  C   UNL A   1      33.800  28.517  27.248  1.00  0.00     0.118 C 
BRANCH  29  30
ATOM     30  N   UNL A   1      33.716  29.908  27.666  1.00  0.00    -0.352 N 
ATOM     31  C   UNL A   1      34.627  30.684  28.338  1.00  0.00     0.251 C 
ATOM     32  H   UNL A   1      32.877  30.364  27.428  1.00  0.00     0.163 HD
ATOM     33  O   UNL A   1      34.276  31.766  28.795  1.00  0.00    -0.269 OA
BRANCH  31  34
ATOM     34  C   UNL A   1      36.022  30.227  28.523  1.00  0.00     0.039 A 
ATOM     35  C   UNL A   1      36.395  29.696  29.761  1.00  0.00     0.014 A 
ATOM     36  C   UNL A   1      36.976  30.376  27.512  1.00  0.00     0.014 A 
ATOM     37  C   UNL A   1      37.711  29.275  29.972  1.00  0.00     0.010 A 
ATOM     38  C   UNL A   1      38.271  29.896  27.701  1.00  0.00     0.010 A 
ATOM     39  C   UNL A   1      38.654  29.351  28.936  1.00  0.00    -0.014 A 
BRANCH  39  40
ATOM     40  C   UNL A   1      40.051  28.892  29.128  1.00  0.00     0.031 A 
ATOM     41  C   UNL A   1      41.075  29.823  29.717  1.00  0.00     0.074 A 
ATOM     42  C   UNL A   1      40.411  27.659  28.724  1.00  0.00     0.049 A 
ATOM     43  N   UNL A   1      42.362  29.645  29.876  1.00  0.00    -0.248 NA
ATOM     44  C   UNL A   1      40.590  31.139  30.165  1.00  0.00     0.031 C 
ATOM     45  C   UNL A   1      39.517  26.672  28.116  1.00  0.00     0.029 A 
ATOM     46  N   UNL A   1      41.630  27.029  28.754  1.00  0.00    -0.354 N 
ATOM     47  C   UNL A   1      42.841  30.827  30.429  1.00  0.00     0.074 A 
ATOM     48  C   UNL A   1      41.717  31.732  30.533  1.00  0.00     0.031 C 
ATOM     49  C   UNL A   1      40.213  25.555  27.847  1.00  0.00     0.029 A 
ATOM     50  C   UNL A   1      41.608  25.761  28.227  1.00  0.00     0.049 A 
ATOM     51  H   UNL A   1      42.443  27.447  29.118  1.00  0.00     0.167 HD
ATOM     52  C   UNL A   1      44.099  31.123  30.833  1.00  0.00     0.037 A 
ATOM     53  C   UNL A   1      42.602  24.869  28.061  1.00  0.00     0.037 A 
ATOM     54  C   UNL A   1      45.211  30.213  30.751  1.00  0.00     0.049 A 
ATOM     55  C   UNL A   1      43.993  25.231  28.501  1.00  0.00     0.074 A 
ATOM     56  C   UNL A   1      46.518  30.407  31.161  1.00  0.00     0.029 A 
ATOM     57  N   UNL A   1      45.142  28.932  30.225  1.00  0.00    -0.354 N 
ATOM     58  N   UNL A   1      44.424  26.337  29.056  1.00  0.00    -0.248 NA
ATOM     59  C   UNL A   1      45.037  24.216  28.296  1.00  0.00     0.031 C 
ATOM     60  C   UNL A   1      47.249  29.254  30.858  1.00  0.00     0.029 A 
ATOM     61  C   UNL A   1      46.386  28.327  30.294  1.00  0.00     0.049 A 
ATOM     62  H   UNL A   1      44.331  28.513  29.859  1.00  0.00     0.167 HD
ATOM     63  C   UNL A   1      45.778  26.141  29.295  1.00  0.00     0.074 A 
ATOM     64  C   UNL A   1      46.095  24.806  28.834  1.00  0.00     0.031 C 
ATOM     65  C   UNL A   1      46.678  26.989  29.849  1.00  0.00     0.037 A 
BRANCH  52  66
ATOM     66  C   UNL A   1      44.336  32.486  31.413  1.00  0.00     0.057 A 
ATOM     67  C   UNL A   1      44.202  32.736  32.786  1.00  0.00     0.134 A 
ATOM     68  C   UNL A   1      44.735  33.555  30.599  1.00  0.00     0.134 A 
ATOM     69  F   UNL A   1      43.811  31.758  33.617  1.00  0.00    -0.206 F 
ATOM     70  C   UNL A   1      44.434  34.002  33.325  1.00  0.00     0.040 A 
ATOM     71  C   UNL A   1      44.994  34.819  31.131  1.00  0.00     0.040 A 
ATOM     72  F   UNL A   1      44.887  33.384  29.277  1.00  0.00    -0.206 F 
ATOM     73  C   UNL A   1      44.839  35.047  32.497  1.00  0.00     0.006 A 
ENDBRANCH  52  66
BRANCH  53  74
ATOM     74  C   UNL A   1      42.320  23.537  27.470  1.00  0.00     0.057 A 
ATOM     75  C   UNL A   1      42.052  22.431  28.286  1.00  0.00     0.134 A 
ATOM     76  C   UNL A   1      42.334  23.330  26.087  1.00  0.00     0.134 A 
ATOM     77  F   UNL A   1      42.045  22.564  29.620  1.00  0.00    -0.206 F 
ATOM     78  C   UNL A   1      41.829  21.163  27.748  1.00  0.00     0.040 A 
ATOM     79  C   UNL A   1      42.088  22.072  25.534  1.00  0.00     0.040 A 
ATOM     80  F   UNL A   1      42.577  24.350  25.251  1.00  0.00    -0.206 F 
ATOM     81  C   UNL A   1      41.844  20.981  26.367  1.00  0.00     0.006 A 
ENDBRANCH  53  74
BRANCH  65  82
ATOM     82  C   UNL A   1      48.076  26.480  30.030  1.00  0.00     0.057 A 
ATOM     83  C   UNL A   1      48.479  25.825  31.200  1.00  0.00     0.134 A 
ATOM     84  C   UNL A   1      49.020  26.617  29.005  1.00  0.00     0.134 A 
ATOM     85  F   UNL A   1      47.625  25.675  32.224  1.00  0.00    -0.206 F 
ATOM     86  C   UNL A   1      49.778  25.339  31.352  1.00  0.00     0.040 A 
ATOM     87  C   UNL A   1      50.315  26.115  29.134  1.00  0.00     0.040 A 
ATOM     88  F   UNL A   1      48.695  27.230  27.856  1.00  0.00    -0.206 F 
ATOM     89  C   UNL A   1      50.699  25.479  30.314  1.00  0.00     0.006 A 
ENDBRANCH  65  82
ENDBRANCH  39  40
ENDBRANCH  31  34
ENDBRANCH  29  30
ENDBRANCH   1  29
TORSDOF 15
ENDMDL
MODEL 2
REMARK VINA RESULT:     -11.5      3.193      8.015
REMARK SMILES CCCc1cc(OC(F)(F)F)cc2c1O[C@H](C(F)(F)F)C(C(=O)NCCCNC(=O)c1ccc(-c3c4nc(c(-c5c(F)cccc5F)c5ccc([nH]5)c(-c5c(F)cccc5F)c5nc(c(-c6c(F)cccc6F)c6ccc3[nH]6)C=C5)C=C4)cc1)=C2
REMARK SMILES IDX 26 1 25 2 24 3 22 4 23 5 21 7 4 8 5 9 14 10 6 11 13 12 15 13
REMARK SMILES IDX 12 14 85 15 16 16 3 17 2 18 1 19 7 20 8 21 9 22 10 23 11 24
REMARK SMILES IDX 17 25 18 26 19 27 20 28 27 29 28 30 29 31 30 33 31 34 32 35
REMARK SMILES IDX 84 36 33 37 83 38 34 39 35 40 36 41 77 42 37 43 82 44 76 45
REMARK SMILES IDX 78 46 38 47 81 48 75 49 74 50 39 52 65 53 48 54 64 55 49 56
REMARK SMILES IDX 52 57 63 58 79 59 50 60 51 61 62 63 80 64 53 65 40 66 41 67
REMARK SMILES IDX 46 68 42 69 43 70 45 71 47 72 44 73 66 74 67 75 72 76 68 77
REMARK SMILES IDX 69 78 71 79 73 80 70 81 54 82 55 83 60 84 56 85 57 86 59 87
REMARK SMILES IDX 61 88 58 89
REMARK H PARENT 24 6 28 32 78 51 52 62
REMARK Flexibility Score: inf
ROOT
ATOM      1  C   UNL A   1      36.138  23.344  24.262  1.00  0.00     0.042 C 
ENDROOT
BRANCH   1   2
ATOM      2  C   UNL A   1      34.653  23.005  24.131  1.00  0.00     0.118 C 
BRANCH   2   3
ATOM      3  N   UNL A   1      34.205  23.110  22.754  1.00  0.00    -0.352 N 
ATOM      4  C   UNL A   1      33.468  24.038  22.093  1.00  0.00     0.251 C 
ATOM      5  O   UNL A   1      33.339  23.891  20.878  1.00  0.00    -0.270 OA
ATOM      6  H   UNL A   1      34.494  22.359  22.187  1.00  0.00     0.163 HD
BRANCH   4   7
ATOM      7  C   UNL A   1      32.908  25.257  22.740  1.00  0.00     0.067 C 
ATOM      8  C   UNL A   1      31.004  28.866  23.771  1.00  0.00    -0.002 A 
ATOM      9  C   UNL A   1      31.637  29.708  24.705  1.00  0.00     0.054 A 
ATOM     10  C   UNL A   1      31.641  27.661  23.425  1.00  0.00     0.131 A 
ATOM     11  C   UNL A   1      32.898  29.400  25.223  1.00  0.00     0.130 A 
ATOM     12  C   UNL A   1      32.889  27.328  23.962  1.00  0.00     0.021 A 
ATOM     13  O   UNL A   1      31.025  26.854  22.500  1.00  0.00    -0.475 OA
ATOM     14  C   UNL A   1      33.513  28.204  24.853  1.00  0.00     0.058 A 
ATOM     15  C   UNL A   1      33.576  26.122  23.515  1.00  0.00     0.025 C 
ATOM     16  C   UNL A   1      31.419  25.452  22.506  1.00  0.00     0.314 C 
BRANCH   8  17
ATOM     17  C   UNL A   1      29.649  29.190  23.167  1.00  0.00     0.039 C 
BRANCH  17  18
ATOM     18  C   UNL A   1      29.197  30.656  23.126  1.00  0.00     0.001 C 
ATOM     19  C   UNL A   1      27.720  30.845  23.446  1.00  0.00     0.004 C 
ENDBRANCH  17  18
ENDBRANCH   8  17
BRANCH  11  20
ATOM     20  O   UNL A   1      33.633  30.170  26.079  1.00  0.00    -0.406 OA
BRANCH  20  21
ATOM     21  C   UNL A   1      33.508  29.916  27.469  1.00  0.00     0.573 C 
ATOM     22  F   UNL A   1      33.530  31.061  28.183  1.00  0.00    -0.132 F 
ATOM     23  F   UNL A   1      32.370  29.240  27.734  1.00  0.00    -0.132 F 
ATOM     24  F   UNL A   1      34.552  29.156  27.865  1.00  0.00    -0.132 F 
ENDBRANCH  20  21
ENDBRANCH  11  20
BRANCH  16  25
ATOM     25  C   UNL A   1      30.546  24.663  23.504  1.00  0.00     0.429 C 
ATOM     26  F   UNL A   1      29.351  25.279  23.690  1.00  0.00    -0.167 F 
ATOM     27  F   UNL A   1      30.275  23.403  23.102  1.00  0.00    -0.167 F 
ATOM     28  F   UNL A   1      31.131  24.564  24.723  1.00  0.00    -0.167 F 
ENDBRANCH  16  25
ENDBRANCH   4   7
ENDBRANCH   2   3
ENDBRANCH   1   2
BRANCH   1  29
ATOM     29  C   UNL A   1      36.608  23.446  25.710  1.00  0.00     0.118 C 
BRANCH  29  30
ATOM     30  N   UNL A   1      37.667  22.492  26.003  1.00  0.00    -0.352 N 
ATOM     31  C   UNL A   1      38.959  22.706  26.413  1.00  0.00     0.251 C 
ATOM     32  H   UNL A   1      37.417  21.546  25.892  1.00  0.00     0.163 HD
ATOM     33  O   UNL A   1      39.760  21.779  26.386  1.00  0.00    -0.269 OA
BRANCH  31  34
ATOM     34  C   UNL A   1      39.396  24.042  26.877  1.00  0.00     0.039 A 
ATOM     35  C   UNL A   1      40.014  24.900  25.962  1.00  0.00     0.014 A 
ATOM     36  C   UNL A   1      39.260  24.427  28.213  1.00  0.00     0.014 A 
ATOM     37  C   UNL A   1      40.456  26.159  26.376  1.00  0.00     0.010 A 
ATOM     38  C   UNL A   1      39.641  25.708  28.610  1.00  0.00     0.010 A 
ATOM     39  C   UNL A   1      40.253  26.582  27.698  1.00  0.00    -0.014 A 
BRANCH  39  40
ATOM     40  C   UNL A   1      40.694  27.922  28.156  1.00  0.00     0.031 A 
ATOM     41  C   UNL A   1      42.159  28.259  28.194  1.00  0.00     0.074 A 
ATOM     42  C   UNL A   1      39.783  28.813  28.590  1.00  0.00     0.049 A 
ATOM     43  N   UNL A   1      42.751  29.334  28.650  1.00  0.00    -0.248 NA
ATOM     44  C   UNL A   1      43.085  27.242  27.669  1.00  0.00     0.031 C 
ATOM     45  C   UNL A   1      38.337  28.597  28.627  1.00  0.00     0.029 A 
ATOM     46  N   UNL A   1      39.942  30.080  29.094  1.00  0.00    -0.354 N 
ATOM     47  C   UNL A   1      44.112  29.118  28.479  1.00  0.00     0.074 A 
ATOM     48  C   UNL A   1      44.264  27.790  27.923  1.00  0.00     0.031 C 
ATOM     49  C   UNL A   1      37.739  29.699  29.109  1.00  0.00     0.029 A 
ATOM     50  C   UNL A   1      38.761  30.683  29.452  1.00  0.00     0.049 A 
ATOM     51  H   UNL A   1      40.820  30.515  29.190  1.00  0.00     0.167 HD
ATOM     52  C   UNL A   1      45.142  29.957  28.742  1.00  0.00     0.037 A 
ATOM     53  C   UNL A   1      38.530  31.889  30.001  1.00  0.00     0.037 A 
ATOM     54  C   UNL A   1      44.989  31.286  29.273  1.00  0.00     0.049 A 
ATOM     55  C   UNL A   1      39.694  32.794  30.301  1.00  0.00     0.074 A 
ATOM     56  C   UNL A   1      45.967  32.226  29.546  1.00  0.00     0.029 A 
ATOM     57  N   UNL A   1      43.774  31.864  29.607  1.00  0.00    -0.354 N 
ATOM     58  N   UNL A   1      40.972  32.591  30.100  1.00  0.00    -0.248 NA
ATOM     59  C   UNL A   1      39.380  34.100  30.900  1.00  0.00     0.031 C 
ATOM     60  C   UNL A   1      45.347  33.363  30.072  1.00  0.00     0.029 A 
ATOM     61  C   UNL A   1      43.979  33.146  30.090  1.00  0.00     0.049 A 
ATOM     62  H   UNL A   1      42.896  31.430  29.513  1.00  0.00     0.167 HD
ATOM     63  C   UNL A   1      41.612  33.751  30.516  1.00  0.00     0.074 A 
ATOM     64  C   UNL A   1      40.580  34.658  30.971  1.00  0.00     0.031 C 
ATOM     65  C   UNL A   1      42.936  34.041  30.520  1.00  0.00     0.037 A 
BRANCH  52  66
ATOM     66  C   UNL A   1      46.528  29.464  28.447  1.00  0.00     0.057 A 
ATOM     67  C   UNL A   1      47.284  28.774  29.405  1.00  0.00     0.134 A 
ATOM     68  C   UNL A   1      47.104  29.650  27.183  1.00  0.00     0.134 A 
ATOM     69  F   UNL A   1      46.795  28.575  30.639  1.00  0.00    -0.206 F 
ATOM     70  C   UNL A   1      48.568  28.306  29.124  1.00  0.00     0.040 A 
ATOM     71  C   UNL A   1      48.377  29.164  26.883  1.00  0.00     0.040 A 
ATOM     72  F   UNL A   1      46.433  30.297  26.218  1.00  0.00    -0.206 F 
ATOM     73  C   UNL A   1      49.116  28.495  27.857  1.00  0.00     0.006 A 
ENDBRANCH  52  66
BRANCH  53  74
ATOM     74  C   UNL A   1      37.142  32.327  30.288  1.00  0.00     0.057 A 
ATOM     75  C   UNL A   1      36.516  31.988  31.493  1.00  0.00     0.134 A 
ATOM     76  C   UNL A   1      36.401  33.071  29.363  1.00  0.00     0.134 A 
ATOM     77  F   UNL A   1      37.169  31.260  32.410  1.00  0.00    -0.206 F 
ATOM     78  C   UNL A   1      35.196  32.354  31.760  1.00  0.00     0.040 A 
ATOM     79  C   UNL A   1      35.087  33.465  29.626  1.00  0.00     0.040 A 
ATOM     80  F   UNL A   1      36.946  33.433  28.193  1.00  0.00    -0.206 F 
ATOM     81  C   UNL A   1      34.478  33.098  30.825  1.00  0.00     0.006 A 
ENDBRANCH  53  74
BRANCH  65  82
ATOM     82  C   UNL A   1      43.336  35.409  30.984  1.00  0.00     0.057 A 
ATOM     83  C   UNL A   1      43.564  35.694  32.335  1.00  0.00     0.134 A 
ATOM     84  C   UNL A   1      43.530  36.443  30.059  1.00  0.00     0.134 A 
ATOM     85  F   UNL A   1      43.381  34.750  33.270  1.00  0.00    -0.206 F 
ATOM     86  C   UNL A   1      43.953  36.968  32.755  1.00  0.00     0.040 A 
ATOM     87  C   UNL A   1      43.943  37.714  30.463  1.00  0.00     0.040 A 
ATOM     88  F   UNL A   1      43.335  36.233  28.749  1.00  0.00    -0.206 F 
ATOM     89  C   UNL A   1      44.150  37.980  31.816  1.00  0.00     0.006 A 
ENDBRANCH  65  82
ENDBRANCH  39  40
ENDBRANCH  31  34
ENDBRANCH  29  30
ENDBRANCH   1  29
TORSDOF 15
ENDMDL
MODEL 3
REMARK VINA RESULT:     -11.4      3.181      8.074
REMARK SMILES CCCc1cc(OC(F)(F)F)cc2c1O[C@H](C(F)(F)F)C(C(=O)NCCCNC(=O)c1ccc(-c3c4nc(c(-c5c(F)cccc5F)c5ccc([nH]5)c(-c5c(F)cccc5F)c5nc(c(-c6c(F)cccc6F)c6ccc3[nH]6)C=C5)C=C4)cc1)=C2
REMARK SMILES IDX 26 1 25 2 24 3 22 4 23 5 21 7 4 8 5 9 14 10 6 11 13 12 15 13
REMARK SMILES IDX 12 14 85 15 16 16 3 17 2 18 1 19 7 20 8 21 9 22 10 23 11 24
REMARK SMILES IDX 17 25 18 26 19 27 20 28 27 29 28 30 29 31 30 33 31 34 32 35
REMARK SMILES IDX 84 36 33 37 83 38 34 39 35 40 36 41 77 42 37 43 82 44 76 45
REMARK SMILES IDX 78 46 38 47 81 48 75 49 74 50 39 52 65 53 48 54 64 55 49 56
REMARK SMILES IDX 52 57 63 58 79 59 50 60 51 61 62 63 80 64 53 65 40 66 41 67
REMARK SMILES IDX 46 68 42 69 43 70 45 71 47 72 44 73 66 74 67 75 72 76 68 77
REMARK SMILES IDX 69 78 71 79 73 80 70 81 54 82 55 83 60 84 56 85 57 86 59 87
REMARK SMILES IDX 61 88 58 89
REMARK H PARENT 24 6 28 32 78 51 52 62
REMARK Flexibility Score: inf
ROOT
ATOM      1  C   UNL A   1      35.868  23.438  26.200  1.00  0.00     0.042 C 
ENDROOT
BRANCH   1   2
ATOM      2  C   UNL A   1      34.852  22.467  25.596  1.00  0.00     0.118 C 
BRANCH   2   3
ATOM      3  N   UNL A   1      34.858  22.529  24.146  1.00  0.00    -0.352 N 
ATOM      4  C   UNL A   1      34.311  23.398  23.259  1.00  0.00     0.251 C 
ATOM      5  O   UNL A   1      34.582  23.231  22.070  1.00  0.00    -0.270 OA
ATOM      6  H   UNL A   1      35.358  21.795  23.722  1.00  0.00     0.163 HD
BRANCH   4   7
ATOM      7  C   UNL A   1      33.499  24.580  23.659  1.00  0.00     0.067 C 
ATOM      8  C   UNL A   1      30.813  27.800  24.017  1.00  0.00    -0.002 A 
ATOM      9  C   UNL A   1      31.263  28.974  24.651  1.00  0.00     0.054 A 
ATOM     10  C   UNL A   1      31.711  26.725  23.896  1.00  0.00     0.131 A 
ATOM     11  C   UNL A   1      32.585  29.104  25.084  1.00  0.00     0.130 A 
ATOM     12  C   UNL A   1      33.028  26.834  24.355  1.00  0.00     0.021 A 
ATOM     13  O   UNL A   1      31.269  25.591  23.260  1.00  0.00    -0.475 OA
ATOM     14  C   UNL A   1      33.459  28.026  24.940  1.00  0.00     0.058 A 
ATOM     15  C   UNL A   1      33.969  25.743  24.130  1.00  0.00     0.025 C 
ATOM     16  C   UNL A   1      31.999  24.365  23.552  1.00  0.00     0.314 C 
BRANCH   8  17
ATOM     17  C   UNL A   1      29.391  27.642  23.507  1.00  0.00     0.039 C 
BRANCH  17  18
ATOM     18  C   UNL A   1      28.732  28.831  22.794  1.00  0.00     0.001 C 
ATOM     19  C   UNL A   1      27.252  28.987  23.118  1.00  0.00     0.004 C 
ENDBRANCH  17  18
ENDBRANCH   8  17
BRANCH  11  20
ATOM     20  O   UNL A   1      33.148  30.213  25.649  1.00  0.00    -0.406 OA
BRANCH  20  21
ATOM     21  C   UNL A   1      32.887  30.461  27.021  1.00  0.00     0.573 C 
ATOM     22  F   UNL A   1      32.229  31.627  27.195  1.00  0.00    -0.132 F 
ATOM     23  F   UNL A   1      32.173  29.452  27.565  1.00  0.00    -0.132 F 
ATOM     24  F   UNL A   1      34.065  30.544  27.676  1.00  0.00    -0.132 F 
ENDBRANCH  20  21
ENDBRANCH  11  20
BRANCH  16  25
ATOM     25  C   UNL A   1      31.400  23.678  24.797  1.00  0.00     0.429 C 
ATOM     26  F   UNL A   1      31.434  22.327  24.666  1.00  0.00    -0.167 F 
ATOM     27  F   UNL A   1      32.053  23.973  25.941  1.00  0.00    -0.167 F 
ATOM     28  F   UNL A   1      30.102  24.021  24.992  1.00  0.00    -0.167 F 
ENDBRANCH  16  25
ENDBRANCH   4   7
ENDBRANCH   2   3
ENDBRANCH   1   2
BRANCH   1  29
ATOM     29  C   UNL A   1      37.046  23.730  25.277  1.00  0.00     0.118 C 
BRANCH  29  30
ATOM     30  N   UNL A   1      38.145  22.801  25.492  1.00  0.00    -0.352 N 
ATOM     31  C   UNL A   1      39.372  23.005  26.073  1.00  0.00     0.251 C 
ATOM     32  H   UNL A   1      37.984  21.885  25.172  1.00  0.00     0.163 HD
ATOM     33  O   UNL A   1      40.244  22.152  25.954  1.00  0.00    -0.269 OA
BRANCH  31  34
ATOM     34  C   UNL A   1      39.654  24.243  26.834  1.00  0.00     0.039 A 
ATOM     35  C   UNL A   1      40.419  25.243  26.225  1.00  0.00     0.014 A 
ATOM     36  C   UNL A   1      39.228  24.397  28.156  1.00  0.00     0.014 A 
ATOM     37  C   UNL A   1      40.719  26.414  26.926  1.00  0.00     0.010 A 
ATOM     38  C   UNL A   1      39.472  25.591  28.831  1.00  0.00     0.010 A 
ATOM     39  C   UNL A   1      40.229  26.607  28.227  1.00  0.00    -0.014 A 
BRANCH  39  40
ATOM     40  C   UNL A   1      40.517  27.850  28.983  1.00  0.00     0.031 A 
ATOM     41  C   UNL A   1      41.822  28.000  29.715  1.00  0.00     0.074 A 
ATOM     42  C   UNL A   1      39.584  28.818  29.058  1.00  0.00     0.049 A 
ATOM     43  N   UNL A   1      42.222  28.963  30.507  1.00  0.00    -0.248 NA
ATOM     44  C   UNL A   1      42.799  26.911  29.553  1.00  0.00     0.031 C 
ATOM     45  C   UNL A   1      38.271  28.781  28.413  1.00  0.00     0.029 A 
ATOM     46  N   UNL A   1      39.596  30.021  29.718  1.00  0.00    -0.354 N 
ATOM     47  C   UNL A   1      43.486  28.590  30.946  1.00  0.00     0.074 A 
ATOM     48  C   UNL A   1      43.769  27.292  30.372  1.00  0.00     0.031 C 
ATOM     49  C   UNL A   1      37.610  29.916  28.695  1.00  0.00     0.029 A 
ATOM     50  C   UNL A   1      38.436  30.742  29.571  1.00  0.00     0.049 A 
ATOM     51  H   UNL A   1      40.362  30.337  30.249  1.00  0.00     0.167 HD
ATOM     52  C   UNL A   1      44.343  29.277  31.739  1.00  0.00     0.037 A 
ATOM     53  C   UNL A   1      38.076  31.930  30.090  1.00  0.00     0.037 A 
ATOM     54  C   UNL A   1      44.071  30.578  32.290  1.00  0.00     0.049 A 
ATOM     55  C   UNL A   1      39.040  32.663  30.982  1.00  0.00     0.074 A 
ATOM     56  C   UNL A   1      44.886  31.370  33.079  1.00  0.00     0.029 A 
ATOM     57  N   UNL A   1      42.890  31.280  32.103  1.00  0.00    -0.354 N 
ATOM     58  N   UNL A   1      40.246  32.316  31.358  1.00  0.00    -0.248 NA
ATOM     59  C   UNL A   1      38.592  33.957  31.519  1.00  0.00     0.031 C 
ATOM     60  C   UNL A   1      44.188  32.540  33.394  1.00  0.00     0.029 A 
ATOM     61  C   UNL A   1      42.953  32.493  32.768  1.00  0.00     0.049 A 
ATOM     62  H   UNL A   1      42.122  30.965  31.575  1.00  0.00     0.167 HD
ATOM     63  C   UNL A   1      40.714  33.359  32.147  1.00  0.00     0.074 A 
ATOM     64  C   UNL A   1      39.665  34.356  32.187  1.00  0.00     0.031 C 
ATOM     65  C   UNL A   1      41.906  33.482  32.780  1.00  0.00     0.037 A 
BRANCH  52  66
ATOM     66  C   UNL A   1      45.665  28.636  32.047  1.00  0.00     0.057 A 
ATOM     67  C   UNL A   1      45.836  27.802  33.160  1.00  0.00     0.134 A 
ATOM     68  C   UNL A   1      46.769  28.824  31.206  1.00  0.00     0.134 A 
ATOM     69  F   UNL A   1      44.821  27.591  34.012  1.00  0.00    -0.206 F 
ATOM     70  C   UNL A   1      47.063  27.197  33.438  1.00  0.00     0.040 A 
ATOM     71  C   UNL A   1      47.994  28.204  31.459  1.00  0.00     0.040 A 
ATOM     72  F   UNL A   1      46.672  29.606  30.119  1.00  0.00    -0.206 F 
ATOM     73  C   UNL A   1      48.144  27.392  32.582  1.00  0.00     0.006 A 
ENDBRANCH  52  66
BRANCH  53  74
ATOM     74  C   UNL A   1      36.752  32.518  29.767  1.00  0.00     0.057 A 
ATOM     75  C   UNL A   1      35.615  32.176  30.508  1.00  0.00     0.134 A 
ATOM     76  C   UNL A   1      36.585  33.412  28.704  1.00  0.00     0.134 A 
ATOM     77  F   UNL A   1      35.709  31.309  31.526  1.00  0.00    -0.206 F 
ATOM     78  C   UNL A   1      34.355  32.685  30.189  1.00  0.00     0.040 A 
ATOM     79  C   UNL A   1      35.335  33.948  28.389  1.00  0.00     0.040 A 
ATOM     80  F   UNL A   1      37.637  33.784  27.960  1.00  0.00    -0.206 F 
ATOM     81  C   UNL A   1      34.213  33.577  29.129  1.00  0.00     0.006 A 
ENDBRANCH  53  74
BRANCH  65  82
ATOM     82  C   UNL A   1      42.156  34.757  33.526  1.00  0.00     0.057 A 
ATOM     83  C   UNL A   1      41.742  34.932  34.851  1.00  0.00     0.134 A 
ATOM     84  C   UNL A   1      42.855  35.809  32.919  1.00  0.00     0.134 A 
ATOM     85  F   UNL A   1      41.056  33.968  35.483  1.00  0.00    -0.206 F 
ATOM     86  C   UNL A   1      41.996  36.118  35.543  1.00  0.00     0.040 A 
ATOM     87  C   UNL A   1      43.137  36.990  33.607  1.00  0.00     0.040 A 
ATOM     88  F   UNL A   1      43.286  35.701  31.653  1.00  0.00    -0.206 F 
ATOM     89  C   UNL A   1      42.701  37.149  34.922  1.00  0.00     0.006 A 
ENDBRANCH  65  82
ENDBRANCH  39  40
ENDBRANCH  31  34
ENDBRANCH  29  30
ENDBRANCH   1  29
TORSDOF 15
ENDMDL
