MODEL 1
REMARK VINA RESULT:     -11.0      0.000      0.000
REMARK SMILES C=CCCCn1cc(C(=O)NCCCNC(=O)c2ccc(-c3c4nc(c(-c5c(F)cccc5F)c5ccc([nH]5)c(-c5c(F)cccc5F)c5nc(c(-c6c(F)cccc6F)c6ccc3[nH]6)C=C5)C=C4)cc2)cc1Br
REMARK SMILES IDX 12 1 11 2 9 3 10 4 8 6 6 7 7 8 73 9 72 10 74 11 5 12 4 13
REMARK SMILES IDX 3 14 2 15 1 16 13 17 14 18 15 19 16 20 17 22 18 23 19 24
REMARK SMILES IDX 71 25 20 26 70 27 21 28 22 29 23 30 64 31 24 32 69 33 63 34
REMARK SMILES IDX 65 35 25 36 68 37 62 38 61 39 26 41 52 42 35 43 51 44 36 45
REMARK SMILES IDX 39 46 50 47 66 48 37 49 38 50 49 52 67 53 40 54 27 55 28 56
REMARK SMILES IDX 33 57 29 58 30 59 32 60 34 61 31 62 53 63 54 64 59 65 55 66
REMARK SMILES IDX 56 67 58 68 60 69 57 70 41 71 42 72 47 73 43 74 44 75 46 76
REMARK SMILES IDX 48 77 45 78
REMARK H PARENT 11 5 15 21 65 40 39 51
REMARK Flexibility Score: inf
ROOT
ATOM      1  C   UNL A   1      36.551  20.518  24.970  1.00  0.00     0.118 C 
ENDROOT
BRANCH   1   2
ATOM      2  N   UNL A   1      35.248  19.886  25.107  1.00  0.00    -0.352 N 
ATOM      3  C   UNL A   1      33.980  20.396  24.947  1.00  0.00     0.252 C 
ATOM      4  O   UNL A   1      33.039  19.605  24.959  1.00  0.00    -0.269 OA
ATOM      5  H   UNL A   1      35.279  18.933  25.356  1.00  0.00     0.163 HD
BRANCH   3   6
ATOM      6  C   UNL A   1      33.773  21.822  24.703  1.00  0.00     0.058 A 
ATOM      7  N   UNL A   1      33.834  24.058  24.866  1.00  0.00    -0.342 N 
ATOM      8  C   UNL A   1      33.899  22.886  25.580  1.00  0.00     0.100 A 
ATOM      9  C   UNL A   1      33.355  23.769  23.618  1.00  0.00     0.085 A 
ATOM     10  C   UNL A   1      33.324  22.401  23.476  1.00  0.00     0.049 A 
ATOM     11  Br  UNL A   1      32.851  24.981  22.290  1.00  0.00    -0.031 Br
BRANCH   7  12
ATOM     12  C   UNL A   1      34.223  25.370  25.361  1.00  0.00     0.123 C 
BRANCH  12  13
ATOM     13  C   UNL A   1      33.127  26.182  26.074  1.00  0.00     0.026 C 
BRANCH  13  14
ATOM     14  C   UNL A   1      31.764  25.493  26.217  1.00  0.00     0.028 C 
BRANCH  14  15
ATOM     15  C   UNL A   1      30.629  26.212  25.553  1.00  0.00    -0.035 C 
ATOM     16  C   UNL A   1      30.790  27.264  24.740  1.00  0.00     0.004 C 
ENDBRANCH  14  15
ENDBRANCH  13  14
ENDBRANCH  12  13
ENDBRANCH   7  12
ENDBRANCH   3   6
ENDBRANCH   1   2
BRANCH   1  17
ATOM     17  C   UNL A   1      37.703  19.505  24.969  1.00  0.00     0.042 C 
BRANCH  17  18
ATOM     18  C   UNL A   1      38.964  20.095  25.572  1.00  0.00     0.118 C 
BRANCH  18  19
ATOM     19  N   UNL A   1      40.021  19.092  25.784  1.00  0.00    -0.352 N 
ATOM     20  C   UNL A   1      41.378  19.281  26.030  1.00  0.00     0.251 C 
ATOM     21  H   UNL A   1      39.726  18.154  25.746  1.00  0.00     0.163 HD
ATOM     22  O   UNL A   1      42.180  18.381  25.871  1.00  0.00    -0.269 OA
BRANCH  20  23
ATOM     23  C   UNL A   1      41.815  20.603  26.511  1.00  0.00     0.039 A 
ATOM     24  C   UNL A   1      42.493  21.538  25.721  1.00  0.00     0.014 A 
ATOM     25  C   UNL A   1      41.464  20.908  27.814  1.00  0.00     0.014 A 
ATOM     26  C   UNL A   1      42.769  22.791  26.269  1.00  0.00     0.010 A 
ATOM     27  C   UNL A   1      41.410  22.207  28.193  1.00  0.00     0.010 A 
ATOM     28  C   UNL A   1      42.220  23.102  27.519  1.00  0.00    -0.014 A 
BRANCH  28  29
ATOM     29  C   UNL A   1      42.414  24.355  28.224  1.00  0.00     0.031 A 
ATOM     30  C   UNL A   1      41.308  25.322  28.043  1.00  0.00     0.074 A 
ATOM     31  C   UNL A   1      43.320  24.432  29.228  1.00  0.00     0.049 A 
ATOM     32  N   UNL A   1      41.332  26.439  27.397  1.00  0.00    -0.248 NA
ATOM     33  C   UNL A   1      39.959  24.912  28.473  1.00  0.00     0.031 C 
ATOM     34  C   UNL A   1      44.210  23.375  29.741  1.00  0.00     0.029 A 
ATOM     35  N   UNL A   1      43.553  25.451  30.097  1.00  0.00    -0.354 N 
ATOM     36  C   UNL A   1      40.060  26.984  27.553  1.00  0.00     0.074 A 
ATOM     37  C   UNL A   1      39.216  25.900  27.970  1.00  0.00     0.031 C 
ATOM     38  C   UNL A   1      44.716  23.738  30.941  1.00  0.00     0.029 A 
ATOM     39  C   UNL A   1      44.327  25.109  31.205  1.00  0.00     0.049 A 
ATOM     40  H   UNL A   1      43.203  26.360  29.955  1.00  0.00     0.167 HD
ATOM     41  C   UNL A   1      39.884  28.334  27.629  1.00  0.00     0.037 A 
ATOM     42  C   UNL A   1      44.605  25.902  32.269  1.00  0.00     0.037 A 
ATOM     43  C   UNL A   1      41.093  29.018  27.231  1.00  0.00     0.049 A 
ATOM     44  C   UNL A   1      44.306  27.296  31.857  1.00  0.00     0.074 A 
ATOM     45  C   UNL A   1      41.845  29.095  26.077  1.00  0.00     0.029 A 
ATOM     46  N   UNL A   1      41.908  29.457  28.247  1.00  0.00    -0.354 N 
ATOM     47  N   UNL A   1      44.986  27.940  30.949  1.00  0.00    -0.248 NA
ATOM     48  C   UNL A   1      42.963  27.798  32.099  1.00  0.00     0.031 C 
ATOM     49  C   UNL A   1      43.201  29.152  26.520  1.00  0.00     0.029 A 
ATOM     50  C   UNL A   1      43.207  29.181  27.915  1.00  0.00     0.049 A 
ATOM     51  H   UNL A   1      41.608  29.897  29.075  1.00  0.00     0.167 HD
ATOM     52  C   UNL A   1      44.033  28.628  30.210  1.00  0.00     0.074 A 
ATOM     53  C   UNL A   1      42.820  28.581  31.026  1.00  0.00     0.031 C 
ATOM     54  C   UNL A   1      44.241  28.897  28.887  1.00  0.00     0.037 A 
BRANCH  41  55
ATOM     55  C   UNL A   1      38.825  29.035  28.461  1.00  0.00     0.057 A 
ATOM     56  C   UNL A   1      38.788  28.776  29.845  1.00  0.00     0.134 A 
ATOM     57  C   UNL A   1      37.685  29.696  27.957  1.00  0.00     0.134 A 
ATOM     58  F   UNL A   1      39.819  28.180  30.463  1.00  0.00    -0.206 F 
ATOM     59  C   UNL A   1      37.659  29.033  30.633  1.00  0.00     0.040 A 
ATOM     60  C   UNL A   1      36.572  30.001  28.747  1.00  0.00     0.040 A 
ATOM     61  F   UNL A   1      37.529  30.008  26.667  1.00  0.00    -0.206 F 
ATOM     62  C   UNL A   1      36.538  29.631  30.079  1.00  0.00     0.006 A 
ENDBRANCH  41  55
BRANCH  42  63
ATOM     63  C   UNL A   1      44.835  25.524  33.681  1.00  0.00     0.057 A 
ATOM     64  C   UNL A   1      43.775  25.249  34.556  1.00  0.00     0.134 A 
ATOM     65  C   UNL A   1      46.116  25.157  34.129  1.00  0.00     0.134 A 
ATOM     66  F   UNL A   1      42.512  25.523  34.199  1.00  0.00    -0.206 F 
ATOM     67  C   UNL A   1      43.975  24.634  35.800  1.00  0.00     0.040 A 
ATOM     68  C   UNL A   1      46.331  24.543  35.367  1.00  0.00     0.040 A 
ATOM     69  F   UNL A   1      47.188  25.305  33.336  1.00  0.00    -0.206 F 
ATOM     70  C   UNL A   1      45.257  24.268  36.204  1.00  0.00     0.006 A 
ENDBRANCH  42  63
BRANCH  54  71
ATOM     71  C   UNL A   1      45.628  28.666  28.347  1.00  0.00     0.057 A 
ATOM     72  C   UNL A   1      46.041  27.486  27.708  1.00  0.00     0.134 A 
ATOM     73  C   UNL A   1      46.533  29.730  28.346  1.00  0.00     0.134 A 
ATOM     74  F   UNL A   1      45.214  26.446  27.571  1.00  0.00    -0.206 F 
ATOM     75  C   UNL A   1      47.311  27.356  27.136  1.00  0.00     0.040 A 
ATOM     76  C   UNL A   1      47.792  29.627  27.749  1.00  0.00     0.040 A 
ATOM     77  F   UNL A   1      46.187  30.909  28.884  1.00  0.00    -0.206 F 
ATOM     78  C   UNL A   1      48.189  28.433  27.150  1.00  0.00     0.006 A 
ENDBRANCH  54  71
ENDBRANCH  28  29
ENDBRANCH  20  23
ENDBRANCH  18  19
ENDBRANCH  17  18
ENDBRANCH   1  17
TORSDOF 14
ENDMDL
MODEL 2
REMARK VINA RESULT:     -10.7      1.391      2.371
REMARK SMILES C=CCCCn1cc(C(=O)NCCCNC(=O)c2ccc(-c3c4nc(c(-c5c(F)cccc5F)c5ccc([nH]5)c(-c5c(F)cccc5F)c5nc(c(-c6c(F)cccc6F)c6ccc3[nH]6)C=C5)C=C4)cc2)cc1Br
REMARK SMILES IDX 12 1 11 2 9 3 10 4 8 6 6 7 7 8 73 9 72 10 74 11 5 12 4 13
REMARK SMILES IDX 3 14 2 15 1 16 13 17 14 18 15 19 16 20 17 22 18 23 19 24
REMARK SMILES IDX 71 25 20 26 70 27 21 28 22 29 23 30 64 31 24 32 69 33 63 34
REMARK SMILES IDX 65 35 25 36 68 37 62 38 61 39 26 41 52 42 35 43 51 44 36 45
REMARK SMILES IDX 39 46 50 47 66 48 37 49 38 50 49 52 67 53 40 54 27 55 28 56
REMARK SMILES IDX 33 57 29 58 30 59 32 60 34 61 31 62 53 63 54 64 59 65 55 66
REMARK SMILES IDX 56 67 58 68 60 69 57 70 41 71 42 72 47 73 43 74 44 75 46 76
REMARK SMILES IDX 48 77 45 78
REMARK H PARENT 11 5 15 21 65 40 39 51
REMARK Flexibility Score: inf
ROOT
ATOM      1  C   UNL A   1      36.718  20.564  25.008  1.00  0.00     0.118 C 
ENDROOT
BRANCH   1   2
ATOM      2  N   UNL A   1      37.156  21.896  25.398  1.00  0.00    -0.352 N 
ATOM      3  C   UNL A   1      36.438  23.050  25.615  1.00  0.00     0.252 C 
ATOM      4  O   UNL A   1      37.032  24.010  26.103  1.00  0.00    -0.269 OA
ATOM      5  H   UNL A   1      38.128  21.986  25.530  1.00  0.00     0.163 HD
BRANCH   3   6
ATOM      6  C   UNL A   1      35.005  23.103  25.336  1.00  0.00     0.058 A 
ATOM      7  N   UNL A   1      32.993  22.837  24.381  1.00  0.00    -0.342 N 
ATOM      8  C   UNL A   1      34.341  22.930  24.134  1.00  0.00     0.100 A 
ATOM      9  C   UNL A   1      32.766  23.262  25.661  1.00  0.00     0.085 A 
ATOM     10  C   UNL A   1      33.982  23.416  26.285  1.00  0.00     0.049 A 
ATOM     11  Br  UNL A   1      31.113  23.563  26.478  1.00  0.00    -0.031 Br
BRANCH   7  12
ATOM     12  C   UNL A   1      31.994  22.355  23.439  1.00  0.00     0.123 C 
BRANCH  12  13
ATOM     13  C   UNL A   1      32.160  20.905  22.952  1.00  0.00     0.026 C 
BRANCH  13  14
ATOM     14  C   UNL A   1      32.237  19.831  24.046  1.00  0.00     0.028 C 
BRANCH  14  15
ATOM     15  C   UNL A   1      33.609  19.276  24.279  1.00  0.00    -0.035 C 
ATOM     16  C   UNL A   1      33.909  17.974  24.181  1.00  0.00     0.004 C 
ENDBRANCH  14  15
ENDBRANCH  13  14
ENDBRANCH  12  13
ENDBRANCH   7  12
ENDBRANCH   3   6
ENDBRANCH   1   2
BRANCH   1  17
ATOM     17  C   UNL A   1      37.865  19.544  24.999  1.00  0.00     0.042 C 
BRANCH  17  18
ATOM     18  C   UNL A   1      39.140  20.136  25.567  1.00  0.00     0.118 C 
BRANCH  18  19
ATOM     19  N   UNL A   1      40.200  19.132  25.762  1.00  0.00    -0.352 N 
ATOM     20  C   UNL A   1      41.554  19.318  26.023  1.00  0.00     0.251 C 
ATOM     21  H   UNL A   1      39.908  18.193  25.699  1.00  0.00     0.163 HD
ATOM     22  O   UNL A   1      42.360  18.425  25.849  1.00  0.00    -0.269 OA
BRANCH  20  23
ATOM     23  C   UNL A   1      41.983  20.630  26.540  1.00  0.00     0.039 A 
ATOM     24  C   UNL A   1      42.742  21.548  25.807  1.00  0.00     0.014 A 
ATOM     25  C   UNL A   1      41.539  20.942  27.812  1.00  0.00     0.014 A 
ATOM     26  C   UNL A   1      43.004  22.795  26.378  1.00  0.00     0.010 A 
ATOM     27  C   UNL A   1      41.485  22.242  28.188  1.00  0.00     0.010 A 
ATOM     28  C   UNL A   1      42.366  23.118  27.582  1.00  0.00    -0.014 A 
BRANCH  28  29
ATOM     29  C   UNL A   1      42.534  24.366  28.303  1.00  0.00     0.031 A 
ATOM     30  C   UNL A   1      41.425  25.326  28.105  1.00  0.00     0.074 A 
ATOM     31  C   UNL A   1      43.415  24.440  29.329  1.00  0.00     0.049 A 
ATOM     32  N   UNL A   1      41.456  26.449  27.469  1.00  0.00    -0.248 NA
ATOM     33  C   UNL A   1      40.069  24.902  28.498  1.00  0.00     0.031 C 
ATOM     34  C   UNL A   1      44.301  23.385  29.853  1.00  0.00     0.029 A 
ATOM     35  N   UNL A   1      43.620  25.452  30.212  1.00  0.00    -0.354 N 
ATOM     36  C   UNL A   1      40.176  26.983  27.600  1.00  0.00     0.074 A 
ATOM     37  C   UNL A   1      39.331  25.889  27.987  1.00  0.00     0.031 C 
ATOM     38  C   UNL A   1      44.775  23.741  31.068  1.00  0.00     0.029 A 
ATOM     39  C   UNL A   1      44.370  25.106  31.335  1.00  0.00     0.049 A 
ATOM     40  H   UNL A   1      43.267  26.361  30.071  1.00  0.00     0.167 HD
ATOM     41  C   UNL A   1      39.988  28.331  27.684  1.00  0.00     0.037 A 
ATOM     42  C   UNL A   1      44.616  25.892  32.413  1.00  0.00     0.037 A 
ATOM     43  C   UNL A   1      41.200  29.027  27.321  1.00  0.00     0.049 A 
ATOM     44  C   UNL A   1      44.317  27.287  32.007  1.00  0.00     0.074 A 
ATOM     45  C   UNL A   1      41.980  29.121  26.186  1.00  0.00     0.029 A 
ATOM     46  N   UNL A   1      41.988  29.464  28.360  1.00  0.00    -0.354 N 
ATOM     47  N   UNL A   1      45.013  27.945  31.121  1.00  0.00    -0.248 NA
ATOM     48  C   UNL A   1      42.964  27.777  32.221  1.00  0.00     0.031 C 
ATOM     49  C   UNL A   1      43.324  29.184  26.661  1.00  0.00     0.029 A 
ATOM     50  C   UNL A   1      43.297  29.201  28.057  1.00  0.00     0.049 A 
ATOM     51  H   UNL A   1      41.665  29.894  29.184  1.00  0.00     0.167 HD
ATOM     52  C   UNL A   1      44.072  28.632  30.366  1.00  0.00     0.074 A 
ATOM     53  C   UNL A   1      42.841  28.568  31.152  1.00  0.00     0.031 C 
ATOM     54  C   UNL A   1      44.309  28.915  29.050  1.00  0.00     0.037 A 
BRANCH  41  55
ATOM     55  C   UNL A   1      38.904  29.017  28.497  1.00  0.00     0.057 A 
ATOM     56  C   UNL A   1      38.827  28.733  29.874  1.00  0.00     0.134 A 
ATOM     57  C   UNL A   1      37.779  29.685  27.971  1.00  0.00     0.134 A 
ATOM     58  F   UNL A   1      39.840  28.127  30.512  1.00  0.00    -0.206 F 
ATOM     59  C   UNL A   1      37.675  28.975  30.633  1.00  0.00     0.040 A 
ATOM     60  C   UNL A   1      36.642  29.975  28.734  1.00  0.00     0.040 A 
ATOM     61  F   UNL A   1      37.660  30.019  26.684  1.00  0.00    -0.206 F 
ATOM     62  C   UNL A   1      36.570  29.582  30.058  1.00  0.00     0.006 A 
ENDBRANCH  41  55
BRANCH  42  63
ATOM     63  C   UNL A   1      44.815  25.502  33.826  1.00  0.00     0.057 A 
ATOM     64  C   UNL A   1      45.803  26.094  34.625  1.00  0.00     0.134 A 
ATOM     65  C   UNL A   1      43.855  24.730  34.503  1.00  0.00     0.134 A 
ATOM     66  F   UNL A   1      46.737  26.885  34.076  1.00  0.00    -0.206 F 
ATOM     67  C   UNL A   1      45.828  25.937  36.019  1.00  0.00     0.040 A 
ATOM     68  C   UNL A   1      43.867  24.564  35.892  1.00  0.00     0.040 A 
ATOM     69  F   UNL A   1      42.823  24.185  33.841  1.00  0.00    -0.206 F 
ATOM     70  C   UNL A   1      44.851  25.179  36.658  1.00  0.00     0.006 A 
ENDBRANCH  42  63
BRANCH  54  71
ATOM     71  C   UNL A   1      45.711  28.699  28.541  1.00  0.00     0.057 A 
ATOM     72  C   UNL A   1      46.151  27.524  27.911  1.00  0.00     0.134 A 
ATOM     73  C   UNL A   1      46.604  29.773  28.561  1.00  0.00     0.134 A 
ATOM     74  F   UNL A   1      45.338  26.476  27.755  1.00  0.00    -0.206 F 
ATOM     75  C   UNL A   1      47.434  27.409  27.368  1.00  0.00     0.040 A 
ATOM     76  C   UNL A   1      47.877  29.684  27.992  1.00  0.00     0.040 A 
ATOM     77  F   UNL A   1      46.233  30.948  29.092  1.00  0.00    -0.206 F 
ATOM     78  C   UNL A   1      48.300  28.495  27.402  1.00  0.00     0.006 A 
ENDBRANCH  54  71
ENDBRANCH  28  29
ENDBRANCH  20  23
ENDBRANCH  18  19
ENDBRANCH  17  18
ENDBRANCH   1  17
TORSDOF 14
ENDMDL
MODEL 3
REMARK VINA RESULT:     -10.5      3.068      7.029
REMARK SMILES C=CCCCn1cc(C(=O)NCCCNC(=O)c2ccc(-c3c4nc(c(-c5c(F)cccc5F)c5ccc([nH]5)c(-c5c(F)cccc5F)c5nc(c(-c6c(F)cccc6F)c6ccc3[nH]6)C=C5)C=C4)cc2)cc1Br
REMARK SMILES IDX 12 1 11 2 9 3 10 4 8 6 6 7 7 8 73 9 72 10 74 11 5 12 4 13
REMARK SMILES IDX 3 14 2 15 1 16 13 17 14 18 15 19 16 20 17 22 18 23 19 24
REMARK SMILES IDX 71 25 20 26 70 27 21 28 22 29 23 30 64 31 24 32 69 33 63 34
REMARK SMILES IDX 65 35 25 36 68 37 62 38 61 39 26 41 52 42 35 43 51 44 36 45
REMARK SMILES IDX 39 46 50 47 66 48 37 49 38 50 49 52 67 53 40 54 27 55 28 56
REMARK SMILES IDX 33 57 29 58 30 59 32 60 34 61 31 62 53 63 54 64 59 65 55 66
REMARK SMILES IDX 56 67 58 68 60 69 57 70 41 71 42 72 47 73 43 74 44 75 46 76
REMARK SMILES IDX 48 77 45 78
REMARK H PARENT 11 5 15 21 65 40 39 51
REMARK Flexibility Score: inf
ROOT
ATOM      1  C   UNL A   1      37.860  22.173  25.752  1.00  0.00     0.118 C 
ENDROOT
BRANCH   1   2
ATOM      2  N   UNL A   1      37.561  22.328  24.337  1.00  0.00    -0.352 N 
ATOM      3  C   UNL A   1      36.459  22.855  23.704  1.00  0.00     0.252 C 
ATOM      4  O   UNL A   1      36.523  23.023  22.488  1.00  0.00    -0.269 OA
ATOM      5  H   UNL A   1      38.266  22.002  23.730  1.00  0.00     0.163 HD
BRANCH   3   6
ATOM      6  C   UNL A   1      35.281  23.260  24.468  1.00  0.00     0.058 A 
ATOM      7  N   UNL A   1      33.701  24.481  25.490  1.00  0.00    -0.342 N 
ATOM      8  C   UNL A   1      35.016  24.467  25.093  1.00  0.00     0.100 A 
ATOM      9  C   UNL A   1      33.222  23.202  25.417  1.00  0.00     0.085 A 
ATOM     10  C   UNL A   1      34.160  22.427  24.775  1.00  0.00     0.049 A 
ATOM     11  Br  UNL A   1      31.575  22.573  26.035  1.00  0.00    -0.031 Br
BRANCH   7  12
ATOM     12  C   UNL A   1      32.957  25.662  25.901  1.00  0.00     0.123 C 
BRANCH  12  13
ATOM     13  C   UNL A   1      33.632  27.020  25.636  1.00  0.00     0.026 C 
BRANCH  13  14
ATOM     14  C   UNL A   1      33.648  28.004  26.814  1.00  0.00     0.028 C 
BRANCH  14  15
ATOM     15  C   UNL A   1      34.798  28.965  26.808  1.00  0.00    -0.035 C 
ATOM     16  C   UNL A   1      35.154  29.703  27.867  1.00  0.00     0.004 C 
ENDBRANCH  14  15
ENDBRANCH  13  14
ENDBRANCH  12  13
ENDBRANCH   7  12
ENDBRANCH   3   6
ENDBRANCH   1   2
BRANCH   1  17
ATOM     17  C   UNL A   1      38.852  23.226  26.265  1.00  0.00     0.042 C 
BRANCH  17  18
ATOM     18  C   UNL A   1      39.969  22.591  27.072  1.00  0.00     0.118 C 
BRANCH  18  19
ATOM     19  N   UNL A   1      41.216  22.443  26.304  1.00  0.00    -0.352 N 
ATOM     20  C   UNL A   1      42.062  23.425  25.798  1.00  0.00     0.251 C 
ATOM     21  H   UNL A   1      41.492  21.515  26.123  1.00  0.00     0.163 HD
ATOM     22  O   UNL A   1      42.872  23.174  24.926  1.00  0.00    -0.269 OA
BRANCH  20  23
ATOM     23  C   UNL A   1      41.963  24.781  26.366  1.00  0.00     0.039 A 
ATOM     24  C   UNL A   1      41.239  25.824  25.777  1.00  0.00     0.014 A 
ATOM     25  C   UNL A   1      42.598  24.965  27.580  1.00  0.00     0.014 A 
ATOM     26  C   UNL A   1      41.148  27.035  26.464  1.00  0.00     0.010 A 
ATOM     27  C   UNL A   1      42.205  25.985  28.380  1.00  0.00     0.010 A 
ATOM     28  C   UNL A   1      41.648  27.094  27.770  1.00  0.00    -0.014 A 
BRANCH  28  29
ATOM     29  C   UNL A   1      41.633  28.275  28.614  1.00  0.00     0.031 A 
ATOM     30  C   UNL A   1      42.743  29.217  28.347  1.00  0.00     0.074 A 
ATOM     31  C   UNL A   1      40.501  28.618  29.276  1.00  0.00     0.049 A 
ATOM     32  N   UNL A   1      43.749  29.489  29.110  1.00  0.00    -0.248 NA
ATOM     33  C   UNL A   1      42.851  29.787  26.993  1.00  0.00     0.031 C 
ATOM     34  C   UNL A   1      39.200  27.925  29.284  1.00  0.00     0.029 A 
ATOM     35  N   UNL A   1      40.234  29.741  29.992  1.00  0.00    -0.354 N 
ATOM     36  C   UNL A   1      44.483  30.453  28.422  1.00  0.00     0.074 A 
ATOM     37  C   UNL A   1      44.043  30.383  27.058  1.00  0.00     0.031 C 
ATOM     38  C   UNL A   1      38.246  28.740  29.785  1.00  0.00     0.029 A 
ATOM     39  C   UNL A   1      38.886  29.940  30.285  1.00  0.00     0.049 A 
ATOM     40  H   UNL A   1      40.937  30.366  30.283  1.00  0.00     0.167 HD
ATOM     41  C   UNL A   1      45.154  31.430  29.095  1.00  0.00     0.037 A 
ATOM     42  C   UNL A   1      38.344  31.032  30.880  1.00  0.00     0.037 A 
ATOM     43  C   UNL A   1      45.219  31.111  30.503  1.00  0.00     0.049 A 
ATOM     44  C   UNL A   1      39.457  31.765  31.532  1.00  0.00     0.074 A 
ATOM     45  C   UNL A   1      45.769  30.093  31.258  1.00  0.00     0.029 A 
ATOM     46  N   UNL A   1      44.296  31.728  31.312  1.00  0.00    -0.354 N 
ATOM     47  N   UNL A   1      40.128  31.299  32.549  1.00  0.00    -0.248 NA
ATOM     48  C   UNL A   1      40.139  32.787  30.754  1.00  0.00     0.031 C 
ATOM     49  C   UNL A   1      44.838  29.872  32.317  1.00  0.00     0.029 A 
ATOM     50  C   UNL A   1      43.809  30.808  32.202  1.00  0.00     0.049 A 
ATOM     51  H   UNL A   1      44.028  32.674  31.261  1.00  0.00     0.167 HD
ATOM     52  C   UNL A   1      41.450  31.634  32.289  1.00  0.00     0.074 A 
ATOM     53  C   UNL A   1      41.381  32.634  31.223  1.00  0.00     0.031 C 
ATOM     54  C   UNL A   1      42.469  30.848  32.747  1.00  0.00     0.037 A 
BRANCH  41  55
ATOM     55  C   UNL A   1      45.361  32.851  28.604  1.00  0.00     0.057 A 
ATOM     56  C   UNL A   1      44.221  33.619  28.295  1.00  0.00     0.134 A 
ATOM     57  C   UNL A   1      46.577  33.396  28.144  1.00  0.00     0.134 A 
ATOM     58  F   UNL A   1      43.000  33.235  28.699  1.00  0.00    -0.206 F 
ATOM     59  C   UNL A   1      44.274  34.760  27.485  1.00  0.00     0.040 A 
ATOM     60  C   UNL A   1      46.646  34.562  27.375  1.00  0.00     0.040 A 
ATOM     61  F   UNL A   1      47.761  32.802  28.323  1.00  0.00    -0.206 F 
ATOM     62  C   UNL A   1      45.489  35.225  27.006  1.00  0.00     0.006 A 
ENDBRANCH  41  55
BRANCH  42  63
ATOM     63  C   UNL A   1      37.003  31.629  30.692  1.00  0.00     0.057 A 
ATOM     64  C   UNL A   1      36.043  31.629  31.712  1.00  0.00     0.134 A 
ATOM     65  C   UNL A   1      36.733  32.459  29.589  1.00  0.00     0.134 A 
ATOM     66  F   UNL A   1      36.233  30.904  32.824  1.00  0.00    -0.206 F 
ATOM     67  C   UNL A   1      34.884  32.418  31.647  1.00  0.00     0.040 A 
ATOM     68  C   UNL A   1      35.582  33.251  29.510  1.00  0.00     0.040 A 
ATOM     69  F   UNL A   1      37.624  32.591  28.595  1.00  0.00    -0.206 F 
ATOM     70  C   UNL A   1      34.657  33.241  30.547  1.00  0.00     0.006 A 
ENDBRANCH  42  63
BRANCH  54  71
ATOM     71  C   UNL A   1      42.119  29.784  33.754  1.00  0.00     0.057 A 
ATOM     72  C   UNL A   1      41.836  28.449  33.426  1.00  0.00     0.134 A 
ATOM     73  C   UNL A   1      42.214  30.090  35.113  1.00  0.00     0.134 A 
ATOM     74  F   UNL A   1      41.820  28.035  32.156  1.00  0.00    -0.206 F 
ATOM     75  C   UNL A   1      41.613  27.475  34.404  1.00  0.00     0.040 A 
ATOM     76  C   UNL A   1      42.026  29.120  36.102  1.00  0.00     0.040 A 
ATOM     77  F   UNL A   1      42.540  31.331  35.504  1.00  0.00    -0.206 F 
ATOM     78  C   UNL A   1      41.715  27.809  35.749  1.00  0.00     0.006 A 
ENDBRANCH  54  71
ENDBRANCH  28  29
ENDBRANCH  20  23
ENDBRANCH  18  19
ENDBRANCH  17  18
ENDBRANCH   1  17
TORSDOF 14
ENDMDL
