MODEL 1
REMARK VINA RESULT:     -11.3      0.000      0.000
REMARK SMILES CC(C)[NH2+][C@]1(C(=O)NCCCNC(=O)c2ccc(-c3c4nc(c(-c5c(F)cccc5F)c5ccc([nH]5)c(-c5c(F)cccc5F)c5nc(c(-c6c(F)cccc6F)c6ccc3[nH]6)C=C5)C=C4)cc2)CCC[C@@H]1CCSc1cnccn1
REMARK SMILES IDX 9 1 8 2 6 3 7 4 5 6 69 7 72 8 70 9 71 10 4 11 2 14 1 15 3 16
REMARK SMILES IDX 73 17 74 18 75 19 76 20 77 21 81 22 78 23 80 24 79 25 10 26
REMARK SMILES IDX 11 27 12 28 13 29 14 31 15 32 16 33 68 34 17 35 67 36 18 37
REMARK SMILES IDX 19 38 20 39 61 40 21 41 66 42 60 43 62 44 22 45 65 46 59 47
REMARK SMILES IDX 58 48 23 50 49 51 32 52 48 53 33 54 36 55 47 56 63 57 34 58
REMARK SMILES IDX 35 59 46 61 64 62 37 63 24 64 25 65 30 66 26 67 27 68 29 69
REMARK SMILES IDX 31 70 28 71 50 72 51 73 56 74 52 75 53 76 55 77 57 78 54 79
REMARK SMILES IDX 38 80 39 81 44 82 40 83 41 84 43 85 45 86 42 87
REMARK H PARENT 8 5 4 12 4 13 12 30 62 49 36 60
REMARK Flexibility Score: inf
ROOT
ATOM      1  C   UNL A   1      31.823  27.261  26.250  1.00  0.00     0.118 C 
ENDROOT
BRANCH   1   2
ATOM      2  N   UNL A   1      31.340  25.965  26.701  1.00  0.00    -0.351 N 
ATOM      3  C   UNL A   1      31.776  24.681  26.594  1.00  0.00     0.281 C 
ATOM      4  O   UNL A   1      31.120  23.873  27.263  1.00  0.00    -0.268 OA
ATOM      5  H   UNL A   1      30.498  26.034  27.204  1.00  0.00     0.163 HD
BRANCH   3   6
ATOM      6  C   UNL A   1      32.941  24.199  25.672  1.00  0.00     0.178 C 
ATOM      7  C   UNL A   1      34.126  25.189  25.650  1.00  0.00     0.079 C 
ATOM      8  C   UNL A   1      33.662  22.965  26.337  1.00  0.00     0.061 C 
ATOM      9  C   UNL A   1      35.411  24.399  25.442  1.00  0.00     0.008 C 
ATOM     10  C   UNL A   1      35.067  22.947  25.718  1.00  0.00     0.011 C 
BRANCH   6  11
ATOM     11  N   UNL A   1      32.559  23.915  24.266  1.00  0.00    -0.331 N 
ATOM     12  H   UNL A   1      33.353  23.441  23.837  1.00  0.00     0.347 HD
ATOM     13  H   UNL A   1      31.691  23.389  24.367  1.00  0.00     0.347 HD
BRANCH  11  14
ATOM     14  C   UNL A   1      32.181  25.000  23.364  1.00  0.00     0.176 C 
ATOM     15  C   UNL A   1      32.941  24.764  22.052  1.00  0.00     0.075 C 
ATOM     16  C   UNL A   1      30.687  25.082  23.052  1.00  0.00     0.075 C 
ENDBRANCH  11  14
ENDBRANCH   6  11
BRANCH   8  17
ATOM     17  C   UNL A   1      32.975  21.583  26.238  1.00  0.00     0.022 C 
BRANCH  17  18
ATOM     18  C   UNL A   1      33.668  20.579  25.298  1.00  0.00     0.077 C 
BRANCH  18  19
ATOM     19  S   UNL A   1      32.607  19.839  24.003  1.00  0.00    -0.105 SA
BRANCH  19  20
ATOM     20  C   UNL A   1      32.839  18.114  24.324  1.00  0.00     0.114 A 
ATOM     21  C   UNL A   1      33.662  17.310  23.544  1.00  0.00     0.146 A 
ATOM     22  N   UNL A   1      32.217  17.619  25.418  1.00  0.00    -0.247 NA
ATOM     23  N   UNL A   1      33.929  16.011  23.842  1.00  0.00    -0.260 NA
ATOM     24  C   UNL A   1      32.475  16.327  25.719  1.00  0.00     0.132 A 
ATOM     25  C   UNL A   1      33.317  15.542  24.951  1.00  0.00     0.131 A 
ENDBRANCH  19  20
ENDBRANCH  18  19
ENDBRANCH  17  18
ENDBRANCH   8  17
ENDBRANCH   3   6
ENDBRANCH   1   2
BRANCH   1  26
ATOM     26  C   UNL A   1      32.220  28.211  27.373  1.00  0.00     0.042 C 
BRANCH  26  27
ATOM     27  C   UNL A   1      33.624  28.786  27.228  1.00  0.00     0.118 C 
BRANCH  27  28
ATOM     28  N   UNL A   1      33.696  30.159  27.706  1.00  0.00    -0.352 N 
ATOM     29  C   UNL A   1      34.679  30.795  28.419  1.00  0.00     0.251 C 
ATOM     30  H   UNL A   1      32.917  30.719  27.481  1.00  0.00     0.163 HD
ATOM     31  O   UNL A   1      34.425  31.869  28.965  1.00  0.00    -0.269 OA
BRANCH  29  32
ATOM     32  C   UNL A   1      36.039  30.222  28.535  1.00  0.00     0.039 A 
ATOM     33  C   UNL A   1      36.439  29.679  29.760  1.00  0.00     0.014 A 
ATOM     34  C   UNL A   1      36.954  30.303  27.481  1.00  0.00     0.014 A 
ATOM     35  C   UNL A   1      37.745  29.207  29.923  1.00  0.00     0.010 A 
ATOM     36  C   UNL A   1      38.231  29.762  27.620  1.00  0.00     0.010 A 
ATOM     37  C   UNL A   1      38.652  29.242  28.852  1.00  0.00    -0.014 A 
BRANCH  37  38
ATOM     38  C   UNL A   1      40.066  28.823  29.028  1.00  0.00     0.031 A 
ATOM     39  C   UNL A   1      41.053  29.769  29.659  1.00  0.00     0.074 A 
ATOM     40  C   UNL A   1      40.476  27.616  28.594  1.00  0.00     0.049 A 
ATOM     41  N   UNL A   1      42.341  29.622  29.848  1.00  0.00    -0.248 NA
ATOM     42  C   UNL A   1      40.528  31.069  30.110  1.00  0.00     0.031 C 
ATOM     43  C   UNL A   1      39.631  26.621  27.931  1.00  0.00     0.029 A 
ATOM     44  N   UNL A   1      41.712  27.023  28.644  1.00  0.00    -0.354 N 
ATOM     45  C   UNL A   1      42.779  30.815  30.410  1.00  0.00     0.074 A 
ATOM     46  C   UNL A   1      41.633  31.693  30.488  1.00  0.00     0.031 C 
ATOM     47  C   UNL A   1      40.370  25.532  27.658  1.00  0.00     0.029 A 
ATOM     48  C   UNL A   1      41.741  25.762  28.102  1.00  0.00     0.049 A 
ATOM     49  H   UNL A   1      42.504  27.462  29.031  1.00  0.00     0.167 HD
ATOM     50  C   UNL A   1      44.018  31.143  30.849  1.00  0.00     0.037 A 
ATOM     51  C   UNL A   1      42.759  24.889  27.983  1.00  0.00     0.037 A 
ATOM     52  C   UNL A   1      45.148  30.255  30.818  1.00  0.00     0.049 A 
ATOM     53  C   UNL A   1      44.116  25.259  28.516  1.00  0.00     0.074 A 
ATOM     54  C   UNL A   1      46.434  30.475  31.282  1.00  0.00     0.029 A 
ATOM     55  N   UNL A   1      45.123  28.967  30.306  1.00  0.00    -0.354 N 
ATOM     56  N   UNL A   1      44.504  26.373  29.087  1.00  0.00    -0.248 NA
ATOM     57  C   UNL A   1      45.173  24.243  28.400  1.00  0.00     0.031 C 
ATOM     58  C   UNL A   1      47.192  29.326  31.031  1.00  0.00     0.029 A 
ATOM     59  C   UNL A   1      46.369  28.379  30.442  1.00  0.00     0.049 A 
ATOM     60  H   UNL A   1      44.335  28.534  29.905  1.00  0.00     0.167 HD
ATOM     61  C   UNL A   1      45.837  26.180  29.428  1.00  0.00     0.074 A 
ATOM     62  C   UNL A   1      46.188  24.840  29.007  1.00  0.00     0.031 C 
ATOM     63  C   UNL A   1      46.693  27.036  30.038  1.00  0.00     0.037 A 
BRANCH  50  64
ATOM     64  C   UNL A   1      44.207  32.522  31.409  1.00  0.00     0.057 A 
ATOM     65  C   UNL A   1      44.024  32.797  32.771  1.00  0.00     0.134 A 
ATOM     66  C   UNL A   1      44.593  33.585  30.582  1.00  0.00     0.134 A 
ATOM     67  F   UNL A   1      43.640  31.826  33.614  1.00  0.00    -0.206 F 
ATOM     68  C   UNL A   1      44.188  34.084  33.285  1.00  0.00     0.040 A 
ATOM     69  C   UNL A   1      44.786  34.871  31.090  1.00  0.00     0.040 A 
ATOM     70  F   UNL A   1      44.790  33.390  29.270  1.00  0.00    -0.206 F 
ATOM     71  C   UNL A   1      44.577  35.124  32.444  1.00  0.00     0.006 A 
ENDBRANCH  50  64
BRANCH  51  72
ATOM     72  C   UNL A   1      42.525  23.555  27.375  1.00  0.00     0.057 A 
ATOM     73  C   UNL A   1      42.677  23.358  25.998  1.00  0.00     0.134 A 
ATOM     74  C   UNL A   1      42.141  22.455  28.149  1.00  0.00     0.134 A 
ATOM     75  F   UNL A   1      43.028  24.381  25.204  1.00  0.00    -0.206 F 
ATOM     76  C   UNL A   1      42.436  22.118  25.406  1.00  0.00     0.040 A 
ATOM     77  C   UNL A   1      41.916  21.203  27.573  1.00  0.00     0.040 A 
ATOM     78  F   UNL A   1      41.985  22.580  29.474  1.00  0.00    -0.206 F 
ATOM     79  C   UNL A   1      42.058  21.034  26.196  1.00  0.00     0.006 A 
ENDBRANCH  51  72
BRANCH  63  80
ATOM     80  C   UNL A   1      48.073  26.531  30.333  1.00  0.00     0.057 A 
ATOM     81  C   UNL A   1      49.125  26.676  29.420  1.00  0.00     0.134 A 
ATOM     82  C   UNL A   1      48.358  25.923  31.562  1.00  0.00     0.134 A 
ATOM     83  F   UNL A   1      48.912  27.240  28.222  1.00  0.00    -0.206 F 
ATOM     84  C   UNL A   1      50.408  26.213  29.711  1.00  0.00     0.040 A 
ATOM     85  C   UNL A   1      49.642  25.475  31.872  1.00  0.00     0.040 A 
ATOM     86  F   UNL A   1      47.395  25.761  32.481  1.00  0.00    -0.206 F 
ATOM     87  C   UNL A   1      50.671  25.615  30.943  1.00  0.00     0.006 A 
ENDBRANCH  63  80
ENDBRANCH  37  38
ENDBRANCH  29  32
ENDBRANCH  27  28
ENDBRANCH  26  27
ENDBRANCH   1  26
TORSDOF 16
ENDMDL
MODEL 2
REMARK VINA RESULT:     -11.0      3.836      8.792
REMARK SMILES CC(C)[NH2+][C@]1(C(=O)NCCCNC(=O)c2ccc(-c3c4nc(c(-c5c(F)cccc5F)c5ccc([nH]5)c(-c5c(F)cccc5F)c5nc(c(-c6c(F)cccc6F)c6ccc3[nH]6)C=C5)C=C4)cc2)CCC[C@@H]1CCSc1cnccn1
REMARK SMILES IDX 9 1 8 2 6 3 7 4 5 6 69 7 72 8 70 9 71 10 4 11 2 14 1 15 3 16
REMARK SMILES IDX 73 17 74 18 75 19 76 20 77 21 81 22 78 23 80 24 79 25 10 26
REMARK SMILES IDX 11 27 12 28 13 29 14 31 15 32 16 33 68 34 17 35 67 36 18 37
REMARK SMILES IDX 19 38 20 39 61 40 21 41 66 42 60 43 62 44 22 45 65 46 59 47
REMARK SMILES IDX 58 48 23 50 49 51 32 52 48 53 33 54 36 55 47 56 63 57 34 58
REMARK SMILES IDX 35 59 46 61 64 62 37 63 24 64 25 65 30 66 26 67 27 68 29 69
REMARK SMILES IDX 31 70 28 71 50 72 51 73 56 74 52 75 53 76 55 77 57 78 54 79
REMARK SMILES IDX 38 80 39 81 44 82 40 83 41 84 43 85 45 86 42 87
REMARK H PARENT 8 5 4 12 4 13 12 30 62 49 36 60
REMARK Flexibility Score: inf
ROOT
ATOM      1  C   UNL A   1      31.570  30.023  26.272  1.00  0.00     0.118 C 
ENDROOT
BRANCH   1   2
ATOM      2  N   UNL A   1      32.697  29.580  25.466  1.00  0.00    -0.351 N 
ATOM      3  C   UNL A   1      32.997  28.457  24.759  1.00  0.00     0.281 C 
ATOM      4  O   UNL A   1      34.030  28.551  24.085  1.00  0.00    -0.268 OA
ATOM      5  H   UNL A   1      33.413  30.253  25.420  1.00  0.00     0.163 HD
BRANCH   3   6
ATOM      6  C   UNL A   1      32.194  27.118  24.812  1.00  0.00     0.178 C 
ATOM      7  C   UNL A   1      31.783  26.732  26.249  1.00  0.00     0.079 C 
ATOM      8  C   UNL A   1      30.761  27.339  24.195  1.00  0.00     0.061 C 
ATOM      9  C   UNL A   1      30.463  25.974  26.186  1.00  0.00     0.008 C 
ATOM     10  C   UNL A   1      29.893  26.229  24.804  1.00  0.00     0.011 C 
BRANCH   6  11
ATOM     11  N   UNL A   1      32.875  25.947  24.203  1.00  0.00    -0.331 N 
ATOM     12  H   UNL A   1      32.220  25.544  23.533  1.00  0.00     0.347 HD
ATOM     13  H   UNL A   1      33.739  26.349  23.840  1.00  0.00     0.347 HD
BRANCH  11  14
ATOM     14  C   UNL A   1      33.351  24.847  25.037  1.00  0.00     0.176 C 
ATOM     15  C   UNL A   1      32.820  23.555  24.403  1.00  0.00     0.075 C 
ATOM     16  C   UNL A   1      34.872  24.743  25.153  1.00  0.00     0.075 C 
ENDBRANCH  11  14
ENDBRANCH   6  11
BRANCH   8  17
ATOM     17  C   UNL A   1      30.632  27.387  22.655  1.00  0.00     0.022 C 
BRANCH  17  18
ATOM     18  C   UNL A   1      30.198  28.748  22.081  1.00  0.00     0.077 C 
BRANCH  18  19
ATOM     19  S   UNL A   1      29.539  29.950  23.294  1.00  0.00    -0.105 SA
BRANCH  19  20
ATOM     20  C   UNL A   1      28.728  31.099  22.221  1.00  0.00     0.114 A 
ATOM     21  C   UNL A   1      28.533  32.434  22.560  1.00  0.00     0.146 A 
ATOM     22  N   UNL A   1      28.355  30.627  21.009  1.00  0.00    -0.247 NA
ATOM     23  N   UNL A   1      28.006  33.348  21.704  1.00  0.00    -0.260 NA
ATOM     24  C   UNL A   1      27.827  31.530  20.153  1.00  0.00     0.132 A 
ATOM     25  C   UNL A   1      27.662  32.862  20.491  1.00  0.00     0.131 A 
ENDBRANCH  19  20
ENDBRANCH  18  19
ENDBRANCH  17  18
ENDBRANCH   8  17
ENDBRANCH   3   6
ENDBRANCH   1   2
BRANCH   1  26
ATOM     26  C   UNL A   1      31.505  31.529  26.488  1.00  0.00     0.042 C 
BRANCH  26  27
ATOM     27  C   UNL A   1      32.749  32.114  27.146  1.00  0.00     0.118 C 
BRANCH  27  28
ATOM     28  N   UNL A   1      32.569  33.518  27.488  1.00  0.00    -0.352 N 
ATOM     29  C   UNL A   1      33.202  34.285  28.431  1.00  0.00     0.251 C 
ATOM     30  H   UNL A   1      31.886  33.990  26.958  1.00  0.00     0.163 HD
ATOM     31  O   UNL A   1      32.711  35.367  28.753  1.00  0.00    -0.269 OA
BRANCH  29  32
ATOM     32  C   UNL A   1      34.467  33.842  29.059  1.00  0.00     0.039 A 
ATOM     33  C   UNL A   1      35.679  34.196  28.458  1.00  0.00     0.014 A 
ATOM     34  C   UNL A   1      34.469  33.002  30.177  1.00  0.00     0.014 A 
ATOM     35  C   UNL A   1      36.886  33.722  28.981  1.00  0.00     0.010 A 
ATOM     36  C   UNL A   1      35.674  32.595  30.744  1.00  0.00     0.010 A 
ATOM     37  C   UNL A   1      36.893  32.919  30.133  1.00  0.00    -0.014 A 
BRANCH  37  38
ATOM     38  C   UNL A   1      38.156  32.339  30.656  1.00  0.00     0.031 A 
ATOM     39  C   UNL A   1      38.710  31.079  30.044  1.00  0.00     0.074 A 
ATOM     40  C   UNL A   1      38.788  32.913  31.697  1.00  0.00     0.049 A 
ATOM     41  N   UNL A   1      39.761  30.379  30.391  1.00  0.00    -0.248 NA
ATOM     42  C   UNL A   1      37.964  30.512  28.908  1.00  0.00     0.031 C 
ATOM     43  C   UNL A   1      38.338  34.112  32.406  1.00  0.00     0.029 A 
ATOM     44  N   UNL A   1      39.946  32.560  32.343  1.00  0.00    -0.354 N 
ATOM     45  C   UNL A   1      39.783  29.282  29.539  1.00  0.00     0.074 A 
ATOM     46  C   UNL A   1      38.617  29.381  28.690  1.00  0.00     0.031 C 
ATOM     47  C   UNL A   1      39.223  34.408  33.373  1.00  0.00     0.029 A 
ATOM     48  C   UNL A   1      40.286  33.407  33.368  1.00  0.00     0.049 A 
ATOM     49  H   UNL A   1      40.481  31.772  32.095  1.00  0.00     0.167 HD
ATOM     50  C   UNL A   1      40.705  28.293  29.450  1.00  0.00     0.037 A 
ATOM     51  C   UNL A   1      41.340  33.381  34.205  1.00  0.00     0.037 A 
ATOM     52  C   UNL A   1      41.891  28.218  30.259  1.00  0.00     0.049 A 
ATOM     53  C   UNL A   1      42.373  32.299  34.060  1.00  0.00     0.074 A 
ATOM     54  C   UNL A   1      42.911  27.284  30.213  1.00  0.00     0.029 A 
ATOM     55  N   UNL A   1      42.223  29.125  31.253  1.00  0.00    -0.354 N 
ATOM     56  N   UNL A   1      42.405  31.294  33.218  1.00  0.00    -0.248 NA
ATOM     57  C   UNL A   1      43.525  32.355  34.972  1.00  0.00     0.031 C 
ATOM     58  C   UNL A   1      43.852  27.614  31.196  1.00  0.00     0.029 A 
ATOM     59  C   UNL A   1      43.433  28.774  31.829  1.00  0.00     0.049 A 
ATOM     60  H   UNL A   1      41.680  29.904  31.512  1.00  0.00     0.167 HD
ATOM     61  C   UNL A   1      43.592  30.620  33.476  1.00  0.00     0.074 A 
ATOM     62  C   UNL A   1      44.255  31.334  34.546  1.00  0.00     0.031 C 
ATOM     63  C   UNL A   1      44.089  29.510  32.878  1.00  0.00     0.037 A 
BRANCH  50  64
ATOM     64  C   UNL A   1      40.465  27.219  28.430  1.00  0.00     0.057 A 
ATOM     65  C   UNL A   1      39.594  26.149  28.676  1.00  0.00     0.134 A 
ATOM     66  C   UNL A   1      41.099  27.262  27.181  1.00  0.00     0.134 A 
ATOM     67  F   UNL A   1      38.968  26.042  29.857  1.00  0.00    -0.206 F 
ATOM     68  C   UNL A   1      39.384  25.146  27.729  1.00  0.00     0.040 A 
ATOM     69  C   UNL A   1      40.876  26.278  26.216  1.00  0.00     0.040 A 
ATOM     70  F   UNL A   1      41.941  28.261  26.879  1.00  0.00    -0.206 F 
ATOM     71  C   UNL A   1      40.023  25.212  26.492  1.00  0.00     0.006 A 
ENDBRANCH  50  64
BRANCH  51  72
ATOM     72  C   UNL A   1      41.500  34.444  35.229  1.00  0.00     0.057 A 
ATOM     73  C   UNL A   1      41.001  34.274  36.525  1.00  0.00     0.134 A 
ATOM     74  C   UNL A   1      42.147  35.650  34.937  1.00  0.00     0.134 A 
ATOM     75  F   UNL A   1      40.357  33.145  36.857  1.00  0.00    -0.206 F 
ATOM     76  C   UNL A   1      41.120  35.274  37.491  1.00  0.00     0.040 A 
ATOM     77  C   UNL A   1      42.291  36.651  35.899  1.00  0.00     0.040 A 
ATOM     78  F   UNL A   1      42.652  35.870  33.715  1.00  0.00    -0.206 F 
ATOM     79  C   UNL A   1      41.771  36.465  37.180  1.00  0.00     0.006 A 
ENDBRANCH  51  72
BRANCH  63  80
ATOM     80  C   UNL A   1      45.435  29.032  33.330  1.00  0.00     0.057 A 
ATOM     81  C   UNL A   1      46.621  29.506  32.755  1.00  0.00     0.134 A 
ATOM     82  C   UNL A   1      45.545  28.112  34.381  1.00  0.00     0.134 A 
ATOM     83  F   UNL A   1      46.580  30.380  31.739  1.00  0.00    -0.206 F 
ATOM     84  C   UNL A   1      47.869  29.064  33.194  1.00  0.00     0.040 A 
ATOM     85  C   UNL A   1      46.788  27.678  34.841  1.00  0.00     0.040 A 
ATOM     86  F   UNL A   1      44.447  27.626  34.978  1.00  0.00    -0.206 F 
ATOM     87  C   UNL A   1      47.955  28.151  34.244  1.00  0.00     0.006 A 
ENDBRANCH  63  80
ENDBRANCH  37  38
ENDBRANCH  29  32
ENDBRANCH  27  28
ENDBRANCH  26  27
ENDBRANCH   1  26
TORSDOF 16
ENDMDL
MODEL 3
REMARK VINA RESULT:     -11.0      3.997      6.443
REMARK SMILES CC(C)[NH2+][C@]1(C(=O)NCCCNC(=O)c2ccc(-c3c4nc(c(-c5c(F)cccc5F)c5ccc([nH]5)c(-c5c(F)cccc5F)c5nc(c(-c6c(F)cccc6F)c6ccc3[nH]6)C=C5)C=C4)cc2)CCC[C@@H]1CCSc1cnccn1
REMARK SMILES IDX 9 1 8 2 6 3 7 4 5 6 69 7 72 8 70 9 71 10 4 11 2 14 1 15 3 16
REMARK SMILES IDX 73 17 74 18 75 19 76 20 77 21 81 22 78 23 80 24 79 25 10 26
REMARK SMILES IDX 11 27 12 28 13 29 14 31 15 32 16 33 68 34 17 35 67 36 18 37
REMARK SMILES IDX 19 38 20 39 61 40 21 41 66 42 60 43 62 44 22 45 65 46 59 47
REMARK SMILES IDX 58 48 23 50 49 51 32 52 48 53 33 54 36 55 47 56 63 57 34 58
REMARK SMILES IDX 35 59 46 61 64 62 37 63 24 64 25 65 30 66 26 67 27 68 29 69
REMARK SMILES IDX 31 70 28 71 50 72 51 73 56 74 52 75 53 76 55 77 57 78 54 79
REMARK SMILES IDX 38 80 39 81 44 82 40 83 41 84 43 85 45 86 42 87
REMARK H PARENT 8 5 4 12 4 13 12 30 62 49 36 60
REMARK Flexibility Score: inf
ROOT
ATOM      1  C   UNL A   1      33.259  28.523  25.343  1.00  0.00     0.118 C 
ENDROOT
BRANCH   1   2
ATOM      2  N   UNL A   1      33.374  27.867  24.050  1.00  0.00    -0.351 N 
ATOM      3  C   UNL A   1      32.831  26.760  23.477  1.00  0.00     0.281 C 
ATOM      4  O   UNL A   1      33.099  26.637  22.275  1.00  0.00    -0.268 OA
ATOM      5  H   UNL A   1      33.993  28.336  23.445  1.00  0.00     0.163 HD
BRANCH   3   6
ATOM      6  C   UNL A   1      32.001  25.671  24.229  1.00  0.00     0.178 C 
ATOM      7  C   UNL A   1      32.631  25.278  25.582  1.00  0.00     0.079 C 
ATOM      8  C   UNL A   1      30.657  26.304  24.755  1.00  0.00     0.061 C 
ATOM      9  C   UNL A   1      31.513  24.892  26.541  1.00  0.00     0.008 C 
ATOM     10  C   UNL A   1      30.226  25.403  25.921  1.00  0.00     0.011 C 
BRANCH   6  11
ATOM     11  N   UNL A   1      31.753  24.423  23.463  1.00  0.00    -0.331 N 
ATOM     12  H   UNL A   1      30.915  23.999  23.858  1.00  0.00     0.347 HD
ATOM     13  H   UNL A   1      31.710  24.753  22.498  1.00  0.00     0.347 HD
BRANCH  11  14
ATOM     14  C   UNL A   1      32.766  23.373  23.405  1.00  0.00     0.176 C 
ATOM     15  C   UNL A   1      32.100  22.092  23.925  1.00  0.00     0.075 C 
ATOM     16  C   UNL A   1      33.324  23.098  22.009  1.00  0.00     0.075 C 
ENDBRANCH  11  14
ENDBRANCH   6  11
BRANCH   8  17
ATOM     17  C   UNL A   1      29.509  26.517  23.742  1.00  0.00     0.022 C 
BRANCH  17  18
ATOM     18  C   UNL A   1      29.281  27.979  23.316  1.00  0.00     0.077 C 
BRANCH  18  19
ATOM     19  S   UNL A   1      27.534  28.497  23.148  1.00  0.00    -0.105 SA
BRANCH  19  20
ATOM     20  C   UNL A   1      27.730  30.140  22.522  1.00  0.00     0.114 A 
ATOM     21  C   UNL A   1      27.656  31.267  23.334  1.00  0.00     0.146 A 
ATOM     22  N   UNL A   1      28.019  30.250  21.204  1.00  0.00    -0.247 NA
ATOM     23  N   UNL A   1      27.908  32.524  22.884  1.00  0.00    -0.260 NA
ATOM     24  C   UNL A   1      28.267  31.497  20.749  1.00  0.00     0.132 A 
ATOM     25  C   UNL A   1      28.218  32.609  21.571  1.00  0.00     0.131 A 
ENDBRANCH  19  20
ENDBRANCH  18  19
ENDBRANCH  17  18
ENDBRANCH   8  17
ENDBRANCH   3   6
ENDBRANCH   1   2
BRANCH   1  26
ATOM     26  C   UNL A   1      32.536  29.863  25.307  1.00  0.00     0.042 C 
BRANCH  26  27
ATOM     27  C   UNL A   1      32.030  30.330  26.667  1.00  0.00     0.118 C 
BRANCH  27  28
ATOM     28  N   UNL A   1      32.050  31.781  26.781  1.00  0.00    -0.352 N 
ATOM     29  C   UNL A   1      32.898  32.600  27.479  1.00  0.00     0.251 C 
ATOM     30  H   UNL A   1      31.343  32.247  26.276  1.00  0.00     0.163 HD
ATOM     31  O   UNL A   1      32.576  33.773  27.674  1.00  0.00    -0.269 OA
BRANCH  29  32
ATOM     32  C   UNL A   1      34.195  32.106  27.994  1.00  0.00     0.039 A 
ATOM     33  C   UNL A   1      34.307  30.761  28.357  1.00  0.00     0.014 A 
ATOM     34  C   UNL A   1      35.268  32.974  28.213  1.00  0.00     0.014 A 
ATOM     35  C   UNL A   1      35.494  30.285  28.925  1.00  0.00     0.010 A 
ATOM     36  C   UNL A   1      36.476  32.484  28.706  1.00  0.00     0.010 A 
ATOM     37  C   UNL A   1      36.590  31.144  29.101  1.00  0.00    -0.014 A 
BRANCH  37  38
ATOM     38  C   UNL A   1      37.829  30.680  29.776  1.00  0.00     0.031 A 
ATOM     39  C   UNL A   1      38.089  31.066  31.209  1.00  0.00     0.074 A 
ATOM     40  C   UNL A   1      38.736  29.946  29.104  1.00  0.00     0.049 A 
ATOM     41  N   UNL A   1      39.132  30.817  31.960  1.00  0.00    -0.248 NA
ATOM     42  C   UNL A   1      37.049  31.866  31.877  1.00  0.00     0.031 C 
ATOM     43  C   UNL A   1      38.626  29.537  27.702  1.00  0.00     0.029 A 
ATOM     44  N   UNL A   1      39.935  29.418  29.511  1.00  0.00    -0.354 N 
ATOM     45  C   UNL A   1      38.886  31.451  33.171  1.00  0.00     0.074 A 
ATOM     46  C   UNL A   1      37.619  32.136  33.041  1.00  0.00     0.031 C 
ATOM     47  C   UNL A   1      39.701  28.801  27.374  1.00  0.00     0.029 A 
ATOM     48  C   UNL A   1      40.586  28.709  28.532  1.00  0.00     0.049 A 
ATOM     49  H   UNL A   1      40.294  29.537  30.420  1.00  0.00     0.167 HD
ATOM     50  C   UNL A   1      39.632  31.444  34.302  1.00  0.00     0.037 A 
ATOM     51  C   UNL A   1      41.762  28.054  28.568  1.00  0.00     0.037 A 
ATOM     52  C   UNL A   1      40.868  30.724  34.451  1.00  0.00     0.049 A 
ATOM     53  C   UNL A   1      42.552  28.024  29.847  1.00  0.00     0.074 A 
ATOM     54  C   UNL A   1      41.675  30.613  35.570  1.00  0.00     0.029 A 
ATOM     55  N   UNL A   1      41.468  29.977  33.449  1.00  0.00    -0.354 N 
ATOM     56  N   UNL A   1      42.284  28.590  30.998  1.00  0.00    -0.248 NA
ATOM     57  C   UNL A   1      43.803  27.251  29.834  1.00  0.00     0.031 C 
ATOM     58  C   UNL A   1      42.776  29.815  35.238  1.00  0.00     0.029 A 
ATOM     59  C   UNL A   1      42.635  29.402  33.923  1.00  0.00     0.049 A 
ATOM     60  H   UNL A   1      41.117  29.870  32.536  1.00  0.00     0.167 HD
ATOM     61  C   UNL A   1      43.311  28.215  31.854  1.00  0.00     0.074 A 
ATOM     62  C   UNL A   1      44.203  27.367  31.092  1.00  0.00     0.031 C 
ATOM     63  C   UNL A   1      43.498  28.542  33.156  1.00  0.00     0.037 A 
BRANCH  50  64
ATOM     64  C   UNL A   1      39.120  32.235  35.470  1.00  0.00     0.057 A 
ATOM     65  C   UNL A   1      38.301  31.657  36.450  1.00  0.00     0.134 A 
ATOM     66  C   UNL A   1      39.462  33.584  35.627  1.00  0.00     0.134 A 
ATOM     67  F   UNL A   1      37.925  30.374  36.350  1.00  0.00    -0.206 F 
ATOM     68  C   UNL A   1      37.816  32.400  37.527  1.00  0.00     0.040 A 
ATOM     69  C   UNL A   1      39.006  34.330  36.716  1.00  0.00     0.040 A 
ATOM     70  F   UNL A   1      40.247  34.197  34.729  1.00  0.00    -0.206 F 
ATOM     71  C   UNL A   1      38.174  33.740  37.665  1.00  0.00     0.006 A 
ENDBRANCH  50  64
BRANCH  51  72
ATOM     72  C   UNL A   1      42.243  27.329  27.366  1.00  0.00     0.057 A 
ATOM     73  C   UNL A   1      41.953  25.972  27.181  1.00  0.00     0.134 A 
ATOM     74  C   UNL A   1      43.005  27.968  26.381  1.00  0.00     0.134 A 
ATOM     75  F   UNL A   1      41.241  25.304  28.101  1.00  0.00    -0.206 F 
ATOM     76  C   UNL A   1      42.420  25.269  26.070  1.00  0.00     0.040 A 
ATOM     77  C   UNL A   1      43.461  27.283  25.254  1.00  0.00     0.040 A 
ATOM     78  F   UNL A   1      43.310  29.268  26.498  1.00  0.00    -0.206 F 
ATOM     79  C   UNL A   1      43.174  25.926  25.100  1.00  0.00     0.006 A 
ENDBRANCH  51  72
BRANCH  63  80
ATOM     80  C   UNL A   1      44.681  27.939  33.851  1.00  0.00     0.057 A 
ATOM     81  C   UNL A   1      44.609  26.696  34.492  1.00  0.00     0.134 A 
ATOM     82  C   UNL A   1      45.917  28.598  33.846  1.00  0.00     0.134 A 
ATOM     83  F   UNL A   1      43.451  26.023  34.540  1.00  0.00    -0.206 F 
ATOM     84  C   UNL A   1      45.721  26.140  35.125  1.00  0.00     0.040 A 
ATOM     85  C   UNL A   1      47.041  28.041  34.458  1.00  0.00     0.040 A 
ATOM     86  F   UNL A   1      46.053  29.788  33.243  1.00  0.00    -0.206 F 
ATOM     87  C   UNL A   1      46.944  26.810  35.104  1.00  0.00     0.006 A 
ENDBRANCH  63  80
ENDBRANCH  37  38
ENDBRANCH  29  32
ENDBRANCH  27  28
ENDBRANCH  26  27
ENDBRANCH   1  26
TORSDOF 16
ENDMDL
