MODEL 1
REMARK VINA RESULT:     -11.0      0.000      0.000
REMARK SMILES CCC[C@@H]1SC[C@@H](C(=O)NCCCNC(=O)c2ccc(-c3c4nc(c(-c5c(F)cccc5F)c5ccc([nH]5)c(-c5c(F)cccc5F)c5nc(c(-c6c(F)cccc6F)c6ccc3[nH]6)C=C5)C=C4)cc2)N1C(=O)C1C(C)(C)C1(C)C
REMARK SMILES IDX 12 1 11 2 10 3 8 4 9 5 7 7 4 8 5 9 71 10 6 11 3 12 2 13 1 14
REMARK SMILES IDX 72 15 73 16 74 17 75 18 78 19 76 20 77 21 79 22 80 23 13 24
REMARK SMILES IDX 14 25 15 26 16 28 17 29 18 30 70 31 19 32 69 33 20 34 21 35
REMARK SMILES IDX 22 36 63 37 23 38 68 39 62 40 64 41 24 42 67 43 61 44 60 45
REMARK SMILES IDX 25 47 51 48 34 49 50 50 35 51 38 52 49 53 65 54 36 55 37 56
REMARK SMILES IDX 48 58 66 59 39 60 26 61 27 62 32 63 28 64 29 65 31 66 33 67
REMARK SMILES IDX 30 68 52 69 53 70 58 71 54 72 55 73 57 74 59 75 56 76 40 77
REMARK SMILES IDX 41 78 46 79 42 80 43 81 45 82 47 83 44 84
REMARK H PARENT 10 6 14 27 64 46 38 57
REMARK Flexibility Score: inf
ROOT
ATOM      1  C   UNL A   1      34.122  28.309  25.897  1.00  0.00     0.042 C 
ENDROOT
BRANCH   1   2
ATOM      2  C   UNL A   1      33.261  27.374  25.059  1.00  0.00     0.117 C 
BRANCH   2   3
ATOM      3  N   UNL A   1      33.753  27.250  23.700  1.00  0.00    -0.354 N 
ATOM      4  C   UNL A   1      33.510  26.352  22.702  1.00  0.00     0.243 C 
ATOM      5  O   UNL A   1      33.881  26.712  21.578  1.00  0.00    -0.273 OA
ATOM      6  H   UNL A   1      34.391  27.956  23.447  1.00  0.00     0.163 HD
BRANCH   4   7
ATOM      7  C   UNL A   1      32.686  25.041  22.871  1.00  0.00     0.185 C 
ATOM      8  C   UNL A   1      32.433  23.849  25.028  1.00  0.00     0.144 C 
ATOM      9  S   UNL A   1      30.722  24.296  24.520  1.00  0.00    -0.134 SA
ATOM     10  N   UNL A   1      33.250  23.991  23.777  1.00  0.00    -0.318 N 
ATOM     11  C   UNL A   1      31.247  25.411  23.216  1.00  0.00     0.107 C 
BRANCH   8  12
ATOM     12  C   UNL A   1      32.301  22.583  25.910  1.00  0.00     0.036 C 
BRANCH  12  13
ATOM     13  C   UNL A   1      32.586  22.720  27.421  1.00  0.00    -0.000 C 
ATOM     14  C   UNL A   1      33.890  22.150  27.934  1.00  0.00     0.004 C 
ENDBRANCH  12  13
ENDBRANCH   8  12
BRANCH  10  15
ATOM     15  C   UNL A   1      34.441  23.412  23.227  1.00  0.00     0.228 C 
ATOM     16  O   UNL A   1      34.433  23.087  22.038  1.00  0.00    -0.274 OA
BRANCH  15  17
ATOM     17  C   UNL A   1      35.789  23.103  23.889  1.00  0.00     0.091 C 
ATOM     18  C   UNL A   1      36.160  23.406  25.336  1.00  0.00    -0.017 C 
ATOM     19  C   UNL A   1      35.988  21.878  24.701  1.00  0.00    -0.017 C 
ATOM     20  C   UNL A   1      37.593  23.640  25.845  1.00  0.00     0.012 C 
ATOM     21  C   UNL A   1      35.448  24.712  25.628  1.00  0.00     0.012 C 
ATOM     22  C   UNL A   1      34.864  20.853  24.654  1.00  0.00     0.012 C 
ATOM     23  C   UNL A   1      37.307  21.096  24.591  1.00  0.00     0.012 C 
ENDBRANCH  15  17
ENDBRANCH  10  15
ENDBRANCH   4   7
ENDBRANCH   2   3
ENDBRANCH   1   2
BRANCH   1  24
ATOM     24  C   UNL A   1      33.607  28.527  27.317  1.00  0.00     0.118 C 
BRANCH  24  25
ATOM     25  N   UNL A   1      33.609  29.931  27.701  1.00  0.00    -0.352 N 
ATOM     26  C   UNL A   1      34.561  30.706  28.319  1.00  0.00     0.251 C 
ATOM     27  H   UNL A   1      32.779  30.411  27.479  1.00  0.00     0.163 HD
ATOM     28  O   UNL A   1      34.244  31.830  28.701  1.00  0.00    -0.269 OA
BRANCH  26  29
ATOM     29  C   UNL A   1      35.946  30.225  28.555  1.00  0.00     0.039 A 
ATOM     30  C   UNL A   1      36.883  30.373  27.524  1.00  0.00     0.014 A 
ATOM     31  C   UNL A   1      36.324  29.566  29.727  1.00  0.00     0.014 A 
ATOM     32  C   UNL A   1      38.195  29.917  27.688  1.00  0.00     0.010 A 
ATOM     33  C   UNL A   1      37.654  29.185  29.923  1.00  0.00     0.010 A 
ATOM     34  C   UNL A   1      38.604  29.347  28.904  1.00  0.00    -0.014 A 
BRANCH  34  35
ATOM     35  C   UNL A   1      40.014  28.917  29.113  1.00  0.00     0.031 A 
ATOM     36  C   UNL A   1      41.025  29.858  29.716  1.00  0.00     0.074 A 
ATOM     37  C   UNL A   1      40.402  27.690  28.710  1.00  0.00     0.049 A 
ATOM     38  N   UNL A   1      42.303  29.669  29.932  1.00  0.00    -0.248 NA
ATOM     39  C   UNL A   1      40.544  31.193  30.103  1.00  0.00     0.031 C 
ATOM     40  C   UNL A   1      39.541  26.700  28.058  1.00  0.00     0.029 A 
ATOM     41  N   UNL A   1      41.626  27.069  28.778  1.00  0.00    -0.354 N 
ATOM     42  C   UNL A   1      42.781  30.865  30.455  1.00  0.00     0.074 A 
ATOM     43  C   UNL A   1      41.666  31.786  30.487  1.00  0.00     0.031 C 
ATOM     44  C   UNL A   1      40.257  25.593  27.804  1.00  0.00     0.029 A 
ATOM     45  C   UNL A   1      41.632  25.803  28.244  1.00  0.00     0.049 A 
ATOM     46  H   UNL A   1      42.423  27.491  29.174  1.00  0.00     0.167 HD
ATOM     47  C   UNL A   1      44.030  31.163  30.886  1.00  0.00     0.037 A 
ATOM     48  C   UNL A   1      42.635  24.911  28.113  1.00  0.00     0.037 A 
ATOM     49  C   UNL A   1      45.130  30.234  30.900  1.00  0.00     0.049 A 
ATOM     50  C   UNL A   1      44.003  25.259  28.628  1.00  0.00     0.074 A 
ATOM     51  C   UNL A   1      46.404  30.417  31.409  1.00  0.00     0.029 A 
ATOM     52  N   UNL A   1      45.087  28.950  30.380  1.00  0.00    -0.354 N 
ATOM     53  N   UNL A   1      44.415  26.363  29.204  1.00  0.00    -0.248 NA
ATOM     54  C   UNL A   1      45.047  24.233  28.484  1.00  0.00     0.031 C 
ATOM     55  C   UNL A   1      47.147  29.259  31.155  1.00  0.00     0.029 A 
ATOM     56  C   UNL A   1      46.322  28.339  30.530  1.00  0.00     0.049 A 
ATOM     57  H   UNL A   1      44.297  28.535  29.965  1.00  0.00     0.167 HD
ATOM     58  C   UNL A   1      45.753  26.155  29.510  1.00  0.00     0.074 A 
ATOM     59  C   UNL A   1      46.080  24.814  29.075  1.00  0.00     0.031 C 
ATOM     60  C   UNL A   1      46.634  27.002  30.098  1.00  0.00     0.037 A 
BRANCH  47  61
ATOM     61  C   UNL A   1      44.284  32.555  31.390  1.00  0.00     0.057 A 
ATOM     62  C   UNL A   1      44.115  32.897  32.739  1.00  0.00     0.134 A 
ATOM     63  C   UNL A   1      44.766  33.547  30.527  1.00  0.00     0.134 A 
ATOM     64  F   UNL A   1      43.649  31.995  33.616  1.00  0.00    -0.206 F 
ATOM     65  C   UNL A   1      44.399  34.181  33.207  1.00  0.00     0.040 A 
ATOM     66  C   UNL A   1      45.076  34.828  30.989  1.00  0.00     0.040 A 
ATOM     67  F   UNL A   1      44.958  33.285  29.226  1.00  0.00    -0.206 F 
ATOM     68  C   UNL A   1      44.889  35.149  32.332  1.00  0.00     0.006 A 
ENDBRANCH  47  61
BRANCH  48  69
ATOM     69  C   UNL A   1      42.382  23.594  27.475  1.00  0.00     0.057 A 
ATOM     70  C   UNL A   1      42.423  23.443  26.084  1.00  0.00     0.134 A 
ATOM     71  C   UNL A   1      42.072  22.462  28.238  1.00  0.00     0.134 A 
ATOM     72  F   UNL A   1      42.695  24.495  25.299  1.00  0.00    -0.206 F 
ATOM     73  C   UNL A   1      42.139  22.221  25.473  1.00  0.00     0.040 A 
ATOM     74  C   UNL A   1      41.812  21.228  27.643  1.00  0.00     0.040 A 
ATOM     75  F   UNL A   1      42.025  22.539  29.577  1.00  0.00    -0.206 F 
ATOM     76  C   UNL A   1      41.835  21.107  26.254  1.00  0.00     0.006 A 
ENDBRANCH  48  69
BRANCH  60  77
ATOM     77  C   UNL A   1      48.026  26.493  30.327  1.00  0.00     0.057 A 
ATOM     78  C   UNL A   1      48.383  25.823  31.503  1.00  0.00     0.134 A 
ATOM     79  C   UNL A   1      49.012  26.649  29.344  1.00  0.00     0.134 A 
ATOM     80  F   UNL A   1      47.488  25.654  32.487  1.00  0.00    -0.206 F 
ATOM     81  C   UNL A   1      49.680  25.347  31.705  1.00  0.00     0.040 A 
ATOM     82  C   UNL A   1      50.305  26.154  29.524  1.00  0.00     0.040 A 
ATOM     83  F   UNL A   1      48.733  27.274  28.190  1.00  0.00    -0.206 F 
ATOM     84  C   UNL A   1      50.643  25.507  30.711  1.00  0.00     0.006 A 
ENDBRANCH  60  77
ENDBRANCH  34  35
ENDBRANCH  26  29
ENDBRANCH  24  25
ENDBRANCH   1  24
TORSDOF 14
ENDMDL
MODEL 2
REMARK VINA RESULT:     -10.6      1.848      2.528
REMARK SMILES CCC[C@@H]1SC[C@@H](C(=O)NCCCNC(=O)c2ccc(-c3c4nc(c(-c5c(F)cccc5F)c5ccc([nH]5)c(-c5c(F)cccc5F)c5nc(c(-c6c(F)cccc6F)c6ccc3[nH]6)C=C5)C=C4)cc2)N1C(=O)C1C(C)(C)C1(C)C
REMARK SMILES IDX 12 1 11 2 10 3 8 4 9 5 7 7 4 8 5 9 71 10 6 11 3 12 2 13 1 14
REMARK SMILES IDX 72 15 73 16 74 17 75 18 78 19 76 20 77 21 79 22 80 23 13 24
REMARK SMILES IDX 14 25 15 26 16 28 17 29 18 30 70 31 19 32 69 33 20 34 21 35
REMARK SMILES IDX 22 36 63 37 23 38 68 39 62 40 64 41 24 42 67 43 61 44 60 45
REMARK SMILES IDX 25 47 51 48 34 49 50 50 35 51 38 52 49 53 65 54 36 55 37 56
REMARK SMILES IDX 48 58 66 59 39 60 26 61 27 62 32 63 28 64 29 65 31 66 33 67
REMARK SMILES IDX 30 68 52 69 53 70 58 71 54 72 55 73 57 74 59 75 56 76 40 77
REMARK SMILES IDX 41 78 46 79 42 80 43 81 45 82 47 83 44 84
REMARK H PARENT 10 6 14 27 64 46 38 57
REMARK Flexibility Score: inf
ROOT
ATOM      1  C   UNL A   1      34.038  28.414  25.987  1.00  0.00     0.042 C 
ENDROOT
BRANCH   1   2
ATOM      2  C   UNL A   1      33.136  27.591  25.078  1.00  0.00     0.117 C 
BRANCH   2   3
ATOM      3  N   UNL A   1      33.668  27.483  23.733  1.00  0.00    -0.354 N 
ATOM      4  C   UNL A   1      33.446  26.604  22.714  1.00  0.00     0.243 C 
ATOM      5  O   UNL A   1      33.855  26.977  21.608  1.00  0.00    -0.273 OA
ATOM      6  H   UNL A   1      34.322  28.186  23.511  1.00  0.00     0.163 HD
BRANCH   4   7
ATOM      7  C   UNL A   1      32.602  25.300  22.837  1.00  0.00     0.185 C 
ATOM      8  C   UNL A   1      32.298  24.058  24.958  1.00  0.00     0.144 C 
ATOM      9  S   UNL A   1      30.601  24.541  24.434  1.00  0.00    -0.134 SA
ATOM     10  N   UNL A   1      33.137  24.220  23.725  1.00  0.00    -0.318 N 
ATOM     11  C   UNL A   1      31.163  25.681  23.167  1.00  0.00     0.107 C 
BRANCH   8  12
ATOM     12  C   UNL A   1      32.135  22.773  25.806  1.00  0.00     0.036 C 
BRANCH  12  13
ATOM     13  C   UNL A   1      32.425  22.861  27.319  1.00  0.00    -0.000 C 
ATOM     14  C   UNL A   1      33.672  22.172  27.827  1.00  0.00     0.004 C 
ENDBRANCH  12  13
ENDBRANCH   8  12
BRANCH  10  15
ATOM     15  C   UNL A   1      34.330  23.639  23.180  1.00  0.00     0.228 C 
ATOM     16  O   UNL A   1      34.337  23.345  21.983  1.00  0.00    -0.274 OA
BRANCH  15  17
ATOM     17  C   UNL A   1      35.663  23.296  23.856  1.00  0.00     0.091 C 
ATOM     18  C   UNL A   1      36.009  23.545  25.319  1.00  0.00    -0.017 C 
ATOM     19  C   UNL A   1      35.837  22.042  24.627  1.00  0.00    -0.017 C 
ATOM     20  C   UNL A   1      37.433  23.748  25.863  1.00  0.00     0.012 C 
ATOM     21  C   UNL A   1      35.301  24.846  25.643  1.00  0.00     0.012 C 
ATOM     22  C   UNL A   1      34.705  21.029  24.523  1.00  0.00     0.012 C 
ATOM     23  C   UNL A   1      37.151  21.253  24.514  1.00  0.00     0.012 C 
ENDBRANCH  15  17
ENDBRANCH  10  15
ENDBRANCH   4   7
ENDBRANCH   2   3
ENDBRANCH   1   2
BRANCH   1  24
ATOM     24  C   UNL A   1      33.335  28.981  27.217  1.00  0.00     0.118 C 
BRANCH  24  25
ATOM     25  N   UNL A   1      33.514  30.420  27.348  1.00  0.00    -0.352 N 
ATOM     26  C   UNL A   1      34.494  31.165  27.959  1.00  0.00     0.251 C 
ATOM     27  H   UNL A   1      32.806  30.955  26.923  1.00  0.00     0.163 HD
ATOM     28  O   UNL A   1      34.316  32.374  28.087  1.00  0.00    -0.269 OA
BRANCH  26  29
ATOM     29  C   UNL A   1      35.744  30.557  28.483  1.00  0.00     0.039 A 
ATOM     30  C   UNL A   1      36.931  30.767  27.768  1.00  0.00     0.014 A 
ATOM     31  C   UNL A   1      35.765  29.728  29.606  1.00  0.00     0.014 A 
ATOM     32  C   UNL A   1      38.131  30.200  28.208  1.00  0.00     0.010 A 
ATOM     33  C   UNL A   1      36.977  29.228  30.091  1.00  0.00     0.010 A 
ATOM     34  C   UNL A   1      38.173  29.450  29.393  1.00  0.00    -0.014 A 
BRANCH  34  35
ATOM     35  C   UNL A   1      39.456  28.894  29.905  1.00  0.00     0.031 A 
ATOM     36  C   UNL A   1      40.131  29.498  31.110  1.00  0.00     0.074 A 
ATOM     37  C   UNL A   1      40.047  27.874  29.251  1.00  0.00     0.049 A 
ATOM     38  N   UNL A   1      41.270  29.172  31.669  1.00  0.00    -0.248 NA
ATOM     39  C   UNL A   1      39.451  30.630  31.757  1.00  0.00     0.031 C 
ATOM     40  C   UNL A   1      39.534  27.234  28.038  1.00  0.00     0.029 A 
ATOM     41  N   UNL A   1      41.218  27.202  29.508  1.00  0.00    -0.354 N 
ATOM     42  C   UNL A   1      41.453  30.071  32.712  1.00  0.00     0.074 A 
ATOM     43  C   UNL A   1      40.329  30.982  32.686  1.00  0.00     0.031 C 
ATOM     44  C   UNL A   1      40.372  26.253  27.668  1.00  0.00     0.029 A 
ATOM     45  C   UNL A   1      41.498  26.213  28.596  1.00  0.00     0.049 A 
ATOM     46  H   UNL A   1      41.800  27.408  30.275  1.00  0.00     0.167 HD
ATOM     47  C   UNL A   1      42.457  30.125  33.620  1.00  0.00     0.037 A 
ATOM     48  C   UNL A   1      42.548  25.373  28.508  1.00  0.00     0.037 A 
ATOM     49  C   UNL A   1      43.552  29.192  33.679  1.00  0.00     0.049 A 
ATOM     50  C   UNL A   1      43.632  25.435  29.548  1.00  0.00     0.074 A 
ATOM     51  C   UNL A   1      44.562  29.107  34.622  1.00  0.00     0.029 A 
ATOM     52  N   UNL A   1      43.782  28.185  32.755  1.00  0.00    -0.354 N 
ATOM     53  N   UNL A   1      43.741  26.233  30.583  1.00  0.00    -0.248 NA
ATOM     54  C   UNL A   1      44.735  24.471  29.415  1.00  0.00     0.031 C 
ATOM     55  C   UNL A   1      45.429  28.077  34.245  1.00  0.00     0.029 A 
ATOM     56  C   UNL A   1      44.934  27.491  33.091  1.00  0.00     0.049 A 
ATOM     57  H   UNL A   1      43.213  27.991  31.976  1.00  0.00     0.167 HD
ATOM     58  C   UNL A   1      44.908  25.855  31.233  1.00  0.00     0.074 A 
ATOM     59  C   UNL A   1      45.461  24.743  30.490  1.00  0.00     0.031 C 
ATOM     60  C   UNL A   1      45.472  26.383  32.347  1.00  0.00     0.037 A 
BRANCH  47  61
ATOM     61  C   UNL A   1      42.421  31.226  34.640  1.00  0.00     0.057 A 
ATOM     62  C   UNL A   1      43.040  32.463  34.418  1.00  0.00     0.134 A 
ATOM     63  C   UNL A   1      41.703  31.068  35.833  1.00  0.00     0.134 A 
ATOM     64  F   UNL A   1      43.750  32.677  33.299  1.00  0.00    -0.206 F 
ATOM     65  C   UNL A   1      42.962  33.497  35.353  1.00  0.00     0.040 A 
ATOM     66  C   UNL A   1      41.598  32.103  36.764  1.00  0.00     0.040 A 
ATOM     67  F   UNL A   1      41.080  29.913  36.106  1.00  0.00    -0.206 F 
ATOM     68  C   UNL A   1      42.231  33.321  36.526  1.00  0.00     0.006 A 
ENDBRANCH  47  61
BRANCH  48  69
ATOM     69  C   UNL A   1      42.625  24.388  27.398  1.00  0.00     0.057 A 
ATOM     70  C   UNL A   1      43.202  24.726  26.169  1.00  0.00     0.134 A 
ATOM     71  C   UNL A   1      42.101  23.097  27.533  1.00  0.00     0.134 A 
ATOM     72  F   UNL A   1      43.703  25.955  25.974  1.00  0.00    -0.206 F 
ATOM     73  C   UNL A   1      43.235  23.824  25.105  1.00  0.00     0.040 A 
ATOM     74  C   UNL A   1      42.151  22.176  26.486  1.00  0.00     0.040 A 
ATOM     75  F   UNL A   1      41.542  22.709  28.689  1.00  0.00    -0.206 F 
ATOM     76  C   UNL A   1      42.710  22.543  25.263  1.00  0.00     0.006 A 
ENDBRANCH  48  69
BRANCH  60  77
ATOM     77  C   UNL A   1      46.738  25.748  32.841  1.00  0.00     0.057 A 
ATOM     78  C   UNL A   1      47.997  26.174  32.402  1.00  0.00     0.134 A 
ATOM     79  C   UNL A   1      46.696  24.719  33.791  1.00  0.00     0.134 A 
ATOM     80  F   UNL A   1      48.105  27.145  31.484  1.00  0.00    -0.206 F 
ATOM     81  C   UNL A   1      49.171  25.582  32.872  1.00  0.00     0.040 A 
ATOM     82  C   UNL A   1      47.863  24.137  34.287  1.00  0.00     0.040 A 
ATOM     83  F   UNL A   1      45.522  24.270  34.259  1.00  0.00    -0.206 F 
ATOM     84  C   UNL A   1      49.106  24.564  33.822  1.00  0.00     0.006 A 
ENDBRANCH  60  77
ENDBRANCH  34  35
ENDBRANCH  26  29
ENDBRANCH  24  25
ENDBRANCH   1  24
TORSDOF 14
ENDMDL
MODEL 3
REMARK VINA RESULT:     -10.6      2.291      7.158
REMARK SMILES CCC[C@@H]1SC[C@@H](C(=O)NCCCNC(=O)c2ccc(-c3c4nc(c(-c5c(F)cccc5F)c5ccc([nH]5)c(-c5c(F)cccc5F)c5nc(c(-c6c(F)cccc6F)c6ccc3[nH]6)C=C5)C=C4)cc2)N1C(=O)C1C(C)(C)C1(C)C
REMARK SMILES IDX 12 1 11 2 10 3 8 4 9 5 7 7 4 8 5 9 71 10 6 11 3 12 2 13 1 14
REMARK SMILES IDX 72 15 73 16 74 17 75 18 78 19 76 20 77 21 79 22 80 23 13 24
REMARK SMILES IDX 14 25 15 26 16 28 17 29 18 30 70 31 19 32 69 33 20 34 21 35
REMARK SMILES IDX 22 36 63 37 23 38 68 39 62 40 64 41 24 42 67 43 61 44 60 45
REMARK SMILES IDX 25 47 51 48 34 49 50 50 35 51 38 52 49 53 65 54 36 55 37 56
REMARK SMILES IDX 48 58 66 59 39 60 26 61 27 62 32 63 28 64 29 65 31 66 33 67
REMARK SMILES IDX 30 68 52 69 53 70 58 71 54 72 55 73 57 74 59 75 56 76 40 77
REMARK SMILES IDX 41 78 46 79 42 80 43 81 45 82 47 83 44 84
REMARK H PARENT 10 6 14 27 64 46 38 57
REMARK Flexibility Score: inf
ROOT
ATOM      1  C   UNL A   1      36.864  19.999  24.989  1.00  0.00     0.042 C 
ENDROOT
BRANCH   1   2
ATOM      2  C   UNL A   1      35.751  21.037  24.945  1.00  0.00     0.117 C 
BRANCH   2   3
ATOM      3  N   UNL A   1      35.225  21.329  26.265  1.00  0.00    -0.354 N 
ATOM      4  C   UNL A   1      33.963  21.549  26.733  1.00  0.00     0.243 C 
ATOM      5  O   UNL A   1      33.846  21.484  27.963  1.00  0.00    -0.273 OA
ATOM      6  H   UNL A   1      35.918  21.377  26.963  1.00  0.00     0.163 HD
BRANCH   4   7
ATOM      7  C   UNL A   1      32.698  21.704  25.836  1.00  0.00     0.185 C 
ATOM      8  C   UNL A   1      32.613  23.151  23.827  1.00  0.00     0.144 C 
ATOM      9  S   UNL A   1      32.255  21.452  23.215  1.00  0.00    -0.134 SA
ATOM     10  N   UNL A   1      32.398  23.073  25.309  1.00  0.00    -0.318 N 
ATOM     11  C   UNL A   1      32.746  20.645  24.740  1.00  0.00     0.107 C 
BRANCH   8  12
ATOM     12  C   UNL A   1      31.917  24.118  22.838  1.00  0.00     0.036 C 
BRANCH  12  13
ATOM     13  C   UNL A   1      32.801  24.892  21.837  1.00  0.00    -0.000 C 
ATOM     14  C   UNL A   1      33.006  26.369  22.091  1.00  0.00     0.004 C 
ENDBRANCH  12  13
ENDBRANCH   8  12
BRANCH  10  15
ATOM     15  C   UNL A   1      32.009  23.964  26.364  1.00  0.00     0.228 C 
ATOM     16  O   UNL A   1      31.272  23.527  27.251  1.00  0.00    -0.274 OA
BRANCH  15  17
ATOM     17  C   UNL A   1      32.358  25.440  26.594  1.00  0.00     0.091 C 
ATOM     18  C   UNL A   1      33.318  26.269  25.750  1.00  0.00    -0.017 C 
ATOM     19  C   UNL A   1      31.677  26.520  25.842  1.00  0.00    -0.017 C 
ATOM     20  C   UNL A   1      34.099  27.494  26.255  1.00  0.00     0.012 C 
ATOM     21  C   UNL A   1      34.398  25.282  25.353  1.00  0.00     0.012 C 
ATOM     22  C   UNL A   1      30.476  26.100  25.006  1.00  0.00     0.012 C 
ATOM     23  C   UNL A   1      31.284  27.821  26.562  1.00  0.00     0.012 C 
ENDBRANCH  15  17
ENDBRANCH  10  15
ENDBRANCH   4   7
ENDBRANCH   2   3
ENDBRANCH   1   2
BRANCH   1  24
ATOM     24  C   UNL A   1      38.270  20.591  25.032  1.00  0.00     0.118 C 
BRANCH  24  25
ATOM     25  N   UNL A   1      39.282  19.602  25.371  1.00  0.00    -0.352 N 
ATOM     26  C   UNL A   1      40.517  19.726  25.961  1.00  0.00     0.251 C 
ATOM     27  H   UNL A   1      39.038  18.678  25.134  1.00  0.00     0.163 HD
ATOM     28  O   UNL A   1      41.263  18.750  25.970  1.00  0.00    -0.269 OA
BRANCH  26  29
ATOM     29  C   UNL A   1      40.983  20.999  26.567  1.00  0.00     0.039 A 
ATOM     30  C   UNL A   1      41.521  21.978  25.720  1.00  0.00     0.014 A 
ATOM     31  C   UNL A   1      40.977  21.223  27.945  1.00  0.00     0.014 A 
ATOM     32  C   UNL A   1      41.992  23.186  26.243  1.00  0.00     0.010 A 
ATOM     33  C   UNL A   1      41.373  22.461  28.460  1.00  0.00     0.010 A 
ATOM     34  C   UNL A   1      41.893  23.454  27.617  1.00  0.00    -0.014 A 
BRANCH  34  35
ATOM     35  C   UNL A   1      42.334  24.761  28.177  1.00  0.00     0.031 A 
ATOM     36  C   UNL A   1      41.342  25.870  28.417  1.00  0.00     0.074 A 
ATOM     37  C   UNL A   1      43.642  24.973  28.423  1.00  0.00     0.049 A 
ATOM     38  N   UNL A   1      41.551  27.086  28.857  1.00  0.00    -0.248 NA
ATOM     39  C   UNL A   1      39.934  25.586  28.096  1.00  0.00     0.031 C 
ATOM     40  C   UNL A   1      44.717  24.008  28.182  1.00  0.00     0.029 A 
ATOM     41  N   UNL A   1      44.295  26.075  28.920  1.00  0.00    -0.354 N 
ATOM     42  C   UNL A   1      40.312  27.715  28.843  1.00  0.00     0.074 A 
ATOM     43  C   UNL A   1      39.362  26.761  28.313  1.00  0.00     0.031 C 
ATOM     44  C   UNL A   1      45.889  24.552  28.548  1.00  0.00     0.029 A 
ATOM     45  C   UNL A   1      45.656  25.913  29.019  1.00  0.00     0.049 A 
ATOM     46  H   UNL A   1      43.830  26.903  29.183  1.00  0.00     0.167 HD
ATOM     47  C   UNL A   1      39.991  28.966  29.250  1.00  0.00     0.037 A 
ATOM     48  C   UNL A   1      46.613  26.767  29.433  1.00  0.00     0.037 A 
ATOM     49  C   UNL A   1      40.925  29.901  29.823  1.00  0.00     0.049 A 
ATOM     50  C   UNL A   1      46.223  28.138  29.909  1.00  0.00     0.074 A 
ATOM     51  C   UNL A   1      40.673  31.154  30.354  1.00  0.00     0.029 A 
ATOM     52  N   UNL A   1      42.290  29.686  29.935  1.00  0.00    -0.354 N 
ATOM     53  N   UNL A   1      45.033  28.684  29.974  1.00  0.00    -0.248 NA
ATOM     54  C   UNL A   1      47.310  29.012  30.377  1.00  0.00     0.031 C 
ATOM     55  C   UNL A   1      41.892  31.717  30.746  1.00  0.00     0.029 A 
ATOM     56  C   UNL A   1      42.896  30.795  30.502  1.00  0.00     0.049 A 
ATOM     57  H   UNL A   1      42.758  28.867  29.653  1.00  0.00     0.167 HD
ATOM     58  C   UNL A   1      45.224  29.950  30.510  1.00  0.00     0.074 A 
ATOM     59  C   UNL A   1      46.641  30.086  30.771  1.00  0.00     0.031 C 
ATOM     60  C   UNL A   1      44.307  30.916  30.762  1.00  0.00     0.037 A 
BRANCH  47  61
ATOM     61  C   UNL A   1      38.563  29.407  29.102  1.00  0.00     0.057 A 
ATOM     62  C   UNL A   1      38.029  29.787  27.864  1.00  0.00     0.134 A 
ATOM     63  C   UNL A   1      37.695  29.388  30.202  1.00  0.00     0.134 A 
ATOM     64  F   UNL A   1      38.808  29.833  26.773  1.00  0.00    -0.206 F 
ATOM     65  C   UNL A   1      36.687  30.150  27.728  1.00  0.00     0.040 A 
ATOM     66  C   UNL A   1      36.347  29.726  30.074  1.00  0.00     0.040 A 
ATOM     67  F   UNL A   1      38.139  29.027  31.415  1.00  0.00    -0.206 F 
ATOM     68  C   UNL A   1      35.840  30.111  28.834  1.00  0.00     0.006 A 
ENDBRANCH  47  61
BRANCH  48  69
ATOM     69  C   UNL A   1      48.038  26.347  29.430  1.00  0.00     0.057 A 
ATOM     70  C   UNL A   1      48.845  26.533  28.302  1.00  0.00     0.134 A 
ATOM     71  C   UNL A   1      48.619  25.730  30.545  1.00  0.00     0.134 A 
ATOM     72  F   UNL A   1      48.340  27.101  27.197  1.00  0.00    -0.206 F 
ATOM     73  C   UNL A   1      50.171  26.099  28.272  1.00  0.00     0.040 A 
ATOM     74  C   UNL A   1      49.950  25.314  30.538  1.00  0.00     0.040 A 
ATOM     75  F   UNL A   1      47.900  25.530  31.660  1.00  0.00    -0.206 F 
ATOM     76  C   UNL A   1      50.728  25.489  29.395  1.00  0.00     0.006 A 
ENDBRANCH  48  69
BRANCH  60  77
ATOM     77  C   UNL A   1      44.806  32.193  31.372  1.00  0.00     0.057 A 
ATOM     78  C   UNL A   1      44.900  32.360  32.759  1.00  0.00     0.134 A 
ATOM     79  C   UNL A   1      45.225  33.255  30.561  1.00  0.00     0.134 A 
ATOM     80  F   UNL A   1      44.502  31.386  33.590  1.00  0.00    -0.206 F 
ATOM     81  C   UNL A   1      45.372  33.549  33.319  1.00  0.00     0.040 A 
ATOM     82  C   UNL A   1      45.722  34.439  31.108  1.00  0.00     0.040 A 
ATOM     83  F   UNL A   1      45.169  33.156  29.224  1.00  0.00    -0.206 F 
ATOM     84  C   UNL A   1      45.789  34.590  32.492  1.00  0.00     0.006 A 
ENDBRANCH  60  77
ENDBRANCH  34  35
ENDBRANCH  26  29
ENDBRANCH  24  25
ENDBRANCH   1  24
TORSDOF 14
ENDMDL
