MODEL 1
REMARK VINA RESULT:     -12.5      0.000      0.000
REMARK SMILES Cc1ccc(NC(=O)N2CCCC[C@@H]2C(=O)NCCCNC(=O)c2ccc(-c3c4nc(c(-c5c(F)cccc5F)c5ccc([nH]5)c(-c5c(F)cccc5F)c5nc(c(-c6c(F)cccc6F)c6ccc3[nH]6)C=C5)C=C4)cc2)cc1
REMARK SMILES IDX 19 1 18 2 17 3 15 4 16 5 14 7 9 8 10 9 11 10 13 11 12 12
REMARK SMILES IDX 7 13 6 14 8 16 5 17 1 18 2 19 3 20 79 21 4 22 78 23 20 24
REMARK SMILES IDX 21 25 22 26 23 28 24 29 25 30 77 31 26 32 76 33 27 34 28 35
REMARK SMILES IDX 29 36 70 37 30 38 75 39 69 40 71 41 31 42 74 43 68 44 67 45
REMARK SMILES IDX 32 47 58 48 41 49 57 50 42 51 45 52 56 53 72 54 43 55 44 56
REMARK SMILES IDX 55 58 73 59 46 60 33 61 34 62 39 63 35 64 36 65 38 66 40 67
REMARK SMILES IDX 37 68 59 69 60 70 65 71 61 72 62 73 64 74 66 75 63 76 47 77
REMARK SMILES IDX 48 78 53 79 49 80 50 81 52 82 54 83 51 84
REMARK H PARENT 17 6 6 15 21 27 71 46 45 57
REMARK Flexibility Score: inf
ROOT
ATOM      1  C   UNL A   1      39.161  21.460  25.773  1.00  0.00     0.042 C 
ENDROOT
BRANCH   1   2
ATOM      2  C   UNL A   1      37.765  21.479  25.160  1.00  0.00     0.117 C 
BRANCH   2   3
ATOM      3  N   UNL A   1      36.792  22.083  26.060  1.00  0.00    -0.354 N 
ATOM      4  C   UNL A   1      35.429  22.147  25.987  1.00  0.00     0.242 C 
ATOM      5  O   UNL A   1      34.875  22.945  26.753  1.00  0.00    -0.273 OA
ATOM      6  H   UNL A   1      37.182  22.516  26.854  1.00  0.00     0.163 HD
BRANCH   4   7
ATOM      7  C   UNL A   1      34.613  21.421  24.883  1.00  0.00     0.176 C 
ATOM      8  N   UNL A   1      34.032  22.324  23.854  1.00  0.00    -0.313 N 
ATOM      9  C   UNL A   1      32.815  21.919  23.156  1.00  0.00     0.122 C 
ATOM     10  C   UNL A   1      31.809  21.179  24.018  1.00  0.00     0.022 C 
ATOM     11  C   UNL A   1      33.579  20.542  25.615  1.00  0.00     0.035 C 
ATOM     12  C   UNL A   1      32.480  20.011  24.715  1.00  0.00     0.004 C 
BRANCH   8  13
ATOM     13  C   UNL A   1      34.709  23.393  23.281  1.00  0.00     0.322 C 
ATOM     14  N   UNL A   1      34.140  24.628  23.257  1.00  0.00    -0.308 N 
ATOM     15  H   UNL A   1      34.227  25.114  22.406  1.00  0.00     0.171 HD
ATOM     16  O   UNL A   1      35.776  23.227  22.685  1.00  0.00    -0.248 OA
BRANCH  14  17
ATOM     17  C   UNL A   1      33.447  25.310  24.271  1.00  0.00     0.042 A 
ATOM     18  C   UNL A   1      31.481  27.879  27.098  1.00  0.00     0.044 C 
ATOM     19  C   UNL A   1      32.159  26.893  26.194  1.00  0.00    -0.051 A 
ATOM     20  C   UNL A   1      31.412  26.162  25.267  1.00  0.00     0.005 A 
ATOM     21  C   UNL A   1      33.553  26.763  26.200  1.00  0.00     0.005 A 
ATOM     22  C   UNL A   1      32.053  25.352  24.330  1.00  0.00     0.026 A 
ATOM     23  C   UNL A   1      34.193  25.960  25.253  1.00  0.00     0.026 A 
ENDBRANCH  14  17
ENDBRANCH   8  13
ENDBRANCH   4   7
ENDBRANCH   2   3
ENDBRANCH   1   2
BRANCH   1  24
ATOM     24  C   UNL A   1      39.445  22.663  26.651  1.00  0.00     0.118 C 
BRANCH  24  25
ATOM     25  N   UNL A   1      40.857  22.991  26.788  1.00  0.00    -0.352 N 
ATOM     26  C   UNL A   1      41.463  24.228  26.965  1.00  0.00     0.251 C 
ATOM     27  H   UNL A   1      41.472  22.224  26.751  1.00  0.00     0.163 HD
ATOM     28  O   UNL A   1      42.675  24.311  27.012  1.00  0.00    -0.269 OA
BRANCH  26  29
ATOM     29  C   UNL A   1      40.618  25.416  27.261  1.00  0.00     0.039 A 
ATOM     30  C   UNL A   1      40.790  26.542  26.448  1.00  0.00     0.014 A 
ATOM     31  C   UNL A   1      39.901  25.517  28.447  1.00  0.00     0.014 A 
ATOM     32  C   UNL A   1      40.507  27.803  26.965  1.00  0.00     0.010 A 
ATOM     33  C   UNL A   1      39.751  26.762  29.015  1.00  0.00     0.010 A 
ATOM     34  C   UNL A   1      40.119  27.902  28.296  1.00  0.00    -0.014 A 
BRANCH  34  35
ATOM     35  C   UNL A   1      40.141  29.144  29.053  1.00  0.00     0.031 A 
ATOM     36  C   UNL A   1      39.051  30.123  28.884  1.00  0.00     0.074 A 
ATOM     37  C   UNL A   1      41.098  29.338  29.987  1.00  0.00     0.049 A 
ATOM     38  N   UNL A   1      39.147  31.371  29.188  1.00  0.00    -0.248 NA
ATOM     39  C   UNL A   1      37.759  29.769  28.310  1.00  0.00     0.031 C 
ATOM     40  C   UNL A   1      41.120  30.355  31.035  1.00  0.00     0.029 A 
ATOM     41  N   UNL A   1      42.375  28.758  30.040  1.00  0.00    -0.354 N 
ATOM     42  C   UNL A   1      37.887  31.920  29.117  1.00  0.00     0.074 A 
ATOM     43  C   UNL A   1      37.068  30.895  28.512  1.00  0.00     0.031 C 
ATOM     44  C   UNL A   1      42.389  30.545  31.429  1.00  0.00     0.029 A 
ATOM     45  C   UNL A   1      43.232  29.761  30.546  1.00  0.00     0.049 A 
ATOM     46  H   UNL A   1      42.622  27.841  29.780  1.00  0.00     0.167 HD
ATOM     47  C   UNL A   1      37.660  33.132  29.699  1.00  0.00     0.037 A 
ATOM     48  C   UNL A   1      44.255  30.266  29.798  1.00  0.00     0.037 A 
ATOM     49  C   UNL A   1      38.897  33.685  30.248  1.00  0.00     0.049 A 
ATOM     50  C   UNL A   1      44.161  31.754  29.557  1.00  0.00     0.074 A 
ATOM     51  C   UNL A   1      39.438  33.689  31.525  1.00  0.00     0.029 A 
ATOM     52  N   UNL A   1      39.920  34.059  29.386  1.00  0.00    -0.354 N 
ATOM     53  N   UNL A   1      43.061  32.443  29.679  1.00  0.00    -0.248 NA
ATOM     54  C   UNL A   1      45.294  32.583  29.156  1.00  0.00     0.031 C 
ATOM     55  C   UNL A   1      40.807  34.036  31.421  1.00  0.00     0.029 A 
ATOM     56  C   UNL A   1      41.093  34.261  30.086  1.00  0.00     0.049 A 
ATOM     57  H   UNL A   1      39.823  34.165  28.412  1.00  0.00     0.167 HD
ATOM     58  C   UNL A   1      43.302  33.761  29.378  1.00  0.00     0.074 A 
ATOM     59  C   UNL A   1      44.722  33.799  29.077  1.00  0.00     0.031 C 
ATOM     60  C   UNL A   1      42.303  34.694  29.401  1.00  0.00     0.037 A 
BRANCH  47  61
ATOM     61  C   UNL A   1      36.284  33.671  30.025  1.00  0.00     0.057 A 
ATOM     62  C   UNL A   1      35.411  34.091  29.002  1.00  0.00     0.134 A 
ATOM     63  C   UNL A   1      35.777  33.852  31.323  1.00  0.00     0.134 A 
ATOM     64  F   UNL A   1      35.686  33.883  27.708  1.00  0.00    -0.206 F 
ATOM     65  C   UNL A   1      34.200  34.750  29.252  1.00  0.00     0.040 A 
ATOM     66  C   UNL A   1      34.594  34.559  31.590  1.00  0.00     0.040 A 
ATOM     67  F   UNL A   1      36.365  33.301  32.390  1.00  0.00    -0.206 F 
ATOM     68  C   UNL A   1      33.806  35.027  30.550  1.00  0.00     0.006 A 
ENDBRANCH  47  61
BRANCH  48  69
ATOM     69  C   UNL A   1      44.843  29.268  28.867  1.00  0.00     0.057 A 
ATOM     70  C   UNL A   1      45.741  28.321  29.391  1.00  0.00     0.134 A 
ATOM     71  C   UNL A   1      44.244  28.967  27.641  1.00  0.00     0.134 A 
ATOM     72  F   UNL A   1      46.352  28.550  30.565  1.00  0.00    -0.206 F 
ATOM     73  C   UNL A   1      45.938  27.076  28.788  1.00  0.00     0.040 A 
ATOM     74  C   UNL A   1      44.442  27.726  27.022  1.00  0.00     0.040 A 
ATOM     75  F   UNL A   1      43.358  29.809  27.090  1.00  0.00    -0.206 F 
ATOM     76  C   UNL A   1      45.255  26.762  27.618  1.00  0.00     0.006 A 
ENDBRANCH  48  69
BRANCH  60  77
ATOM     77  C   UNL A   1      42.352  36.115  28.873  1.00  0.00     0.057 A 
ATOM     78  C   UNL A   1      43.004  37.185  29.503  1.00  0.00     0.134 A 
ATOM     79  C   UNL A   1      41.844  36.417  27.584  1.00  0.00     0.134 A 
ATOM     80  F   UNL A   1      43.630  37.039  30.676  1.00  0.00    -0.206 F 
ATOM     81  C   UNL A   1      43.104  38.459  28.921  1.00  0.00     0.040 A 
ATOM     82  C   UNL A   1      41.990  37.664  26.970  1.00  0.00     0.040 A 
ATOM     83  F   UNL A   1      41.203  35.502  26.840  1.00  0.00    -0.206 F 
ATOM     84  C   UNL A   1      42.611  38.698  27.645  1.00  0.00     0.006 A 
ENDBRANCH  60  77
ENDBRANCH  34  35
ENDBRANCH  26  29
ENDBRANCH  24  25
ENDBRANCH   1  24
TORSDOF 12
ENDMDL
MODEL 2
REMARK VINA RESULT:     -12.4      4.224      9.338
REMARK SMILES Cc1ccc(NC(=O)N2CCCC[C@@H]2C(=O)NCCCNC(=O)c2ccc(-c3c4nc(c(-c5c(F)cccc5F)c5ccc([nH]5)c(-c5c(F)cccc5F)c5nc(c(-c6c(F)cccc6F)c6ccc3[nH]6)C=C5)C=C4)cc2)cc1
REMARK SMILES IDX 19 1 18 2 17 3 15 4 16 5 14 7 9 8 10 9 11 10 13 11 12 12
REMARK SMILES IDX 7 13 6 14 8 16 5 17 1 18 2 19 3 20 79 21 4 22 78 23 20 24
REMARK SMILES IDX 21 25 22 26 23 28 24 29 25 30 77 31 26 32 76 33 27 34 28 35
REMARK SMILES IDX 29 36 70 37 30 38 75 39 69 40 71 41 31 42 74 43 68 44 67 45
REMARK SMILES IDX 32 47 58 48 41 49 57 50 42 51 45 52 56 53 72 54 43 55 44 56
REMARK SMILES IDX 55 58 73 59 46 60 33 61 34 62 39 63 35 64 36 65 38 66 40 67
REMARK SMILES IDX 37 68 59 69 60 70 65 71 61 72 62 73 64 74 66 75 63 76 47 77
REMARK SMILES IDX 48 78 53 79 49 80 50 81 52 82 54 83 51 84
REMARK H PARENT 17 6 6 15 21 27 71 46 45 57
REMARK Flexibility Score: inf
ROOT
ATOM      1  C   UNL A   1      32.836  30.276  26.855  1.00  0.00     0.042 C 
ENDROOT
BRANCH   1   2
ATOM      2  C   UNL A   1      31.790  29.189  27.077  1.00  0.00     0.117 C 
BRANCH   2   3
ATOM      3  N   UNL A   1      32.379  27.858  27.017  1.00  0.00    -0.354 N 
ATOM      4  C   UNL A   1      32.623  27.038  25.951  1.00  0.00     0.242 C 
ATOM      5  O   UNL A   1      32.892  25.860  26.215  1.00  0.00    -0.273 OA
ATOM      6  H   UNL A   1      32.647  27.489  27.889  1.00  0.00     0.163 HD
BRANCH   4   7
ATOM      7  C   UNL A   1      32.389  27.481  24.481  1.00  0.00     0.176 C 
ATOM      8  N   UNL A   1      31.535  26.557  23.689  1.00  0.00    -0.313 N 
ATOM      9  C   UNL A   1      31.711  26.489  22.241  1.00  0.00     0.122 C 
ATOM     10  C   UNL A   1      33.148  26.610  21.773  1.00  0.00     0.022 C 
ATOM     11  C   UNL A   1      33.786  27.732  23.877  1.00  0.00     0.035 C 
ATOM     12  C   UNL A   1      33.786  27.853  22.365  1.00  0.00     0.004 C 
BRANCH   8  13
ATOM     13  C   UNL A   1      30.374  25.963  24.168  1.00  0.00     0.322 C 
ATOM     14  N   UNL A   1      30.152  24.636  23.967  1.00  0.00    -0.308 N 
ATOM     15  H   UNL A   1      29.239  24.401  23.686  1.00  0.00     0.171 HD
ATOM     16  O   UNL A   1      29.476  26.637  24.678  1.00  0.00    -0.248 OA
BRANCH  14  17
ATOM     17  C   UNL A   1      31.038  23.554  24.100  1.00  0.00     0.042 A 
ATOM     18  C   UNL A   1      33.278  19.909  24.496  1.00  0.00     0.044 C 
ATOM     19  C   UNL A   1      32.595  21.241  24.397  1.00  0.00    -0.051 A 
ATOM     20  C   UNL A   1      32.591  21.938  23.186  1.00  0.00     0.005 A 
ATOM     21  C   UNL A   1      31.874  21.755  25.481  1.00  0.00     0.005 A 
ATOM     22  C   UNL A   1      31.839  23.105  23.049  1.00  0.00     0.026 A 
ATOM     23  C   UNL A   1      31.114  22.918  25.339  1.00  0.00     0.026 A 
ENDBRANCH  14  17
ENDBRANCH   8  13
ENDBRANCH   4   7
ENDBRANCH   2   3
ENDBRANCH   1   2
BRANCH   1  24
ATOM     24  C   UNL A   1      34.201  29.915  27.408  1.00  0.00     0.118 C 
BRANCH  24  25
ATOM     25  N   UNL A   1      34.821  30.956  28.216  1.00  0.00    -0.352 N 
ATOM     26  C   UNL A   1      36.021  30.935  28.912  1.00  0.00     0.251 C 
ATOM     27  H   UNL A   1      34.314  31.798  28.277  1.00  0.00     0.163 HD
ATOM     28  O   UNL A   1      36.356  31.896  29.577  1.00  0.00    -0.269 OA
BRANCH  26  29
ATOM     29  C   UNL A   1      36.965  29.804  28.702  1.00  0.00     0.039 A 
ATOM     30  C   UNL A   1      37.111  28.890  29.752  1.00  0.00     0.014 A 
ATOM     31  C   UNL A   1      37.866  29.800  27.645  1.00  0.00     0.014 A 
ATOM     32  C   UNL A   1      38.308  28.193  29.883  1.00  0.00     0.010 A 
ATOM     33  C   UNL A   1      39.101  29.225  27.842  1.00  0.00     0.010 A 
ATOM     34  C   UNL A   1      39.342  28.476  28.997  1.00  0.00    -0.014 A 
BRANCH  34  35
ATOM     35  C   UNL A   1      40.729  28.104  29.229  1.00  0.00     0.031 A 
ATOM     36  C   UNL A   1      41.273  26.886  28.600  1.00  0.00     0.074 A 
ATOM     37  C   UNL A   1      41.535  28.936  29.924  1.00  0.00     0.049 A 
ATOM     38  N   UNL A   1      42.322  26.265  29.016  1.00  0.00    -0.248 NA
ATOM     39  C   UNL A   1      40.641  26.242  27.455  1.00  0.00     0.031 C 
ATOM     40  C   UNL A   1      42.993  28.892  30.007  1.00  0.00     0.029 A 
ATOM     41  N   UNL A   1      41.161  29.889  30.883  1.00  0.00    -0.354 N 
ATOM     42  C   UNL A   1      42.661  25.328  28.066  1.00  0.00     0.074 A 
ATOM     43  C   UNL A   1      41.552  25.316  27.143  1.00  0.00     0.031 C 
ATOM     44  C   UNL A   1      43.382  29.528  31.123  1.00  0.00     0.029 A 
ATOM     45  C   UNL A   1      42.181  29.872  31.861  1.00  0.00     0.049 A 
ATOM     46  H   UNL A   1      40.355  30.455  30.876  1.00  0.00     0.167 HD
ATOM     47  C   UNL A   1      43.903  24.766  28.107  1.00  0.00     0.037 A 
ATOM     48  C   UNL A   1      41.926  29.498  33.148  1.00  0.00     0.037 A 
ATOM     49  C   UNL A   1      44.650  25.237  29.272  1.00  0.00     0.049 A 
ATOM     50  C   UNL A   1      42.728  28.305  33.609  1.00  0.00     0.074 A 
ATOM     51  C   UNL A   1      45.599  26.234  29.438  1.00  0.00     0.029 A 
ATOM     52  N   UNL A   1      44.223  24.883  30.546  1.00  0.00    -0.354 N 
ATOM     53  N   UNL A   1      43.301  27.457  32.801  1.00  0.00    -0.248 NA
ATOM     54  C   UNL A   1      42.945  27.967  35.014  1.00  0.00     0.031 C 
ATOM     55  C   UNL A   1      45.716  26.503  30.824  1.00  0.00     0.029 A 
ATOM     56  C   UNL A   1      44.853  25.657  31.499  1.00  0.00     0.049 A 
ATOM     57  H   UNL A   1      43.563  24.179  30.741  1.00  0.00     0.167 HD
ATOM     58  C   UNL A   1      43.937  26.480  33.528  1.00  0.00     0.074 A 
ATOM     59  C   UNL A   1      43.701  26.859  34.909  1.00  0.00     0.031 C 
ATOM     60  C   UNL A   1      44.594  25.448  32.918  1.00  0.00     0.037 A 
BRANCH  47  61
ATOM     61  C   UNL A   1      44.538  24.030  26.947  1.00  0.00     0.057 A 
ATOM     62  C   UNL A   1      44.186  22.696  26.658  1.00  0.00     0.134 A 
ATOM     63  C   UNL A   1      45.536  24.554  26.109  1.00  0.00     0.134 A 
ATOM     64  F   UNL A   1      43.172  22.081  27.281  1.00  0.00    -0.206 F 
ATOM     65  C   UNL A   1      44.859  21.915  25.708  1.00  0.00     0.040 A 
ATOM     66  C   UNL A   1      46.256  23.771  25.193  1.00  0.00     0.040 A 
ATOM     67  F   UNL A   1      45.822  25.861  26.089  1.00  0.00    -0.206 F 
ATOM     68  C   UNL A   1      45.928  22.438  25.001  1.00  0.00     0.006 A 
ENDBRANCH  47  61
BRANCH  48  69
ATOM     69  C   UNL A   1      40.554  29.852  33.596  1.00  0.00     0.057 A 
ATOM     70  C   UNL A   1      40.301  31.185  33.967  1.00  0.00     0.134 A 
ATOM     71  C   UNL A   1      39.449  29.062  33.269  1.00  0.00     0.134 A 
ATOM     72  F   UNL A   1      41.319  31.998  34.294  1.00  0.00    -0.206 F 
ATOM     73  C   UNL A   1      39.022  31.743  33.893  1.00  0.00     0.040 A 
ATOM     74  C   UNL A   1      38.161  29.607  33.202  1.00  0.00     0.040 A 
ATOM     75  F   UNL A   1      39.613  27.788  32.882  1.00  0.00    -0.206 F 
ATOM     76  C   UNL A   1      37.952  30.960  33.472  1.00  0.00     0.006 A 
ENDBRANCH  48  69
BRANCH  60  77
ATOM     77  C   UNL A   1      45.133  24.184  33.561  1.00  0.00     0.057 A 
ATOM     78  C   UNL A   1      46.446  24.014  34.021  1.00  0.00     0.134 A 
ATOM     79  C   UNL A   1      44.257  23.115  33.878  1.00  0.00     0.134 A 
ATOM     80  F   UNL A   1      47.369  24.974  33.897  1.00  0.00    -0.206 F 
ATOM     81  C   UNL A   1      46.865  22.857  34.700  1.00  0.00     0.040 A 
ATOM     82  C   UNL A   1      44.649  21.987  34.606  1.00  0.00     0.040 A 
ATOM     83  F   UNL A   1      42.964  23.125  33.522  1.00  0.00    -0.206 F 
ATOM     84  C   UNL A   1      45.964  21.848  35.009  1.00  0.00     0.006 A 
ENDBRANCH  60  77
ENDBRANCH  34  35
ENDBRANCH  26  29
ENDBRANCH  24  25
ENDBRANCH   1  24
TORSDOF 12
ENDMDL
MODEL 3
REMARK VINA RESULT:     -12.4      3.705      8.712
REMARK SMILES Cc1ccc(NC(=O)N2CCCC[C@@H]2C(=O)NCCCNC(=O)c2ccc(-c3c4nc(c(-c5c(F)cccc5F)c5ccc([nH]5)c(-c5c(F)cccc5F)c5nc(c(-c6c(F)cccc6F)c6ccc3[nH]6)C=C5)C=C4)cc2)cc1
REMARK SMILES IDX 19 1 18 2 17 3 15 4 16 5 14 7 9 8 10 9 11 10 13 11 12 12
REMARK SMILES IDX 7 13 6 14 8 16 5 17 1 18 2 19 3 20 79 21 4 22 78 23 20 24
REMARK SMILES IDX 21 25 22 26 23 28 24 29 25 30 77 31 26 32 76 33 27 34 28 35
REMARK SMILES IDX 29 36 70 37 30 38 75 39 69 40 71 41 31 42 74 43 68 44 67 45
REMARK SMILES IDX 32 47 58 48 41 49 57 50 42 51 45 52 56 53 72 54 43 55 44 56
REMARK SMILES IDX 55 58 73 59 46 60 33 61 34 62 39 63 35 64 36 65 38 66 40 67
REMARK SMILES IDX 37 68 59 69 60 70 65 71 61 72 62 73 64 74 66 75 63 76 47 77
REMARK SMILES IDX 48 78 53 79 49 80 50 81 52 82 54 83 51 84
REMARK H PARENT 17 6 6 15 21 27 71 46 45 57
REMARK Flexibility Score: inf
ROOT
ATOM      1  C   UNL A   1      34.560  30.354  27.837  1.00  0.00     0.042 C 
ENDROOT
BRANCH   1   2
ATOM      2  C   UNL A   1      33.481  29.972  26.830  1.00  0.00     0.117 C 
BRANCH   2   3
ATOM      3  N   UNL A   1      34.045  29.288  25.674  1.00  0.00    -0.354 N 
ATOM      4  C   UNL A   1      33.438  28.604  24.659  1.00  0.00     0.242 C 
ATOM      5  O   UNL A   1      34.173  27.904  23.952  1.00  0.00    -0.273 OA
ATOM      6  H   UNL A   1      35.027  29.327  25.614  1.00  0.00     0.163 HD
BRANCH   4   7
ATOM      7  C   UNL A   1      31.895  28.531  24.501  1.00  0.00     0.176 C 
ATOM      8  N   UNL A   1      31.282  27.278  25.015  1.00  0.00    -0.313 N 
ATOM      9  C   UNL A   1      30.031  26.805  24.430  1.00  0.00     0.122 C 
ATOM     10  C   UNL A   1      29.910  27.023  22.934  1.00  0.00     0.022 C 
ATOM     11  C   UNL A   1      31.597  28.823  23.016  1.00  0.00     0.035 C 
ATOM     12  C   UNL A   1      30.181  28.477  22.596  1.00  0.00     0.004 C 
BRANCH   8  13
ATOM     13  C   UNL A   1      31.639  26.667  26.210  1.00  0.00     0.322 C 
ATOM     14  N   UNL A   1      32.202  25.429  26.204  1.00  0.00    -0.308 N 
ATOM     15  H   UNL A   1      31.854  24.805  26.881  1.00  0.00     0.171 HD
ATOM     16  O   UNL A   1      31.352  27.175  27.297  1.00  0.00    -0.248 OA
BRANCH  14  17
ATOM     17  C   UNL A   1      33.208  24.912  25.371  1.00  0.00     0.042 A 
ATOM     18  C   UNL A   1      36.287  22.874  23.174  1.00  0.00     0.044 C 
ATOM     19  C   UNL A   1      35.246  23.687  23.884  1.00  0.00    -0.051 A 
ATOM     20  C   UNL A   1      33.947  23.763  23.373  1.00  0.00     0.005 A 
ATOM     21  C   UNL A   1      35.532  24.299  25.110  1.00  0.00     0.005 A 
ATOM     22  C   UNL A   1      32.942  24.398  24.101  1.00  0.00     0.026 A 
ATOM     23  C   UNL A   1      34.521  24.926  25.842  1.00  0.00     0.026 A 
ENDBRANCH  14  17
ENDBRANCH   8  13
ENDBRANCH   4   7
ENDBRANCH   2   3
ENDBRANCH   1   2
BRANCH   1  24
ATOM     24  C   UNL A   1      35.037  31.785  27.689  1.00  0.00     0.118 C 
BRANCH  24  25
ATOM     25  N   UNL A   1      34.152  32.781  28.275  1.00  0.00    -0.352 N 
ATOM     26  C   UNL A   1      34.285  33.492  29.460  1.00  0.00     0.251 C 
ATOM     27  H   UNL A   1      33.341  32.981  27.754  1.00  0.00     0.163 HD
ATOM     28  O   UNL A   1      33.408  34.257  29.812  1.00  0.00    -0.269 OA
BRANCH  26  29
ATOM     29  C   UNL A   1      35.573  33.435  30.203  1.00  0.00     0.039 A 
ATOM     30  C   UNL A   1      36.640  34.181  29.690  1.00  0.00     0.014 A 
ATOM     31  C   UNL A   1      35.800  32.479  31.184  1.00  0.00     0.014 A 
ATOM     32  C   UNL A   1      37.944  33.765  29.943  1.00  0.00     0.010 A 
ATOM     33  C   UNL A   1      37.074  31.977  31.325  1.00  0.00     0.010 A 
ATOM     34  C   UNL A   1      38.137  32.582  30.648  1.00  0.00    -0.014 A 
BRANCH  34  35
ATOM     35  C   UNL A   1      39.396  31.853  30.673  1.00  0.00     0.031 A 
ATOM     36  C   UNL A   1      39.544  30.624  29.871  1.00  0.00     0.074 A 
ATOM     37  C   UNL A   1      40.453  32.370  31.337  1.00  0.00     0.049 A 
ATOM     38  N   UNL A   1      40.431  29.717  30.096  1.00  0.00    -0.248 NA
ATOM     39  C   UNL A   1      38.660  30.299  28.759  1.00  0.00     0.031 C 
ATOM     40  C   UNL A   1      41.850  31.959  31.235  1.00  0.00     0.029 A 
ATOM     41  N   UNL A   1      40.431  33.264  32.418  1.00  0.00    -0.354 N 
ATOM     42  C   UNL A   1      40.424  28.848  29.030  1.00  0.00     0.074 A 
ATOM     43  C   UNL A   1      39.266  29.221  28.252  1.00  0.00     0.031 C 
ATOM     44  C   UNL A   1      42.496  32.340  32.349  1.00  0.00     0.029 A 
ATOM     45  C   UNL A   1      41.501  32.878  33.258  1.00  0.00     0.049 A 
ATOM     46  H   UNL A   1      39.802  34.008  32.563  1.00  0.00     0.167 HD
ATOM     47  C   UNL A   1      41.476  27.996  28.865  1.00  0.00     0.037 A 
ATOM     48  C   UNL A   1      41.282  32.426  34.526  1.00  0.00     0.037 A 
ATOM     49  C   UNL A   1      42.427  28.124  29.967  1.00  0.00     0.049 A 
ATOM     50  C   UNL A   1      41.788  31.025  34.773  1.00  0.00     0.074 A 
ATOM     51  C   UNL A   1      43.613  28.829  30.107  1.00  0.00     0.029 A 
ATOM     52  N   UNL A   1      42.047  27.736  31.246  1.00  0.00    -0.354 N 
ATOM     53  N   UNL A   1      42.042  30.166  33.826  1.00  0.00    -0.248 NA
ATOM     54  C   UNL A   1      42.043  30.478  36.103  1.00  0.00     0.031 C 
ATOM     55  C   UNL A   1      43.928  28.891  31.487  1.00  0.00     0.029 A 
ATOM     56  C   UNL A   1      42.945  28.209  32.182  1.00  0.00     0.049 A 
ATOM     57  H   UNL A   1      41.250  27.198  31.455  1.00  0.00     0.167 HD
ATOM     58  C   UNL A   1      42.471  28.982  34.376  1.00  0.00     0.074 A 
ATOM     59  C   UNL A   1      42.473  29.238  35.804  1.00  0.00     0.031 C 
ATOM     60  C   UNL A   1      42.777  27.901  33.596  1.00  0.00     0.037 A 
BRANCH  47  61
ATOM     61  C   UNL A   1      41.785  27.271  27.573  1.00  0.00     0.057 A 
ATOM     62  C   UNL A   1      41.755  25.863  27.508  1.00  0.00     0.134 A 
ATOM     63  C   UNL A   1      42.170  27.892  26.373  1.00  0.00     0.134 A 
ATOM     64  F   UNL A   1      41.298  25.119  28.524  1.00  0.00    -0.206 F 
ATOM     65  C   UNL A   1      42.193  25.138  26.392  1.00  0.00     0.040 A 
ATOM     66  C   UNL A   1      42.663  27.181  25.267  1.00  0.00     0.040 A 
ATOM     67  F   UNL A   1      42.029  29.209  26.187  1.00  0.00    -0.206 F 
ATOM     68  C   UNL A   1      42.691  25.795  25.280  1.00  0.00     0.006 A 
ENDBRANCH  47  61
BRANCH  48  69
ATOM     69  C   UNL A   1      40.097  33.051  35.170  1.00  0.00     0.057 A 
ATOM     70  C   UNL A   1      38.889  32.331  35.176  1.00  0.00     0.134 A 
ATOM     71  C   UNL A   1      40.228  34.082  36.104  1.00  0.00     0.134 A 
ATOM     72  F   UNL A   1      38.699  31.328  34.303  1.00  0.00    -0.206 F 
ATOM     73  C   UNL A   1      37.908  32.540  36.148  1.00  0.00     0.040 A 
ATOM     74  C   UNL A   1      39.246  34.309  37.076  1.00  0.00     0.040 A 
ATOM     75  F   UNL A   1      41.360  34.798  36.175  1.00  0.00    -0.206 F 
ATOM     76  C   UNL A   1      38.105  33.509  37.127  1.00  0.00     0.006 A 
ENDBRANCH  48  69
BRANCH  60  77
ATOM     77  C   UNL A   1      43.029  26.475  34.049  1.00  0.00     0.057 A 
ATOM     78  C   UNL A   1      44.248  25.795  33.918  1.00  0.00     0.134 A 
ATOM     79  C   UNL A   1      42.045  25.778  34.794  1.00  0.00     0.134 A 
ATOM     80  F   UNL A   1      45.312  26.356  33.335  1.00  0.00    -0.206 F 
ATOM     81  C   UNL A   1      44.456  24.509  34.444  1.00  0.00     0.040 A 
ATOM     82  C   UNL A   1      42.262  24.524  35.374  1.00  0.00     0.040 A 
ATOM     83  F   UNL A   1      40.828  26.293  35.023  1.00  0.00    -0.206 F 
ATOM     84  C   UNL A   1      43.469  23.877  35.189  1.00  0.00     0.006 A 
ENDBRANCH  60  77
ENDBRANCH  34  35
ENDBRANCH  26  29
ENDBRANCH  24  25
ENDBRANCH   1  24
TORSDOF 12
ENDMDL
