MODEL 1
REMARK VINA RESULT:     -11.7      0.000      0.000
REMARK SMILES Cc1ncccc1C(=O)Nc1cnccc1C(=O)NCCCNC(=O)c1ccc(-c2c3nc(c(-c4c(F)cccc4F)c4ccc([nH]4)c(-c4c(F)cccc4F)c4nc(c(-c5c(F)cccc5F)c5ccc2[nH]5)C=C4)C=C3)cc1
REMARK SMILES IDX 21 1 20 2 19 3 17 4 18 5 16 7 11 8 12 9 13 10 15 11 14 12
REMARK SMILES IDX 10 13 8 14 9 15 7 17 1 18 2 19 3 20 4 21 6 22 5 23 22 24
REMARK SMILES IDX 23 25 24 26 25 28 26 29 27 30 79 31 28 32 78 33 29 34 30 35
REMARK SMILES IDX 31 36 72 37 32 38 77 39 71 40 73 41 33 42 76 43 70 44 69 45
REMARK SMILES IDX 34 47 60 48 43 49 59 50 44 51 47 52 58 53 74 54 45 55 46 56
REMARK SMILES IDX 57 58 75 59 48 60 35 61 36 62 41 63 37 64 38 65 40 66 42 67
REMARK SMILES IDX 39 68 61 69 62 70 67 71 63 72 64 73 66 74 68 75 65 76 49 77
REMARK SMILES IDX 50 78 55 79 51 80 52 81 54 82 56 83 53 84
REMARK H PARENT 19 6 10 16 23 27 73 46 47 57
REMARK Flexibility Score: inf
ROOT
ATOM      1  C   UNL A   1      37.900  20.205  24.907  1.00  0.00     0.042 C 
ENDROOT
BRANCH   1   2
ATOM      2  C   UNL A   1      37.401  21.555  24.442  1.00  0.00     0.118 C 
BRANCH   2   3
ATOM      3  N   UNL A   1      36.691  22.319  25.445  1.00  0.00    -0.352 N 
ATOM      4  C   UNL A   1      35.352  22.351  25.750  1.00  0.00     0.253 C 
ATOM      5  O   UNL A   1      34.990  23.066  26.684  1.00  0.00    -0.269 OA
ATOM      6  H   UNL A   1      37.256  22.907  25.996  1.00  0.00     0.163 HD
BRANCH   4   7
ATOM      7  C   UNL A   1      34.319  21.669  24.924  1.00  0.00     0.066 A 
ATOM      8  C   UNL A   1      33.678  22.147  23.776  1.00  0.00     0.072 A 
ATOM      9  C   UNL A   1      32.547  21.432  23.359  1.00  0.00     0.137 A 
ATOM     10  N   UNL A   1      32.122  20.261  23.880  1.00  0.00    -0.263 NA
ATOM     11  C   UNL A   1      33.919  20.425  25.452  1.00  0.00     0.036 A 
ATOM     12  C   UNL A   1      32.845  19.759  24.892  1.00  0.00     0.112 A 
BRANCH   8  13
ATOM     13  N   UNL A   1      34.014  23.238  22.950  1.00  0.00    -0.320 N 
ATOM     14  C   UNL A   1      33.687  24.569  22.933  1.00  0.00     0.257 C 
ATOM     15  O   UNL A   1      33.990  25.210  21.924  1.00  0.00    -0.269 OA
ATOM     16  H   UNL A   1      34.622  22.987  22.217  1.00  0.00     0.170 HD
BRANCH  14  17
ATOM     17  C   UNL A   1      33.030  25.290  24.039  1.00  0.00     0.061 A 
ATOM     18  C   UNL A   1      30.643  24.559  23.480  1.00  0.00     0.067 C 
ATOM     19  C   UNL A   1      31.660  25.291  24.301  1.00  0.00     0.050 A 
ATOM     20  N   UNL A   1      31.136  25.942  25.377  1.00  0.00    -0.261 NA
ATOM     21  C   UNL A   1      31.984  26.550  26.234  1.00  0.00     0.111 A 
ATOM     22  C   UNL A   1      33.884  25.889  24.982  1.00  0.00     0.017 A 
ATOM     23  C   UNL A   1      33.357  26.533  26.093  1.00  0.00     0.021 A 
ENDBRANCH  14  17
ENDBRANCH   8  13
ENDBRANCH   4   7
ENDBRANCH   2   3
ENDBRANCH   1   2
BRANCH   1  24
ATOM     24  C   UNL A   1      38.948  20.248  26.006  1.00  0.00     0.118 C 
BRANCH  24  25
ATOM     25  N   UNL A   1      40.115  19.403  25.774  1.00  0.00    -0.352 N 
ATOM     26  C   UNL A   1      41.463  19.624  25.976  1.00  0.00     0.251 C 
ATOM     27  H   UNL A   1      39.903  18.515  25.408  1.00  0.00     0.163 HD
ATOM     28  O   UNL A   1      42.269  18.767  25.654  1.00  0.00    -0.269 OA
BRANCH  26  29
ATOM     29  C   UNL A   1      41.939  20.910  26.536  1.00  0.00     0.039 A 
ATOM     30  C   UNL A   1      42.252  21.956  25.662  1.00  0.00     0.014 A 
ATOM     31  C   UNL A   1      42.056  21.101  27.909  1.00  0.00     0.014 A 
ATOM     32  C   UNL A   1      42.582  23.213  26.177  1.00  0.00     0.010 A 
ATOM     33  C   UNL A   1      42.230  22.381  28.417  1.00  0.00     0.010 A 
ATOM     34  C   UNL A   1      42.518  23.449  27.560  1.00  0.00    -0.014 A 
BRANCH  34  35
ATOM     35  C   UNL A   1      42.781  24.793  28.133  1.00  0.00     0.031 A 
ATOM     36  C   UNL A   1      44.182  25.184  28.529  1.00  0.00     0.074 A 
ATOM     37  C   UNL A   1      41.754  25.636  28.361  1.00  0.00     0.049 A 
ATOM     38  N   UNL A   1      44.609  26.293  29.075  1.00  0.00    -0.248 NA
ATOM     39  C   UNL A   1      45.238  24.176  28.327  1.00  0.00     0.031 C 
ATOM     40  C   UNL A   1      40.341  25.343  28.107  1.00  0.00     0.029 A 
ATOM     41  N   UNL A   1      41.741  26.917  28.854  1.00  0.00    -0.354 N 
ATOM     42  C   UNL A   1      45.967  26.103  29.303  1.00  0.00     0.074 A 
ATOM     43  C   UNL A   1      46.276  24.747  28.916  1.00  0.00     0.031 C 
ATOM     44  C   UNL A   1      39.607  26.430  28.390  1.00  0.00     0.029 A 
ATOM     45  C   UNL A   1      40.490  27.485  28.875  1.00  0.00     0.049 A 
ATOM     46  H   UNL A   1      42.550  27.383  29.163  1.00  0.00     0.167 HD
ATOM     47  C   UNL A   1      46.886  26.990  29.751  1.00  0.00     0.037 A 
ATOM     48  C   UNL A   1      40.105  28.726  29.226  1.00  0.00     0.037 A 
ATOM     49  C   UNL A   1      46.583  28.354  30.085  1.00  0.00     0.049 A 
ATOM     50  C   UNL A   1      41.149  29.714  29.666  1.00  0.00     0.074 A 
ATOM     51  C   UNL A   1      47.444  29.359  30.486  1.00  0.00     0.029 A 
ATOM     52  N   UNL A   1      45.311  28.906  30.045  1.00  0.00    -0.354 N 
ATOM     53  N   UNL A   1      42.442  29.544  29.801  1.00  0.00    -0.248 NA
ATOM     54  C   UNL A   1      40.683  31.069  29.987  1.00  0.00     0.031 C 
ATOM     55  C   UNL A   1      46.688  30.513  30.717  1.00  0.00     0.029 A 
ATOM     56  C   UNL A   1      45.363  30.238  30.420  1.00  0.00     0.049 A 
ATOM     57  H   UNL A   1      44.493  28.423  29.788  1.00  0.00     0.167 HD
ATOM     58  C   UNL A   1      42.949  30.776  30.189  1.00  0.00     0.074 A 
ATOM     59  C   UNL A   1      41.824  31.687  30.256  1.00  0.00     0.031 C 
ATOM     60  C   UNL A   1      44.230  31.126  30.465  1.00  0.00     0.037 A 
BRANCH  47  61
ATOM     61  C   UNL A   1      48.303  26.506  29.878  1.00  0.00     0.057 A 
ATOM     62  C   UNL A   1      48.764  25.864  31.036  1.00  0.00     0.134 A 
ATOM     63  C   UNL A   1      49.219  26.684  28.833  1.00  0.00     0.134 A 
ATOM     64  F   UNL A   1      47.944  25.677  32.082  1.00  0.00    -0.206 F 
ATOM     65  C   UNL A   1      50.092  25.454  31.168  1.00  0.00     0.040 A 
ATOM     66  C   UNL A   1      50.542  26.249  28.941  1.00  0.00     0.040 A 
ATOM     67  F   UNL A   1      48.845  27.286  27.695  1.00  0.00    -0.206 F 
ATOM     68  C   UNL A   1      50.984  25.641  30.114  1.00  0.00     0.006 A 
ENDBRANCH  47  61
BRANCH  48  69
ATOM     69  C   UNL A   1      38.680  29.126  29.102  1.00  0.00     0.057 A 
ATOM     70  C   UNL A   1      38.159  29.553  27.874  1.00  0.00     0.134 A 
ATOM     71  C   UNL A   1      37.805  29.083  30.192  1.00  0.00     0.134 A 
ATOM     72  F   UNL A   1      38.951  29.626  26.794  1.00  0.00    -0.206 F 
ATOM     73  C   UNL A   1      36.825  29.942  27.739  1.00  0.00     0.040 A 
ATOM     74  C   UNL A   1      36.463  29.448  30.066  1.00  0.00     0.040 A 
ATOM     75  F   UNL A   1      38.239  28.672  31.393  1.00  0.00    -0.206 F 
ATOM     76  C   UNL A   1      35.971  29.885  28.838  1.00  0.00     0.006 A 
ENDBRANCH  48  69
BRANCH  60  77
ATOM     77  C   UNL A   1      44.483  32.560  30.820  1.00  0.00     0.057 A 
ATOM     78  C   UNL A   1      44.475  33.007  32.147  1.00  0.00     0.134 A 
ATOM     79  C   UNL A   1      44.772  33.498  29.820  1.00  0.00     0.134 A 
ATOM     80  F   UNL A   1      44.196  32.159  33.149  1.00  0.00    -0.206 F 
ATOM     81  C   UNL A   1      44.719  34.344  32.466  1.00  0.00     0.040 A 
ATOM     82  C   UNL A   1      45.043  34.831  30.128  1.00  0.00     0.040 A 
ATOM     83  F   UNL A   1      44.805  33.130  28.531  1.00  0.00    -0.206 F 
ATOM     84  C   UNL A   1      45.009  35.258  31.454  1.00  0.00     0.006 A 
ENDBRANCH  60  77
ENDBRANCH  34  35
ENDBRANCH  26  29
ENDBRANCH  24  25
ENDBRANCH   1  24
TORSDOF 12
ENDMDL
MODEL 2
REMARK VINA RESULT:     -11.6      3.877      9.042
REMARK SMILES Cc1ncccc1C(=O)Nc1cnccc1C(=O)NCCCNC(=O)c1ccc(-c2c3nc(c(-c4c(F)cccc4F)c4ccc([nH]4)c(-c4c(F)cccc4F)c4nc(c(-c5c(F)cccc5F)c5ccc2[nH]5)C=C4)C=C3)cc1
REMARK SMILES IDX 21 1 20 2 19 3 17 4 18 5 16 7 11 8 12 9 13 10 15 11 14 12
REMARK SMILES IDX 10 13 8 14 9 15 7 17 1 18 2 19 3 20 4 21 6 22 5 23 22 24
REMARK SMILES IDX 23 25 24 26 25 28 26 29 27 30 79 31 28 32 78 33 29 34 30 35
REMARK SMILES IDX 31 36 72 37 32 38 77 39 71 40 73 41 33 42 76 43 70 44 69 45
REMARK SMILES IDX 34 47 60 48 43 49 59 50 44 51 47 52 58 53 74 54 45 55 46 56
REMARK SMILES IDX 57 58 75 59 48 60 35 61 36 62 41 63 37 64 38 65 40 66 42 67
REMARK SMILES IDX 39 68 61 69 62 70 67 71 63 72 64 73 66 74 68 75 65 76 49 77
REMARK SMILES IDX 50 78 55 79 51 80 52 81 54 82 56 83 53 84
REMARK H PARENT 19 6 10 16 23 27 73 46 47 57
REMARK Flexibility Score: inf
ROOT
ATOM      1  C   UNL A   1      31.570  31.589  26.682  1.00  0.00     0.042 C 
ENDROOT
BRANCH   1   2
ATOM      2  C   UNL A   1      31.775  30.133  27.033  1.00  0.00     0.118 C 
BRANCH   2   3
ATOM      3  N   UNL A   1      32.782  29.454  26.245  1.00  0.00    -0.352 N 
ATOM      4  C   UNL A   1      32.649  28.663  25.130  1.00  0.00     0.253 C 
ATOM      5  O   UNL A   1      33.673  28.221  24.610  1.00  0.00    -0.269 OA
ATOM      6  H   UNL A   1      33.707  29.578  26.557  1.00  0.00     0.163 HD
BRANCH   4   7
ATOM      7  C   UNL A   1      31.328  28.218  24.609  1.00  0.00     0.066 A 
ATOM      8  C   UNL A   1      30.614  27.062  24.943  1.00  0.00     0.072 A 
ATOM      9  C   UNL A   1      29.541  26.736  24.103  1.00  0.00     0.137 A 
ATOM     10  N   UNL A   1      29.062  27.509  23.105  1.00  0.00    -0.263 NA
ATOM     11  C   UNL A   1      30.815  29.060  23.603  1.00  0.00     0.036 A 
ATOM     12  C   UNL A   1      29.686  28.679  22.903  1.00  0.00     0.112 A 
BRANCH   8  13
ATOM     13  N   UNL A   1      30.797  26.176  26.023  1.00  0.00    -0.320 N 
ATOM     14  C   UNL A   1      31.525  25.030  26.217  1.00  0.00     0.257 C 
ATOM     15  O   UNL A   1      31.283  24.376  27.234  1.00  0.00    -0.269 OA
ATOM     16  H   UNL A   1      30.284  26.439  26.822  1.00  0.00     0.170 HD
BRANCH  14  17
ATOM     17  C   UNL A   1      32.588  24.546  25.318  1.00  0.00     0.061 A 
ATOM     18  C   UNL A   1      31.035  23.526  23.560  1.00  0.00     0.067 C 
ATOM     19  C   UNL A   1      32.383  23.870  24.115  1.00  0.00     0.050 A 
ATOM     20  N   UNL A   1      33.421  23.501  23.314  1.00  0.00    -0.261 NA
ATOM     21  C   UNL A   1      34.672  23.854  23.680  1.00  0.00     0.111 A 
ATOM     22  C   UNL A   1      33.899  24.941  25.638  1.00  0.00     0.017 A 
ATOM     23  C   UNL A   1      34.958  24.588  24.814  1.00  0.00     0.021 A 
ENDBRANCH  14  17
ENDBRANCH   8  13
ENDBRANCH   4   7
ENDBRANCH   2   3
ENDBRANCH   1   2
BRANCH   1  24
ATOM     24  C   UNL A   1      32.767  32.490  26.935  1.00  0.00     0.118 C 
BRANCH  24  25
ATOM     25  N   UNL A   1      32.448  33.781  27.534  1.00  0.00    -0.352 N 
ATOM     26  C   UNL A   1      33.088  34.528  28.503  1.00  0.00     0.251 C 
ATOM     27  H   UNL A   1      31.626  34.195  27.184  1.00  0.00     0.163 HD
ATOM     28  O   UNL A   1      32.593  35.576  28.883  1.00  0.00    -0.269 OA
BRANCH  26  29
ATOM     29  C   UNL A   1      34.346  34.043  29.116  1.00  0.00     0.039 A 
ATOM     30  C   UNL A   1      34.278  33.145  30.186  1.00  0.00     0.014 A 
ATOM     31  C   UNL A   1      35.587  34.446  28.633  1.00  0.00     0.014 A 
ATOM     32  C   UNL A   1      35.452  32.582  30.694  1.00  0.00     0.010 A 
ATOM     33  C   UNL A   1      36.735  33.774  29.031  1.00  0.00     0.010 A 
ATOM     34  C   UNL A   1      36.687  32.850  30.082  1.00  0.00    -0.014 A 
BRANCH  34  35
ATOM     35  C   UNL A   1      37.942  32.205  30.543  1.00  0.00     0.031 A 
ATOM     36  C   UNL A   1      38.692  32.771  31.722  1.00  0.00     0.074 A 
ATOM     37  C   UNL A   1      38.442  31.153  29.864  1.00  0.00     0.049 A 
ATOM     38  N   UNL A   1      39.819  32.373  32.254  1.00  0.00    -0.248 NA
ATOM     39  C   UNL A   1      38.126  33.972  32.359  1.00  0.00     0.031 C 
ATOM     40  C   UNL A   1      37.860  30.568  28.654  1.00  0.00     0.029 A 
ATOM     41  N   UNL A   1      39.555  30.385  30.099  1.00  0.00    -0.354 N 
ATOM     42  C   UNL A   1      40.103  33.286  33.262  1.00  0.00     0.074 A 
ATOM     43  C   UNL A   1      39.079  34.304  33.214  1.00  0.00     0.031 C 
ATOM     44  C   UNL A   1      38.586  29.500  28.287  1.00  0.00     0.029 A 
ATOM     45  C   UNL A   1      39.701  29.343  29.214  1.00  0.00     0.049 A 
ATOM     46  H   UNL A   1      40.188  30.564  30.830  1.00  0.00     0.167 HD
ATOM     47  C   UNL A   1      41.100  33.259  34.178  1.00  0.00     0.037 A 
ATOM     48  C   UNL A   1      40.619  28.361  29.173  1.00  0.00     0.037 A 
ATOM     49  C   UNL A   1      42.085  32.217  34.255  1.00  0.00     0.049 A 
ATOM     50  C   UNL A   1      41.683  28.316  30.233  1.00  0.00     0.074 A 
ATOM     51  C   UNL A   1      43.100  32.051  35.180  1.00  0.00     0.029 A 
ATOM     52  N   UNL A   1      42.169  31.151  33.371  1.00  0.00    -0.354 N 
ATOM     53  N   UNL A   1      41.893  29.143  31.229  1.00  0.00    -0.248 NA
ATOM     54  C   UNL A   1      42.629  27.193  30.173  1.00  0.00     0.031 C 
ATOM     55  C   UNL A   1      43.817  30.900  34.837  1.00  0.00     0.029 A 
ATOM     56  C   UNL A   1      43.222  30.326  33.725  1.00  0.00     0.049 A 
ATOM     57  H   UNL A   1      41.567  31.003  32.606  1.00  0.00     0.167 HD
ATOM     58  C   UNL A   1      42.971  28.624  31.933  1.00  0.00     0.074 A 
ATOM     59  C   UNL A   1      43.363  27.404  31.256  1.00  0.00     0.031 C 
ATOM     60  C   UNL A   1      43.583  29.111  33.042  1.00  0.00     0.037 A 
BRANCH  47  61
ATOM     61  C   UNL A   1      41.147  34.382  35.175  1.00  0.00     0.057 A 
ATOM     62  C   UNL A   1      40.457  34.317  36.394  1.00  0.00     0.134 A 
ATOM     63  C   UNL A   1      41.886  35.543  34.915  1.00  0.00     0.134 A 
ATOM     64  F   UNL A   1      39.715  33.242  36.700  1.00  0.00    -0.206 F 
ATOM     65  C   UNL A   1      40.468  35.381  37.299  1.00  0.00     0.040 A 
ATOM     66  C   UNL A   1      41.930  36.600  35.827  1.00  0.00     0.040 A 
ATOM     67  F   UNL A   1      42.573  35.671  33.771  1.00  0.00    -0.206 F 
ATOM     68  C   UNL A   1      41.211  36.524  37.018  1.00  0.00     0.006 A 
ENDBRANCH  47  61
BRANCH  48  69
ATOM     69  C   UNL A   1      40.526  27.299  28.139  1.00  0.00     0.057 A 
ATOM     70  C   UNL A   1      39.780  26.136  28.369  1.00  0.00     0.134 A 
ATOM     71  C   UNL A   1      41.165  27.419  26.900  1.00  0.00     0.134 A 
ATOM     72  F   UNL A   1      39.154  25.958  29.542  1.00  0.00    -0.206 F 
ATOM     73  C   UNL A   1      39.689  25.123  27.414  1.00  0.00     0.040 A 
ATOM     74  C   UNL A   1      41.063  26.423  25.926  1.00  0.00     0.040 A 
ATOM     75  F   UNL A   1      41.885  28.513  26.613  1.00  0.00    -0.206 F 
ATOM     76  C   UNL A   1      40.328  25.268  26.184  1.00  0.00     0.006 A 
ENDBRANCH  48  69
BRANCH  60  77
ATOM     77  C   UNL A   1      44.708  28.300  33.611  1.00  0.00     0.057 A 
ATOM     78  C   UNL A   1      46.043  28.533  33.256  1.00  0.00     0.134 A 
ATOM     79  C   UNL A   1      44.452  27.293  34.551  1.00  0.00     0.134 A 
ATOM     80  F   UNL A   1      46.351  29.476  32.353  1.00  0.00    -0.206 F 
ATOM     81  C   UNL A   1      47.082  27.776  33.797  1.00  0.00     0.040 A 
ATOM     82  C   UNL A   1      45.484  26.547  35.119  1.00  0.00     0.040 A 
ATOM     83  F   UNL A   1      43.196  27.028  34.939  1.00  0.00    -0.206 F 
ATOM     84  C   UNL A   1      46.803  26.782  34.736  1.00  0.00     0.006 A 
ENDBRANCH  60  77
ENDBRANCH  34  35
ENDBRANCH  26  29
ENDBRANCH  24  25
ENDBRANCH   1  24
TORSDOF 12
ENDMDL
MODEL 3
REMARK VINA RESULT:     -11.6      1.242      2.133
REMARK SMILES Cc1ncccc1C(=O)Nc1cnccc1C(=O)NCCCNC(=O)c1ccc(-c2c3nc(c(-c4c(F)cccc4F)c4ccc([nH]4)c(-c4c(F)cccc4F)c4nc(c(-c5c(F)cccc5F)c5ccc2[nH]5)C=C4)C=C3)cc1
REMARK SMILES IDX 21 1 20 2 19 3 17 4 18 5 16 7 11 8 12 9 13 10 15 11 14 12
REMARK SMILES IDX 10 13 8 14 9 15 7 17 1 18 2 19 3 20 4 21 6 22 5 23 22 24
REMARK SMILES IDX 23 25 24 26 25 28 26 29 27 30 79 31 28 32 78 33 29 34 30 35
REMARK SMILES IDX 31 36 72 37 32 38 77 39 71 40 73 41 33 42 76 43 70 44 69 45
REMARK SMILES IDX 34 47 60 48 43 49 59 50 44 51 47 52 58 53 74 54 45 55 46 56
REMARK SMILES IDX 57 58 75 59 48 60 35 61 36 62 41 63 37 64 38 65 40 66 42 67
REMARK SMILES IDX 39 68 61 69 62 70 67 71 63 72 64 73 66 74 68 75 65 76 49 77
REMARK SMILES IDX 50 78 55 79 51 80 52 81 54 82 56 83 53 84
REMARK H PARENT 19 6 10 16 23 27 73 46 47 57
REMARK Flexibility Score: inf
ROOT
ATOM      1  C   UNL A   1      37.876  20.124  25.000  1.00  0.00     0.042 C 
ENDROOT
BRANCH   1   2
ATOM      2  C   UNL A   1      37.402  21.484  24.538  1.00  0.00     0.118 C 
BRANCH   2   3
ATOM      3  N   UNL A   1      36.653  22.234  25.525  1.00  0.00    -0.352 N 
ATOM      4  C   UNL A   1      35.304  22.265  25.777  1.00  0.00     0.253 C 
ATOM      5  O   UNL A   1      34.906  22.965  26.707  1.00  0.00    -0.269 OA
ATOM      6  H   UNL A   1      37.197  22.812  26.107  1.00  0.00     0.163 HD
BRANCH   4   7
ATOM      7  C   UNL A   1      34.303  21.598  24.900  1.00  0.00     0.066 A 
ATOM      8  C   UNL A   1      33.691  22.104  23.748  1.00  0.00     0.072 A 
ATOM      9  C   UNL A   1      32.581  21.392  23.276  1.00  0.00     0.137 A 
ATOM     10  N   UNL A   1      32.153  20.201  23.749  1.00  0.00    -0.263 NA
ATOM     11  C   UNL A   1      33.901  20.334  25.378  1.00  0.00     0.036 A 
ATOM     12  C   UNL A   1      32.851  19.676  24.766  1.00  0.00     0.112 A 
BRANCH   8  13
ATOM     13  N   UNL A   1      34.039  23.224  22.967  1.00  0.00    -0.320 N 
ATOM     14  C   UNL A   1      33.700  24.552  22.981  1.00  0.00     0.257 C 
ATOM     15  O   UNL A   1      34.025  25.226  22.001  1.00  0.00    -0.269 OA
ATOM     16  H   UNL A   1      34.671  23.001  22.245  1.00  0.00     0.170 HD
BRANCH  14  17
ATOM     17  C   UNL A   1      33.004  25.232  24.089  1.00  0.00     0.061 A 
ATOM     18  C   UNL A   1      30.654  24.409  23.501  1.00  0.00     0.067 C 
ATOM     19  C   UNL A   1      31.633  25.173  24.339  1.00  0.00     0.050 A 
ATOM     20  N   UNL A   1      31.073  25.789  25.417  1.00  0.00    -0.261 NA
ATOM     21  C   UNL A   1      31.888  26.422  26.289  1.00  0.00     0.111 A 
ATOM     22  C   UNL A   1      33.824  25.855  25.046  1.00  0.00     0.017 A 
ATOM     23  C   UNL A   1      33.261  26.464  26.159  1.00  0.00     0.021 A 
ENDBRANCH  14  17
ENDBRANCH   8  13
ENDBRANCH   4   7
ENDBRANCH   2   3
ENDBRANCH   1   2
BRANCH   1  24
ATOM     24  C   UNL A   1      38.931  20.146  26.093  1.00  0.00     0.118 C 
BRANCH  24  25
ATOM     25  N   UNL A   1      40.029  19.203  25.906  1.00  0.00    -0.352 N 
ATOM     26  C   UNL A   1      41.397  19.353  26.008  1.00  0.00     0.251 C 
ATOM     27  H   UNL A   1      39.741  18.293  25.662  1.00  0.00     0.163 HD
ATOM     28  O   UNL A   1      42.129  18.412  25.751  1.00  0.00    -0.269 OA
BRANCH  26  29
ATOM     29  C   UNL A   1      41.984  20.661  26.380  1.00  0.00     0.039 A 
ATOM     30  C   UNL A   1      42.222  21.609  25.379  1.00  0.00     0.014 A 
ATOM     31  C   UNL A   1      42.278  20.971  27.704  1.00  0.00     0.014 A 
ATOM     32  C   UNL A   1      42.657  22.890  25.727  1.00  0.00     0.010 A 
ATOM     33  C   UNL A   1      42.558  22.282  28.062  1.00  0.00     0.010 A 
ATOM     34  C   UNL A   1      42.774  23.254  27.078  1.00  0.00    -0.014 A 
BRANCH  34  35
ATOM     35  C   UNL A   1      43.153  24.631  27.484  1.00  0.00     0.031 A 
ATOM     36  C   UNL A   1      44.593  25.069  27.411  1.00  0.00     0.074 A 
ATOM     37  C   UNL A   1      42.216  25.464  27.981  1.00  0.00     0.049 A 
ATOM     38  N   UNL A   1      45.128  26.214  27.750  1.00  0.00    -0.248 NA
ATOM     39  C   UNL A   1      45.571  24.074  26.937  1.00  0.00     0.031 C 
ATOM     40  C   UNL A   1      40.805  25.129  28.188  1.00  0.00     0.029 A 
ATOM     41  N   UNL A   1      42.311  26.767  28.399  1.00  0.00    -0.354 N 
ATOM     42  C   UNL A   1      46.496  26.064  27.556  1.00  0.00     0.074 A 
ATOM     43  C   UNL A   1      46.719  24.695  27.151  1.00  0.00     0.031 C 
ATOM     44  C   UNL A   1      40.156  26.215  28.637  1.00  0.00     0.029 A 
ATOM     45  C   UNL A   1      41.107  27.311  28.781  1.00  0.00     0.049 A 
ATOM     46  H   UNL A   1      43.158  27.265  28.423  1.00  0.00     0.167 HD
ATOM     47  C   UNL A   1      47.477  26.991  27.660  1.00  0.00     0.037 A 
ATOM     48  C   UNL A   1      40.805  28.560  29.179  1.00  0.00     0.037 A 
ATOM     49  C   UNL A   1      47.244  28.364  28.013  1.00  0.00     0.049 A 
ATOM     50  C   UNL A   1      41.899  29.590  29.233  1.00  0.00     0.074 A 
ATOM     51  C   UNL A   1      48.150  29.406  28.084  1.00  0.00     0.029 A 
ATOM     52  N   UNL A   1      46.002  28.887  28.343  1.00  0.00    -0.354 N 
ATOM     53  N   UNL A   1      43.176  29.454  28.969  1.00  0.00    -0.248 NA
ATOM     54  C   UNL A   1      41.507  30.950  29.623  1.00  0.00     0.031 C 
ATOM     55  C   UNL A   1      47.461  30.554  28.488  1.00  0.00     0.029 A 
ATOM     56  C   UNL A   1      46.119  30.237  28.626  1.00  0.00     0.049 A 
ATOM     57  H   UNL A   1      45.162  28.375  28.372  1.00  0.00     0.167 HD
ATOM     58  C   UNL A   1      43.735  30.714  29.129  1.00  0.00     0.074 A 
ATOM     59  C   UNL A   1      42.653  31.604  29.500  1.00  0.00     0.031 C 
ATOM     60  C   UNL A   1      45.025  31.103  28.981  1.00  0.00     0.037 A 
BRANCH  47  61
ATOM     61  C   UNL A   1      48.880  26.542  27.364  1.00  0.00     0.057 A 
ATOM     62  C   UNL A   1      49.402  26.558  26.063  1.00  0.00     0.134 A 
ATOM     63  C   UNL A   1      49.719  26.087  28.389  1.00  0.00     0.134 A 
ATOM     64  F   UNL A   1      48.647  26.965  25.032  1.00  0.00    -0.206 F 
ATOM     65  C   UNL A   1      50.692  26.099  25.786  1.00  0.00     0.040 A 
ATOM     66  C   UNL A   1      51.022  25.656  28.129  1.00  0.00     0.040 A 
ATOM     67  F   UNL A   1      49.287  26.049  29.658  1.00  0.00    -0.206 F 
ATOM     68  C   UNL A   1      51.508  25.653  26.822  1.00  0.00     0.006 A 
ENDBRANCH  47  61
BRANCH  48  69
ATOM     69  C   UNL A   1      39.398  28.924  29.484  1.00  0.00     0.057 A 
ATOM     70  C   UNL A   1      38.881  28.770  30.776  1.00  0.00     0.134 A 
ATOM     71  C   UNL A   1      38.542  29.440  28.506  1.00  0.00     0.134 A 
ATOM     72  F   UNL A   1      39.649  28.268  31.754  1.00  0.00    -0.206 F 
ATOM     73  C   UNL A   1      37.559  29.097  31.080  1.00  0.00     0.040 A 
ATOM     74  C   UNL A   1      37.224  29.793  28.801  1.00  0.00     0.040 A 
ATOM     75  F   UNL A   1      38.980  29.624  27.251  1.00  0.00    -0.206 F 
ATOM     76  C   UNL A   1      36.727  29.616  30.091  1.00  0.00     0.006 A 
ENDBRANCH  48  69
BRANCH  60  77
ATOM     77  C   UNL A   1      45.325  32.559  29.178  1.00  0.00     0.057 A 
ATOM     78  C   UNL A   1      45.227  33.484  28.131  1.00  0.00     0.134 A 
ATOM     79  C   UNL A   1      45.684  33.044  30.443  1.00  0.00     0.134 A 
ATOM     80  F   UNL A   1      44.898  33.079  26.895  1.00  0.00    -0.206 F 
ATOM     81  C   UNL A   1      45.502  34.837  28.329  1.00  0.00     0.040 A 
ATOM     82  C   UNL A   1      45.936  34.399  30.659  1.00  0.00     0.040 A 
ATOM     83  F   UNL A   1      45.784  32.210  31.488  1.00  0.00    -0.206 F 
ATOM     84  C   UNL A   1      45.853  35.298  29.598  1.00  0.00     0.006 A 
ENDBRANCH  60  77
ENDBRANCH  34  35
ENDBRANCH  26  29
ENDBRANCH  24  25
ENDBRANCH   1  24
TORSDOF 12
ENDMDL
