MODEL 1
REMARK VINA RESULT:     -12.1      0.000      0.000
REMARK SMILES COc1ccc(C)cc1C(=O)N1CSC[C@H]1C(=O)NCCCNC(=O)c1ccc(-c2c3nc(c(-c4c(F)cccc4F)c4ccc([nH]4)c(-c4c(F)cccc4F)c4nc(c(-c5c(F)cccc5F)c5ccc2[nH]5)C=C4)C=C3)cc1
REMARK SMILES IDX 20 1 19 2 17 3 18 4 16 6 12 7 13 8 14 9 15 10 10 11 11 12
REMARK SMILES IDX 9 13 3 14 4 15 5 16 8 17 6 18 7 19 2 20 1 21 21 22 22 23
REMARK SMILES IDX 23 24 24 25 25 27 26 28 27 29 79 30 28 31 78 32 29 33 30 34
REMARK SMILES IDX 31 35 72 36 32 37 77 38 71 39 73 40 33 41 76 42 70 43 69 44
REMARK SMILES IDX 34 46 60 47 43 48 59 49 44 50 47 51 58 52 74 53 45 54 46 55
REMARK SMILES IDX 57 57 75 58 48 59 35 60 36 61 41 62 37 63 38 64 40 65 42 66
REMARK SMILES IDX 39 67 61 68 62 69 67 70 63 71 64 72 66 73 68 74 65 75 49 76
REMARK SMILES IDX 50 77 55 78 51 79 52 80 54 81 56 82 53 83
REMARK H PARENT 19 5 23 26 73 45 47 56
REMARK Flexibility Score: inf
ROOT
ATOM      1  C   UNL A   1      32.276  29.112  27.338  1.00  0.00     0.117 C 
ENDROOT
BRANCH   1   2
ATOM      2  N   UNL A   1      31.738  29.568  26.070  1.00  0.00    -0.354 N 
ATOM      3  C   UNL A   1      31.649  28.987  24.841  1.00  0.00     0.243 C 
ATOM      4  O   UNL A   1      30.945  29.599  24.026  1.00  0.00    -0.273 OA
ATOM      5  H   UNL A   1      31.360  30.476  26.104  1.00  0.00     0.163 HD
BRANCH   3   6
ATOM      6  C   UNL A   1      32.279  27.624  24.447  1.00  0.00     0.185 C 
ATOM      7  N   UNL A   1      31.484  26.395  24.595  1.00  0.00    -0.316 N 
ATOM      8  C   UNL A   1      30.934  25.903  23.366  1.00  0.00     0.190 C 
ATOM      9  S   UNL A   1      32.078  26.373  22.057  1.00  0.00    -0.138 SA
ATOM     10  C   UNL A   1      32.932  27.630  23.066  1.00  0.00     0.106 C 
BRANCH   7  11
ATOM     11  C   UNL A   1      31.420  25.811  25.851  1.00  0.00     0.259 C 
ATOM     12  O   UNL A   1      30.562  26.209  26.648  1.00  0.00    -0.269 OA
BRANCH  11  13
ATOM     13  C   UNL A   1      32.367  24.759  26.361  1.00  0.00     0.082 A 
ATOM     14  C   UNL A   1      32.033  23.574  27.044  1.00  0.00     0.131 A 
ATOM     15  C   UNL A   1      33.006  22.575  27.232  1.00  0.00     0.047 A 
ATOM     16  C   UNL A   1      34.307  22.732  26.763  1.00  0.00     0.007 A 
ATOM     17  C   UNL A   1      33.703  24.901  25.913  1.00  0.00     0.021 A 
ATOM     18  C   UNL A   1      34.668  23.898  26.093  1.00  0.00    -0.050 A 
ATOM     19  C   UNL A   1      36.038  24.049  25.501  1.00  0.00     0.044 C 
BRANCH  14  20
ATOM     20  O   UNL A   1      30.745  23.305  27.429  1.00  0.00    -0.496 OA
ATOM     21  C   UNL A   1      30.055  22.436  26.517  1.00  0.00     0.278 C 
ENDBRANCH  14  20
ENDBRANCH  11  13
ENDBRANCH   7  11
ENDBRANCH   3   6
ENDBRANCH   1   2
BRANCH   1  22
ATOM     22  C   UNL A   1      33.794  29.218  27.392  1.00  0.00     0.042 C 
BRANCH  22  23
ATOM     23  C   UNL A   1      34.326  30.624  27.203  1.00  0.00     0.118 C 
BRANCH  23  24
ATOM     24  N   UNL A   1      34.678  31.292  28.456  1.00  0.00    -0.352 N 
ATOM     25  C   UNL A   1      35.733  31.005  29.310  1.00  0.00     0.251 C 
ATOM     26  H   UNL A   1      34.094  32.038  28.725  1.00  0.00     0.163 HD
ATOM     27  O   UNL A   1      35.936  31.667  30.310  1.00  0.00    -0.269 OA
BRANCH  25  28
ATOM     28  C   UNL A   1      36.681  29.947  28.890  1.00  0.00     0.039 A 
ATOM     29  C   UNL A   1      36.956  28.933  29.807  1.00  0.00     0.014 A 
ATOM     30  C   UNL A   1      37.495  30.153  27.779  1.00  0.00     0.014 A 
ATOM     31  C   UNL A   1      38.194  28.301  29.753  1.00  0.00     0.010 A 
ATOM     32  C   UNL A   1      38.765  29.605  27.789  1.00  0.00     0.010 A 
ATOM     33  C   UNL A   1      39.139  28.735  28.819  1.00  0.00    -0.014 A 
BRANCH  33  34
ATOM     34  C   UNL A   1      40.562  28.444  28.970  1.00  0.00     0.031 A 
ATOM     35  C   UNL A   1      41.168  27.254  28.337  1.00  0.00     0.074 A 
ATOM     36  C   UNL A   1      41.350  29.244  29.724  1.00  0.00     0.049 A 
ATOM     37  N   UNL A   1      42.122  26.569  28.877  1.00  0.00    -0.248 NA
ATOM     38  C   UNL A   1      40.720  26.715  27.059  1.00  0.00     0.031 C 
ATOM     39  C   UNL A   1      42.806  29.189  29.830  1.00  0.00     0.029 A 
ATOM     40  N   UNL A   1      40.960  30.142  30.729  1.00  0.00    -0.354 N 
ATOM     41  C   UNL A   1      42.579  25.682  27.934  1.00  0.00     0.074 A 
ATOM     42  C   UNL A   1      41.635  25.767  26.842  1.00  0.00     0.031 C 
ATOM     43  C   UNL A   1      43.177  29.758  30.986  1.00  0.00     0.029 A 
ATOM     44  C   UNL A   1      41.970  30.102  31.715  1.00  0.00     0.049 A 
ATOM     45  H   UNL A   1      40.143  30.691  30.744  1.00  0.00     0.167 HD
ATOM     46  C   UNL A   1      43.780  25.058  28.101  1.00  0.00     0.037 A 
ATOM     47  C   UNL A   1      41.716  29.782  33.013  1.00  0.00     0.037 A 
ATOM     48  C   UNL A   1      44.462  25.500  29.310  1.00  0.00     0.049 A 
ATOM     49  C   UNL A   1      42.509  28.608  33.529  1.00  0.00     0.074 A 
ATOM     50  C   UNL A   1      45.439  26.459  29.521  1.00  0.00     0.029 A 
ATOM     51  N   UNL A   1      43.970  25.155  30.561  1.00  0.00    -0.354 N 
ATOM     52  N   UNL A   1      43.113  27.749  32.759  1.00  0.00    -0.248 NA
ATOM     53  C   UNL A   1      42.645  28.277  34.945  1.00  0.00     0.031 C 
ATOM     54  C   UNL A   1      45.534  26.697  30.910  1.00  0.00     0.029 A 
ATOM     55  C   UNL A   1      44.616  25.879  31.544  1.00  0.00     0.049 A 
ATOM     56  H   UNL A   1      43.261  24.492  30.725  1.00  0.00     0.167 HD
ATOM     57  C   UNL A   1      43.667  26.754  33.525  1.00  0.00     0.074 A 
ATOM     58  C   UNL A   1      43.371  27.147  34.890  1.00  0.00     0.031 C 
ATOM     59  C   UNL A   1      44.303  25.689  32.951  1.00  0.00     0.037 A 
BRANCH  46  60
ATOM     60  C   UNL A   1      44.452  24.292  26.990  1.00  0.00     0.057 A 
ATOM     61  C   UNL A   1      44.148  22.941  26.738  1.00  0.00     0.134 A 
ATOM     62  C   UNL A   1      45.442  24.836  26.157  1.00  0.00     0.134 A 
ATOM     63  F   UNL A   1      43.149  22.310  27.369  1.00  0.00    -0.206 F 
ATOM     64  C   UNL A   1      44.867  22.160  25.827  1.00  0.00     0.040 A 
ATOM     65  C   UNL A   1      46.205  24.055  25.278  1.00  0.00     0.040 A 
ATOM     66  F   UNL A   1      45.696  26.154  26.152  1.00  0.00    -0.206 F 
ATOM     67  C   UNL A   1      45.929  22.705  25.123  1.00  0.00     0.006 A 
ENDBRANCH  46  60
BRANCH  47  68
ATOM     68  C   UNL A   1      40.356  30.148  33.471  1.00  0.00     0.057 A 
ATOM     69  C   UNL A   1      40.107  31.476  33.858  1.00  0.00     0.134 A 
ATOM     70  C   UNL A   1      39.248  29.341  33.209  1.00  0.00     0.134 A 
ATOM     71  F   UNL A   1      41.129  32.304  34.120  1.00  0.00    -0.206 F 
ATOM     72  C   UNL A   1      38.815  32.006  33.887  1.00  0.00     0.040 A 
ATOM     73  C   UNL A   1      37.948  29.859  33.238  1.00  0.00     0.040 A 
ATOM     74  F   UNL A   1      39.409  28.070  32.812  1.00  0.00    -0.206 F 
ATOM     75  C   UNL A   1      37.732  31.202  33.544  1.00  0.00     0.006 A 
ENDBRANCH  47  68
BRANCH  59  76
ATOM     76  C   UNL A   1      44.777  24.424  33.633  1.00  0.00     0.057 A 
ATOM     77  C   UNL A   1      46.120  24.057  33.794  1.00  0.00     0.134 A 
ATOM     78  C   UNL A   1      43.851  23.581  34.294  1.00  0.00     0.134 A 
ATOM     79  F   UNL A   1      47.119  24.814  33.321  1.00  0.00    -0.206 F 
ATOM     80  C   UNL A   1      46.509  22.914  34.510  1.00  0.00     0.040 A 
ATOM     81  C   UNL A   1      44.231  22.470  35.054  1.00  0.00     0.040 A 
ATOM     82  F   UNL A   1      42.529  23.809  34.253  1.00  0.00    -0.206 F 
ATOM     83  C   UNL A   1      45.566  22.123  35.153  1.00  0.00     0.006 A 
ENDBRANCH  59  76
ENDBRANCH  33  34
ENDBRANCH  25  28
ENDBRANCH  23  24
ENDBRANCH  22  23
ENDBRANCH   1  22
TORSDOF 13
ENDMDL
MODEL 2
REMARK VINA RESULT:     -12.1      1.413      2.680
REMARK SMILES COc1ccc(C)cc1C(=O)N1CSC[C@H]1C(=O)NCCCNC(=O)c1ccc(-c2c3nc(c(-c4c(F)cccc4F)c4ccc([nH]4)c(-c4c(F)cccc4F)c4nc(c(-c5c(F)cccc5F)c5ccc2[nH]5)C=C4)C=C3)cc1
REMARK SMILES IDX 20 1 19 2 17 3 18 4 16 6 12 7 13 8 14 9 15 10 10 11 11 12
REMARK SMILES IDX 9 13 3 14 4 15 5 16 8 17 6 18 7 19 2 20 1 21 21 22 22 23
REMARK SMILES IDX 23 24 24 25 25 27 26 28 27 29 79 30 28 31 78 32 29 33 30 34
REMARK SMILES IDX 31 35 72 36 32 37 77 38 71 39 73 40 33 41 76 42 70 43 69 44
REMARK SMILES IDX 34 46 60 47 43 48 59 49 44 50 47 51 58 52 74 53 45 54 46 55
REMARK SMILES IDX 57 57 75 58 48 59 35 60 36 61 41 62 37 63 38 64 40 65 42 66
REMARK SMILES IDX 39 67 61 68 62 69 67 70 63 71 64 72 66 73 68 74 65 75 49 76
REMARK SMILES IDX 50 77 55 78 51 79 52 80 54 81 56 82 53 83
REMARK H PARENT 19 5 23 26 73 45 47 56
REMARK Flexibility Score: inf
ROOT
ATOM      1  C   UNL A   1      32.007  29.989  25.518  1.00  0.00     0.117 C 
ENDROOT
BRANCH   1   2
ATOM      2  N   UNL A   1      33.180  29.697  24.715  1.00  0.00    -0.354 N 
ATOM      3  C   UNL A   1      33.699  28.537  24.224  1.00  0.00     0.243 C 
ATOM      4  O   UNL A   1      34.617  28.685  23.406  1.00  0.00    -0.273 OA
ATOM      5  H   UNL A   1      33.704  30.495  24.477  1.00  0.00     0.163 HD
BRANCH   3   6
ATOM      6  C   UNL A   1      33.173  27.113  24.548  1.00  0.00     0.185 C 
ATOM      7  N   UNL A   1      33.217  26.076  23.505  1.00  0.00    -0.316 N 
ATOM      8  C   UNL A   1      34.296  25.144  23.653  1.00  0.00     0.190 C 
ATOM      9  S   UNL A   1      34.627  25.005  25.418  1.00  0.00    -0.138 SA
ATOM     10  C   UNL A   1      33.734  26.537  25.846  1.00  0.00     0.106 C 
BRANCH   7  11
ATOM     11  C   UNL A   1      32.196  26.056  22.567  1.00  0.00     0.259 C 
ATOM     12  O   UNL A   1      32.452  25.673  21.420  1.00  0.00    -0.269 OA
BRANCH  11  13
ATOM     13  C   UNL A   1      30.790  26.534  22.812  1.00  0.00     0.082 A 
ATOM     14  C   UNL A   1      29.817  25.926  23.627  1.00  0.00     0.131 A 
ATOM     15  C   UNL A   1      28.639  26.624  23.952  1.00  0.00     0.047 A 
ATOM     16  C   UNL A   1      28.405  27.912  23.477  1.00  0.00     0.007 A 
ATOM     17  C   UNL A   1      30.516  27.834  22.325  1.00  0.00     0.021 A 
ATOM     18  C   UNL A   1      29.345  28.533  22.661  1.00  0.00    -0.050 A 
ATOM     19  C   UNL A   1      29.154  29.951  22.212  1.00  0.00     0.044 C 
BRANCH  14  20
ATOM     20  O   UNL A   1      30.035  24.710  24.223  1.00  0.00    -0.496 OA
ATOM     21  C   UNL A   1      30.472  24.822  25.587  1.00  0.00     0.278 C 
ENDBRANCH  14  20
ENDBRANCH  11  13
ENDBRANCH   7  11
ENDBRANCH   3   6
ENDBRANCH   1   2
BRANCH   1  22
ATOM     22  C   UNL A   1      32.362  30.670  26.833  1.00  0.00     0.042 C 
BRANCH  22  23
ATOM     23  C   UNL A   1      33.750  30.343  27.347  1.00  0.00     0.118 C 
BRANCH  23  24
ATOM     24  N   UNL A   1      34.275  31.332  28.289  1.00  0.00    -0.352 N 
ATOM     25  C   UNL A   1      35.454  31.275  29.017  1.00  0.00     0.251 C 
ATOM     26  H   UNL A   1      33.723  32.136  28.421  1.00  0.00     0.163 HD
ATOM     27  O   UNL A   1      35.793  32.190  29.744  1.00  0.00    -0.269 OA
BRANCH  25  28
ATOM     28  C   UNL A   1      36.350  30.121  28.774  1.00  0.00     0.039 A 
ATOM     29  C   UNL A   1      36.680  29.325  29.872  1.00  0.00     0.014 A 
ATOM     30  C   UNL A   1      37.079  30.051  27.590  1.00  0.00     0.014 A 
ATOM     31  C   UNL A   1      37.900  28.657  29.870  1.00  0.00     0.010 A 
ATOM     32  C   UNL A   1      38.336  29.478  27.629  1.00  0.00     0.010 A 
ATOM     33  C   UNL A   1      38.776  28.844  28.796  1.00  0.00    -0.014 A 
BRANCH  33  34
ATOM     34  C   UNL A   1      40.202  28.548  28.904  1.00  0.00     0.031 A 
ATOM     35  C   UNL A   1      40.771  27.316  28.318  1.00  0.00     0.074 A 
ATOM     36  C   UNL A   1      41.027  29.382  29.578  1.00  0.00     0.049 A 
ATOM     37  N   UNL A   1      41.742  26.655  28.857  1.00  0.00    -0.248 NA
ATOM     38  C   UNL A   1      40.265  26.710  27.093  1.00  0.00     0.031 C 
ATOM     39  C   UNL A   1      42.486  29.319  29.625  1.00  0.00     0.029 A 
ATOM     40  N   UNL A   1      40.687  30.340  30.543  1.00  0.00    -0.354 N 
ATOM     41  C   UNL A   1      42.152  25.709  27.949  1.00  0.00     0.074 A 
ATOM     42  C   UNL A   1      41.163  25.740  26.894  1.00  0.00     0.031 C 
ATOM     43  C   UNL A   1      42.910  29.949  30.730  1.00  0.00     0.029 A 
ATOM     44  C   UNL A   1      41.738  30.347  31.487  1.00  0.00     0.049 A 
ATOM     45  H   UNL A   1      39.876  30.898  30.561  1.00  0.00     0.167 HD
ATOM     46  C   UNL A   1      43.354  25.084  28.102  1.00  0.00     0.037 A 
ATOM     47  C   UNL A   1      41.536  30.106  32.811  1.00  0.00     0.037 A 
ATOM     48  C   UNL A   1      44.090  25.588  29.253  1.00  0.00     0.049 A 
ATOM     49  C   UNL A   1      42.341  28.956  33.361  1.00  0.00     0.074 A 
ATOM     50  C   UNL A   1      45.082  26.548  29.366  1.00  0.00     0.029 A 
ATOM     51  N   UNL A   1      43.647  25.322  30.542  1.00  0.00    -0.354 N 
ATOM     52  N   UNL A   1      42.906  28.047  32.618  1.00  0.00    -0.248 NA
ATOM     53  C   UNL A   1      42.534  28.706  34.787  1.00  0.00     0.031 C 
ATOM     54  C   UNL A   1      45.238  26.865  30.734  1.00  0.00     0.029 A 
ATOM     55  C   UNL A   1      44.341  26.095  31.453  1.00  0.00     0.049 A 
ATOM     56  H   UNL A   1      42.941  24.677  30.773  1.00  0.00     0.167 HD
ATOM     57  C   UNL A   1      43.483  27.092  33.418  1.00  0.00     0.074 A 
ATOM     58  C   UNL A   1      43.249  27.567  34.768  1.00  0.00     0.031 C 
ATOM     59  C   UNL A   1      44.086  25.990  32.880  1.00  0.00     0.037 A 
BRANCH  46  60
ATOM     60  C   UNL A   1      43.971  24.248  27.010  1.00  0.00     0.057 A 
ATOM     61  C   UNL A   1      44.776  24.823  26.007  1.00  0.00     0.134 A 
ATOM     62  C   UNL A   1      43.771  22.864  26.881  1.00  0.00     0.134 A 
ATOM     63  F   UNL A   1      45.153  26.106  26.051  1.00  0.00    -0.206 F 
ATOM     64  C   UNL A   1      45.226  24.105  24.894  1.00  0.00     0.040 A 
ATOM     65  C   UNL A   1      44.172  22.144  25.747  1.00  0.00     0.040 A 
ATOM     66  F   UNL A   1      43.193  22.153  27.861  1.00  0.00    -0.206 F 
ATOM     67  C   UNL A   1      44.889  22.770  24.738  1.00  0.00     0.006 A 
ENDBRANCH  46  60
BRANCH  47  68
ATOM     68  C   UNL A   1      40.199  30.512  33.303  1.00  0.00     0.057 A 
ATOM     69  C   UNL A   1      39.958  31.873  33.559  1.00  0.00     0.134 A 
ATOM     70  C   UNL A   1      39.088  29.676  33.192  1.00  0.00     0.134 A 
ATOM     71  F   UNL A   1      40.984  32.730  33.673  1.00  0.00    -0.206 F 
ATOM     72  C   UNL A   1      38.663  32.396  33.604  1.00  0.00     0.040 A 
ATOM     73  C   UNL A   1      37.786  30.187  33.238  1.00  0.00     0.040 A 
ATOM     74  F   UNL A   1      39.241  28.370  32.925  1.00  0.00    -0.206 F 
ATOM     75  C   UNL A   1      37.573  31.554  33.410  1.00  0.00     0.006 A 
ENDBRANCH  47  68
BRANCH  59  76
ATOM     76  C   UNL A   1      44.579  24.762  33.615  1.00  0.00     0.057 A 
ATOM     77  C   UNL A   1      45.920  24.367  33.704  1.00  0.00     0.134 A 
ATOM     78  C   UNL A   1      43.683  23.994  34.400  1.00  0.00     0.134 A 
ATOM     79  F   UNL A   1      46.899  25.059  33.107  1.00  0.00    -0.206 F 
ATOM     80  C   UNL A   1      46.333  23.266  34.469  1.00  0.00     0.040 A 
ATOM     81  C   UNL A   1      44.091  22.928  35.207  1.00  0.00     0.040 A 
ATOM     82  F   UNL A   1      42.368  24.258  34.439  1.00  0.00    -0.206 F 
ATOM     83  C   UNL A   1      45.422  22.549  35.234  1.00  0.00     0.006 A 
ENDBRANCH  59  76
ENDBRANCH  33  34
ENDBRANCH  25  28
ENDBRANCH  23  24
ENDBRANCH  22  23
ENDBRANCH   1  22
TORSDOF 13
ENDMDL
MODEL 3
REMARK VINA RESULT:     -12.0      2.199      3.563
REMARK SMILES COc1ccc(C)cc1C(=O)N1CSC[C@H]1C(=O)NCCCNC(=O)c1ccc(-c2c3nc(c(-c4c(F)cccc4F)c4ccc([nH]4)c(-c4c(F)cccc4F)c4nc(c(-c5c(F)cccc5F)c5ccc2[nH]5)C=C4)C=C3)cc1
REMARK SMILES IDX 20 1 19 2 17 3 18 4 16 6 12 7 13 8 14 9 15 10 10 11 11 12
REMARK SMILES IDX 9 13 3 14 4 15 5 16 8 17 6 18 7 19 2 20 1 21 21 22 22 23
REMARK SMILES IDX 23 24 24 25 25 27 26 28 27 29 79 30 28 31 78 32 29 33 30 34
REMARK SMILES IDX 31 35 72 36 32 37 77 38 71 39 73 40 33 41 76 42 70 43 69 44
REMARK SMILES IDX 34 46 60 47 43 48 59 49 44 50 47 51 58 52 74 53 45 54 46 55
REMARK SMILES IDX 57 57 75 58 48 59 35 60 36 61 41 62 37 63 38 64 40 65 42 66
REMARK SMILES IDX 39 67 61 68 62 69 67 70 63 71 64 72 66 73 68 74 65 75 49 76
REMARK SMILES IDX 50 77 55 78 51 79 52 80 54 81 56 82 53 83
REMARK H PARENT 19 5 23 26 73 45 47 56
REMARK Flexibility Score: inf
ROOT
ATOM      1  C   UNL A   1      34.358  29.007  27.090  1.00  0.00     0.117 C 
ENDROOT
BRANCH   1   2
ATOM      2  N   UNL A   1      33.035  28.750  27.626  1.00  0.00    -0.354 N 
ATOM      3  C   UNL A   1      31.988  27.998  27.184  1.00  0.00     0.243 C 
ATOM      4  O   UNL A   1      31.071  27.851  28.004  1.00  0.00    -0.273 OA
ATOM      5  H   UNL A   1      32.858  29.208  28.479  1.00  0.00     0.163 HD
BRANCH   3   6
ATOM      6  C   UNL A   1      31.920  27.277  25.811  1.00  0.00     0.185 C 
ATOM      7  N   UNL A   1      31.259  25.966  25.720  1.00  0.00    -0.316 N 
ATOM      8  C   UNL A   1      29.936  26.016  25.169  1.00  0.00     0.190 C 
ATOM      9  S   UNL A   1      29.903  27.396  24.013  1.00  0.00    -0.138 SA
ATOM     10  C   UNL A   1      31.416  28.168  24.679  1.00  0.00     0.106 C 
BRANCH   7  11
ATOM     11  C   UNL A   1      31.989  24.844  26.083  1.00  0.00     0.259 C 
ATOM     12  O   UNL A   1      31.757  24.313  27.174  1.00  0.00    -0.269 OA
BRANCH  11  13
ATOM     13  C   UNL A   1      33.109  24.245  25.273  1.00  0.00     0.082 A 
ATOM     14  C   UNL A   1      33.148  24.072  23.877  1.00  0.00     0.131 A 
ATOM     15  C   UNL A   1      34.360  23.731  23.248  1.00  0.00     0.047 A 
ATOM     16  C   UNL A   1      35.532  23.551  23.979  1.00  0.00     0.007 A 
ATOM     17  C   UNL A   1      34.309  24.036  25.994  1.00  0.00     0.021 A 
ATOM     18  C   UNL A   1      35.519  23.707  25.362  1.00  0.00    -0.050 A 
ATOM     19  C   UNL A   1      36.786  23.606  26.157  1.00  0.00     0.044 C 
BRANCH  14  20
ATOM     20  O   UNL A   1      32.062  24.346  23.087  1.00  0.00    -0.496 OA
ATOM     21  C   UNL A   1      32.379  25.193  21.971  1.00  0.00     0.278 C 
ENDBRANCH  14  20
ENDBRANCH  11  13
ENDBRANCH   7  11
ENDBRANCH   3   6
ENDBRANCH   1   2
BRANCH   1  22
ATOM     22  C   UNL A   1      35.220  29.821  28.046  1.00  0.00     0.042 C 
BRANCH  22  23
ATOM     23  C   UNL A   1      35.436  31.258  27.617  1.00  0.00     0.118 C 
BRANCH  23  24
ATOM     24  N   UNL A   1      34.398  32.174  28.089  1.00  0.00    -0.352 N 
ATOM     25  C   UNL A   1      34.421  32.985  29.215  1.00  0.00     0.251 C 
ATOM     26  H   UNL A   1      33.582  32.221  27.539  1.00  0.00     0.163 HD
ATOM     27  O   UNL A   1      33.498  33.732  29.475  1.00  0.00    -0.269 OA
BRANCH  25  28
ATOM     28  C   UNL A   1      35.668  33.004  30.014  1.00  0.00     0.039 A 
ATOM     29  C   UNL A   1      36.702  33.828  29.568  1.00  0.00     0.014 A 
ATOM     30  C   UNL A   1      35.901  32.001  30.952  1.00  0.00     0.014 A 
ATOM     31  C   UNL A   1      38.014  33.473  29.863  1.00  0.00     0.010 A 
ATOM     32  C   UNL A   1      37.204  31.586  31.155  1.00  0.00     0.010 A 
ATOM     33  C   UNL A   1      38.257  32.280  30.549  1.00  0.00    -0.014 A 
BRANCH  33  34
ATOM     34  C   UNL A   1      39.564  31.627  30.521  1.00  0.00     0.031 A 
ATOM     35  C   UNL A   1      39.783  30.397  29.732  1.00  0.00     0.074 A 
ATOM     36  C   UNL A   1      40.593  32.119  31.248  1.00  0.00     0.049 A 
ATOM     37  N   UNL A   1      40.569  29.442  30.108  1.00  0.00    -0.248 NA
ATOM     38  C   UNL A   1      39.105  30.127  28.470  1.00  0.00     0.031 C 
ATOM     39  C   UNL A   1      41.989  31.690  31.189  1.00  0.00     0.029 A 
ATOM     40  N   UNL A   1      40.536  32.974  32.358  1.00  0.00    -0.354 N 
ATOM     41  C   UNL A   1      40.698  28.573  29.052  1.00  0.00     0.074 A 
ATOM     42  C   UNL A   1      39.720  29.008  28.079  1.00  0.00     0.031 C 
ATOM     43  C   UNL A   1      42.591  32.022  32.340  1.00  0.00     0.029 A 
ATOM     44  C   UNL A   1      41.581  32.578  33.221  1.00  0.00     0.049 A 
ATOM     45  H   UNL A   1      39.895  33.706  32.507  1.00  0.00     0.167 HD
ATOM     46  C   UNL A   1      41.706  27.654  29.036  1.00  0.00     0.037 A 
ATOM     47  C   UNL A   1      41.363  32.196  34.509  1.00  0.00     0.037 A 
ATOM     48  C   UNL A   1      42.579  27.780  30.195  1.00  0.00     0.049 A 
ATOM     49  C   UNL A   1      41.864  30.812  34.839  1.00  0.00     0.074 A 
ATOM     50  C   UNL A   1      43.785  28.436  30.375  1.00  0.00     0.029 A 
ATOM     51  N   UNL A   1      42.121  27.439  31.461  1.00  0.00    -0.354 N 
ATOM     52  N   UNL A   1      42.157  29.916  33.941  1.00  0.00    -0.248 NA
ATOM     53  C   UNL A   1      42.028  30.309  36.201  1.00  0.00     0.031 C 
ATOM     54  C   UNL A   1      44.056  28.493  31.760  1.00  0.00     0.029 A 
ATOM     55  C   UNL A   1      43.014  27.869  32.422  1.00  0.00     0.049 A 
ATOM     56  H   UNL A   1      41.280  26.962  31.646  1.00  0.00     0.167 HD
ATOM     57  C   UNL A   1      42.495  28.738  34.560  1.00  0.00     0.074 A 
ATOM     58  C   UNL A   1      42.429  29.046  35.975  1.00  0.00     0.031 C 
ATOM     59  C   UNL A   1      42.782  27.615  33.835  1.00  0.00     0.037 A 
BRANCH  46  60
ATOM     60  C   UNL A   1      42.058  26.867  27.800  1.00  0.00     0.057 A 
ATOM     61  C   UNL A   1      42.730  27.461  26.714  1.00  0.00     0.134 A 
ATOM     62  C   UNL A   1      41.721  25.517  27.614  1.00  0.00     0.134 A 
ATOM     63  F   UNL A   1      43.219  28.706  26.779  1.00  0.00    -0.206 F 
ATOM     64  C   UNL A   1      42.925  26.805  25.494  1.00  0.00     0.040 A 
ATOM     65  C   UNL A   1      41.864  24.864  26.382  1.00  0.00     0.040 A 
ATOM     66  F   UNL A   1      41.256  24.773  28.629  1.00  0.00    -0.206 F 
ATOM     67  C   UNL A   1      42.453  25.516  25.308  1.00  0.00     0.006 A 
ENDBRANCH  46  60
BRANCH  47  68
ATOM     68  C   UNL A   1      40.188  32.841  35.141  1.00  0.00     0.057 A 
ATOM     69  C   UNL A   1      38.955  32.167  35.122  1.00  0.00     0.134 A 
ATOM     70  C   UNL A   1      40.325  33.899  36.040  1.00  0.00     0.134 A 
ATOM     71  F   UNL A   1      38.761  31.139  34.283  1.00  0.00    -0.206 F 
ATOM     72  C   UNL A   1      37.935  32.471  36.027  1.00  0.00     0.040 A 
ATOM     73  C   UNL A   1      39.310  34.215  36.951  1.00  0.00     0.040 A 
ATOM     74  F   UNL A   1      41.482  34.572  36.131  1.00  0.00    -0.206 F 
ATOM     75  C   UNL A   1      38.126  33.478  36.968  1.00  0.00     0.006 A 
ENDBRANCH  47  68
BRANCH  59  76
ATOM     76  C   UNL A   1      42.967  26.207  34.357  1.00  0.00     0.057 A 
ATOM     77  C   UNL A   1      41.981  25.463  35.019  1.00  0.00     0.134 A 
ATOM     78  C   UNL A   1      44.154  25.490  34.067  1.00  0.00     0.134 A 
ATOM     79  F   UNL A   1      40.766  25.967  35.267  1.00  0.00    -0.206 F 
ATOM     80  C   UNL A   1      42.178  24.129  35.408  1.00  0.00     0.040 A 
ATOM     81  C   UNL A   1      44.340  24.146  34.404  1.00  0.00     0.040 A 
ATOM     82  F   UNL A   1      45.184  26.057  33.420  1.00  0.00    -0.206 F 
ATOM     83  C   UNL A   1      43.354  23.461  35.091  1.00  0.00     0.006 A 
ENDBRANCH  59  76
ENDBRANCH  33  34
ENDBRANCH  25  28
ENDBRANCH  23  24
ENDBRANCH  22  23
ENDBRANCH   1  22
TORSDOF 13
ENDMDL
