MODEL 1
REMARK VINA RESULT:     -11.2      0.000      0.000
REMARK SMILES C[NH+]1CC[NH+](CC[C@H]2CCC[C@@]2([NH3+])C(=O)NCCCNC(=O)c2ccc(-c3c4nc(c(-c5c(F)cccc5F)c5ccc([nH]5)c(-c5c(F)cccc5F)c5nc(c(-c6c(F)cccc6F)c6ccc3[nH]6)C=C5)C=C4)cc2)CC1
REMARK SMILES IDX 17 1 16 2 14 3 15 4 12 6 8 7 9 8 10 9 11 10 7 11 6 12 5 13
REMARK SMILES IDX 1 14 2 15 3 16 78 17 4 19 77 20 13 22 18 26 19 27 20 28
REMARK SMILES IDX 21 29 22 31 23 32 24 33 76 34 25 35 75 36 26 37 27 38 28 39
REMARK SMILES IDX 69 40 29 41 74 42 68 43 70 44 30 45 73 46 67 47 66 48 31 50
REMARK SMILES IDX 57 51 40 52 56 53 41 54 44 55 55 56 71 57 42 58 43 59 54 61
REMARK SMILES IDX 72 62 45 63 32 64 33 65 38 66 34 67 35 68 37 69 39 70 36 71
REMARK SMILES IDX 58 72 59 73 64 74 60 75 61 76 63 77 65 78 62 79 46 80 47 81
REMARK SMILES IDX 52 82 48 83 49 84 51 85 53 86 50 87
REMARK H PARENT 16 5 2 18 5 21 13 23 13 24 13 25 20 30 70 49 44 60
REMARK Flexibility Score: inf
ROOT
ATOM      1  C   UNL A   1      36.046  20.439  24.840  1.00  0.00     0.118 C 
ENDROOT
BRANCH   1   2
ATOM      2  N   UNL A   1      35.426  20.780  26.110  1.00  0.00    -0.351 N 
ATOM      3  C   UNL A   1      34.445  21.628  26.509  1.00  0.00     0.281 C 
ATOM      4  O   UNL A   1      34.222  21.602  27.730  1.00  0.00    -0.268 OA
ATOM      5  H   UNL A   1      35.811  20.273  26.862  1.00  0.00     0.163 HD
BRANCH   3   6
ATOM      6  C   UNL A   1      33.654  22.628  25.590  1.00  0.00     0.177 C 
ATOM      7  C   UNL A   1      32.653  22.058  24.527  1.00  0.00     0.066 C 
ATOM      8  C   UNL A   1      31.424  23.005  24.597  1.00  0.00     0.011 C 
ATOM      9  C   UNL A   1      31.876  24.241  25.361  1.00  0.00     0.008 C 
ATOM     10  C   UNL A   1      32.866  23.686  26.374  1.00  0.00     0.079 C 
BRANCH   7  11
ATOM     11  C   UNL A   1      32.229  20.594  24.684  1.00  0.00     0.072 C 
BRANCH  11  12
ATOM     12  C   UNL A   1      32.476  19.659  23.491  1.00  0.00     0.263 C 
BRANCH  12  13
ATOM     13  N   UNL A   1      32.283  18.221  23.659  1.00  0.00    -0.326 N 
ATOM     14  C   UNL A   1      35.467  15.805  25.327  1.00  0.00     0.333 C 
ATOM     15  N   UNL A   1      34.180  16.189  24.745  1.00  0.00    -0.328 N 
ATOM     16  C   UNL A   1      34.381  16.808  23.425  1.00  0.00     0.324 C 
ATOM     17  C   UNL A   1      33.464  17.116  25.638  1.00  0.00     0.324 C 
ATOM     18  H   UNL A   1      33.613  15.348  24.631  1.00  0.00     0.348 HD
ATOM     19  C   UNL A   1      33.074  17.339  22.802  1.00  0.00     0.324 C 
ATOM     20  C   UNL A   1      32.162  17.692  25.023  1.00  0.00     0.324 C 
ATOM     21  H   UNL A   1      31.331  18.188  23.292  1.00  0.00     0.348 HD
ENDBRANCH  12  13
ENDBRANCH  11  12
ENDBRANCH   7  11
BRANCH   6  22
ATOM     22  N   UNL A   1      34.684  23.427  24.844  1.00  0.00    -0.345 N 
ATOM     23  H   UNL A   1      35.043  22.874  24.064  1.00  0.00     0.345 HD
ATOM     24  H   UNL A   1      35.450  23.665  25.473  1.00  0.00     0.345 HD
ATOM     25  H   UNL A   1      34.258  24.281  24.486  1.00  0.00     0.345 HD
ENDBRANCH   6  22
ENDBRANCH   3   6
ENDBRANCH   1   2
BRANCH   1  26
ATOM     26  C   UNL A   1      37.312  19.571  24.945  1.00  0.00     0.042 C 
BRANCH  26  27
ATOM     27  C   UNL A   1      38.594  20.272  25.382  1.00  0.00     0.118 C 
BRANCH  27  28
ATOM     28  N   UNL A   1      39.675  19.340  25.632  1.00  0.00    -0.352 N 
ATOM     29  C   UNL A   1      40.966  19.563  26.035  1.00  0.00     0.251 C 
ATOM     30  H   UNL A   1      39.444  18.394  25.490  1.00  0.00     0.163 HD
ATOM     31  O   UNL A   1      41.777  18.638  25.945  1.00  0.00    -0.269 OA
BRANCH  29  32
ATOM     32  C   UNL A   1      41.429  20.874  26.556  1.00  0.00     0.039 A 
ATOM     33  C   UNL A   1      41.288  21.122  27.928  1.00  0.00     0.014 A 
ATOM     34  C   UNL A   1      41.882  21.902  25.724  1.00  0.00     0.014 A 
ATOM     35  C   UNL A   1      41.614  22.374  28.460  1.00  0.00     0.010 A 
ATOM     36  C   UNL A   1      42.272  23.134  26.267  1.00  0.00     0.010 A 
ATOM     37  C   UNL A   1      42.121  23.392  27.637  1.00  0.00    -0.014 A 
BRANCH  37  38
ATOM     38  C   UNL A   1      42.455  24.727  28.209  1.00  0.00     0.031 A 
ATOM     39  C   UNL A   1      43.872  25.075  28.586  1.00  0.00     0.074 A 
ATOM     40  C   UNL A   1      41.481  25.639  28.395  1.00  0.00     0.049 A 
ATOM     41  N   UNL A   1      44.349  26.199  29.065  1.00  0.00    -0.248 NA
ATOM     42  C   UNL A   1      44.882  24.019  28.425  1.00  0.00     0.031 C 
ATOM     43  C   UNL A   1      40.060  25.426  28.115  1.00  0.00     0.029 A 
ATOM     44  N   UNL A   1      41.538  26.930  28.859  1.00  0.00    -0.354 N 
ATOM     45  C   UNL A   1      45.706  25.981  29.269  1.00  0.00     0.074 A 
ATOM     46  C   UNL A   1      45.968  24.605  28.907  1.00  0.00     0.031 C 
ATOM     47  C   UNL A   1      39.386  26.556  28.383  1.00  0.00     0.029 A 
ATOM     48  C   UNL A   1      40.320  27.565  28.875  1.00  0.00     0.049 A 
ATOM     49  H   UNL A   1      42.373  27.360  29.154  1.00  0.00     0.167 HD
ATOM     50  C   UNL A   1      46.654  26.852  29.696  1.00  0.00     0.037 A 
ATOM     51  C   UNL A   1      39.991  28.821  29.234  1.00  0.00     0.037 A 
ATOM     52  C   UNL A   1      46.408  28.231  30.031  1.00  0.00     0.049 A 
ATOM     53  C   UNL A   1      41.060  29.773  29.689  1.00  0.00     0.074 A 
ATOM     54  C   UNL A   1      47.319  29.201  30.414  1.00  0.00     0.029 A 
ATOM     55  N   UNL A   1      45.162  28.836  30.022  1.00  0.00    -0.354 N 
ATOM     56  N   UNL A   1      42.350  29.570  29.808  1.00  0.00    -0.248 NA
ATOM     57  C   UNL A   1      40.629  31.132  30.048  1.00  0.00     0.031 C 
ATOM     58  C   UNL A   1      46.618  30.385  30.671  1.00  0.00     0.029 A 
ATOM     59  C   UNL A   1      45.277  30.162  30.409  1.00  0.00     0.049 A 
ATOM     60  H   UNL A   1      44.319  28.391  29.777  1.00  0.00     0.167 HD
ATOM     61  C   UNL A   1      42.886  30.780  30.230  1.00  0.00     0.074 A 
ATOM     62  C   UNL A   1      41.786  31.714  30.335  1.00  0.00     0.031 C 
ATOM     63  C   UNL A   1      44.177  31.087  30.505  1.00  0.00     0.037 A 
BRANCH  50  64
ATOM     64  C   UNL A   1      48.058  26.336  29.822  1.00  0.00     0.057 A 
ATOM     65  C   UNL A   1      48.978  26.440  28.771  1.00  0.00     0.134 A 
ATOM     66  C   UNL A   1      48.506  25.761  31.019  1.00  0.00     0.134 A 
ATOM     67  F   UNL A   1      48.609  26.973  27.596  1.00  0.00    -0.206 F 
ATOM     68  C   UNL A   1      50.286  25.969  28.895  1.00  0.00     0.040 A 
ATOM     69  C   UNL A   1      49.819  25.307  31.163  1.00  0.00     0.040 A 
ATOM     70  F   UNL A   1      47.680  25.639  32.068  1.00  0.00    -0.206 F 
ATOM     71  C   UNL A   1      50.711  25.404  30.097  1.00  0.00     0.006 A 
ENDBRANCH  50  64
BRANCH  51  72
ATOM     72  C   UNL A   1      38.578  29.267  29.136  1.00  0.00     0.057 A 
ATOM     73  C   UNL A   1      38.048  29.717  27.921  1.00  0.00     0.134 A 
ATOM     74  C   UNL A   1      37.728  29.251  30.248  1.00  0.00     0.134 A 
ATOM     75  F   UNL A   1      38.822  29.773  26.827  1.00  0.00    -0.206 F 
ATOM     76  C   UNL A   1      36.726  30.149  27.817  1.00  0.00     0.040 A 
ATOM     77  C   UNL A   1      36.397  29.660  30.153  1.00  0.00     0.040 A 
ATOM     78  F   UNL A   1      38.177  28.825  31.437  1.00  0.00    -0.206 F 
ATOM     79  C   UNL A   1      35.894  30.115  28.936  1.00  0.00     0.006 A 
ENDBRANCH  51  72
BRANCH  63  80
ATOM     80  C   UNL A   1      44.475  32.497  30.915  1.00  0.00     0.057 A 
ATOM     81  C   UNL A   1      44.497  32.887  32.261  1.00  0.00     0.134 A 
ATOM     82  C   UNL A   1      44.777  33.472  29.955  1.00  0.00     0.134 A 
ATOM     83  F   UNL A   1      44.204  32.004  33.228  1.00  0.00    -0.206 F 
ATOM     84  C   UNL A   1      44.786  34.199  32.636  1.00  0.00     0.040 A 
ATOM     85  C   UNL A   1      45.089  34.782  30.318  1.00  0.00     0.040 A 
ATOM     86  F   UNL A   1      44.781  33.163  28.649  1.00  0.00    -0.206 F 
ATOM     87  C   UNL A   1      45.089  35.150  31.663  1.00  0.00     0.006 A 
ENDBRANCH  63  80
ENDBRANCH  37  38
ENDBRANCH  29  32
ENDBRANCH  27  28
ENDBRANCH  26  27
ENDBRANCH   1  26
TORSDOF 14
ENDMDL
MODEL 2
REMARK VINA RESULT:     -11.2      3.116      7.880
REMARK SMILES C[NH+]1CC[NH+](CC[C@H]2CCC[C@@]2([NH3+])C(=O)NCCCNC(=O)c2ccc(-c3c4nc(c(-c5c(F)cccc5F)c5ccc([nH]5)c(-c5c(F)cccc5F)c5nc(c(-c6c(F)cccc6F)c6ccc3[nH]6)C=C5)C=C4)cc2)CC1
REMARK SMILES IDX 17 1 16 2 14 3 15 4 12 6 8 7 9 8 10 9 11 10 7 11 6 12 5 13
REMARK SMILES IDX 1 14 2 15 3 16 78 17 4 19 77 20 13 22 18 26 19 27 20 28
REMARK SMILES IDX 21 29 22 31 23 32 24 33 76 34 25 35 75 36 26 37 27 38 28 39
REMARK SMILES IDX 69 40 29 41 74 42 68 43 70 44 30 45 73 46 67 47 66 48 31 50
REMARK SMILES IDX 57 51 40 52 56 53 41 54 44 55 55 56 71 57 42 58 43 59 54 61
REMARK SMILES IDX 72 62 45 63 32 64 33 65 38 66 34 67 35 68 37 69 39 70 36 71
REMARK SMILES IDX 58 72 59 73 64 74 60 75 61 76 63 77 65 78 62 79 46 80 47 81
REMARK SMILES IDX 52 82 48 83 49 84 51 85 53 86 50 87
REMARK H PARENT 16 5 2 18 5 21 13 23 13 24 13 25 20 30 70 49 44 60
REMARK Flexibility Score: inf
ROOT
ATOM      1  C   UNL A   1      31.874  27.555  26.525  1.00  0.00     0.118 C 
ENDROOT
BRANCH   1   2
ATOM      2  N   UNL A   1      31.423  26.224  26.899  1.00  0.00    -0.351 N 
ATOM      3  C   UNL A   1      31.390  25.010  26.295  1.00  0.00     0.281 C 
ATOM      4  O   UNL A   1      30.905  24.110  27.000  1.00  0.00    -0.268 OA
ATOM      5  H   UNL A   1      31.051  26.198  27.811  1.00  0.00     0.163 HD
BRANCH   3   6
ATOM      6  C   UNL A   1      31.845  24.694  24.824  1.00  0.00     0.177 C 
ATOM      7  C   UNL A   1      33.370  24.761  24.468  1.00  0.00     0.066 C 
ATOM      8  C   UNL A   1      33.613  23.535  23.545  1.00  0.00     0.011 C 
ATOM      9  C   UNL A   1      32.239  23.051  23.104  1.00  0.00     0.008 C 
ATOM     10  C   UNL A   1      31.362  23.329  24.314  1.00  0.00     0.079 C 
BRANCH   7  11
ATOM     11  C   UNL A   1      34.360  24.772  25.638  1.00  0.00     0.072 C 
BRANCH  11  12
ATOM     12  C   UNL A   1      35.581  23.846  25.534  1.00  0.00     0.263 C 
BRANCH  12  13
ATOM     13  N   UNL A   1      35.607  22.611  26.313  1.00  0.00    -0.326 N 
ATOM     14  C   UNL A   1      32.906  19.377  25.309  1.00  0.00     0.333 C 
ATOM     15  N   UNL A   1      33.943  20.154  25.990  1.00  0.00    -0.328 N 
ATOM     16  C   UNL A   1      33.379  21.407  26.518  1.00  0.00     0.324 C 
ATOM     17  C   UNL A   1      35.058  20.445  25.072  1.00  0.00     0.324 C 
ATOM     18  H   UNL A   1      34.302  19.601  26.769  1.00  0.00     0.348 HD
ATOM     19  C   UNL A   1      34.442  22.327  27.151  1.00  0.00     0.324 C 
ATOM     20  C   UNL A   1      36.126  21.396  25.672  1.00  0.00     0.324 C 
ATOM     21  H   UNL A   1      36.350  22.893  26.953  1.00  0.00     0.348 HD
ENDBRANCH  12  13
ENDBRANCH  11  12
ENDBRANCH   7  11
BRANCH   6  22
ATOM     22  N   UNL A   1      31.140  25.680  23.939  1.00  0.00    -0.345 N 
ATOM     23  H   UNL A   1      31.117  26.592  24.396  1.00  0.00     0.345 HD
ATOM     24  H   UNL A   1      30.187  25.361  23.767  1.00  0.00     0.345 HD
ATOM     25  H   UNL A   1      31.638  25.757  23.052  1.00  0.00     0.345 HD
ENDBRANCH   6  22
ENDBRANCH   3   6
ENDBRANCH   1   2
BRANCH   1  26
ATOM     26  C   UNL A   1      33.320  27.890  26.927  1.00  0.00     0.042 C 
BRANCH  26  27
ATOM     27  C   UNL A   1      34.039  28.948  26.097  1.00  0.00     0.118 C 
BRANCH  27  28
ATOM     28  N   UNL A   1      33.820  30.288  26.600  1.00  0.00    -0.352 N 
ATOM     29  C   UNL A   1      34.444  30.972  27.612  1.00  0.00     0.251 C 
ATOM     30  H   UNL A   1      33.108  30.790  26.142  1.00  0.00     0.163 HD
ATOM     31  O   UNL A   1      33.924  32.012  28.025  1.00  0.00    -0.269 OA
BRANCH  29  32
ATOM     32  C   UNL A   1      35.705  30.502  28.239  1.00  0.00     0.039 A 
ATOM     33  C   UNL A   1      36.913  30.845  27.620  1.00  0.00     0.014 A 
ATOM     34  C   UNL A   1      35.727  29.641  29.341  1.00  0.00     0.014 A 
ATOM     35  C   UNL A   1      38.127  30.348  28.108  1.00  0.00     0.010 A 
ATOM     36  C   UNL A   1      36.947  29.198  29.870  1.00  0.00     0.010 A 
ATOM     37  C   UNL A   1      38.159  29.528  29.247  1.00  0.00    -0.014 A 
BRANCH  37  38
ATOM     38  C   UNL A   1      39.454  28.993  29.754  1.00  0.00     0.031 A 
ATOM     39  C   UNL A   1      40.093  29.560  30.996  1.00  0.00     0.074 A 
ATOM     40  C   UNL A   1      40.069  27.990  29.097  1.00  0.00     0.049 A 
ATOM     41  N   UNL A   1      41.199  29.195  31.598  1.00  0.00    -0.248 NA
ATOM     42  C   UNL A   1      39.414  30.698  31.633  1.00  0.00     0.031 C 
ATOM     43  C   UNL A   1      39.589  27.373  27.860  1.00  0.00     0.029 A 
ATOM     44  N   UNL A   1      41.227  27.309  29.380  1.00  0.00    -0.354 N 
ATOM     45  C   UNL A   1      41.351  30.061  32.674  1.00  0.00     0.074 A 
ATOM     46  C   UNL A   1      40.250  30.999  32.616  1.00  0.00     0.031 C 
ATOM     47  C   UNL A   1      40.428  26.384  27.508  1.00  0.00     0.029 A 
ATOM     48  C   UNL A   1      41.516  26.313  28.480  1.00  0.00     0.049 A 
ATOM     49  H   UNL A   1      41.797  27.516  30.156  1.00  0.00     0.167 HD
ATOM     50  C   UNL A   1      42.305  30.064  33.638  1.00  0.00     0.037 A 
ATOM     51  C   UNL A   1      42.535  25.433  28.443  1.00  0.00     0.037 A 
ATOM     52  C   UNL A   1      43.387  29.118  33.721  1.00  0.00     0.049 A 
ATOM     53  C   UNL A   1      43.571  25.444  29.530  1.00  0.00     0.074 A 
ATOM     54  C   UNL A   1      44.364  29.009  34.697  1.00  0.00     0.029 A 
ATOM     55  N   UNL A   1      43.636  28.118  32.795  1.00  0.00    -0.354 N 
ATOM     56  N   UNL A   1      43.659  26.225  30.580  1.00  0.00    -0.248 NA
ATOM     57  C   UNL A   1      44.644  24.443  29.434  1.00  0.00     0.031 C 
ATOM     58  C   UNL A   1      45.225  27.963  34.342  1.00  0.00     0.029 A 
ATOM     59  C   UNL A   1      44.760  27.397  33.167  1.00  0.00     0.049 A 
ATOM     60  H   UNL A   1      43.094  27.945  31.992  1.00  0.00     0.167 HD
ATOM     61  C   UNL A   1      44.778  25.794  31.280  1.00  0.00     0.074 A 
ATOM     62  C   UNL A   1      45.331  24.677  30.545  1.00  0.00     0.031 C 
ATOM     63  C   UNL A   1      45.300  26.283  32.432  1.00  0.00     0.037 A 
BRANCH  50  64
ATOM     64  C   UNL A   1      42.217  31.129  34.692  1.00  0.00     0.057 A 
ATOM     65  C   UNL A   1      41.489  30.937  35.874  1.00  0.00     0.134 A 
ATOM     66  C   UNL A   1      42.896  32.345  34.542  1.00  0.00     0.134 A 
ATOM     67  F   UNL A   1      40.809  29.798  36.076  1.00  0.00    -0.206 F 
ATOM     68  C   UNL A   1      41.419  31.925  36.857  1.00  0.00     0.040 A 
ATOM     69  C   UNL A   1      42.852  33.332  35.529  1.00  0.00     0.040 A 
ATOM     70  F   UNL A   1      43.619  32.590  33.440  1.00  0.00    -0.206 F 
ATOM     71  C   UNL A   1      42.106  33.126  36.688  1.00  0.00     0.006 A 
ENDBRANCH  50  64
BRANCH  51  72
ATOM     72  C   UNL A   1      42.601  24.430  27.350  1.00  0.00     0.057 A 
ATOM     73  C   UNL A   1      42.036  23.158  27.506  1.00  0.00     0.134 A 
ATOM     74  C   UNL A   1      43.224  24.718  26.131  1.00  0.00     0.134 A 
ATOM     75  F   UNL A   1      41.444  22.820  28.660  1.00  0.00    -0.206 F 
ATOM     76  C   UNL A   1      42.100  22.203  26.491  1.00  0.00     0.040 A 
ATOM     77  C   UNL A   1      43.277  23.779  25.100  1.00  0.00     0.040 A 
ATOM     78  F   UNL A   1      43.778  25.921  25.921  1.00  0.00    -0.206 F 
ATOM     79  C   UNL A   1      42.718  22.516  25.281  1.00  0.00     0.006 A 
ENDBRANCH  51  72
BRANCH  63  80
ATOM     80  C   UNL A   1      46.511  25.594  32.984  1.00  0.00     0.057 A 
ATOM     81  C   UNL A   1      47.809  26.001  32.652  1.00  0.00     0.134 A 
ATOM     82  C   UNL A   1      46.378  24.529  33.885  1.00  0.00     0.134 A 
ATOM     83  F   UNL A   1      48.004  27.006  31.784  1.00  0.00    -0.206 F 
ATOM     84  C   UNL A   1      48.932  25.361  33.179  1.00  0.00     0.040 A 
ATOM     85  C   UNL A   1      47.492  23.896  34.436  1.00  0.00     0.040 A 
ATOM     86  F   UNL A   1      45.162  24.094  34.251  1.00  0.00    -0.206 F 
ATOM     87  C   UNL A   1      48.775  24.309  34.079  1.00  0.00     0.006 A 
ENDBRANCH  63  80
ENDBRANCH  37  38
ENDBRANCH  29  32
ENDBRANCH  27  28
ENDBRANCH  26  27
ENDBRANCH   1  26
TORSDOF 14
ENDMDL
MODEL 3
REMARK VINA RESULT:     -11.1      0.990      3.220
REMARK SMILES C[NH+]1CC[NH+](CC[C@H]2CCC[C@@]2([NH3+])C(=O)NCCCNC(=O)c2ccc(-c3c4nc(c(-c5c(F)cccc5F)c5ccc([nH]5)c(-c5c(F)cccc5F)c5nc(c(-c6c(F)cccc6F)c6ccc3[nH]6)C=C5)C=C4)cc2)CC1
REMARK SMILES IDX 17 1 16 2 14 3 15 4 12 6 8 7 9 8 10 9 11 10 7 11 6 12 5 13
REMARK SMILES IDX 1 14 2 15 3 16 78 17 4 19 77 20 13 22 18 26 19 27 20 28
REMARK SMILES IDX 21 29 22 31 23 32 24 33 76 34 25 35 75 36 26 37 27 38 28 39
REMARK SMILES IDX 69 40 29 41 74 42 68 43 70 44 30 45 73 46 67 47 66 48 31 50
REMARK SMILES IDX 57 51 40 52 56 53 41 54 44 55 55 56 71 57 42 58 43 59 54 61
REMARK SMILES IDX 72 62 45 63 32 64 33 65 38 66 34 67 35 68 37 69 39 70 36 71
REMARK SMILES IDX 58 72 59 73 64 74 60 75 61 76 63 77 65 78 62 79 46 80 47 81
REMARK SMILES IDX 52 82 48 83 49 84 51 85 53 86 50 87
REMARK H PARENT 16 5 2 18 5 21 13 23 13 24 13 25 20 30 70 49 44 60
REMARK Flexibility Score: inf
ROOT
ATOM      1  C   UNL A   1      36.635  20.331  24.486  1.00  0.00     0.118 C 
ENDROOT
BRANCH   1   2
ATOM      2  N   UNL A   1      35.703  20.798  25.499  1.00  0.00    -0.351 N 
ATOM      3  C   UNL A   1      34.439  20.474  25.873  1.00  0.00     0.281 C 
ATOM      4  O   UNL A   1      34.006  21.148  26.822  1.00  0.00    -0.268 OA
ATOM      5  H   UNL A   1      36.079  21.526  26.046  1.00  0.00     0.163 HD
BRANCH   3   6
ATOM      6  C   UNL A   1      33.516  19.403  25.187  1.00  0.00     0.177 C 
ATOM      7  C   UNL A   1      32.416  19.879  24.177  1.00  0.00     0.066 C 
ATOM      8  C   UNL A   1      32.468  18.842  23.022  1.00  0.00     0.011 C 
ATOM      9  C   UNL A   1      33.266  17.656  23.544  1.00  0.00     0.008 C 
ATOM     10  C   UNL A   1      34.296  18.300  24.459  1.00  0.00     0.079 C 
BRANCH   7  11
ATOM     11  C   UNL A   1      32.536  21.308  23.639  1.00  0.00     0.072 C 
BRANCH  11  12
ATOM     12  C   UNL A   1      31.835  22.420  24.434  1.00  0.00     0.263 C 
BRANCH  12  13
ATOM     13  N   UNL A   1      32.619  23.549  24.925  1.00  0.00    -0.326 N 
ATOM     14  C   UNL A   1      33.399  26.920  22.319  1.00  0.00     0.333 C 
ATOM     15  N   UNL A   1      33.401  26.051  23.497  1.00  0.00    -0.328 N 
ATOM     16  C   UNL A   1      34.010  24.752  23.171  1.00  0.00     0.324 C 
ATOM     17  C   UNL A   1      32.031  25.859  24.002  1.00  0.00     0.324 C 
ATOM     18  H   UNL A   1      33.954  26.499  24.228  1.00  0.00     0.348 HD
ATOM     19  C   UNL A   1      33.945  23.745  24.337  1.00  0.00     0.324 C 
ATOM     20  C   UNL A   1      31.931  24.826  25.154  1.00  0.00     0.324 C 
ATOM     21  H   UNL A   1      32.781  23.181  25.862  1.00  0.00     0.348 HD
ENDBRANCH  12  13
ENDBRANCH  11  12
ENDBRANCH   7  11
BRANCH   6  22
ATOM     22  N   UNL A   1      32.813  18.674  26.296  1.00  0.00    -0.345 N 
ATOM     23  H   UNL A   1      31.841  18.511  26.032  1.00  0.00     0.345 HD
ATOM     24  H   UNL A   1      32.845  19.237  27.145  1.00  0.00     0.345 HD
ATOM     25  H   UNL A   1      33.275  17.780  26.462  1.00  0.00     0.345 HD
ENDBRANCH   6  22
ENDBRANCH   3   6
ENDBRANCH   1   2
BRANCH   1  26
ATOM     26  C   UNL A   1      37.748  19.403  25.002  1.00  0.00     0.042 C 
BRANCH  26  27
ATOM     27  C   UNL A   1      38.895  20.060  25.763  1.00  0.00     0.118 C 
BRANCH  27  28
ATOM     28  N   UNL A   1      40.078  19.226  25.806  1.00  0.00    -0.352 N 
ATOM     29  C   UNL A   1      41.390  19.554  26.032  1.00  0.00     0.251 C 
ATOM     30  H   UNL A   1      39.914  18.268  25.646  1.00  0.00     0.163 HD
ATOM     31  O   UNL A   1      42.257  18.714  25.777  1.00  0.00    -0.269 OA
BRANCH  29  32
ATOM     32  C   UNL A   1      41.808  20.880  26.552  1.00  0.00     0.039 A 
ATOM     33  C   UNL A   1      41.702  21.107  27.930  1.00  0.00     0.014 A 
ATOM     34  C   UNL A   1      42.182  21.937  25.717  1.00  0.00     0.014 A 
ATOM     35  C   UNL A   1      41.985  22.369  28.465  1.00  0.00     0.010 A 
ATOM     36  C   UNL A   1      42.530  23.181  26.260  1.00  0.00     0.010 A 
ATOM     37  C   UNL A   1      42.415  23.418  27.638  1.00  0.00    -0.014 A 
BRANCH  37  38
ATOM     38  C   UNL A   1      42.704  24.761  28.213  1.00  0.00     0.031 A 
ATOM     39  C   UNL A   1      44.108  25.155  28.595  1.00  0.00     0.074 A 
ATOM     40  C   UNL A   1      41.700  25.641  28.399  1.00  0.00     0.049 A 
ATOM     41  N   UNL A   1      44.547  26.292  29.077  1.00  0.00    -0.248 NA
ATOM     42  C   UNL A   1      45.152  24.132  28.434  1.00  0.00     0.031 C 
ATOM     43  C   UNL A   1      40.288  25.383  28.115  1.00  0.00     0.029 A 
ATOM     44  N   UNL A   1      41.714  26.932  28.866  1.00  0.00    -0.354 N 
ATOM     45  C   UNL A   1      45.910  26.118  29.284  1.00  0.00     0.074 A 
ATOM     46  C   UNL A   1      46.218  24.752  28.920  1.00  0.00     0.031 C 
ATOM     47  C   UNL A   1      39.577  26.490  28.383  1.00  0.00     0.029 A 
ATOM     48  C   UNL A   1      40.477  27.528  28.880  1.00  0.00     0.049 A 
ATOM     49  H   UNL A   1      42.535  27.388  29.163  1.00  0.00     0.167 HD
ATOM     50  C   UNL A   1      46.828  27.018  29.716  1.00  0.00     0.037 A 
ATOM     51  C   UNL A   1      40.106  28.771  29.241  1.00  0.00     0.037 A 
ATOM     52  C   UNL A   1      46.537  28.388  30.053  1.00  0.00     0.049 A 
ATOM     53  C   UNL A   1      41.143  29.756  29.700  1.00  0.00     0.074 A 
ATOM     54  C   UNL A   1      47.415  29.386  30.441  1.00  0.00     0.029 A 
ATOM     55  N   UNL A   1      45.272  28.952  30.042  1.00  0.00    -0.354 N 
ATOM     56  N   UNL A   1      42.438  29.595  29.823  1.00  0.00    -0.248 NA
ATOM     57  C   UNL A   1      40.667  31.100  30.061  1.00  0.00     0.031 C 
ATOM     58  C   UNL A   1      46.676  30.546  30.698  1.00  0.00     0.029 A 
ATOM     59  C   UNL A   1      45.343  30.280  30.432  1.00  0.00     0.049 A 
ATOM     60  H   UNL A   1      44.445  28.480  29.794  1.00  0.00     0.167 HD
ATOM     61  C   UNL A   1      42.934  30.820  30.248  1.00  0.00     0.074 A 
ATOM     62  C   UNL A   1      41.804  31.719  30.352  1.00  0.00     0.031 C 
ATOM     63  C   UNL A   1      44.214  31.169  30.527  1.00  0.00     0.037 A 
BRANCH  50  64
ATOM     64  C   UNL A   1      48.248  26.547  29.844  1.00  0.00     0.057 A 
ATOM     65  C   UNL A   1      48.703  25.883  30.991  1.00  0.00     0.134 A 
ATOM     66  C   UNL A   1      49.161  26.726  28.796  1.00  0.00     0.134 A 
ATOM     67  F   UNL A   1      47.881  25.687  32.033  1.00  0.00    -0.206 F 
ATOM     68  C   UNL A   1      50.021  25.437  31.102  1.00  0.00     0.040 A 
ATOM     69  C   UNL A   1      50.475  26.264  28.887  1.00  0.00     0.040 A 
ATOM     70  F   UNL A   1      48.788  27.345  27.667  1.00  0.00    -0.206 F 
ATOM     71  C   UNL A   1      50.910  25.623  30.045  1.00  0.00     0.006 A 
ENDBRANCH  50  64
BRANCH  51  72
ATOM     72  C   UNL A   1      38.680  29.172  29.140  1.00  0.00     0.057 A 
ATOM     73  C   UNL A   1      38.142  29.619  27.927  1.00  0.00     0.134 A 
ATOM     74  C   UNL A   1      37.825  29.115  30.246  1.00  0.00     0.134 A 
ATOM     75  F   UNL A   1      38.919  29.712  26.838  1.00  0.00    -0.206 F 
ATOM     76  C   UNL A   1      36.806  30.007  27.821  1.00  0.00     0.040 A 
ATOM     77  C   UNL A   1      36.482  29.480  30.149  1.00  0.00     0.040 A 
ATOM     78  F   UNL A   1      38.281  28.689  31.433  1.00  0.00    -0.206 F 
ATOM     79  C   UNL A   1      35.971  29.933  28.934  1.00  0.00     0.006 A 
ENDBRANCH  51  72
BRANCH  63  80
ATOM     80  C   UNL A   1      44.465  32.587  30.941  1.00  0.00     0.057 A 
ATOM     81  C   UNL A   1      44.715  33.597  30.004  1.00  0.00     0.134 A 
ATOM     82  C   UNL A   1      44.424  32.954  32.293  1.00  0.00     0.134 A 
ATOM     83  F   UNL A   1      44.781  33.309  28.695  1.00  0.00    -0.206 F 
ATOM     84  C   UNL A   1      44.938  34.918  30.396  1.00  0.00     0.040 A 
ATOM     85  C   UNL A   1      44.622  34.275  32.696  1.00  0.00     0.040 A 
ATOM     86  F   UNL A   1      44.182  32.036  33.240  1.00  0.00    -0.206 F 
ATOM     87  C   UNL A   1      44.885  35.261  31.746  1.00  0.00     0.006 A 
ENDBRANCH  63  80
ENDBRANCH  37  38
ENDBRANCH  29  32
ENDBRANCH  27  28
ENDBRANCH  26  27
ENDBRANCH   1  26
TORSDOF 14
ENDMDL
