MODEL 1
REMARK VINA RESULT:     -11.1      0.000      0.000
REMARK SMILES Cc1nc2cc(SCC(=O)NCCCNC(=O)c3ccc(-c4c5nc(c(-c6c(F)cccc6F)c6ccc([nH]6)c(-c6c(F)cccc6F)c6nc(c(-c7c(F)cccc7F)c7ccc4[nH]7)C=C6)C=C5)cc3)ccc2s1
REMARK SMILES IDX 13 1 12 2 11 3 9 4 10 5 8 7 7 8 6 9 1 10 2 11 3 12 75 13
REMARK SMILES IDX 4 14 74 15 5 16 73 17 72 18 14 19 15 20 16 21 17 23 18 24
REMARK SMILES IDX 19 25 71 26 20 27 70 28 21 29 22 30 23 31 64 32 24 33 69 34
REMARK SMILES IDX 63 35 65 36 25 37 68 38 62 39 61 40 26 42 52 43 35 44 51 45
REMARK SMILES IDX 36 46 39 47 50 48 66 49 37 50 38 51 49 53 67 54 40 55 27 56
REMARK SMILES IDX 28 57 33 58 29 59 30 60 32 61 34 62 31 63 53 64 54 65 59 66
REMARK SMILES IDX 55 67 56 68 58 69 60 70 57 71 41 72 42 73 47 74 43 75 44 76
REMARK SMILES IDX 46 77 48 78 45 79
REMARK H PARENT 11 6 15 22 65 41 39 52
REMARK Flexibility Score: inf
ROOT
ATOM      1  C   UNL A   1      37.521  19.569  24.767  1.00  0.00     0.042 C 
ENDROOT
BRANCH   1   2
ATOM      2  C   UNL A   1      36.188  20.293  24.947  1.00  0.00     0.117 C 
BRANCH   2   3
ATOM      3  N   UNL A   1      35.075  19.371  25.074  1.00  0.00    -0.355 N 
ATOM      4  C   UNL A   1      33.747  19.568  24.847  1.00  0.00     0.230 C 
ATOM      5  O   UNL A   1      32.987  18.616  25.049  1.00  0.00    -0.274 OA
ATOM      6  H   UNL A   1      35.318  18.464  25.371  1.00  0.00     0.163 HD
BRANCH   4   7
ATOM      7  C   UNL A   1      33.226  20.877  24.283  1.00  0.00     0.174 C 
BRANCH   7   8
ATOM      8  S   UNL A   1      32.106  21.777  25.399  1.00  0.00    -0.116 SA
BRANCH   8   9
ATOM      9  C   UNL A   1      32.751  23.441  25.499  1.00  0.00     0.010 A 
ATOM     10  C   UNL A   1      31.773  29.135  27.439  1.00  0.00     0.079 C 
ATOM     11  C   UNL A   1      32.252  27.857  26.847  1.00  0.00     0.091 A 
ATOM     12  N   UNL A   1      31.569  26.734  26.857  1.00  0.00    -0.241 NA
ATOM     13  S   UNL A   1      33.794  27.784  26.095  1.00  0.00    -0.119 S 
ATOM     14  C   UNL A   1      32.307  25.726  26.259  1.00  0.00     0.083 A 
ATOM     15  C   UNL A   1      33.561  26.107  25.784  1.00  0.00     0.055 A 
ATOM     16  C   UNL A   1      31.903  24.385  26.105  1.00  0.00     0.045 A 
ATOM     17  C   UNL A   1      34.425  25.188  25.174  1.00  0.00     0.022 A 
ATOM     18  C   UNL A   1      34.006  23.854  25.057  1.00  0.00     0.016 A 
ENDBRANCH   8   9
ENDBRANCH   7   8
ENDBRANCH   4   7
ENDBRANCH   2   3
ENDBRANCH   1   2
BRANCH   1  19
ATOM     19  C   UNL A   1      38.680  20.160  25.568  1.00  0.00     0.118 C 
BRANCH  19  20
ATOM     20  N   UNL A   1      39.822  19.263  25.664  1.00  0.00    -0.352 N 
ATOM     21  C   UNL A   1      41.118  19.509  26.041  1.00  0.00     0.251 C 
ATOM     22  H   UNL A   1      39.635  18.328  25.418  1.00  0.00     0.163 HD
ATOM     23  O   UNL A   1      41.964  18.628  25.899  1.00  0.00    -0.269 OA
BRANCH  21  24
ATOM     24  C   UNL A   1      41.520  20.823  26.595  1.00  0.00     0.039 A 
ATOM     25  C   UNL A   1      42.180  21.726  25.754  1.00  0.00     0.014 A 
ATOM     26  C   UNL A   1      41.299  21.155  27.934  1.00  0.00     0.014 A 
ATOM     27  C   UNL A   1      42.558  22.981  26.237  1.00  0.00     0.010 A 
ATOM     28  C   UNL A   1      41.620  22.431  28.398  1.00  0.00     0.010 A 
ATOM     29  C   UNL A   1      42.251  23.357  27.555  1.00  0.00    -0.014 A 
BRANCH  29  30
ATOM     30  C   UNL A   1      42.570  24.719  28.056  1.00  0.00     0.031 A 
ATOM     31  C   UNL A   1      43.974  25.075  28.459  1.00  0.00     0.074 A 
ATOM     32  C   UNL A   1      41.580  25.619  28.208  1.00  0.00     0.049 A 
ATOM     33  N   UNL A   1      44.427  26.186  28.983  1.00  0.00    -0.248 NA
ATOM     34  C   UNL A   1      45.000  24.037  28.271  1.00  0.00     0.031 C 
ATOM     35  C   UNL A   1      40.168  25.385  27.896  1.00  0.00     0.029 A 
ATOM     36  N   UNL A   1      41.609  26.910  28.674  1.00  0.00    -0.354 N 
ATOM     37  C   UNL A   1      45.783  25.978  29.200  1.00  0.00     0.074 A 
ATOM     38  C   UNL A   1      46.072  24.620  28.791  1.00  0.00     0.031 C 
ATOM     39  C   UNL A   1      39.470  26.500  28.167  1.00  0.00     0.029 A 
ATOM     40  C   UNL A   1      40.375  27.513  28.699  1.00  0.00     0.049 A 
ATOM     41  H   UNL A   1      42.435  27.360  28.964  1.00  0.00     0.167 HD
ATOM     42  C   UNL A   1      46.708  26.844  29.681  1.00  0.00     0.037 A 
ATOM     43  C   UNL A   1      40.011  28.742  29.111  1.00  0.00     0.037 A 
ATOM     44  C   UNL A   1      46.428  28.204  30.064  1.00  0.00     0.049 A 
ATOM     45  C   UNL A   1      41.056  29.686  29.634  1.00  0.00     0.074 A 
ATOM     46  C   UNL A   1      47.310  29.174  30.506  1.00  0.00     0.029 A 
ATOM     47  N   UNL A   1      45.169  28.785  30.052  1.00  0.00    -0.354 N 
ATOM     48  N   UNL A   1      42.344  29.494  29.779  1.00  0.00    -0.248 NA
ATOM     49  C   UNL A   1      40.596  31.020  30.047  1.00  0.00     0.031 C 
ATOM     50  C   UNL A   1      46.581  30.333  30.793  1.00  0.00     0.029 A 
ATOM     51  C   UNL A   1      45.249  30.095  30.494  1.00  0.00     0.049 A 
ATOM     52  H   UNL A   1      44.341  28.333  29.772  1.00  0.00     0.167 HD
ATOM     53  C   UNL A   1      42.852  30.686  30.277  1.00  0.00     0.074 A 
ATOM     54  C   UNL A   1      41.736  31.601  30.396  1.00  0.00     0.031 C 
ATOM     55  C   UNL A   1      44.131  30.995  30.605  1.00  0.00     0.037 A 
BRANCH  42  56
ATOM     56  C   UNL A   1      48.116  26.346  29.815  1.00  0.00     0.057 A 
ATOM     57  C   UNL A   1      49.039  26.459  28.767  1.00  0.00     0.134 A 
ATOM     58  C   UNL A   1      48.564  25.779  31.014  1.00  0.00     0.134 A 
ATOM     59  F   UNL A   1      48.670  26.983  27.588  1.00  0.00    -0.206 F 
ATOM     60  C   UNL A   1      50.353  26.004  28.899  1.00  0.00     0.040 A 
ATOM     61  C   UNL A   1      49.882  25.342  31.166  1.00  0.00     0.040 A 
ATOM     62  F   UNL A   1      47.733  25.647  32.058  1.00  0.00    -0.206 F 
ATOM     63  C   UNL A   1      50.778  25.449  30.105  1.00  0.00     0.006 A 
ENDBRANCH  42  56
BRANCH  43  64
ATOM     64  C   UNL A   1      38.591  29.159  29.027  1.00  0.00     0.057 A 
ATOM     65  C   UNL A   1      38.051  29.642  27.830  1.00  0.00     0.134 A 
ATOM     66  C   UNL A   1      37.741  29.085  30.137  1.00  0.00     0.134 A 
ATOM     67  F   UNL A   1      38.824  29.753  26.739  1.00  0.00    -0.206 F 
ATOM     68  C   UNL A   1      36.721  30.053  27.740  1.00  0.00     0.040 A 
ATOM     69  C   UNL A   1      36.402  29.472  30.057  1.00  0.00     0.040 A 
ATOM     70  F   UNL A   1      38.198  28.626  31.310  1.00  0.00    -0.206 F 
ATOM     71  C   UNL A   1      35.890  29.963  28.856  1.00  0.00     0.006 A 
ENDBRANCH  43  64
BRANCH  55  72
ATOM     72  C   UNL A   1      44.392  32.386  31.099  1.00  0.00     0.057 A 
ATOM     73  C   UNL A   1      44.675  33.439  30.221  1.00  0.00     0.134 A 
ATOM     74  C   UNL A   1      44.328  32.682  32.467  1.00  0.00     0.134 A 
ATOM     75  F   UNL A   1      44.765  33.219  28.901  1.00  0.00    -0.206 F 
ATOM     76  C   UNL A   1      44.907  34.734  30.688  1.00  0.00     0.040 A 
ATOM     77  C   UNL A   1      44.536  33.976  32.943  1.00  0.00     0.040 A 
ATOM     78  F   UNL A   1      44.055  31.718  33.360  1.00  0.00    -0.206 F 
ATOM     79  C   UNL A   1      44.831  35.006  32.053  1.00  0.00     0.006 A 
ENDBRANCH  55  72
ENDBRANCH  29  30
ENDBRANCH  21  24
ENDBRANCH  19  20
ENDBRANCH   1  19
TORSDOF 12
ENDMDL
MODEL 2
REMARK VINA RESULT:     -11.1      4.406      9.742
REMARK SMILES Cc1nc2cc(SCC(=O)NCCCNC(=O)c3ccc(-c4c5nc(c(-c6c(F)cccc6F)c6ccc([nH]6)c(-c6c(F)cccc6F)c6nc(c(-c7c(F)cccc7F)c7ccc4[nH]7)C=C6)C=C5)cc3)ccc2s1
REMARK SMILES IDX 13 1 12 2 11 3 9 4 10 5 8 7 7 8 6 9 1 10 2 11 3 12 75 13
REMARK SMILES IDX 4 14 74 15 5 16 73 17 72 18 14 19 15 20 16 21 17 23 18 24
REMARK SMILES IDX 19 25 71 26 20 27 70 28 21 29 22 30 23 31 64 32 24 33 69 34
REMARK SMILES IDX 63 35 65 36 25 37 68 38 62 39 61 40 26 42 52 43 35 44 51 45
REMARK SMILES IDX 36 46 39 47 50 48 66 49 37 50 38 51 49 53 67 54 40 55 27 56
REMARK SMILES IDX 28 57 33 58 29 59 30 60 32 61 34 62 31 63 53 64 54 65 59 66
REMARK SMILES IDX 55 67 56 68 58 69 60 70 57 71 41 72 42 73 47 74 43 75 44 76
REMARK SMILES IDX 46 77 48 78 45 79
REMARK H PARENT 11 6 15 22 65 41 39 52
REMARK Flexibility Score: inf
ROOT
ATOM      1  C   UNL A   1      34.727  34.326  28.510  1.00  0.00     0.042 C 
ENDROOT
BRANCH   1   2
ATOM      2  C   UNL A   1      33.270  34.681  28.804  1.00  0.00     0.117 C 
BRANCH   2   3
ATOM      3  N   UNL A   1      33.130  36.021  29.343  1.00  0.00    -0.355 N 
ATOM      4  C   UNL A   1      33.028  36.435  30.637  1.00  0.00     0.230 C 
ATOM      5  O   UNL A   1      32.896  37.646  30.838  1.00  0.00    -0.274 OA
ATOM      6  H   UNL A   1      33.104  36.739  28.671  1.00  0.00     0.163 HD
BRANCH   4   7
ATOM      7  C   UNL A   1      33.159  35.462  31.793  1.00  0.00     0.174 C 
BRANCH   7   8
ATOM      8  S   UNL A   1      34.583  35.780  32.879  1.00  0.00    -0.116 SA
BRANCH   8   9
ATOM      9  C   UNL A   1      35.522  34.260  32.910  1.00  0.00     0.010 A 
ATOM     10  C   UNL A   1      40.892  31.657  34.151  1.00  0.00     0.079 C 
ATOM     11  C   UNL A   1      39.507  32.028  33.753  1.00  0.00     0.091 A 
ATOM     12  N   UNL A   1      39.033  33.254  33.776  1.00  0.00    -0.241 NA
ATOM     13  S   UNL A   1      38.411  30.815  33.231  1.00  0.00    -0.119 S 
ATOM     14  C   UNL A   1      37.705  33.255  33.383  1.00  0.00     0.083 A 
ATOM     15  C   UNL A   1      37.181  32.006  33.051  1.00  0.00     0.055 A 
ATOM     16  C   UNL A   1      36.867  34.385  33.301  1.00  0.00     0.045 A 
ATOM     17  C   UNL A   1      35.846  31.854  32.655  1.00  0.00     0.022 A 
ATOM     18  C   UNL A   1      35.028  32.993  32.608  1.00  0.00     0.016 A 
ENDBRANCH   8   9
ENDBRANCH   7   8
ENDBRANCH   4   7
ENDBRANCH   2   3
ENDBRANCH   1   2
BRANCH   1  19
ATOM     19  C   UNL A   1      35.180  32.981  29.075  1.00  0.00     0.118 C 
BRANCH  19  20
ATOM     20  N   UNL A   1      34.359  31.867  28.622  1.00  0.00    -0.352 N 
ATOM     21  C   UNL A   1      34.708  30.586  28.281  1.00  0.00     0.251 C 
ATOM     22  H   UNL A   1      33.398  32.066  28.550  1.00  0.00     0.163 HD
ATOM     23  O   UNL A   1      33.866  29.847  27.773  1.00  0.00    -0.269 OA
BRANCH  21  24
ATOM     24  C   UNL A   1      36.085  30.082  28.492  1.00  0.00     0.039 A 
ATOM     25  C   UNL A   1      36.987  30.141  27.424  1.00  0.00     0.014 A 
ATOM     26  C   UNL A   1      36.483  29.515  29.705  1.00  0.00     0.014 A 
ATOM     27  C   UNL A   1      38.299  29.693  27.592  1.00  0.00     0.010 A 
ATOM     28  C   UNL A   1      37.809  29.125  29.892  1.00  0.00     0.010 A 
ATOM     29  C   UNL A   1      38.731  29.212  28.838  1.00  0.00    -0.014 A 
BRANCH  29  30
ATOM     30  C   UNL A   1      40.145  28.810  29.056  1.00  0.00     0.031 A 
ATOM     31  C   UNL A   1      41.128  29.772  29.660  1.00  0.00     0.074 A 
ATOM     32  C   UNL A   1      40.559  27.595  28.649  1.00  0.00     0.049 A 
ATOM     33  N   UNL A   1      42.414  29.624  29.861  1.00  0.00    -0.248 NA
ATOM     34  C   UNL A   1      40.603  31.083  30.073  1.00  0.00     0.031 C 
ATOM     35  C   UNL A   1      39.716  26.584  28.007  1.00  0.00     0.029 A 
ATOM     36  N   UNL A   1      41.799  27.008  28.705  1.00  0.00    -0.354 N 
ATOM     37  C   UNL A   1      42.854  30.823  30.408  1.00  0.00     0.074 A 
ATOM     38  C   UNL A   1      41.706  31.704  30.469  1.00  0.00     0.031 C 
ATOM     39  C   UNL A   1      40.459  25.497  27.743  1.00  0.00     0.029 A 
ATOM     40  C   UNL A   1      41.834  25.745  28.165  1.00  0.00     0.049 A 
ATOM     41  H   UNL A   1      42.587  27.449  29.095  1.00  0.00     0.167 HD
ATOM     42  C   UNL A   1      44.095  31.155  30.835  1.00  0.00     0.037 A 
ATOM     43  C   UNL A   1      42.860  24.886  28.019  1.00  0.00     0.037 A 
ATOM     44  C   UNL A   1      45.233  30.272  30.800  1.00  0.00     0.049 A 
ATOM     45  C   UNL A   1      44.226  25.274  28.508  1.00  0.00     0.074 A 
ATOM     46  C   UNL A   1      46.516  30.499  31.265  1.00  0.00     0.029 A 
ATOM     47  N   UNL A   1      45.222  28.992  30.267  1.00  0.00    -0.354 N 
ATOM     48  N   UNL A   1      44.613  26.390  29.076  1.00  0.00    -0.248 NA
ATOM     49  C   UNL A   1      45.297  24.282  28.339  1.00  0.00     0.031 C 
ATOM     50  C   UNL A   1      47.291  29.369  30.984  1.00  0.00     0.029 A 
ATOM     51  C   UNL A   1      46.479  28.423  30.377  1.00  0.00     0.049 A 
ATOM     52  H   UNL A   1      44.436  28.552  29.868  1.00  0.00     0.167 HD
ATOM     53  C   UNL A   1      45.964  26.227  29.352  1.00  0.00     0.074 A 
ATOM     54  C   UNL A   1      46.327  24.899  28.903  1.00  0.00     0.031 C 
ATOM     55  C   UNL A   1      46.826  27.100  29.928  1.00  0.00     0.037 A 
BRANCH  42  56
ATOM     56  C   UNL A   1      44.289  32.537  31.387  1.00  0.00     0.057 A 
ATOM     57  C   UNL A   1      44.468  33.645  30.549  1.00  0.00     0.134 A 
ATOM     58  C   UNL A   1      44.261  32.767  32.768  1.00  0.00     0.134 A 
ATOM     59  F   UNL A   1      44.515  33.490  29.217  1.00  0.00    -0.206 F 
ATOM     60  C   UNL A   1      44.636  34.931  31.066  1.00  0.00     0.040 A 
ATOM     61  C   UNL A   1      44.403  34.052  33.296  1.00  0.00     0.040 A 
ATOM     62  F   UNL A   1      44.086  31.750  33.625  1.00  0.00    -0.206 F 
ATOM     63  C   UNL A   1      44.598  35.137  32.444  1.00  0.00     0.006 A 
ENDBRANCH  42  56
BRANCH  43  64
ATOM     64  C   UNL A   1      42.629  23.559  27.399  1.00  0.00     0.057 A 
ATOM     65  C   UNL A   1      42.301  22.445  28.180  1.00  0.00     0.134 A 
ATOM     66  C   UNL A   1      42.731  23.372  26.015  1.00  0.00     0.134 A 
ATOM     67  F   UNL A   1      42.208  22.560  29.513  1.00  0.00    -0.206 F 
ATOM     68  C   UNL A   1      42.096  21.188  27.611  1.00  0.00     0.040 A 
ATOM     69  C   UNL A   1      42.508  22.125  25.429  1.00  0.00     0.040 A 
ATOM     70  F   UNL A   1      43.038  24.402  25.213  1.00  0.00    -0.206 F 
ATOM     71  C   UNL A   1      42.195  21.026  26.230  1.00  0.00     0.006 A 
ENDBRANCH  43  64
BRANCH  55  72
ATOM     72  C   UNL A   1      48.237  26.635  30.127  1.00  0.00     0.057 A 
ATOM     73  C   UNL A   1      49.237  26.886  29.179  1.00  0.00     0.134 A 
ATOM     74  C   UNL A   1      48.607  25.955  31.295  1.00  0.00     0.134 A 
ATOM     75  F   UNL A   1      48.944  27.519  28.033  1.00  0.00    -0.206 F 
ATOM     76  C   UNL A   1      50.551  26.459  29.377  1.00  0.00     0.040 A 
ATOM     77  C   UNL A   1      49.922  25.543  31.513  1.00  0.00     0.040 A 
ATOM     78  F   UNL A   1      47.698  25.690  32.245  1.00  0.00    -0.206 F 
ATOM     79  C   UNL A   1      50.897  25.791  30.550  1.00  0.00     0.006 A 
ENDBRANCH  55  72
ENDBRANCH  29  30
ENDBRANCH  21  24
ENDBRANCH  19  20
ENDBRANCH   1  19
TORSDOF 12
ENDMDL
MODEL 3
REMARK VINA RESULT:     -11.0      2.427      7.238
REMARK SMILES Cc1nc2cc(SCC(=O)NCCCNC(=O)c3ccc(-c4c5nc(c(-c6c(F)cccc6F)c6ccc([nH]6)c(-c6c(F)cccc6F)c6nc(c(-c7c(F)cccc7F)c7ccc4[nH]7)C=C6)C=C5)cc3)ccc2s1
REMARK SMILES IDX 13 1 12 2 11 3 9 4 10 5 8 7 7 8 6 9 1 10 2 11 3 12 75 13
REMARK SMILES IDX 4 14 74 15 5 16 73 17 72 18 14 19 15 20 16 21 17 23 18 24
REMARK SMILES IDX 19 25 71 26 20 27 70 28 21 29 22 30 23 31 64 32 24 33 69 34
REMARK SMILES IDX 63 35 65 36 25 37 68 38 62 39 61 40 26 42 52 43 35 44 51 45
REMARK SMILES IDX 36 46 39 47 50 48 66 49 37 50 38 51 49 53 67 54 40 55 27 56
REMARK SMILES IDX 28 57 33 58 29 59 30 60 32 61 34 62 31 63 53 64 54 65 59 66
REMARK SMILES IDX 55 67 56 68 58 69 60 70 57 71 41 72 42 73 47 74 43 75 44 76
REMARK SMILES IDX 46 77 48 78 45 79
REMARK H PARENT 11 6 15 22 65 41 39 52
REMARK Flexibility Score: inf
ROOT
ATOM      1  C   UNL A   1      38.033  20.073  24.911  1.00  0.00     0.042 C 
ENDROOT
BRANCH   1   2
ATOM      2  C   UNL A   1      37.477  21.441  24.517  1.00  0.00     0.117 C 
BRANCH   2   3
ATOM      3  N   UNL A   1      37.940  22.496  25.399  1.00  0.00    -0.355 N 
ATOM      4  C   UNL A   1      37.347  23.675  25.736  1.00  0.00     0.230 C 
ATOM      5  O   UNL A   1      37.962  24.422  26.503  1.00  0.00    -0.274 OA
ATOM      6  H   UNL A   1      38.816  22.334  25.817  1.00  0.00     0.163 HD
BRANCH   4   7
ATOM      7  C   UNL A   1      35.949  24.022  25.261  1.00  0.00     0.174 C 
BRANCH   7   8
ATOM      8  S   UNL A   1      34.618  23.335  26.293  1.00  0.00    -0.116 SA
BRANCH   8   9
ATOM      9  C   UNL A   1      33.837  22.069  25.302  1.00  0.00     0.010 A 
ATOM     10  C   UNL A   1      33.865  16.202  23.651  1.00  0.00     0.079 C 
ATOM     11  C   UNL A   1      33.645  17.659  23.858  1.00  0.00     0.091 A 
ATOM     12  N   UNL A   1      34.393  18.419  24.627  1.00  0.00    -0.241 NA
ATOM     13  S   UNL A   1      32.339  18.450  23.073  1.00  0.00    -0.119 S 
ATOM     14  C   UNL A   1      33.902  19.714  24.632  1.00  0.00     0.083 A 
ATOM     15  C   UNL A   1      32.772  19.927  23.844  1.00  0.00     0.055 A 
ATOM     16  C   UNL A   1      34.437  20.799  25.356  1.00  0.00     0.045 A 
ATOM     17  C   UNL A   1      32.156  21.183  23.769  1.00  0.00     0.022 A 
ATOM     18  C   UNL A   1      32.695  22.238  24.521  1.00  0.00     0.016 A 
ENDBRANCH   8   9
ENDBRANCH   7   8
ENDBRANCH   4   7
ENDBRANCH   2   3
ENDBRANCH   1   2
BRANCH   1  19
ATOM     19  C   UNL A   1      38.971  20.091  26.117  1.00  0.00     0.118 C 
BRANCH  19  20
ATOM     20  N   UNL A   1      40.081  19.159  25.988  1.00  0.00    -0.352 N 
ATOM     21  C   UNL A   1      41.435  19.374  26.041  1.00  0.00     0.251 C 
ATOM     22  H   UNL A   1      39.818  18.222  25.840  1.00  0.00     0.163 HD
ATOM     23  O   UNL A   1      42.202  18.458  25.750  1.00  0.00    -0.269 OA
BRANCH  21  24
ATOM     24  C   UNL A   1      41.988  20.695  26.420  1.00  0.00     0.039 A 
ATOM     25  C   UNL A   1      42.282  21.610  25.403  1.00  0.00     0.014 A 
ATOM     26  C   UNL A   1      42.263  21.023  27.750  1.00  0.00     0.014 A 
ATOM     27  C   UNL A   1      42.788  22.872  25.724  1.00  0.00     0.010 A 
ATOM     28  C   UNL A   1      42.708  22.304  28.074  1.00  0.00     0.010 A 
ATOM     29  C   UNL A   1      42.974  23.242  27.066  1.00  0.00    -0.014 A 
BRANCH  29  30
ATOM     30  C   UNL A   1      43.431  24.610  27.426  1.00  0.00     0.031 A 
ATOM     31  C   UNL A   1      42.445  25.653  27.870  1.00  0.00     0.074 A 
ATOM     32  C   UNL A   1      44.732  24.930  27.293  1.00  0.00     0.049 A 
ATOM     33  N   UNL A   1      42.648  26.914  28.158  1.00  0.00    -0.248 NA
ATOM     34  C   UNL A   1      41.040  25.229  27.985  1.00  0.00     0.031 C 
ATOM     35  C   UNL A   1      45.784  24.024  26.829  1.00  0.00     0.029 A 
ATOM     36  N   UNL A   1      45.390  26.112  27.525  1.00  0.00    -0.354 N 
ATOM     37  C   UNL A   1      41.401  27.438  28.472  1.00  0.00     0.074 A 
ATOM     38  C   UNL A   1      40.439  26.369  28.300  1.00  0.00     0.031 C 
ATOM     39  C   UNL A   1      46.957  24.678  26.824  1.00  0.00     0.029 A 
ATOM     40  C   UNL A   1      46.735  26.055  27.253  1.00  0.00     0.049 A 
ATOM     41  H   UNL A   1      44.941  26.924  27.854  1.00  0.00     0.167 HD
ATOM     42  C   UNL A   1      41.085  28.690  28.882  1.00  0.00     0.037 A 
ATOM     43  C   UNL A   1      47.683  27.008  27.332  1.00  0.00     0.037 A 
ATOM     44  C   UNL A   1      42.043  29.748  29.079  1.00  0.00     0.049 A 
ATOM     45  C   UNL A   1      47.311  28.387  27.796  1.00  0.00     0.074 A 
ATOM     46  C   UNL A   1      41.826  31.031  29.549  1.00  0.00     0.029 A 
ATOM     47  N   UNL A   1      43.400  29.644  28.814  1.00  0.00    -0.354 N 
ATOM     48  N   UNL A   1      46.135  28.851  28.145  1.00  0.00    -0.248 NA
ATOM     49  C   UNL A   1      48.397  29.374  27.882  1.00  0.00     0.031 C 
ATOM     50  C   UNL A   1      43.046  31.715  29.538  1.00  0.00     0.029 A 
ATOM     51  C   UNL A   1      44.030  30.844  29.096  1.00  0.00     0.049 A 
ATOM     52  H   UNL A   1      43.850  28.836  28.476  1.00  0.00     0.167 HD
ATOM     53  C   UNL A   1      46.343  30.174  28.513  1.00  0.00     0.074 A 
ATOM     54  C   UNL A   1      47.759  30.435  28.358  1.00  0.00     0.031 C 
ATOM     55  C   UNL A   1      45.440  31.090  28.941  1.00  0.00     0.037 A 
BRANCH  42  56
ATOM     56  C   UNL A   1      39.639  28.984  29.152  1.00  0.00     0.057 A 
ATOM     57  C   UNL A   1      39.089  28.854  30.434  1.00  0.00     0.134 A 
ATOM     58  C   UNL A   1      38.797  29.436  28.129  1.00  0.00     0.134 A 
ATOM     59  F   UNL A   1      39.840  28.415  31.455  1.00  0.00    -0.206 F 
ATOM     60  C   UNL A   1      37.745  29.140  30.684  1.00  0.00     0.040 A 
ATOM     61  C   UNL A   1      37.458  29.748  28.371  1.00  0.00     0.040 A 
ATOM     62  F   UNL A   1      39.263  29.589  26.880  1.00  0.00    -0.206 F 
ATOM     63  C   UNL A   1      36.928  29.594  29.651  1.00  0.00     0.006 A 
ENDBRANCH  42  56
BRANCH  43  64
ATOM     64  C   UNL A   1      49.087  26.684  26.981  1.00  0.00     0.057 A 
ATOM     65  C   UNL A   1      49.547  26.804  25.665  1.00  0.00     0.134 A 
ATOM     66  C   UNL A   1      50.000  26.249  27.948  1.00  0.00     0.134 A 
ATOM     67  F   UNL A   1      48.711  27.199  24.692  1.00  0.00    -0.206 F 
ATOM     68  C   UNL A   1      50.861  26.489  25.318  1.00  0.00     0.040 A 
ATOM     69  C   UNL A   1      51.324  25.950  27.620  1.00  0.00     0.040 A 
ATOM     70  F   UNL A   1      49.621  26.119  29.228  1.00  0.00    -0.206 F 
ATOM     71  C   UNL A   1      51.755  26.064  26.299  1.00  0.00     0.006 A 
ENDBRANCH  43  64
BRANCH  55  72
ATOM     72  C   UNL A   1      45.963  32.449  29.296  1.00  0.00     0.057 A 
ATOM     73  C   UNL A   1      46.007  33.489  28.360  1.00  0.00     0.134 A 
ATOM     74  C   UNL A   1      46.397  32.729  30.598  1.00  0.00     0.134 A 
ATOM     75  F   UNL A   1      45.619  33.281  27.092  1.00  0.00    -0.206 F 
ATOM     76  C   UNL A   1      46.485  34.756  28.701  1.00  0.00     0.040 A 
ATOM     77  C   UNL A   1      46.856  33.996  30.956  1.00  0.00     0.040 A 
ATOM     78  F   UNL A   1      46.374  31.777  31.543  1.00  0.00    -0.206 F 
ATOM     79  C   UNL A   1      46.905  35.013  30.005  1.00  0.00     0.006 A 
ENDBRANCH  55  72
ENDBRANCH  29  30
ENDBRANCH  21  24
ENDBRANCH  19  20
ENDBRANCH   1  19
TORSDOF 12
ENDMDL
