MODEL 1
REMARK VINA RESULT:     -13.2      0.000      0.000
REMARK SMILES O=C(COc1ccc(Cl)c2ccccc12)N[C@@H](Cc1c[nH]c2ccccc12)C(=O)NCCCNC(=O)c1ccc(-c2c3nc(c(-c4c(F)cccc4F)c4ccc([nH]4)c(-c4c(F)cccc4F)c4nc(c(-c5c(F)cccc5F)c5ccc2[nH]5)C=C4)C=C3)cc1
REMARK SMILES IDX 31 1 30 2 28 3 29 4 17 6 16 7 1 8 2 9 3 11 4 12 5 13 6 14
REMARK SMILES IDX 15 15 7 16 10 17 14 18 8 19 11 20 13 21 9 22 12 23 18 24
REMARK SMILES IDX 19 25 20 26 27 27 21 28 22 29 26 30 23 32 25 33 24 34 32 35
REMARK SMILES IDX 33 36 34 37 35 38 36 40 37 41 38 42 90 43 39 44 89 45 40 46
REMARK SMILES IDX 41 47 42 48 83 49 43 50 88 51 82 52 84 53 44 54 87 55 81 56
REMARK SMILES IDX 80 57 45 59 71 60 54 61 70 62 55 63 58 64 69 65 85 66 56 67
REMARK SMILES IDX 57 68 68 70 86 71 59 72 46 73 47 74 52 75 48 76 49 77 51 78
REMARK SMILES IDX 53 79 50 80 72 81 73 82 78 83 74 84 75 85 77 86 79 87 76 88
REMARK SMILES IDX 60 89 61 90 66 91 62 92 63 93 65 94 67 95 64 96
REMARK H PARENT 30 5 16 10 21 31 34 39 84 58 58 69
REMARK Flexibility Score: inf
ROOT
ATOM      1  C   UNL A   1      36.222  20.972  25.021  1.00  0.00     0.117 C 
ENDROOT
BRANCH   1   2
ATOM      2  N   UNL A   1      35.119  20.319  25.694  1.00  0.00    -0.354 N 
ATOM      3  C   UNL A   1      33.786  20.371  25.390  1.00  0.00     0.242 C 
ATOM      4  O   UNL A   1      33.108  19.392  25.719  1.00  0.00    -0.273 OA
ATOM      5  H   UNL A   1      35.360  19.765  26.472  1.00  0.00     0.163 HD
BRANCH   3   6
ATOM      6  C   UNL A   1      33.149  21.549  24.613  1.00  0.00     0.175 C 
BRANCH   6   7
ATOM      7  N   UNL A   1      31.946  22.047  25.295  1.00  0.00    -0.341 N 
ATOM      8  O   UNL A   1      33.048  23.201  26.946  1.00  0.00    -0.271 OA
ATOM      9  C   UNL A   1      32.026  22.989  26.300  1.00  0.00     0.258 C 
ATOM     10  H   UNL A   1      31.063  21.700  25.028  1.00  0.00     0.164 HD
BRANCH   9  11
ATOM     11  C   UNL A   1      30.739  23.789  26.526  1.00  0.00     0.329 C 
BRANCH  11  12
ATOM     12  O   UNL A   1      30.969  25.149  26.912  1.00  0.00    -0.483 OA
BRANCH  12  13
ATOM     13  C   UNL A   1      30.768  26.037  25.874  1.00  0.00     0.128 A 
ATOM     14  C   UNL A   1      30.075  25.617  24.737  1.00  0.00     0.048 A 
ATOM     15  C   UNL A   1      31.175  27.387  26.018  1.00  0.00     0.025 A 
ATOM     16  C   UNL A   1      29.823  26.511  23.703  1.00  0.00     0.025 A 
ATOM     17  C   UNL A   1      30.913  28.306  24.964  1.00  0.00     0.004 A 
ATOM     18  C   UNL A   1      31.838  27.854  27.174  1.00  0.00     0.012 A 
ATOM     19  C   UNL A   1      30.239  27.838  23.810  1.00  0.00     0.049 A 
ATOM     20  C   UNL A   1      31.332  29.650  25.123  1.00  0.00     0.010 A 
ATOM     21  C   UNL A   1      32.236  29.186  27.303  1.00  0.00     0.001 A 
ATOM     22  Cl  UNL A   1      29.869  28.874  22.469  1.00  0.00    -0.084 Cl
ATOM     23  C   UNL A   1      31.984  30.085  26.277  1.00  0.00     0.001 A 
ENDBRANCH  12  13
ENDBRANCH  11  12
ENDBRANCH   9  11
ENDBRANCH   6   7
BRANCH   6  24
ATOM     24  C   UNL A   1      34.151  22.612  24.124  1.00  0.00     0.072 C 
BRANCH  24  25
ATOM     25  C   UNL A   1      33.649  23.646  23.163  1.00  0.00    -0.020 A 
ATOM     26  C   UNL A   1      33.041  23.404  21.942  1.00  0.00     0.087 A 
ATOM     27  C   UNL A   1      33.695  25.069  23.319  1.00  0.00     0.003 A 
ATOM     28  N   UNL A   1      32.822  24.606  21.320  1.00  0.00    -0.361 N 
ATOM     29  C   UNL A   1      33.243  25.637  22.126  1.00  0.00     0.046 A 
ATOM     30  C   UNL A   1      34.124  25.929  24.351  1.00  0.00     0.010 A 
ATOM     31  H   UNL A   1      32.423  24.714  20.427  1.00  0.00     0.166 HD
ATOM     32  C   UNL A   1      33.253  27.016  21.891  1.00  0.00     0.026 A 
ATOM     33  C   UNL A   1      34.109  27.312  24.145  1.00  0.00     0.001 A 
ATOM     34  C   UNL A   1      33.695  27.845  22.925  1.00  0.00     0.002 A 
ENDBRANCH  24  25
ENDBRANCH   6  24
ENDBRANCH   3   6
ENDBRANCH   1   2
BRANCH   1  35
ATOM     35  C   UNL A   1      37.441  20.102  24.811  1.00  0.00     0.042 C 
BRANCH  35  36
ATOM     36  C   UNL A   1      38.633  20.551  25.639  1.00  0.00     0.118 C 
BRANCH  36  37
ATOM     37  N   UNL A   1      39.679  19.529  25.743  1.00  0.00    -0.352 N 
ATOM     38  C   UNL A   1      41.018  19.628  26.048  1.00  0.00     0.251 C 
ATOM     39  H   UNL A   1      39.370  18.612  25.563  1.00  0.00     0.163 HD
ATOM     40  O   UNL A   1      41.756  18.668  25.868  1.00  0.00    -0.269 OA
BRANCH  38  41
ATOM     41  C   UNL A   1      41.563  20.901  26.567  1.00  0.00     0.039 A 
ATOM     42  C   UNL A   1      42.141  21.816  25.683  1.00  0.00     0.014 A 
ATOM     43  C   UNL A   1      41.485  21.200  27.926  1.00  0.00     0.014 A 
ATOM     44  C   UNL A   1      42.534  23.073  26.151  1.00  0.00     0.010 A 
ATOM     45  C   UNL A   1      41.752  22.488  28.363  1.00  0.00     0.010 A 
ATOM     46  C   UNL A   1      42.283  23.441  27.483  1.00  0.00    -0.014 A 
BRANCH  46  47
ATOM     47  C   UNL A   1      42.563  24.806  27.995  1.00  0.00     0.031 A 
ATOM     48  C   UNL A   1      43.951  25.160  28.460  1.00  0.00     0.074 A 
ATOM     49  C   UNL A   1      41.553  25.684  28.150  1.00  0.00     0.049 A 
ATOM     50  N   UNL A   1      44.368  26.235  29.078  1.00  0.00    -0.248 NA
ATOM     51  C   UNL A   1      44.999  24.149  28.242  1.00  0.00     0.031 C 
ATOM     52  C   UNL A   1      40.150  25.437  27.805  1.00  0.00     0.029 A 
ATOM     53  N   UNL A   1      41.549  26.959  28.656  1.00  0.00    -0.354 N 
ATOM     54  C   UNL A   1      45.712  26.013  29.351  1.00  0.00     0.074 A 
ATOM     55  C   UNL A   1      46.026  24.680  28.890  1.00  0.00     0.031 C 
ATOM     56  C   UNL A   1      39.429  26.535  28.082  1.00  0.00     0.029 A 
ATOM     57  C   UNL A   1      40.305  27.545  28.663  1.00  0.00     0.049 A 
ATOM     58  H   UNL A   1      42.359  27.412  28.982  1.00  0.00     0.167 HD
ATOM     59  C   UNL A   1      46.613  26.856  29.907  1.00  0.00     0.037 A 
ATOM     60  C   UNL A   1      39.918  28.760  29.095  1.00  0.00     0.037 A 
ATOM     61  C   UNL A   1      46.310  28.200  30.320  1.00  0.00     0.049 A 
ATOM     62  C   UNL A   1      40.942  29.691  29.677  1.00  0.00     0.074 A 
ATOM     63  C   UNL A   1      47.165  29.161  30.828  1.00  0.00     0.029 A 
ATOM     64  N   UNL A   1      45.050  28.775  30.259  1.00  0.00    -0.354 N 
ATOM     65  N   UNL A   1      42.224  29.492  29.872  1.00  0.00    -0.248 NA
ATOM     66  C   UNL A   1      40.470  31.019  30.093  1.00  0.00     0.031 C 
ATOM     67  C   UNL A   1      46.416  30.309  31.103  1.00  0.00     0.029 A 
ATOM     68  C   UNL A   1      45.102  30.076  30.729  1.00  0.00     0.049 A 
ATOM     69  H   UNL A   1      44.238  28.326  29.930  1.00  0.00     0.167 HD
ATOM     70  C   UNL A   1      42.716  30.674  30.408  1.00  0.00     0.074 A 
ATOM     71  C   UNL A   1      41.597  31.591  30.494  1.00  0.00     0.031 C 
ATOM     72  C   UNL A   1      43.979  30.975  30.796  1.00  0.00     0.037 A 
BRANCH  59  73
ATOM     73  C   UNL A   1      48.016  26.350  30.080  1.00  0.00     0.057 A 
ATOM     74  C   UNL A   1      48.975  26.473  29.066  1.00  0.00     0.134 A 
ATOM     75  C   UNL A   1      48.419  25.746  31.278  1.00  0.00     0.134 A 
ATOM     76  F   UNL A   1      48.651  27.027  27.888  1.00  0.00    -0.206 F 
ATOM     77  C   UNL A   1      50.274  25.985  29.223  1.00  0.00     0.040 A 
ATOM     78  C   UNL A   1      49.723  25.281  31.459  1.00  0.00     0.040 A 
ATOM     79  F   UNL A   1      47.553  25.601  32.293  1.00  0.00    -0.206 F 
ATOM     80  C   UNL A   1      50.652  25.393  30.426  1.00  0.00     0.006 A 
ENDBRANCH  59  73
BRANCH  60  81
ATOM     81  C   UNL A   1      38.499  29.177  28.963  1.00  0.00     0.057 A 
ATOM     82  C   UNL A   1      38.001  29.647  27.742  1.00  0.00     0.134 A 
ATOM     83  C   UNL A   1      37.610  29.119  30.043  1.00  0.00     0.134 A 
ATOM     84  F   UNL A   1      38.808  29.740  26.675  1.00  0.00    -0.206 F 
ATOM     85  C   UNL A   1      36.675  30.062  27.603  1.00  0.00     0.040 A 
ATOM     86  C   UNL A   1      36.276  29.510  29.912  1.00  0.00     0.040 A 
ATOM     87  F   UNL A   1      38.023  28.669  31.236  1.00  0.00    -0.206 F 
ATOM     88  C   UNL A   1      35.807  29.990  28.690  1.00  0.00     0.006 A 
ENDBRANCH  60  81
BRANCH  72  89
ATOM     89  C   UNL A   1      44.224  32.361  31.313  1.00  0.00     0.057 A 
ATOM     90  C   UNL A   1      44.471  33.436  30.451  1.00  0.00     0.134 A 
ATOM     91  C   UNL A   1      44.168  32.628  32.686  1.00  0.00     0.134 A 
ATOM     92  F   UNL A   1      44.550  33.241  29.125  1.00  0.00    -0.206 F 
ATOM     93  C   UNL A   1      44.673  34.727  30.940  1.00  0.00     0.040 A 
ATOM     94  C   UNL A   1      44.343  33.919  33.185  1.00  0.00     0.040 A 
ATOM     95  F   UNL A   1      43.927  31.641  33.562  1.00  0.00    -0.206 F 
ATOM     96  C   UNL A   1      44.602  34.973  32.310  1.00  0.00     0.006 A 
ENDBRANCH  72  89
ENDBRANCH  46  47
ENDBRANCH  38  41
ENDBRANCH  36  37
ENDBRANCH  35  36
ENDBRANCH   1  35
TORSDOF 16
ENDMDL
MODEL 2
REMARK VINA RESULT:     -13.2      0.390      5.796
REMARK SMILES O=C(COc1ccc(Cl)c2ccccc12)N[C@@H](Cc1c[nH]c2ccccc12)C(=O)NCCCNC(=O)c1ccc(-c2c3nc(c(-c4c(F)cccc4F)c4ccc([nH]4)c(-c4c(F)cccc4F)c4nc(c(-c5c(F)cccc5F)c5ccc2[nH]5)C=C4)C=C3)cc1
REMARK SMILES IDX 31 1 30 2 28 3 29 4 17 6 16 7 1 8 2 9 3 11 4 12 5 13 6 14
REMARK SMILES IDX 15 15 7 16 10 17 14 18 8 19 11 20 13 21 9 22 12 23 18 24
REMARK SMILES IDX 19 25 20 26 27 27 21 28 22 29 26 30 23 32 25 33 24 34 32 35
REMARK SMILES IDX 33 36 34 37 35 38 36 40 37 41 38 42 90 43 39 44 89 45 40 46
REMARK SMILES IDX 41 47 42 48 83 49 43 50 88 51 82 52 84 53 44 54 87 55 81 56
REMARK SMILES IDX 80 57 45 59 71 60 54 61 70 62 55 63 58 64 69 65 85 66 56 67
REMARK SMILES IDX 57 68 68 70 86 71 59 72 46 73 47 74 52 75 48 76 49 77 51 78
REMARK SMILES IDX 53 79 50 80 72 81 73 82 78 83 74 84 75 85 77 86 79 87 76 88
REMARK SMILES IDX 60 89 61 90 66 91 62 92 63 93 65 94 67 95 64 96
REMARK H PARENT 30 5 16 10 21 31 34 39 84 58 58 69
REMARK Flexibility Score: inf
ROOT
ATOM      1  C   UNL A   1      36.089  21.317  25.356  1.00  0.00     0.117 C 
ENDROOT
BRANCH   1   2
ATOM      2  N   UNL A   1      34.982  20.460  25.727  1.00  0.00    -0.354 N 
ATOM      3  C   UNL A   1      33.735  20.393  25.168  1.00  0.00     0.242 C 
ATOM      4  O   UNL A   1      33.151  19.308  25.256  1.00  0.00    -0.273 OA
ATOM      5  H   UNL A   1      35.149  19.847  26.478  1.00  0.00     0.163 HD
BRANCH   3   6
ATOM      6  C   UNL A   1      33.095  21.575  24.399  1.00  0.00     0.175 C 
BRANCH   6   7
ATOM      7  N   UNL A   1      31.911  22.088  25.102  1.00  0.00    -0.341 N 
ATOM      8  O   UNL A   1      33.036  22.911  26.927  1.00  0.00    -0.271 OA
ATOM      9  C   UNL A   1      32.029  22.880  26.226  1.00  0.00     0.258 C 
ATOM     10  H   UNL A   1      31.014  21.862  24.763  1.00  0.00     0.164 HD
BRANCH   9  11
ATOM     11  C   UNL A   1      30.807  23.758  26.516  1.00  0.00     0.329 C 
BRANCH  11  12
ATOM     12  O   UNL A   1      31.139  25.106  26.869  1.00  0.00    -0.483 OA
BRANCH  12  13
ATOM     13  C   UNL A   1      30.875  26.002  25.853  1.00  0.00     0.128 A 
ATOM     14  C   UNL A   1      30.156  25.578  24.734  1.00  0.00     0.048 A 
ATOM     15  C   UNL A   1      31.245  27.362  26.004  1.00  0.00     0.025 A 
ATOM     16  C   UNL A   1      29.840  26.478  23.725  1.00  0.00     0.025 A 
ATOM     17  C   UNL A   1      30.917  28.289  24.976  1.00  0.00     0.004 A 
ATOM     18  C   UNL A   1      31.933  27.833  27.145  1.00  0.00     0.012 A 
ATOM     19  C   UNL A   1      30.218  27.816  23.838  1.00  0.00     0.049 A 
ATOM     20  C   UNL A   1      31.299  29.642  25.141  1.00  0.00     0.010 A 
ATOM     21  C   UNL A   1      32.293  29.175  27.281  1.00  0.00     0.001 A 
ATOM     22  Cl  UNL A   1      29.769  28.861  22.527  1.00  0.00    -0.084 Cl
ATOM     23  C   UNL A   1      31.977  30.080  26.279  1.00  0.00     0.001 A 
ENDBRANCH  12  13
ENDBRANCH  11  12
ENDBRANCH   9  11
ENDBRANCH   6   7
BRANCH   6  24
ATOM     24  C   UNL A   1      34.099  22.626  23.887  1.00  0.00     0.072 C 
BRANCH  24  25
ATOM     25  C   UNL A   1      33.574  23.706  22.991  1.00  0.00    -0.020 A 
ATOM     26  C   UNL A   1      32.910  23.522  21.789  1.00  0.00     0.087 A 
ATOM     27  C   UNL A   1      33.650  25.120  23.202  1.00  0.00     0.003 A 
ATOM     28  N   UNL A   1      32.685  24.752  21.226  1.00  0.00    -0.361 N 
ATOM     29  C   UNL A   1      33.157  25.743  22.054  1.00  0.00     0.046 A 
ATOM     30  C   UNL A   1      34.137  25.930  24.249  1.00  0.00     0.010 A 
ATOM     31  H   UNL A   1      32.250  24.903  20.356  1.00  0.00     0.166 HD
ATOM     32  C   UNL A   1      33.180  27.130  21.874  1.00  0.00     0.026 A 
ATOM     33  C   UNL A   1      34.136  27.321  24.099  1.00  0.00     0.001 A 
ATOM     34  C   UNL A   1      33.679  27.909  22.921  1.00  0.00     0.002 A 
ENDBRANCH  24  25
ENDBRANCH   6  24
ENDBRANCH   3   6
ENDBRANCH   1   2
BRANCH   1  35
ATOM     35  C   UNL A   1      37.322  20.586  24.875  1.00  0.00     0.042 C 
BRANCH  35  36
ATOM     36  C   UNL A   1      38.558  20.913  25.697  1.00  0.00     0.118 C 
BRANCH  36  37
ATOM     37  N   UNL A   1      39.547  19.832  25.703  1.00  0.00    -0.352 N 
ATOM     38  C   UNL A   1      40.897  19.838  25.976  1.00  0.00     0.251 C 
ATOM     39  H   UNL A   1      39.183  18.947  25.472  1.00  0.00     0.163 HD
ATOM     40  O   UNL A   1      41.575  18.854  25.712  1.00  0.00    -0.269 OA
BRANCH  38  41
ATOM     41  C   UNL A   1      41.525  21.042  26.561  1.00  0.00     0.039 A 
ATOM     42  C   UNL A   1      42.057  22.022  25.719  1.00  0.00     0.014 A 
ATOM     43  C   UNL A   1      41.570  21.213  27.943  1.00  0.00     0.014 A 
ATOM     44  C   UNL A   1      42.528  23.219  26.265  1.00  0.00     0.010 A 
ATOM     45  C   UNL A   1      41.914  22.446  28.473  1.00  0.00     0.010 A 
ATOM     46  C   UNL A   1      42.401  23.465  27.642  1.00  0.00    -0.014 A 
BRANCH  46  47
ATOM     47  C   UNL A   1      42.768  24.768  28.252  1.00  0.00     0.031 A 
ATOM     48  C   UNL A   1      41.711  25.820  28.458  1.00  0.00     0.074 A 
ATOM     49  C   UNL A   1      44.060  25.046  28.511  1.00  0.00     0.049 A 
ATOM     50  N   UNL A   1      41.846  27.069  28.829  1.00  0.00    -0.248 NA
ATOM     51  C   UNL A   1      40.322  25.430  28.163  1.00  0.00     0.031 C 
ATOM     52  C   UNL A   1      45.188  24.138  28.288  1.00  0.00     0.029 A 
ATOM     53  N   UNL A   1      44.646  26.185  29.003  1.00  0.00    -0.354 N 
ATOM     54  C   UNL A   1      40.570  27.616  28.776  1.00  0.00     0.074 A 
ATOM     55  C   UNL A   1      39.686  26.586  28.280  1.00  0.00     0.031 C 
ATOM     56  C   UNL A   1      46.324  24.744  28.669  1.00  0.00     0.029 A 
ATOM     57  C   UNL A   1      46.013  26.095  29.122  1.00  0.00     0.049 A 
ATOM     58  H   UNL A   1      44.137  26.990  29.250  1.00  0.00     0.167 HD
ATOM     59  C   UNL A   1      40.165  28.855  29.140  1.00  0.00     0.037 A 
ATOM     60  C   UNL A   1      46.912  27.004  29.543  1.00  0.00     0.037 A 
ATOM     61  C   UNL A   1      41.039  29.861  29.680  1.00  0.00     0.049 A 
ATOM     62  C   UNL A   1      46.434  28.360  29.974  1.00  0.00     0.074 A 
ATOM     63  C   UNL A   1      40.719  31.123  30.146  1.00  0.00     0.029 A 
ATOM     64  N   UNL A   1      42.408  29.710  29.836  1.00  0.00    -0.354 N 
ATOM     65  N   UNL A   1      45.216  28.845  29.979  1.00  0.00    -0.248 NA
ATOM     66  C   UNL A   1      47.455  29.297  30.465  1.00  0.00     0.031 C 
ATOM     67  C   UNL A   1      41.900  31.748  30.557  1.00  0.00     0.029 A 
ATOM     68  C   UNL A   1      42.950  30.861  30.384  1.00  0.00     0.049 A 
ATOM     69  H   UNL A   1      42.921  28.905  29.594  1.00  0.00     0.167 HD
ATOM     70  C   UNL A   1      45.318  30.130  30.495  1.00  0.00     0.074 A 
ATOM     71  C   UNL A   1      46.717  30.344  30.806  1.00  0.00     0.031 C 
ATOM     72  C   UNL A   1      44.343  31.049  30.694  1.00  0.00     0.037 A 
BRANCH  59  73
ATOM     73  C   UNL A   1      38.707  29.178  28.981  1.00  0.00     0.057 A 
ATOM     74  C   UNL A   1      38.169  29.573  27.748  1.00  0.00     0.134 A 
ATOM     75  C   UNL A   1      37.828  29.079  30.066  1.00  0.00     0.134 A 
ATOM     76  F   UNL A   1      38.960  29.703  26.672  1.00  0.00    -0.206 F 
ATOM     77  C   UNL A   1      36.817  29.890  27.608  1.00  0.00     0.040 A 
ATOM     78  C   UNL A   1      36.467  29.364  29.931  1.00  0.00     0.040 A 
ATOM     79  F   UNL A   1      38.274  28.701  31.274  1.00  0.00    -0.206 F 
ATOM     80  C   UNL A   1      35.961  29.779  28.701  1.00  0.00     0.006 A 
ENDBRANCH  59  73
BRANCH  60  81
ATOM     81  C   UNL A   1      48.352  26.648  29.610  1.00  0.00     0.057 A 
ATOM     82  C   UNL A   1      49.219  26.965  28.558  1.00  0.00     0.134 A 
ATOM     83  C   UNL A   1      48.897  25.987  30.717  1.00  0.00     0.134 A 
ATOM     84  F   UNL A   1      48.753  27.585  27.463  1.00  0.00    -0.206 F 
ATOM     85  C   UNL A   1      50.571  26.622  28.594  1.00  0.00     0.040 A 
ATOM     86  C   UNL A   1      50.252  25.658  30.777  1.00  0.00     0.040 A 
ATOM     87  F   UNL A   1      48.121  25.664  31.763  1.00  0.00    -0.206 F 
ATOM     88  C   UNL A   1      51.092  25.969  29.709  1.00  0.00     0.006 A 
ENDBRANCH  60  81
BRANCH  72  89
ATOM     89  C   UNL A   1      44.750  32.356  31.307  1.00  0.00     0.057 A 
ATOM     90  C   UNL A   1      45.124  33.454  30.523  1.00  0.00     0.134 A 
ATOM     91  C   UNL A   1      44.723  32.528  32.696  1.00  0.00     0.134 A 
ATOM     92  F   UNL A   1      45.182  33.347  29.187  1.00  0.00    -0.206 F 
ATOM     93  C   UNL A   1      45.476  34.674  31.102  1.00  0.00     0.040 A 
ATOM     94  C   UNL A   1      45.050  33.750  33.285  1.00  0.00     0.040 A 
ATOM     95  F   UNL A   1      44.365  31.516  33.501  1.00  0.00    -0.206 F 
ATOM     96  C   UNL A   1      45.433  34.826  32.487  1.00  0.00     0.006 A 
ENDBRANCH  72  89
ENDBRANCH  46  47
ENDBRANCH  38  41
ENDBRANCH  36  37
ENDBRANCH  35  36
ENDBRANCH   1  35
TORSDOF 16
ENDMDL
MODEL 3
REMARK VINA RESULT:     -12.8      4.062      8.247
REMARK SMILES O=C(COc1ccc(Cl)c2ccccc12)N[C@@H](Cc1c[nH]c2ccccc12)C(=O)NCCCNC(=O)c1ccc(-c2c3nc(c(-c4c(F)cccc4F)c4ccc([nH]4)c(-c4c(F)cccc4F)c4nc(c(-c5c(F)cccc5F)c5ccc2[nH]5)C=C4)C=C3)cc1
REMARK SMILES IDX 31 1 30 2 28 3 29 4 17 6 16 7 1 8 2 9 3 11 4 12 5 13 6 14
REMARK SMILES IDX 15 15 7 16 10 17 14 18 8 19 11 20 13 21 9 22 12 23 18 24
REMARK SMILES IDX 19 25 20 26 27 27 21 28 22 29 26 30 23 32 25 33 24 34 32 35
REMARK SMILES IDX 33 36 34 37 35 38 36 40 37 41 38 42 90 43 39 44 89 45 40 46
REMARK SMILES IDX 41 47 42 48 83 49 43 50 88 51 82 52 84 53 44 54 87 55 81 56
REMARK SMILES IDX 80 57 45 59 71 60 54 61 70 62 55 63 58 64 69 65 85 66 56 67
REMARK SMILES IDX 57 68 68 70 86 71 59 72 46 73 47 74 52 75 48 76 49 77 51 78
REMARK SMILES IDX 53 79 50 80 72 81 73 82 78 83 74 84 75 85 77 86 79 87 76 88
REMARK SMILES IDX 60 89 61 90 66 91 62 92 63 93 65 94 67 95 64 96
REMARK H PARENT 30 5 16 10 21 31 34 39 84 58 58 69
REMARK Flexibility Score: inf
ROOT
ATOM      1  C   UNL A   1      32.166  28.694  25.287  1.00  0.00     0.117 C 
ENDROOT
BRANCH   1   2
ATOM      2  N   UNL A   1      31.338  27.787  26.055  1.00  0.00    -0.354 N 
ATOM      3  C   UNL A   1      30.747  26.623  25.645  1.00  0.00     0.242 C 
ATOM      4  O   UNL A   1      30.544  25.773  26.518  1.00  0.00    -0.273 OA
ATOM      5  H   UNL A   1      31.181  28.041  26.992  1.00  0.00     0.163 HD
BRANCH   3   6
ATOM      6  C   UNL A   1      30.404  26.333  24.163  1.00  0.00     0.175 C 
BRANCH   6   7
ATOM      7  N   UNL A   1      30.397  24.888  23.893  1.00  0.00    -0.341 N 
ATOM      8  O   UNL A   1      32.121  24.905  22.376  1.00  0.00    -0.271 OA
ATOM      9  C   UNL A   1      31.396  24.290  23.152  1.00  0.00     0.258 C 
ATOM     10  H   UNL A   1      29.663  24.335  24.248  1.00  0.00     0.164 HD
BRANCH   9  11
ATOM     11  C   UNL A   1      31.561  22.788  23.405  1.00  0.00     0.329 C 
BRANCH  11  12
ATOM     12  O   UNL A   1      32.062  22.477  24.711  1.00  0.00    -0.483 OA
BRANCH  12  13
ATOM     13  C   UNL A   1      32.838  21.336  24.724  1.00  0.00     0.128 A 
ATOM     14  C   UNL A   1      32.241  20.097  24.481  1.00  0.00     0.048 A 
ATOM     15  C   UNL A   1      34.243  21.445  24.880  1.00  0.00     0.025 A 
ATOM     16  C   UNL A   1      33.015  18.944  24.444  1.00  0.00     0.025 A 
ATOM     17  C   UNL A   1      35.039  20.267  24.835  1.00  0.00     0.004 A 
ATOM     18  C   UNL A   1      34.883  22.688  25.081  1.00  0.00     0.012 A 
ATOM     19  C   UNL A   1      34.396  19.023  24.622  1.00  0.00     0.049 A 
ATOM     20  C   UNL A   1      36.441  20.395  24.998  1.00  0.00     0.010 A 
ATOM     21  C   UNL A   1      36.267  22.782  25.235  1.00  0.00     0.001 A 
ATOM     22  Cl  UNL A   1      35.273  17.528  24.550  1.00  0.00    -0.084 Cl
ATOM     23  C   UNL A   1      37.047  21.635  25.194  1.00  0.00     0.001 A 
ENDBRANCH  12  13
ENDBRANCH  11  12
ENDBRANCH   9  11
ENDBRANCH   6   7
BRANCH   6  24
ATOM     24  C   UNL A   1      29.216  27.142  23.609  1.00  0.00     0.072 C 
BRANCH  24  25
ATOM     25  C   UNL A   1      29.524  28.421  22.892  1.00  0.00    -0.020 A 
ATOM     26  C   UNL A   1      30.577  28.637  22.018  1.00  0.00     0.087 A 
ATOM     27  C   UNL A   1      28.796  29.652  22.965  1.00  0.00     0.003 A 
ATOM     28  N   UNL A   1      30.574  29.959  21.654  1.00  0.00    -0.361 N 
ATOM     29  C   UNL A   1      29.515  30.608  22.245  1.00  0.00     0.046 A 
ATOM     30  C   UNL A   1      27.612  30.054  23.618  1.00  0.00     0.010 A 
ATOM     31  H   UNL A   1      31.233  30.381  21.057  1.00  0.00     0.166 HD
ATOM     32  C   UNL A   1      29.144  31.955  22.193  1.00  0.00     0.026 A 
ATOM     33  C   UNL A   1      27.208  31.391  23.547  1.00  0.00     0.001 A 
ATOM     34  C   UNL A   1      27.974  32.330  22.858  1.00  0.00     0.002 A 
ENDBRANCH  24  25
ENDBRANCH   6  24
ENDBRANCH   3   6
ENDBRANCH   1   2
BRANCH   1  35
ATOM     35  C   UNL A   1      31.795  30.154  25.417  1.00  0.00     0.042 C 
BRANCH  35  36
ATOM     36  C   UNL A   1      31.929  30.671  26.840  1.00  0.00     0.118 C 
BRANCH  36  37
ATOM     37  N   UNL A   1      31.932  32.133  26.924  1.00  0.00    -0.352 N 
ATOM     38  C   UNL A   1      32.816  33.008  27.516  1.00  0.00     0.251 C 
ATOM     39  H   UNL A   1      31.168  32.567  26.479  1.00  0.00     0.163 HD
ATOM     40  O   UNL A   1      32.510  34.185  27.649  1.00  0.00    -0.269 OA
BRANCH  38  41
ATOM     41  C   UNL A   1      34.119  32.514  28.012  1.00  0.00     0.039 A 
ATOM     42  C   UNL A   1      35.185  33.405  28.155  1.00  0.00     0.014 A 
ATOM     43  C   UNL A   1      34.281  31.174  28.355  1.00  0.00     0.014 A 
ATOM     44  C   UNL A   1      36.374  32.969  28.748  1.00  0.00     0.010 A 
ATOM     45  C   UNL A   1      35.406  30.775  29.059  1.00  0.00     0.010 A 
ATOM     46  C   UNL A   1      36.469  31.666  29.263  1.00  0.00    -0.014 A 
BRANCH  46  47
ATOM     47  C   UNL A   1      37.659  31.195  30.014  1.00  0.00     0.031 A 
ATOM     48  C   UNL A   1      38.625  30.241  29.363  1.00  0.00     0.074 A 
ATOM     49  C   UNL A   1      37.809  31.530  31.311  1.00  0.00     0.049 A 
ATOM     50  N   UNL A   1      39.634  29.595  29.891  1.00  0.00    -0.248 NA
ATOM     51  C   UNL A   1      38.398  29.937  27.941  1.00  0.00     0.031 C 
ATOM     52  C   UNL A   1      36.903  32.388  32.078  1.00  0.00     0.029 A 
ATOM     53  N   UNL A   1      38.772  31.172  32.220  1.00  0.00    -0.354 N 
ATOM     54  C   UNL A   1      40.134  28.788  28.877  1.00  0.00     0.074 A 
ATOM     55  C   UNL A   1      39.283  28.976  27.724  1.00  0.00     0.031 C 
ATOM     56  C   UNL A   1      37.370  32.513  33.331  1.00  0.00     0.029 A 
ATOM     57  C   UNL A   1      38.580  31.712  33.469  1.00  0.00     0.049 A 
ATOM     58  H   UNL A   1      39.530  30.584  31.998  1.00  0.00     0.167 HD
ATOM     59  C   UNL A   1      41.224  27.985  28.893  1.00  0.00     0.037 A 
ATOM     60  C   UNL A   1      39.297  31.570  34.599  1.00  0.00     0.037 A 
ATOM     61  C   UNL A   1      42.098  27.838  30.027  1.00  0.00     0.049 A 
ATOM     62  C   UNL A   1      40.522  30.702  34.584  1.00  0.00     0.074 A 
ATOM     63  C   UNL A   1      43.268  27.107  30.126  1.00  0.00     0.029 A 
ATOM     64  N   UNL A   1      41.898  28.446  31.256  1.00  0.00    -0.354 N 
ATOM     65  N   UNL A   1      41.021  29.993  33.600  1.00  0.00    -0.248 NA
ATOM     66  C   UNL A   1      41.291  30.618  35.834  1.00  0.00     0.031 C 
ATOM     67  C   UNL A   1      43.761  27.249  31.426  1.00  0.00     0.029 A 
ATOM     68  C   UNL A   1      42.920  28.101  32.124  1.00  0.00     0.049 A 
ATOM     69  H   UNL A   1      41.143  29.037  31.480  1.00  0.00     0.167 HD
ATOM     70  C   UNL A   1      42.172  29.400  34.101  1.00  0.00     0.074 A 
ATOM     71  C   UNL A   1      42.305  29.844  35.474  1.00  0.00     0.031 C 
ATOM     72  C   UNL A   1      43.039  28.562  33.483  1.00  0.00     0.037 A 
BRANCH  59  73
ATOM     73  C   UNL A   1      41.539  27.223  27.639  1.00  0.00     0.057 A 
ATOM     74  C   UNL A   1      41.080  25.914  27.436  1.00  0.00     0.134 A 
ATOM     75  C   UNL A   1      42.294  27.807  26.615  1.00  0.00     0.134 A 
ATOM     76  F   UNL A   1      40.364  25.291  28.385  1.00  0.00    -0.206 F 
ATOM     77  C   UNL A   1      41.388  25.202  26.277  1.00  0.00     0.040 A 
ATOM     78  C   UNL A   1      42.584  27.115  25.437  1.00  0.00     0.040 A 
ATOM     79  F   UNL A   1      42.760  29.059  26.739  1.00  0.00    -0.206 F 
ATOM     80  C   UNL A   1      42.138  25.806  25.269  1.00  0.00     0.006 A 
ENDBRANCH  59  73
BRANCH  60  81
ATOM     81  C   UNL A   1      38.894  32.294  35.831  1.00  0.00     0.057 A 
ATOM     82  C   UNL A   1      38.148  31.655  36.827  1.00  0.00     0.134 A 
ATOM     83  C   UNL A   1      39.241  33.634  36.044  1.00  0.00     0.134 A 
ATOM     84  F   UNL A   1      37.773  30.376  36.673  1.00  0.00    -0.206 F 
ATOM     85  C   UNL A   1      37.743  32.325  37.983  1.00  0.00     0.040 A 
ATOM     86  C   UNL A   1      38.862  34.310  37.206  1.00  0.00     0.040 A 
ATOM     87  F   UNL A   1      39.964  34.300  35.132  1.00  0.00    -0.206 F 
ATOM     88  C   UNL A   1      38.105  33.656  38.176  1.00  0.00     0.006 A 
ENDBRANCH  60  81
BRANCH  72  89
ATOM     89  C   UNL A   1      44.227  28.103  34.274  1.00  0.00     0.057 A 
ATOM     90  C   UNL A   1      45.414  28.844  34.319  1.00  0.00     0.134 A 
ATOM     91  C   UNL A   1      44.165  26.929  35.034  1.00  0.00     0.134 A 
ATOM     92  F   UNL A   1      45.540  29.972  33.603  1.00  0.00    -0.206 F 
ATOM     93  C   UNL A   1      46.506  28.421  35.079  1.00  0.00     0.040 A 
ATOM     94  C   UNL A   1      45.241  26.509  35.816  1.00  0.00     0.040 A 
ATOM     95  F   UNL A   1      43.052  26.179  35.039  1.00  0.00    -0.206 F 
ATOM     96  C   UNL A   1      46.418  27.254  35.836  1.00  0.00     0.006 A 
ENDBRANCH  72  89
ENDBRANCH  46  47
ENDBRANCH  38  41
ENDBRANCH  36  37
ENDBRANCH  35  36
ENDBRANCH   1  35
TORSDOF 16
ENDMDL
