MODEL 1
REMARK VINA RESULT:      -9.9      0.000      0.000
REMARK SMILES C[C@H](CC[NH+](C)C)[NH2+][C@H](C)[C@@H](C)C(=O)NCCCNC(=O)c1ccc(-c2c3nc(c(-c4c(F)cccc4F)c4ccc([nH]4)c(-c4c(F)cccc4F)c4nc(c(-c5c(F)cccc5F)c5ccc2[nH]5)C=C4)C=C3)cc1
REMARK SMILES IDX 13 1 14 2 15 3 11 5 12 6 9 7 10 8 8 9 2 12 1 13 3 14 4 15
REMARK SMILES IDX 5 16 6 17 7 18 16 20 17 21 18 22 19 23 20 24 21 26 22 27
REMARK SMILES IDX 23 28 75 29 24 30 74 31 25 32 26 33 27 34 68 35 28 36 73 37
REMARK SMILES IDX 67 38 69 39 29 40 72 41 66 42 65 43 30 45 56 46 39 47 55 48
REMARK SMILES IDX 40 49 43 50 54 51 70 52 41 53 42 54 53 56 71 57 44 58 31 59
REMARK SMILES IDX 32 60 37 61 33 62 34 63 36 64 38 65 35 66 57 67 58 68 63 69
REMARK SMILES IDX 59 70 60 71 62 72 64 73 61 74 45 75 46 76 51 77 47 78 48 79
REMARK SMILES IDX 50 80 52 81 49 82
REMARK H PARENT 15 4 8 10 8 11 5 19 19 25 69 44 43 55
REMARK Flexibility Score: inf
ROOT
ATOM      1  C   UNL A   1      36.406  22.750  23.822  1.00  0.00     0.228 C 
ATOM      2  O   UNL A   1      36.743  23.353  22.798  1.00  0.00    -0.275 OA
ATOM      3  N   UNL A   1      36.731  21.436  23.892  1.00  0.00    -0.356 N 
ATOM      4  H   UNL A   1      37.034  21.042  23.042  1.00  0.00     0.163 HD
ENDROOT
BRANCH   1   5
ATOM      5  C   UNL A   1      35.677  23.477  24.944  1.00  0.00     0.133 C 
ATOM      6  C   UNL A   1      36.677  23.750  26.079  1.00  0.00     0.024 C 
BRANCH   5   7
ATOM      7  C   UNL A   1      34.299  22.850  25.353  1.00  0.00     0.191 C 
ATOM      8  C   UNL A   1      33.697  23.622  26.550  1.00  0.00     0.076 C 
BRANCH   7   9
ATOM      9  N   UNL A   1      33.211  22.636  24.352  1.00  0.00    -0.341 N 
ATOM     10  H   UNL A   1      32.343  22.942  24.792  1.00  0.00     0.346 HD
ATOM     11  H   UNL A   1      33.535  23.159  23.539  1.00  0.00     0.346 HD
BRANCH   9  12
ATOM     12  C   UNL A   1      32.963  21.286  23.811  1.00  0.00     0.185 C 
ATOM     13  C   UNL A   1      32.075  21.393  22.571  1.00  0.00     0.075 C 
BRANCH  12  14
ATOM     14  C   UNL A   1      32.417  20.333  24.919  1.00  0.00     0.126 C 
BRANCH  14  15
ATOM     15  C   UNL A   1      33.044  18.930  25.096  1.00  0.00     0.268 C 
BRANCH  15  16
ATOM     16  N   UNL A   1      32.467  17.698  24.531  1.00  0.00    -0.340 N 
ATOM     17  C   UNL A   1      33.146  17.366  23.270  1.00  0.00     0.332 C 
ATOM     18  C   UNL A   1      32.388  16.509  25.365  1.00  0.00     0.332 C 
ATOM     19  H   UNL A   1      31.487  17.952  24.410  1.00  0.00     0.347 HD
ENDBRANCH  15  16
ENDBRANCH  14  15
ENDBRANCH  12  14
ENDBRANCH   9  12
ENDBRANCH   7   9
ENDBRANCH   5   7
ENDBRANCH   1   5
BRANCH   3  20
ATOM     20  C   UNL A   1      36.707  20.514  25.009  1.00  0.00     0.117 C 
BRANCH  20  21
ATOM     21  C   UNL A   1      37.902  19.575  25.044  1.00  0.00     0.042 C 
BRANCH  21  22
ATOM     22  C   UNL A   1      39.123  20.148  25.748  1.00  0.00     0.118 C 
BRANCH  22  23
ATOM     23  N   UNL A   1      40.195  19.171  25.896  1.00  0.00    -0.352 N 
ATOM     24  C   UNL A   1      41.538  19.340  26.095  1.00  0.00     0.251 C 
ATOM     25  H   UNL A   1      39.904  18.232  25.841  1.00  0.00     0.163 HD
ATOM     26  O   UNL A   1      42.301  18.382  25.927  1.00  0.00    -0.269 OA
BRANCH  24  27
ATOM     27  C   UNL A   1      42.089  20.649  26.490  1.00  0.00     0.039 A 
ATOM     28  C   UNL A   1      42.575  21.511  25.503  1.00  0.00     0.014 A 
ATOM     29  C   UNL A   1      42.164  21.019  27.834  1.00  0.00     0.014 A 
ATOM     30  C   UNL A   1      43.070  22.767  25.861  1.00  0.00     0.010 A 
ATOM     31  C   UNL A   1      42.562  22.305  28.180  1.00  0.00     0.010 A 
ATOM     32  C   UNL A   1      43.029  23.190  27.198  1.00  0.00    -0.014 A 
BRANCH  32  33
ATOM     33  C   UNL A   1      43.474  24.549  27.597  1.00  0.00     0.031 A 
ATOM     34  C   UNL A   1      42.463  25.590  27.996  1.00  0.00     0.074 A 
ATOM     35  C   UNL A   1      44.781  24.867  27.527  1.00  0.00     0.049 A 
ATOM     36  N   UNL A   1      42.647  26.851  28.292  1.00  0.00    -0.248 NA
ATOM     37  C   UNL A   1      41.054  25.165  28.035  1.00  0.00     0.031 C 
ATOM     38  C   UNL A   1      45.853  23.963  27.104  1.00  0.00     0.029 A 
ATOM     39  N   UNL A   1      45.431  26.045  27.797  1.00  0.00    -0.354 N 
ATOM     40  C   UNL A   1      41.382  27.371  28.532  1.00  0.00     0.074 A 
ATOM     41  C   UNL A   1      40.433  26.306  28.292  1.00  0.00     0.031 C 
ATOM     42  C   UNL A   1      47.026  24.611  27.166  1.00  0.00     0.029 A 
ATOM     43  C   UNL A   1      46.787  25.987  27.590  1.00  0.00     0.049 A 
ATOM     44  H   UNL A   1      44.967  26.857  28.110  1.00  0.00     0.167 HD
ATOM     45  C   UNL A   1      41.042  28.618  28.938  1.00  0.00     0.037 A 
ATOM     46  C   UNL A   1      47.731  26.938  27.716  1.00  0.00     0.037 A 
ATOM     47  C   UNL A   1      41.992  29.667  29.202  1.00  0.00     0.049 A 
ATOM     48  C   UNL A   1      47.328  28.315  28.167  1.00  0.00     0.074 A 
ATOM     49  C   UNL A   1      41.756  30.942  29.682  1.00  0.00     0.029 A 
ATOM     50  N   UNL A   1      43.360  29.560  29.003  1.00  0.00    -0.354 N 
ATOM     51  N   UNL A   1      46.136  28.771  28.463  1.00  0.00    -0.248 NA
ATOM     52  C   UNL A   1      48.404  29.306  28.307  1.00  0.00     0.031 C 
ATOM     53  C   UNL A   1      42.975  31.625  29.726  1.00  0.00     0.029 A 
ATOM     54  C   UNL A   1      43.978  30.757  29.327  1.00  0.00     0.049 A 
ATOM     55  H   UNL A   1      43.823  28.754  28.679  1.00  0.00     0.167 HD
ATOM     56  C   UNL A   1      46.320  30.091  28.852  1.00  0.00     0.074 A 
ATOM     57  C   UNL A   1      47.741  30.357  28.769  1.00  0.00     0.031 C 
ATOM     58  C   UNL A   1      45.396  31.002  29.245  1.00  0.00     0.037 A 
BRANCH  45  59
ATOM     59  C   UNL A   1      39.582  28.914  29.126  1.00  0.00     0.057 A 
ATOM     60  C   UNL A   1      38.765  29.321  28.063  1.00  0.00     0.134 A 
ATOM     61  C   UNL A   1      38.976  28.754  30.379  1.00  0.00     0.134 A 
ATOM     62  F   UNL A   1      39.283  29.505  26.839  1.00  0.00    -0.206 F 
ATOM     63  C   UNL A   1      37.406  29.586  28.244  1.00  0.00     0.040 A 
ATOM     64  C   UNL A   1      37.611  28.987  30.567  1.00  0.00     0.040 A 
ATOM     65  F   UNL A   1      39.696  28.360  31.440  1.00  0.00    -0.206 F 
ATOM     66  C   UNL A   1      36.824  29.412  29.499  1.00  0.00     0.006 A 
ENDBRANCH  45  59
BRANCH  46  67
ATOM     67  C   UNL A   1      49.153  26.618  27.430  1.00  0.00     0.057 A 
ATOM     68  C   UNL A   1      49.706  26.851  26.165  1.00  0.00     0.134 A 
ATOM     69  C   UNL A   1      49.990  26.063  28.407  1.00  0.00     0.134 A 
ATOM     70  F   UNL A   1      48.952  27.364  25.184  1.00  0.00    -0.206 F 
ATOM     71  C   UNL A   1      51.032  26.524  25.874  1.00  0.00     0.040 A 
ATOM     72  C   UNL A   1      51.325  25.757  28.138  1.00  0.00     0.040 A 
ATOM     73  F   UNL A   1      49.524  25.824  29.642  1.00  0.00    -0.206 F 
ATOM     74  C   UNL A   1      51.847  25.979  26.866  1.00  0.00     0.006 A 
ENDBRANCH  46  67
BRANCH  58  75
ATOM     75  C   UNL A   1      45.895  32.358  29.651  1.00  0.00     0.057 A 
ATOM     76  C   UNL A   1      46.005  33.413  28.737  1.00  0.00     0.134 A 
ATOM     77  C   UNL A   1      46.234  32.619  30.986  1.00  0.00     0.134 A 
ATOM     78  F   UNL A   1      45.711  33.225  27.442  1.00  0.00    -0.206 F 
ATOM     79  C   UNL A   1      46.457  34.674  29.131  1.00  0.00     0.040 A 
ATOM     80  C   UNL A   1      46.658  33.884  31.397  1.00  0.00     0.040 A 
ATOM     81  F   UNL A   1      46.142  31.655  31.914  1.00  0.00    -0.206 F 
ATOM     82  C   UNL A   1      46.777  34.913  30.466  1.00  0.00     0.006 A 
ENDBRANCH  58  75
ENDBRANCH  32  33
ENDBRANCH  24  27
ENDBRANCH  22  23
ENDBRANCH  21  22
ENDBRANCH  20  21
ENDBRANCH   3  20
TORSDOF 16
ENDMDL
MODEL 2
REMARK VINA RESULT:      -9.8      5.770      9.813
REMARK SMILES C[C@H](CC[NH+](C)C)[NH2+][C@H](C)[C@@H](C)C(=O)NCCCNC(=O)c1ccc(-c2c3nc(c(-c4c(F)cccc4F)c4ccc([nH]4)c(-c4c(F)cccc4F)c4nc(c(-c5c(F)cccc5F)c5ccc2[nH]5)C=C4)C=C3)cc1
REMARK SMILES IDX 13 1 14 2 15 3 11 5 12 6 9 7 10 8 8 9 2 12 1 13 3 14 4 15
REMARK SMILES IDX 5 16 6 17 7 18 16 20 17 21 18 22 19 23 20 24 21 26 22 27
REMARK SMILES IDX 23 28 75 29 24 30 74 31 25 32 26 33 27 34 68 35 28 36 73 37
REMARK SMILES IDX 67 38 69 39 29 40 72 41 66 42 65 43 30 45 56 46 39 47 55 48
REMARK SMILES IDX 40 49 43 50 54 51 70 52 41 53 42 54 53 56 71 57 44 58 31 59
REMARK SMILES IDX 32 60 37 61 33 62 34 63 36 64 38 65 35 66 57 67 58 68 63 69
REMARK SMILES IDX 59 70 60 71 62 72 64 73 61 74 45 75 46 76 51 77 47 78 48 79
REMARK SMILES IDX 50 80 52 81 49 82
REMARK H PARENT 15 4 8 10 8 11 5 19 19 25 69 44 43 55
REMARK Flexibility Score: inf
ROOT
ATOM      1  C   UNL A   1      32.810  29.057  25.935  1.00  0.00     0.228 C 
ATOM      2  O   UNL A   1      33.993  28.730  25.786  1.00  0.00    -0.275 OA
ATOM      3  N   UNL A   1      32.520  30.375  25.811  1.00  0.00    -0.356 N 
ATOM      4  H   UNL A   1      33.305  30.969  25.804  1.00  0.00     0.163 HD
ENDROOT
BRANCH   1   5
ATOM      5  C   UNL A   1      31.748  28.005  26.225  1.00  0.00     0.133 C 
ATOM      6  C   UNL A   1      31.416  28.048  27.725  1.00  0.00     0.024 C 
BRANCH   5   7
ATOM      7  C   UNL A   1      32.028  26.593  25.604  1.00  0.00     0.191 C 
ATOM      8  C   UNL A   1      30.738  25.740  25.617  1.00  0.00     0.076 C 
BRANCH   7   9
ATOM      9  N   UNL A   1      32.663  26.443  24.261  1.00  0.00    -0.341 N 
ATOM     10  H   UNL A   1      32.901  27.382  23.942  1.00  0.00     0.346 HD
ATOM     11  H   UNL A   1      33.434  25.799  24.437  1.00  0.00     0.346 HD
BRANCH   9  12
ATOM     12  C   UNL A   1      31.921  25.793  23.163  1.00  0.00     0.185 C 
ATOM     13  C   UNL A   1      32.774  24.671  22.571  1.00  0.00     0.075 C 
BRANCH  12  14
ATOM     14  C   UNL A   1      31.424  26.848  22.127  1.00  0.00     0.126 C 
BRANCH  14  15
ATOM     15  C   UNL A   1      31.336  28.337  22.536  1.00  0.00     0.268 C 
BRANCH  15  16
ATOM     16  N   UNL A   1      30.083  29.009  22.919  1.00  0.00    -0.340 N 
ATOM     17  C   UNL A   1      29.790  30.091  21.968  1.00  0.00     0.332 C 
ATOM     18  C   UNL A   1      28.886  28.209  23.124  1.00  0.00     0.332 C 
ATOM     19  H   UNL A   1      30.292  29.342  23.861  1.00  0.00     0.347 HD
ENDBRANCH  15  16
ENDBRANCH  14  15
ENDBRANCH  12  14
ENDBRANCH   9  12
ENDBRANCH   7   9
ENDBRANCH   5   7
ENDBRANCH   1   5
BRANCH   3  20
ATOM     20  C   UNL A   1      31.248  31.055  25.686  1.00  0.00     0.117 C 
BRANCH  20  21
ATOM     21  C   UNL A   1      31.172  32.349  26.481  1.00  0.00     0.042 C 
BRANCH  21  22
ATOM     22  C   UNL A   1      32.482  32.749  27.144  1.00  0.00     0.118 C 
BRANCH  22  23
ATOM     23  N   UNL A   1      32.467  34.124  27.629  1.00  0.00    -0.352 N 
ATOM     24  C   UNL A   1      33.144  34.716  28.660  1.00  0.00     0.251 C 
ATOM     25  H   UNL A   1      31.869  34.728  27.132  1.00  0.00     0.163 HD
ATOM     26  O   UNL A   1      32.784  35.828  29.062  1.00  0.00    -0.269 OA
BRANCH  24  27
ATOM     27  C   UNL A   1      34.283  34.041  29.308  1.00  0.00     0.039 A 
ATOM     28  C   UNL A   1      34.040  33.127  30.338  1.00  0.00     0.014 A 
ATOM     29  C   UNL A   1      35.596  34.330  28.932  1.00  0.00     0.014 A 
ATOM     30  C   UNL A   1      35.107  32.457  30.938  1.00  0.00     0.010 A 
ATOM     31  C   UNL A   1      36.649  33.591  29.459  1.00  0.00     0.010 A 
ATOM     32  C   UNL A   1      36.418  32.653  30.475  1.00  0.00    -0.014 A 
BRANCH  32  33
ATOM     33  C   UNL A   1      37.563  31.896  31.040  1.00  0.00     0.031 A 
ATOM     34  C   UNL A   1      38.079  32.221  32.416  1.00  0.00     0.074 A 
ATOM     35  C   UNL A   1      38.184  30.969  30.285  1.00  0.00     0.049 A 
ATOM     36  N   UNL A   1      39.117  31.734  33.046  1.00  0.00    -0.248 NA
ATOM     37  C   UNL A   1      37.352  33.255  33.171  1.00  0.00     0.031 C 
ATOM     38  C   UNL A   1      37.813  30.602  28.917  1.00  0.00     0.029 A 
ATOM     39  N   UNL A   1      39.271  30.177  30.556  1.00  0.00    -0.354 N 
ATOM     40  C   UNL A   1      39.177  32.412  34.256  1.00  0.00     0.074 A 
ATOM     41  C   UNL A   1      38.106  33.385  34.250  1.00  0.00     0.031 C 
ATOM     42  C   UNL A   1      38.640  29.641  28.479  1.00  0.00     0.029 A 
ATOM     43  C   UNL A   1      39.627  29.355  29.515  1.00  0.00     0.049 A 
ATOM     44  H   UNL A   1      39.750  30.196  31.417  1.00  0.00     0.167 HD
ATOM     45  C   UNL A   1      40.033  32.226  35.290  1.00  0.00     0.037 A 
ATOM     46  C   UNL A   1      40.642  28.477  29.404  1.00  0.00     0.037 A 
ATOM     47  C   UNL A   1      41.080  31.238  35.302  1.00  0.00     0.049 A 
ATOM     48  C   UNL A   1      41.579  28.290  30.565  1.00  0.00     0.074 A 
ATOM     49  C   UNL A   1      41.955  30.923  36.325  1.00  0.00     0.029 A 
ATOM     50  N   UNL A   1      41.393  30.407  34.236  1.00  0.00    -0.354 N 
ATOM     51  N   UNL A   1      41.577  28.885  31.732  1.00  0.00    -0.248 NA
ATOM     52  C   UNL A   1      42.655  27.303  30.394  1.00  0.00     0.031 C 
ATOM     53  C   UNL A   1      42.832  29.938  35.862  1.00  0.00     0.029 A 
ATOM     54  C   UNL A   1      42.467  29.598  34.569  1.00  0.00     0.049 A 
ATOM     55  H   UNL A   1      40.923  30.396  33.371  1.00  0.00     0.167 HD
ATOM     56  C   UNL A   1      42.630  28.327  32.446  1.00  0.00     0.074 A 
ATOM     57  C   UNL A   1      43.238  27.334  31.584  1.00  0.00     0.031 C 
ATOM     58  C   UNL A   1      43.055  28.609  33.702  1.00  0.00     0.037 A 
BRANCH  45  59
ATOM     59  C   UNL A   1      39.869  33.107  36.494  1.00  0.00     0.057 A 
ATOM     60  C   UNL A   1      38.984  32.788  37.532  1.00  0.00     0.134 A 
ATOM     61  C   UNL A   1      40.634  34.272  36.637  1.00  0.00     0.134 A 
ATOM     62  F   UNL A   1      38.213  31.693  37.456  1.00  0.00    -0.206 F 
ATOM     63  C   UNL A   1      38.844  33.608  38.653  1.00  0.00     0.040 A 
ATOM     64  C   UNL A   1      40.525  35.085  37.767  1.00  0.00     0.040 A 
ATOM     65  F   UNL A   1      41.507  34.635  35.685  1.00  0.00    -0.206 F 
ATOM     66  C   UNL A   1      39.622  34.758  38.776  1.00  0.00     0.006 A 
ENDBRANCH  45  59
BRANCH  46  67
ATOM     67  C   UNL A   1      40.814  27.694  28.154  1.00  0.00     0.057 A 
ATOM     68  C   UNL A   1      40.237  26.426  28.011  1.00  0.00     0.134 A 
ATOM     69  C   UNL A   1      41.564  28.185  27.078  1.00  0.00     0.134 A 
ATOM     70  F   UNL A   1      39.522  25.894  29.012  1.00  0.00    -0.206 F 
ATOM     71  C   UNL A   1      40.418  25.665  26.854  1.00  0.00     0.040 A 
ATOM     72  C   UNL A   1      41.730  27.447  25.905  1.00  0.00     0.040 A 
ATOM     73  F   UNL A   1      42.134  29.397  27.148  1.00  0.00    -0.206 F 
ATOM     74  C   UNL A   1      41.163  26.180  25.795  1.00  0.00     0.006 A 
ENDBRANCH  46  67
BRANCH  58  75
ATOM     75  C   UNL A   1      44.207  27.808  34.234  1.00  0.00     0.057 A 
ATOM     76  C   UNL A   1      45.527  28.269  34.162  1.00  0.00     0.134 A 
ATOM     77  C   UNL A   1      43.985  26.576  34.864  1.00  0.00     0.134 A 
ATOM     78  F   UNL A   1      45.810  29.434  33.559  1.00  0.00    -0.206 F 
ATOM     79  C   UNL A   1      46.589  27.521  34.675  1.00  0.00     0.040 A 
ATOM     80  C   UNL A   1      45.035  25.834  35.407  1.00  0.00     0.040 A 
ATOM     81  F   UNL A   1      42.743  26.082  34.976  1.00  0.00    -0.206 F 
ATOM     82  C   UNL A   1      46.342  26.305  35.306  1.00  0.00     0.006 A 
ENDBRANCH  58  75
ENDBRANCH  32  33
ENDBRANCH  24  27
ENDBRANCH  22  23
ENDBRANCH  21  22
ENDBRANCH  20  21
ENDBRANCH   3  20
TORSDOF 16
ENDMDL
MODEL 3
REMARK VINA RESULT:      -9.8      1.884      6.721
REMARK SMILES C[C@H](CC[NH+](C)C)[NH2+][C@H](C)[C@@H](C)C(=O)NCCCNC(=O)c1ccc(-c2c3nc(c(-c4c(F)cccc4F)c4ccc([nH]4)c(-c4c(F)cccc4F)c4nc(c(-c5c(F)cccc5F)c5ccc2[nH]5)C=C4)C=C3)cc1
REMARK SMILES IDX 13 1 14 2 15 3 11 5 12 6 9 7 10 8 8 9 2 12 1 13 3 14 4 15
REMARK SMILES IDX 5 16 6 17 7 18 16 20 17 21 18 22 19 23 20 24 21 26 22 27
REMARK SMILES IDX 23 28 75 29 24 30 74 31 25 32 26 33 27 34 68 35 28 36 73 37
REMARK SMILES IDX 67 38 69 39 29 40 72 41 66 42 65 43 30 45 56 46 39 47 55 48
REMARK SMILES IDX 40 49 43 50 54 51 70 52 41 53 42 54 53 56 71 57 44 58 31 59
REMARK SMILES IDX 32 60 37 61 33 62 34 63 36 64 38 65 35 66 57 67 58 68 63 69
REMARK SMILES IDX 59 70 60 71 62 72 64 73 61 74 45 75 46 76 51 77 47 78 48 79
REMARK SMILES IDX 50 80 52 81 49 82
REMARK H PARENT 15 4 8 10 8 11 5 19 19 25 69 44 43 55
REMARK Flexibility Score: inf
ROOT
ATOM      1  C   UNL A   1      35.816  22.569  25.611  1.00  0.00     0.228 C 
ATOM      2  O   UNL A   1      35.691  23.316  26.587  1.00  0.00    -0.275 OA
ATOM      3  N   UNL A   1      36.274  21.317  25.854  1.00  0.00    -0.356 N 
ATOM      4  H   UNL A   1      36.643  21.183  26.757  1.00  0.00     0.163 HD
ENDROOT
BRANCH   1   5
ATOM      5  C   UNL A   1      35.450  23.054  24.214  1.00  0.00     0.133 C 
ATOM      6  C   UNL A   1      36.673  22.875  23.300  1.00  0.00     0.024 C 
BRANCH   5   7
ATOM      7  C   UNL A   1      34.729  24.445  24.165  1.00  0.00     0.191 C 
ATOM      8  C   UNL A   1      33.692  24.466  23.017  1.00  0.00     0.076 C 
BRANCH   7   9
ATOM      9  N   UNL A   1      34.084  25.033  25.376  1.00  0.00    -0.341 N 
ATOM     10  H   UNL A   1      33.850  24.254  25.992  1.00  0.00     0.346 HD
ATOM     11  H   UNL A   1      34.777  25.702  25.709  1.00  0.00     0.346 HD
BRANCH   9  12
ATOM     12  C   UNL A   1      32.862  25.849  25.238  1.00  0.00     0.185 C 
ATOM     13  C   UNL A   1      33.135  27.261  25.758  1.00  0.00     0.075 C 
BRANCH  12  14
ATOM     14  C   UNL A   1      31.641  25.139  25.898  1.00  0.00     0.126 C 
BRANCH  14  15
ATOM     15  C   UNL A   1      31.878  23.960  26.871  1.00  0.00     0.268 C 
BRANCH  15  16
ATOM     16  N   UNL A   1      31.363  22.598  26.650  1.00  0.00    -0.340 N 
ATOM     17  C   UNL A   1      29.902  22.589  26.811  1.00  0.00     0.332 C 
ATOM     18  C   UNL A   1      31.718  21.899  25.424  1.00  0.00     0.332 C 
ATOM     19  H   UNL A   1      31.854  22.060  27.364  1.00  0.00     0.347 HD
ENDBRANCH  15  16
ENDBRANCH  14  15
ENDBRANCH  12  14
ENDBRANCH   9  12
ENDBRANCH   7   9
ENDBRANCH   5   7
ENDBRANCH   1   5
BRANCH   3  20
ATOM     20  C   UNL A   1      36.309  20.142  25.008  1.00  0.00     0.117 C 
BRANCH  20  21
ATOM     21  C   UNL A   1      37.712  19.608  24.771  1.00  0.00     0.042 C 
BRANCH  21  22
ATOM     22  C   UNL A   1      38.749  20.126  25.756  1.00  0.00     0.118 C 
BRANCH  22  23
ATOM     23  N   UNL A   1      39.905  19.244  25.869  1.00  0.00    -0.352 N 
ATOM     24  C   UNL A   1      41.222  19.522  26.115  1.00  0.00     0.251 C 
ATOM     25  H   UNL A   1      39.705  18.288  25.746  1.00  0.00     0.163 HD
ATOM     26  O   UNL A   1      42.074  18.651  25.907  1.00  0.00    -0.269 OA
BRANCH  24  27
ATOM     27  C   UNL A   1      41.639  20.847  26.608  1.00  0.00     0.039 A 
ATOM     28  C   UNL A   1      42.123  21.793  25.700  1.00  0.00     0.014 A 
ATOM     29  C   UNL A   1      41.592  21.153  27.970  1.00  0.00     0.014 A 
ATOM     30  C   UNL A   1      42.492  23.062  26.150  1.00  0.00     0.010 A 
ATOM     31  C   UNL A   1      41.863  22.445  28.402  1.00  0.00     0.010 A 
ATOM     32  C   UNL A   1      42.325  23.412  27.499  1.00  0.00    -0.014 A 
BRANCH  32  33
ATOM     33  C   UNL A   1      42.634  24.779  27.990  1.00  0.00     0.031 A 
ATOM     34  C   UNL A   1      44.044  25.147  28.365  1.00  0.00     0.074 A 
ATOM     35  C   UNL A   1      41.633  25.662  28.171  1.00  0.00     0.049 A 
ATOM     36  N   UNL A   1      44.496  26.256  28.892  1.00  0.00    -0.248 NA
ATOM     37  C   UNL A   1      45.078  24.122  28.149  1.00  0.00     0.031 C 
ATOM     38  C   UNL A   1      40.217  25.407  27.896  1.00  0.00     0.029 A 
ATOM     39  N   UNL A   1      41.650  26.949  28.643  1.00  0.00    -0.354 N 
ATOM     40  C   UNL A   1      45.857  26.054  29.087  1.00  0.00     0.074 A 
ATOM     41  C   UNL A   1      46.147  24.698  28.675  1.00  0.00     0.031 C 
ATOM     42  C   UNL A   1      39.507  26.509  28.181  1.00  0.00     0.029 A 
ATOM     43  C   UNL A   1      40.408  27.533  28.700  1.00  0.00     0.049 A 
ATOM     44  H   UNL A   1      42.476  27.412  28.916  1.00  0.00     0.167 HD
ATOM     45  C   UNL A   1      46.785  26.927  29.546  1.00  0.00     0.037 A 
ATOM     46  C   UNL A   1      40.035  28.753  29.132  1.00  0.00     0.037 A 
ATOM     47  C   UNL A   1      46.496  28.284  29.929  1.00  0.00     0.049 A 
ATOM     48  C   UNL A   1      41.085  29.703  29.638  1.00  0.00     0.074 A 
ATOM     49  C   UNL A   1      47.375  29.269  30.341  1.00  0.00     0.029 A 
ATOM     50  N   UNL A   1      45.228  28.845  29.948  1.00  0.00    -0.354 N 
ATOM     51  N   UNL A   1      42.379  29.523  29.746  1.00  0.00    -0.248 NA
ATOM     52  C   UNL A   1      40.622  31.027  30.076  1.00  0.00     0.031 C 
ATOM     53  C   UNL A   1      46.635  30.411  30.659  1.00  0.00     0.029 A 
ATOM     54  C   UNL A   1      45.299  30.156  30.391  1.00  0.00     0.049 A 
ATOM     55  H   UNL A   1      44.400  28.381  29.687  1.00  0.00     0.167 HD
ATOM     56  C   UNL A   1      42.889  30.719  30.235  1.00  0.00     0.074 A 
ATOM     57  C   UNL A   1      41.766  31.621  30.389  1.00  0.00     0.031 C 
ATOM     58  C   UNL A   1      44.172  31.043  30.531  1.00  0.00     0.037 A 
BRANCH  45  59
ATOM     59  C   UNL A   1      48.202  26.441  29.656  1.00  0.00     0.057 A 
ATOM     60  C   UNL A   1      49.113  26.566  28.599  1.00  0.00     0.134 A 
ATOM     61  C   UNL A   1      48.672  25.873  30.847  1.00  0.00     0.134 A 
ATOM     62  F   UNL A   1      48.726  27.090  27.426  1.00  0.00    -0.206 F 
ATOM     63  C   UNL A   1      50.431  26.119  28.711  1.00  0.00     0.040 A 
ATOM     64  C   UNL A   1      49.996  25.449  30.982  1.00  0.00     0.040 A 
ATOM     65  F   UNL A   1      47.856  25.728  31.902  1.00  0.00    -0.206 F 
ATOM     66  C   UNL A   1      50.877  25.565  29.910  1.00  0.00     0.006 A 
ENDBRANCH  45  59
BRANCH  46  67
ATOM     67  C   UNL A   1      38.606  29.153  29.086  1.00  0.00     0.057 A 
ATOM     68  C   UNL A   1      38.022  29.615  27.900  1.00  0.00     0.134 A 
ATOM     69  C   UNL A   1      37.791  29.094  30.224  1.00  0.00     0.134 A 
ATOM     70  F   UNL A   1      38.754  29.710  26.781  1.00  0.00    -0.206 F 
ATOM     71  C   UNL A   1      36.689  30.024  27.851  1.00  0.00     0.040 A 
ATOM     72  C   UNL A   1      36.450  29.475  30.184  1.00  0.00     0.040 A 
ATOM     73  F   UNL A   1      38.287  28.651  31.389  1.00  0.00    -0.206 F 
ATOM     74  C   UNL A   1      35.897  29.950  28.996  1.00  0.00     0.006 A 
ENDBRANCH  46  67
BRANCH  58  75
ATOM     75  C   UNL A   1      44.436  32.439  31.012  1.00  0.00     0.057 A 
ATOM     76  C   UNL A   1      44.680  33.496  30.126  1.00  0.00     0.134 A 
ATOM     77  C   UNL A   1      44.406  32.736  32.381  1.00  0.00     0.134 A 
ATOM     78  F   UNL A   1      44.736  33.276  28.803  1.00  0.00    -0.206 F 
ATOM     79  C   UNL A   1      44.910  34.794  30.586  1.00  0.00     0.040 A 
ATOM     80  C   UNL A   1      44.604  34.035  32.851  1.00  0.00     0.040 A 
ATOM     81  F   UNL A   1      44.168  31.772  33.283  1.00  0.00    -0.206 F 
ATOM     82  C   UNL A   1      44.864  35.067  31.951  1.00  0.00     0.006 A 
ENDBRANCH  58  75
ENDBRANCH  32  33
ENDBRANCH  24  27
ENDBRANCH  22  23
ENDBRANCH  21  22
ENDBRANCH  20  21
ENDBRANCH   3  20
TORSDOF 16
ENDMDL
