MODEL 1
REMARK VINA RESULT:     -12.8      0.000      0.000
REMARK SMILES CC(C)(C)c1cc2c(cc1Cl)C=C(C(=O)NCCCNC(=O)c1ccc(-c3c4nc(c(-c5c(F)cccc5F)c5ccc([nH]5)c(-c5c(F)cccc5F)c5nc(c(-c6c(F)cccc6F)c6ccc3[nH]6)C=C5)C=C4)cc1)[C@@H](C(F)(F)F)O2
REMARK SMILES IDX 18 1 17 2 16 3 14 4 15 5 13 7 5 8 6 9 10 10 7 11 9 12 11 13
REMARK SMILES IDX 8 14 82 15 12 16 77 17 2 18 1 19 3 20 4 21 78 22 79 23 80 24
REMARK SMILES IDX 81 25 19 26 20 27 21 28 22 30 23 31 24 32 76 33 25 34 75 35
REMARK SMILES IDX 26 36 27 37 28 38 69 39 29 40 74 41 68 42 70 43 30 44 73 45
REMARK SMILES IDX 67 46 66 47 31 49 57 50 40 51 56 52 41 53 44 54 55 55 71 56
REMARK SMILES IDX 42 57 43 58 54 60 72 61 45 62 32 63 33 64 38 65 34 66 35 67
REMARK SMILES IDX 37 68 39 69 36 70 58 71 59 72 64 73 60 74 61 75 63 76 65 77
REMARK SMILES IDX 62 78 46 79 47 80 52 81 48 82 49 83 51 84 53 85 50 86
REMARK H PARENT 16 6 20 29 70 48 44 59
REMARK Flexibility Score: inf
ROOT
ATOM      1  C   UNL A   1      37.644  19.765  25.006  1.00  0.00     0.042 C 
ENDROOT
BRANCH   1   2
ATOM      2  C   UNL A   1      36.493  20.687  25.375  1.00  0.00     0.118 C 
BRANCH   2   3
ATOM      3  N   UNL A   1      35.241  20.255  24.773  1.00  0.00    -0.352 N 
ATOM      4  C   UNL A   1      33.988  20.742  24.626  1.00  0.00     0.251 C 
ATOM      5  O   UNL A   1      33.199  19.990  24.045  1.00  0.00    -0.270 OA
ATOM      6  H   UNL A   1      35.331  19.367  24.358  1.00  0.00     0.163 HD
BRANCH   4   7
ATOM      7  C   UNL A   1      33.523  22.076  25.101  1.00  0.00     0.067 C 
ATOM      8  C   UNL A   1      32.666  27.043  25.702  1.00  0.00    -0.020 A 
ATOM      9  C   UNL A   1      32.146  25.851  26.251  1.00  0.00     0.053 A 
ATOM     10  C   UNL A   1      33.579  26.884  24.629  1.00  0.00     0.045 A 
ATOM     11  C   UNL A   1      32.541  24.592  25.797  1.00  0.00     0.128 A 
ATOM     12  C   UNL A   1      33.949  25.609  24.159  1.00  0.00     0.032 A 
ATOM     13  Cl  UNL A   1      34.339  28.197  23.797  1.00  0.00    -0.084 Cl
ATOM     14  C   UNL A   1      33.442  24.458  24.752  1.00  0.00     0.019 A 
ATOM     15  O   UNL A   1      31.982  23.512  26.421  1.00  0.00    -0.475 OA
ATOM     16  C   UNL A   1      33.823  23.122  24.308  1.00  0.00     0.025 C 
ATOM     17  C   UNL A   1      32.795  22.306  26.396  1.00  0.00     0.314 C 
BRANCH   8  18
ATOM     18  C   UNL A   1      32.245  28.404  26.312  1.00  0.00    -0.012 C 
ATOM     19  C   UNL A   1      33.449  29.290  26.745  1.00  0.00     0.016 C 
ATOM     20  C   UNL A   1      31.402  28.214  27.591  1.00  0.00     0.016 C 
ATOM     21  C   UNL A   1      31.473  29.242  25.269  1.00  0.00     0.016 C 
ENDBRANCH   8  18
BRANCH  17  22
ATOM     22  C   UNL A   1      33.730  22.291  27.622  1.00  0.00     0.429 C 
ATOM     23  F   UNL A   1      33.032  22.583  28.748  1.00  0.00    -0.167 F 
ATOM     24  F   UNL A   1      34.300  21.079  27.826  1.00  0.00    -0.167 F 
ATOM     25  F   UNL A   1      34.739  23.185  27.527  1.00  0.00    -0.167 F 
ENDBRANCH  17  22
ENDBRANCH   4   7
ENDBRANCH   2   3
ENDBRANCH   1   2
BRANCH   1  26
ATOM     26  C   UNL A   1      38.983  20.283  25.513  1.00  0.00     0.118 C 
BRANCH  26  27
ATOM     27  N   UNL A   1      39.941  19.203  25.743  1.00  0.00    -0.352 N 
ATOM     28  C   UNL A   1      41.283  19.248  26.033  1.00  0.00     0.251 C 
ATOM     29  H   UNL A   1      39.562  18.296  25.679  1.00  0.00     0.163 HD
ATOM     30  O   UNL A   1      41.961  18.228  25.957  1.00  0.00    -0.269 OA
BRANCH  28  31
ATOM     31  C   UNL A   1      41.911  20.528  26.417  1.00  0.00     0.039 A 
ATOM     32  C   UNL A   1      42.014  20.884  27.759  1.00  0.00     0.014 A 
ATOM     33  C   UNL A   1      42.398  21.383  25.424  1.00  0.00     0.014 A 
ATOM     34  C   UNL A   1      42.403  22.171  28.100  1.00  0.00     0.010 A 
ATOM     35  C   UNL A   1      42.900  22.639  25.778  1.00  0.00     0.010 A 
ATOM     36  C   UNL A   1      42.851  23.065  27.115  1.00  0.00    -0.014 A 
BRANCH  36  37
ATOM     37  C   UNL A   1      43.247  24.438  27.518  1.00  0.00     0.031 A 
ATOM     38  C   UNL A   1      44.673  24.899  27.385  1.00  0.00     0.074 A 
ATOM     39  C   UNL A   1      42.295  25.298  27.929  1.00  0.00     0.049 A 
ATOM     40  N   UNL A   1      45.189  26.074  27.646  1.00  0.00    -0.248 NA
ATOM     41  C   UNL A   1      45.652  23.912  26.902  1.00  0.00     0.031 C 
ATOM     42  C   UNL A   1      40.873  24.973  28.077  1.00  0.00     0.029 A 
ATOM     43  N   UNL A   1      42.366  26.627  28.253  1.00  0.00    -0.354 N 
ATOM     44  C   UNL A   1      46.550  25.959  27.393  1.00  0.00     0.074 A 
ATOM     45  C   UNL A   1      46.787  24.593  26.978  1.00  0.00     0.031 C 
ATOM     46  C   UNL A   1      40.197  26.091  28.380  1.00  0.00     0.029 A 
ATOM     47  C   UNL A   1      41.143  27.190  28.524  1.00  0.00     0.049 A 
ATOM     48  H   UNL A   1      43.211  27.130  28.288  1.00  0.00     0.167 HD
ATOM     49  C   UNL A   1      47.514  26.906  27.491  1.00  0.00     0.037 A 
ATOM     50  C   UNL A   1      40.820  28.451  28.862  1.00  0.00     0.037 A 
ATOM     51  C   UNL A   1      47.271  28.273  27.873  1.00  0.00     0.049 A 
ATOM     52  C   UNL A   1      41.915  29.464  29.013  1.00  0.00     0.074 A 
ATOM     53  C   UNL A   1      48.172  29.320  27.963  1.00  0.00     0.029 A 
ATOM     54  N   UNL A   1      46.030  28.782  28.230  1.00  0.00    -0.354 N 
ATOM     55  N   UNL A   1      43.196  29.342  28.765  1.00  0.00    -0.248 NA
ATOM     56  C   UNL A   1      41.519  30.787  29.515  1.00  0.00     0.031 C 
ATOM     57  C   UNL A   1      47.483  30.452  28.417  1.00  0.00     0.029 A 
ATOM     58  C   UNL A   1      46.146  30.120  28.570  1.00  0.00     0.049 A 
ATOM     59  H   UNL A   1      45.191  28.268  28.241  1.00  0.00     0.167 HD
ATOM     60  C   UNL A   1      43.759  30.573  29.068  1.00  0.00     0.074 A 
ATOM     61  C   UNL A   1      42.674  31.434  29.497  1.00  0.00     0.031 C 
ATOM     62  C   UNL A   1      45.057  30.957  29.002  1.00  0.00     0.037 A 
BRANCH  49  63
ATOM     63  C   UNL A   1      48.928  26.481  27.213  1.00  0.00     0.057 A 
ATOM     64  C   UNL A   1      49.735  25.984  28.245  1.00  0.00     0.134 A 
ATOM     65  C   UNL A   1      49.494  26.561  25.934  1.00  0.00     0.134 A 
ATOM     66  F   UNL A   1      49.258  25.885  29.495  1.00  0.00    -0.206 F 
ATOM     67  C   UNL A   1      51.050  25.578  28.014  1.00  0.00     0.040 A 
ATOM     68  C   UNL A   1      50.801  26.133  25.685  1.00  0.00     0.040 A 
ATOM     69  F   UNL A   1      48.771  27.011  24.897  1.00  0.00    -0.206 F 
ATOM     70  C   UNL A   1      51.583  25.643  26.729  1.00  0.00     0.006 A 
ENDBRANCH  49  63
BRANCH  50  71
ATOM     71  C   UNL A   1      39.401  28.823  29.085  1.00  0.00     0.057 A 
ATOM     72  C   UNL A   1      38.785  28.653  30.330  1.00  0.00     0.134 A 
ATOM     73  C   UNL A   1      38.630  29.362  28.050  1.00  0.00     0.134 A 
ATOM     74  F   UNL A   1      39.472  28.138  31.362  1.00  0.00    -0.206 F 
ATOM     75  C   UNL A   1      37.447  28.991  30.535  1.00  0.00     0.040 A 
ATOM     76  C   UNL A   1      37.297  29.728  28.247  1.00  0.00     0.040 A 
ATOM     77  F   UNL A   1      39.170  29.566  26.840  1.00  0.00    -0.206 F 
ATOM     78  C   UNL A   1      36.701  29.537  29.493  1.00  0.00     0.006 A 
ENDBRANCH  50  71
BRANCH  62  79
ATOM     79  C   UNL A   1      45.358  32.375  29.385  1.00  0.00     0.057 A 
ATOM     80  C   UNL A   1      45.285  33.402  28.437  1.00  0.00     0.134 A 
ATOM     81  C   UNL A   1      45.716  32.724  30.694  1.00  0.00     0.134 A 
ATOM     82  F   UNL A   1      44.952  33.133  27.165  1.00  0.00    -0.206 F 
ATOM     83  C   UNL A   1      45.554  34.728  28.777  1.00  0.00     0.040 A 
ATOM     84  C   UNL A   1      45.962  34.049  31.052  1.00  0.00     0.040 A 
ATOM     85  F   UNL A   1      45.782  31.787  31.653  1.00  0.00    -0.206 F 
ATOM     86  C   UNL A   1      45.885  35.055  30.090  1.00  0.00     0.006 A 
ENDBRANCH  62  79
ENDBRANCH  36  37
ENDBRANCH  28  31
ENDBRANCH  26  27
ENDBRANCH   1  26
TORSDOF 12
ENDMDL
MODEL 2
REMARK VINA RESULT:     -12.8      0.123      1.296
REMARK SMILES CC(C)(C)c1cc2c(cc1Cl)C=C(C(=O)NCCCNC(=O)c1ccc(-c3c4nc(c(-c5c(F)cccc5F)c5ccc([nH]5)c(-c5c(F)cccc5F)c5nc(c(-c6c(F)cccc6F)c6ccc3[nH]6)C=C5)C=C4)cc1)[C@@H](C(F)(F)F)O2
REMARK SMILES IDX 18 1 17 2 16 3 14 4 15 5 13 7 5 8 6 9 10 10 7 11 9 12 11 13
REMARK SMILES IDX 8 14 82 15 12 16 77 17 2 18 1 19 3 20 4 21 78 22 79 23 80 24
REMARK SMILES IDX 81 25 19 26 20 27 21 28 22 30 23 31 24 32 76 33 25 34 75 35
REMARK SMILES IDX 26 36 27 37 28 38 69 39 29 40 74 41 68 42 70 43 30 44 73 45
REMARK SMILES IDX 67 46 66 47 31 49 57 50 40 51 56 52 41 53 44 54 55 55 71 56
REMARK SMILES IDX 42 57 43 58 54 60 72 61 45 62 32 63 33 64 38 65 34 66 35 67
REMARK SMILES IDX 37 68 39 69 36 70 58 71 59 72 64 73 60 74 61 75 63 76 65 77
REMARK SMILES IDX 62 78 46 79 47 80 52 81 48 82 49 83 51 84 53 85 50 86
REMARK H PARENT 16 6 20 29 70 48 44 59
REMARK Flexibility Score: inf
ROOT
ATOM      1  C   UNL A   1      37.683  19.773  25.001  1.00  0.00     0.042 C 
ENDROOT
BRANCH   1   2
ATOM      2  C   UNL A   1      36.605  20.845  25.008  1.00  0.00     0.118 C 
BRANCH   2   3
ATOM      3  N   UNL A   1      35.308  20.309  24.623  1.00  0.00    -0.352 N 
ATOM      4  C   UNL A   1      34.019  20.718  24.637  1.00  0.00     0.251 C 
ATOM      5  O   UNL A   1      33.203  19.888  24.222  1.00  0.00    -0.270 OA
ATOM      6  H   UNL A   1      35.393  19.402  24.250  1.00  0.00     0.163 HD
BRANCH   4   7
ATOM      7  C   UNL A   1      33.546  22.053  25.101  1.00  0.00     0.067 C 
ATOM      8  C   UNL A   1      32.640  27.018  25.644  1.00  0.00    -0.020 A 
ATOM      9  C   UNL A   1      32.143  25.827  26.218  1.00  0.00     0.053 A 
ATOM     10  C   UNL A   1      33.538  26.854  24.560  1.00  0.00     0.045 A 
ATOM     11  C   UNL A   1      32.545  24.567  25.776  1.00  0.00     0.128 A 
ATOM     12  C   UNL A   1      33.916  25.576  24.102  1.00  0.00     0.032 A 
ATOM     13  Cl  UNL A   1      34.270  28.163  23.697  1.00  0.00    -0.084 Cl
ATOM     14  C   UNL A   1      33.432  24.428  24.719  1.00  0.00     0.019 A 
ATOM     15  O   UNL A   1      32.009  23.489  26.424  1.00  0.00    -0.475 OA
ATOM     16  C   UNL A   1      33.822  23.091  24.288  1.00  0.00     0.025 C 
ATOM     17  C   UNL A   1      32.835  22.293  26.403  1.00  0.00     0.314 C 
BRANCH   8  18
ATOM     18  C   UNL A   1      32.212  28.382  26.241  1.00  0.00    -0.012 C 
ATOM     19  C   UNL A   1      33.413  29.294  26.630  1.00  0.00     0.016 C 
ATOM     20  C   UNL A   1      31.404  28.201  27.543  1.00  0.00     0.016 C 
ATOM     21  C   UNL A   1      31.403  29.191  25.204  1.00  0.00     0.016 C 
ENDBRANCH   8  18
BRANCH  17  22
ATOM     22  C   UNL A   1      33.790  22.306  27.615  1.00  0.00     0.429 C 
ATOM     23  F   UNL A   1      33.101  22.578  28.751  1.00  0.00    -0.167 F 
ATOM     24  F   UNL A   1      34.398  21.112  27.810  1.00  0.00    -0.167 F 
ATOM     25  F   UNL A   1      34.770  23.230  27.503  1.00  0.00    -0.167 F 
ENDBRANCH  17  22
ENDBRANCH   4   7
ENDBRANCH   2   3
ENDBRANCH   1   2
BRANCH   1  26
ATOM     26  C   UNL A   1      38.955  20.229  25.704  1.00  0.00     0.118 C 
BRANCH  26  27
ATOM     27  N   UNL A   1      39.952  19.163  25.786  1.00  0.00    -0.352 N 
ATOM     28  C   UNL A   1      41.314  19.228  25.952  1.00  0.00     0.251 C 
ATOM     29  H   UNL A   1      39.587  18.252  25.710  1.00  0.00     0.163 HD
ATOM     30  O   UNL A   1      42.003  18.231  25.758  1.00  0.00    -0.269 OA
BRANCH  28  31
ATOM     31  C   UNL A   1      41.950  20.502  26.342  1.00  0.00     0.039 A 
ATOM     32  C   UNL A   1      42.080  20.838  27.688  1.00  0.00     0.014 A 
ATOM     33  C   UNL A   1      42.415  21.373  25.353  1.00  0.00     0.014 A 
ATOM     34  C   UNL A   1      42.475  22.120  28.040  1.00  0.00     0.010 A 
ATOM     35  C   UNL A   1      42.923  22.624  25.716  1.00  0.00     0.010 A 
ATOM     36  C   UNL A   1      42.902  23.029  27.060  1.00  0.00    -0.014 A 
BRANCH  36  37
ATOM     37  C   UNL A   1      43.305  24.397  27.477  1.00  0.00     0.031 A 
ATOM     38  C   UNL A   1      44.736  24.846  27.359  1.00  0.00     0.074 A 
ATOM     39  C   UNL A   1      42.356  25.261  27.885  1.00  0.00     0.049 A 
ATOM     40  N   UNL A   1      45.259  26.016  27.633  1.00  0.00    -0.248 NA
ATOM     41  C   UNL A   1      45.711  23.856  26.878  1.00  0.00     0.031 C 
ATOM     42  C   UNL A   1      40.930  24.947  28.018  1.00  0.00     0.029 A 
ATOM     43  N   UNL A   1      42.435  26.587  28.219  1.00  0.00    -0.354 N 
ATOM     44  C   UNL A   1      46.621  25.891  27.392  1.00  0.00     0.074 A 
ATOM     45  C   UNL A   1      46.850  24.526  26.969  1.00  0.00     0.031 C 
ATOM     46  C   UNL A   1      40.260  26.068  28.323  1.00  0.00     0.029 A 
ATOM     47  C   UNL A   1      41.214  27.158  28.484  1.00  0.00     0.049 A 
ATOM     48  H   UNL A   1      43.284  27.083  28.266  1.00  0.00     0.167 HD
ATOM     49  C   UNL A   1      47.592  26.830  27.505  1.00  0.00     0.037 A 
ATOM     50  C   UNL A   1      40.898  28.419  28.828  1.00  0.00     0.037 A 
ATOM     51  C   UNL A   1      47.356  28.196  27.894  1.00  0.00     0.049 A 
ATOM     52  C   UNL A   1      42.000  29.422  28.995  1.00  0.00     0.074 A 
ATOM     53  C   UNL A   1      48.264  29.235  27.999  1.00  0.00     0.029 A 
ATOM     54  N   UNL A   1      46.116  28.712  28.244  1.00  0.00    -0.354 N 
ATOM     55  N   UNL A   1      43.282  29.292  28.758  1.00  0.00    -0.248 NA
ATOM     56  C   UNL A   1      41.610  30.744  29.503  1.00  0.00     0.031 C 
ATOM     57  C   UNL A   1      47.581  30.370  28.455  1.00  0.00     0.029 A 
ATOM     58  C   UNL A   1      46.240  30.047  28.595  1.00  0.00     0.049 A 
ATOM     59  H   UNL A   1      45.273  28.205  28.244  1.00  0.00     0.167 HD
ATOM     60  C   UNL A   1      43.852  30.516  29.074  1.00  0.00     0.074 A 
ATOM     61  C   UNL A   1      42.770  31.383  29.500  1.00  0.00     0.031 C 
ATOM     62  C   UNL A   1      45.154  30.890  29.023  1.00  0.00     0.037 A 
BRANCH  49  63
ATOM     63  C   UNL A   1      49.004  26.395  27.235  1.00  0.00     0.057 A 
ATOM     64  C   UNL A   1      49.517  26.421  25.932  1.00  0.00     0.134 A 
ATOM     65  C   UNL A   1      49.856  25.951  28.254  1.00  0.00     0.134 A 
ATOM     66  F   UNL A   1      48.754  26.830  24.907  1.00  0.00    -0.206 F 
ATOM     67  C   UNL A   1      50.827  26.027  25.652  1.00  0.00     0.040 A 
ATOM     68  C   UNL A   1      51.178  25.578  27.991  1.00  0.00     0.040 A 
ATOM     69  F   UNL A   1      49.435  25.917  29.527  1.00  0.00    -0.206 F 
ATOM     70  C   UNL A   1      51.664  25.613  26.686  1.00  0.00     0.006 A 
ENDBRANCH  49  63
BRANCH  50  71
ATOM     71  C   UNL A   1      39.480  28.801  29.041  1.00  0.00     0.057 A 
ATOM     72  C   UNL A   1      38.861  28.654  30.287  1.00  0.00     0.134 A 
ATOM     73  C   UNL A   1      38.714  29.326  27.995  1.00  0.00     0.134 A 
ATOM     74  F   UNL A   1      39.542  28.153  31.329  1.00  0.00    -0.206 F 
ATOM     75  C   UNL A   1      37.524  29.001  30.483  1.00  0.00     0.040 A 
ATOM     76  C   UNL A   1      37.383  29.700  28.183  1.00  0.00     0.040 A 
ATOM     77  F   UNL A   1      39.258  29.507  26.783  1.00  0.00    -0.206 F 
ATOM     78  C   UNL A   1      36.783  29.533  29.429  1.00  0.00     0.006 A 
ENDBRANCH  50  71
BRANCH  62  79
ATOM     79  C   UNL A   1      45.462  32.303  29.418  1.00  0.00     0.057 A 
ATOM     80  C   UNL A   1      45.814  32.614  30.737  1.00  0.00     0.134 A 
ATOM     81  C   UNL A   1      45.413  33.353  28.494  1.00  0.00     0.134 A 
ATOM     82  F   UNL A   1      45.874  31.653  31.672  1.00  0.00    -0.206 F 
ATOM     83  C   UNL A   1      46.111  33.922  31.122  1.00  0.00     0.040 A 
ATOM     84  C   UNL A   1      45.733  34.661  28.860  1.00  0.00     0.040 A 
ATOM     85  F   UNL A   1      45.103  33.115  27.210  1.00  0.00    -0.206 F 
ATOM     86  C   UNL A   1      46.080  34.948  30.180  1.00  0.00     0.006 A 
ENDBRANCH  62  79
ENDBRANCH  36  37
ENDBRANCH  28  31
ENDBRANCH  26  27
ENDBRANCH   1  26
TORSDOF 12
ENDMDL
MODEL 3
REMARK VINA RESULT:     -12.6      1.433      1.965
REMARK SMILES CC(C)(C)c1cc2c(cc1Cl)C=C(C(=O)NCCCNC(=O)c1ccc(-c3c4nc(c(-c5c(F)cccc5F)c5ccc([nH]5)c(-c5c(F)cccc5F)c5nc(c(-c6c(F)cccc6F)c6ccc3[nH]6)C=C5)C=C4)cc1)[C@@H](C(F)(F)F)O2
REMARK SMILES IDX 18 1 17 2 16 3 14 4 15 5 13 7 5 8 6 9 10 10 7 11 9 12 11 13
REMARK SMILES IDX 8 14 82 15 12 16 77 17 2 18 1 19 3 20 4 21 78 22 79 23 80 24
REMARK SMILES IDX 81 25 19 26 20 27 21 28 22 30 23 31 24 32 76 33 25 34 75 35
REMARK SMILES IDX 26 36 27 37 28 38 69 39 29 40 74 41 68 42 70 43 30 44 73 45
REMARK SMILES IDX 67 46 66 47 31 49 57 50 40 51 56 52 41 53 44 54 55 55 71 56
REMARK SMILES IDX 42 57 43 58 54 60 72 61 45 62 32 63 33 64 38 65 34 66 35 67
REMARK SMILES IDX 37 68 39 69 36 70 58 71 59 72 64 73 60 74 61 75 63 76 65 77
REMARK SMILES IDX 62 78 46 79 47 80 52 81 48 82 49 83 51 84 53 85 50 86
REMARK H PARENT 16 6 20 29 70 48 44 59
REMARK Flexibility Score: inf
ROOT
ATOM      1  C   UNL A   1      37.959  19.672  25.032  1.00  0.00     0.042 C 
ENDROOT
BRANCH   1   2
ATOM      2  C   UNL A   1      36.977  20.806  24.784  1.00  0.00     0.118 C 
BRANCH   2   3
ATOM      3  N   UNL A   1      35.615  20.425  25.127  1.00  0.00    -0.352 N 
ATOM      4  C   UNL A   1      34.400  21.018  25.180  1.00  0.00     0.251 C 
ATOM      5  O   UNL A   1      33.481  20.292  25.573  1.00  0.00    -0.270 OA
ATOM      6  H   UNL A   1      35.564  19.478  25.391  1.00  0.00     0.163 HD
BRANCH   4   7
ATOM      7  C   UNL A   1      34.117  22.433  24.808  1.00  0.00     0.067 C 
ATOM      8  C   UNL A   1      32.768  27.326  24.801  1.00  0.00    -0.020 A 
ATOM      9  C   UNL A   1      33.441  26.459  23.914  1.00  0.00     0.053 A 
ATOM     10  C   UNL A   1      32.464  26.792  26.078  1.00  0.00     0.045 A 
ATOM     11  C   UNL A   1      33.748  25.142  24.255  1.00  0.00     0.128 A 
ATOM     12  C   UNL A   1      32.804  25.468  26.423  1.00  0.00     0.032 A 
ATOM     13  Cl  UNL A   1      31.651  27.666  27.330  1.00  0.00    -0.084 Cl
ATOM     14  C   UNL A   1      33.434  24.634  25.507  1.00  0.00     0.019 A 
ATOM     15  O   UNL A   1      34.384  24.393  23.304  1.00  0.00    -0.475 OA
ATOM     16  C   UNL A   1      33.777  23.252  25.821  1.00  0.00     0.025 C 
ATOM     17  C   UNL A   1      34.154  22.961  23.401  1.00  0.00     0.314 C 
BRANCH   8  18
ATOM     18  C   UNL A   1      32.386  28.750  24.324  1.00  0.00    -0.012 C 
ATOM     19  C   UNL A   1      32.791  29.870  25.327  1.00  0.00     0.016 C 
ATOM     20  C   UNL A   1      30.860  28.898  24.148  1.00  0.00     0.016 C 
ATOM     21  C   UNL A   1      33.123  29.091  23.010  1.00  0.00     0.016 C 
ENDBRANCH   8  18
BRANCH  17  22
ATOM     22  C   UNL A   1      32.899  22.585  22.586  1.00  0.00     0.429 C 
ATOM     23  F   UNL A   1      33.040  22.987  21.298  1.00  0.00    -0.167 F 
ATOM     24  F   UNL A   1      32.683  21.248  22.551  1.00  0.00    -0.167 F 
ATOM     25  F   UNL A   1      31.769  23.150  23.066  1.00  0.00    -0.167 F 
ENDBRANCH  17  22
ENDBRANCH   4   7
ENDBRANCH   2   3
ENDBRANCH   1   2
BRANCH   1  26
ATOM     26  C   UNL A   1      39.190  20.133  25.801  1.00  0.00     0.118 C 
BRANCH  26  27
ATOM     27  N   UNL A   1      40.205  19.085  25.895  1.00  0.00    -0.352 N 
ATOM     28  C   UNL A   1      41.564  19.175  26.078  1.00  0.00     0.251 C 
ATOM     29  H   UNL A   1      39.858  18.168  25.815  1.00  0.00     0.163 HD
ATOM     30  O   UNL A   1      42.272  18.191  25.893  1.00  0.00    -0.269 OA
BRANCH  28  31
ATOM     31  C   UNL A   1      42.171  20.460  26.476  1.00  0.00     0.039 A 
ATOM     32  C   UNL A   1      42.197  20.838  27.817  1.00  0.00     0.014 A 
ATOM     33  C   UNL A   1      42.714  21.300  25.500  1.00  0.00     0.014 A 
ATOM     34  C   UNL A   1      42.568  22.130  28.159  1.00  0.00     0.010 A 
ATOM     35  C   UNL A   1      43.197  22.561  25.863  1.00  0.00     0.010 A 
ATOM     36  C   UNL A   1      43.073  23.008  27.187  1.00  0.00    -0.014 A 
BRANCH  36  37
ATOM     37  C   UNL A   1      43.446  24.387  27.591  1.00  0.00     0.031 A 
ATOM     38  C   UNL A   1      44.870  24.863  27.481  1.00  0.00     0.074 A 
ATOM     39  C   UNL A   1      42.478  25.238  27.981  1.00  0.00     0.049 A 
ATOM     40  N   UNL A   1      45.368  26.045  27.745  1.00  0.00    -0.248 NA
ATOM     41  C   UNL A   1      45.867  23.884  27.020  1.00  0.00     0.031 C 
ATOM     42  C   UNL A   1      41.057  24.899  28.105  1.00  0.00     0.029 A 
ATOM     43  N   UNL A   1      42.529  26.570  28.299  1.00  0.00    -0.354 N 
ATOM     44  C   UNL A   1      46.735  25.943  27.517  1.00  0.00     0.074 A 
ATOM     45  C   UNL A   1      46.993  24.577  27.113  1.00  0.00     0.031 C 
ATOM     46  C   UNL A   1      40.363  26.011  28.390  1.00  0.00     0.029 A 
ATOM     47  C   UNL A   1      41.295  27.121  28.546  1.00  0.00     0.049 A 
ATOM     48  H   UNL A   1      43.368  27.082  28.347  1.00  0.00     0.167 HD
ATOM     49  C   UNL A   1      47.687  26.900  27.627  1.00  0.00     0.037 A 
ATOM     50  C   UNL A   1      40.953  28.380  28.872  1.00  0.00     0.037 A 
ATOM     51  C   UNL A   1      47.422  28.267  27.999  1.00  0.00     0.049 A 
ATOM     52  C   UNL A   1      42.034  29.406  29.037  1.00  0.00     0.074 A 
ATOM     53  C   UNL A   1      48.310  29.324  28.099  1.00  0.00     0.029 A 
ATOM     54  N   UNL A   1      46.170  28.764  28.331  1.00  0.00    -0.354 N 
ATOM     55  N   UNL A   1      43.321  29.296  28.813  1.00  0.00    -0.248 NA
ATOM     56  C   UNL A   1      41.615  30.726  29.525  1.00  0.00     0.031 C 
ATOM     57  C   UNL A   1      47.602  30.450  28.535  1.00  0.00     0.029 A 
ATOM     58  C   UNL A   1      46.266  30.105  28.667  1.00  0.00     0.049 A 
ATOM     59  H   UNL A   1      45.336  28.241  28.329  1.00  0.00     0.167 HD
ATOM     60  C   UNL A   1      43.865  30.535  29.120  1.00  0.00     0.074 A 
ATOM     61  C   UNL A   1      42.764  31.386  29.525  1.00  0.00     0.031 C 
ATOM     62  C   UNL A   1      45.160  30.932  29.075  1.00  0.00     0.037 A 
BRANCH  49  63
ATOM     63  C   UNL A   1      49.109  26.489  27.376  1.00  0.00     0.057 A 
ATOM     64  C   UNL A   1      49.916  26.045  28.432  1.00  0.00     0.134 A 
ATOM     65  C   UNL A   1      49.685  26.532  26.100  1.00  0.00     0.134 A 
ATOM     66  F   UNL A   1      49.430  25.985  29.682  1.00  0.00    -0.206 F 
ATOM     67  C   UNL A   1      51.240  25.653  28.227  1.00  0.00     0.040 A 
ATOM     68  C   UNL A   1      51.001  26.117  25.878  1.00  0.00     0.040 A 
ATOM     69  F   UNL A   1      48.964  26.930  25.042  1.00  0.00    -0.206 F 
ATOM     70  C   UNL A   1      51.783  25.679  26.945  1.00  0.00     0.006 A 
ENDBRANCH  49  63
BRANCH  50  71
ATOM     71  C   UNL A   1      39.526  28.738  29.068  1.00  0.00     0.057 A 
ATOM     72  C   UNL A   1      38.894  28.580  30.307  1.00  0.00     0.134 A 
ATOM     73  C   UNL A   1      38.764  29.250  28.013  1.00  0.00     0.134 A 
ATOM     74  F   UNL A   1      39.571  28.089  31.356  1.00  0.00    -0.206 F 
ATOM     75  C   UNL A   1      37.549  28.904  30.486  1.00  0.00     0.040 A 
ATOM     76  C   UNL A   1      37.425  29.603  28.185  1.00  0.00     0.040 A 
ATOM     77  F   UNL A   1      39.320  29.442  26.808  1.00  0.00    -0.206 F 
ATOM     78  C   UNL A   1      36.813  29.424  29.424  1.00  0.00     0.006 A 
ENDBRANCH  50  71
BRANCH  62  79
ATOM     79  C   UNL A   1      45.439  32.355  29.457  1.00  0.00     0.057 A 
ATOM     80  C   UNL A   1      45.773  32.688  30.774  1.00  0.00     0.134 A 
ATOM     81  C   UNL A   1      45.378  33.394  28.519  1.00  0.00     0.134 A 
ATOM     82  F   UNL A   1      45.843  31.740  31.721  1.00  0.00    -0.206 F 
ATOM     83  C   UNL A   1      46.042  34.006  31.146  1.00  0.00     0.040 A 
ATOM     84  C   UNL A   1      45.671  34.711  28.873  1.00  0.00     0.040 A 
ATOM     85  F   UNL A   1      45.083  33.134  27.236  1.00  0.00    -0.206 F 
ATOM     86  C   UNL A   1      46.000  35.020  30.192  1.00  0.00     0.006 A 
ENDBRANCH  62  79
ENDBRANCH  36  37
ENDBRANCH  28  31
ENDBRANCH  26  27
ENDBRANCH   1  26
TORSDOF 12
ENDMDL
