MODEL 1
REMARK VINA RESULT:     -11.1      0.000      0.000
REMARK SMILES CCOc1ncccc1C(=O)N1CCC[C@](CC)(C(=O)NCCCNC(=O)c2ccc(-c3c4nc(c(-c5c(F)cccc5F)c5ccc([nH]5)c(-c5c(F)cccc5F)c5nc(c(-c6c(F)cccc6F)c6ccc3[nH]6)C=C5)C=C4)cc2)C1
REMARK SMILES IDX 22 1 21 2 19 3 20 4 16 6 12 7 13 8 82 9 14 10 15 11 10 12
REMARK SMILES IDX 11 13 9 14 4 15 5 16 6 17 8 18 7 19 3 20 2 21 1 22 17 23
REMARK SMILES IDX 18 24 23 25 24 26 25 27 26 28 27 30 28 31 29 32 81 33 30 34
REMARK SMILES IDX 80 35 31 36 32 37 33 38 74 39 34 40 79 41 73 42 75 43 35 44
REMARK SMILES IDX 78 45 72 46 71 47 36 49 62 50 45 51 61 52 46 53 49 54 60 55
REMARK SMILES IDX 76 56 47 57 48 58 59 60 77 61 50 62 37 63 38 64 43 65 39 66
REMARK SMILES IDX 40 67 42 68 44 69 41 70 63 71 64 72 69 73 65 74 66 75 68 76
REMARK SMILES IDX 70 77 67 78 51 79 52 80 57 81 53 82 54 83 56 84 58 85 55 86
REMARK H PARENT 21 5 25 29 75 48 49 59
REMARK Flexibility Score: inf
ROOT
ATOM      1  C   UNL A   1      36.253  20.146  24.609  1.00  0.00     0.117 C 
ENDROOT
BRANCH   1   2
ATOM      2  N   UNL A   1      35.575  20.797  25.719  1.00  0.00    -0.355 N 
ATOM      3  C   UNL A   1      35.249  22.067  26.059  1.00  0.00     0.228 C 
ATOM      4  O   UNL A   1      34.727  22.150  27.180  1.00  0.00    -0.274 OA
ATOM      5  H   UNL A   1      35.274  20.148  26.395  1.00  0.00     0.163 HD
BRANCH   3   6
ATOM      6  C   UNL A   1      35.364  23.322  25.152  1.00  0.00     0.067 C 
ATOM      7  N   UNL A   1      33.178  24.678  25.447  1.00  0.00    -0.337 N 
ATOM      8  C   UNL A   1      32.651  24.183  24.179  1.00  0.00     0.120 C 
ATOM      9  C   UNL A   1      34.631  24.580  25.675  1.00  0.00     0.136 C 
ATOM     10  C   UNL A   1      33.247  22.851  23.777  1.00  0.00     0.023 C 
ATOM     11  C   UNL A   1      34.764  22.952  23.753  1.00  0.00     0.020 C 
BRANCH   7  12
ATOM     12  C   UNL A   1      32.316  25.544  26.149  1.00  0.00     0.259 C 
ATOM     13  O   UNL A   1      31.451  25.137  26.924  1.00  0.00    -0.269 OA
BRANCH  12  14
ATOM     14  C   UNL A   1      32.426  27.002  25.979  1.00  0.00     0.102 A 
ATOM     15  C   UNL A   1      31.483  27.678  25.214  1.00  0.00     0.226 A 
ATOM     16  N   UNL A   1      31.496  29.020  25.018  1.00  0.00    -0.221 NA
ATOM     17  C   UNL A   1      32.521  29.703  25.576  1.00  0.00     0.115 A 
ATOM     18  C   UNL A   1      33.487  27.731  26.518  1.00  0.00     0.021 A 
ATOM     19  C   UNL A   1      33.532  29.109  26.319  1.00  0.00     0.021 A 
BRANCH  15  20
ATOM     20  O   UNL A   1      30.540  26.963  24.519  1.00  0.00    -0.477 OA
BRANCH  20  21
ATOM     21  C   UNL A   1      30.193  27.571  23.280  1.00  0.00     0.228 C 
ATOM     22  C   UNL A   1      31.080  26.988  22.193  1.00  0.00     0.049 C 
ENDBRANCH  20  21
ENDBRANCH  15  20
ENDBRANCH  12  14
ENDBRANCH   7  12
BRANCH   6  23
ATOM     23  C   UNL A   1      36.886  23.573  24.868  1.00  0.00     0.015 C 
ATOM     24  C   UNL A   1      37.842  23.693  26.046  1.00  0.00     0.005 C 
ENDBRANCH   6  23
ENDBRANCH   3   6
ENDBRANCH   1   2
BRANCH   1  25
ATOM     25  C   UNL A   1      37.421  19.285  25.087  1.00  0.00     0.042 C 
BRANCH  25  26
ATOM     26  C   UNL A   1      38.682  20.079  25.448  1.00  0.00     0.118 C 
BRANCH  26  27
ATOM     27  N   UNL A   1      39.829  19.218  25.689  1.00  0.00    -0.352 N 
ATOM     28  C   UNL A   1      41.117  19.501  26.079  1.00  0.00     0.251 C 
ATOM     29  H   UNL A   1      39.651  18.260  25.548  1.00  0.00     0.163 HD
ATOM     30  O   UNL A   1      41.954  18.601  26.013  1.00  0.00    -0.269 OA
BRANCH  28  31
ATOM     31  C   UNL A   1      41.548  20.842  26.555  1.00  0.00     0.039 A 
ATOM     32  C   UNL A   1      41.420  21.120  27.923  1.00  0.00     0.014 A 
ATOM     33  C   UNL A   1      41.955  21.864  25.695  1.00  0.00     0.014 A 
ATOM     34  C   UNL A   1      41.741  22.386  28.429  1.00  0.00     0.010 A 
ATOM     35  C   UNL A   1      42.324  23.119  26.211  1.00  0.00     0.010 A 
ATOM     36  C   UNL A   1      42.226  23.397  27.585  1.00  0.00    -0.014 A 
BRANCH  36  37
ATOM     37  C   UNL A   1      42.631  24.725  28.137  1.00  0.00     0.031 A 
ATOM     38  C   UNL A   1      41.618  25.816  28.379  1.00  0.00     0.074 A 
ATOM     39  C   UNL A   1      43.927  24.977  28.419  1.00  0.00     0.049 A 
ATOM     40  N   UNL A   1      41.806  27.045  28.798  1.00  0.00    -0.248 NA
ATOM     41  C   UNL A   1      40.212  25.488  28.105  1.00  0.00     0.031 C 
ATOM     42  C   UNL A   1      45.033  24.037  28.236  1.00  0.00     0.029 A 
ATOM     43  N   UNL A   1      44.533  26.108  28.916  1.00  0.00    -0.354 N 
ATOM     44  C   UNL A   1      40.550  27.640  28.820  1.00  0.00     0.074 A 
ATOM     45  C   UNL A   1      39.610  26.645  28.345  1.00  0.00     0.031 C 
ATOM     46  C   UNL A   1      46.176  24.620  28.632  1.00  0.00     0.029 A 
ATOM     47  C   UNL A   1      45.895  25.989  29.057  1.00  0.00     0.049 A 
ATOM     48  H   UNL A   1      44.037  26.926  29.149  1.00  0.00     0.167 HD
ATOM     49  C   UNL A   1      40.204  28.891  29.212  1.00  0.00     0.037 A 
ATOM     50  C   UNL A   1      46.822  26.880  29.461  1.00  0.00     0.037 A 
ATOM     51  C   UNL A   1      41.115  29.882  29.724  1.00  0.00     0.049 A 
ATOM     52  C   UNL A   1      46.419  28.277  29.840  1.00  0.00     0.074 A 
ATOM     53  C   UNL A   1      40.824  31.145  30.218  1.00  0.00     0.029 A 
ATOM     54  N   UNL A   1      42.488  29.732  29.804  1.00  0.00    -0.354 N 
ATOM     55  N   UNL A   1      45.223  28.807  29.896  1.00  0.00    -0.248 NA
ATOM     56  C   UNL A   1      47.504  29.207  30.198  1.00  0.00     0.031 C 
ATOM     57  C   UNL A   1      42.027  31.775  30.555  1.00  0.00     0.029 A 
ATOM     58  C   UNL A   1      43.062  30.892  30.305  1.00  0.00     0.049 A 
ATOM     59  H   UNL A   1      42.985  28.923  29.545  1.00  0.00     0.167 HD
ATOM     60  C   UNL A   1      45.409  30.123  30.301  1.00  0.00     0.074 A 
ATOM     61  C   UNL A   1      46.829  30.310  30.496  1.00  0.00     0.031 C 
ATOM     62  C   UNL A   1      44.477  31.087  30.490  1.00  0.00     0.037 A 
BRANCH  49  63
ATOM     63  C   UNL A   1      38.758  29.275  29.104  1.00  0.00     0.057 A 
ATOM     64  C   UNL A   1      38.186  29.655  27.883  1.00  0.00     0.134 A 
ATOM     65  C   UNL A   1      37.916  29.200  30.220  1.00  0.00     0.134 A 
ATOM     66  F   UNL A   1      38.941  29.749  26.779  1.00  0.00    -0.206 F 
ATOM     67  C   UNL A   1      36.829  29.965  27.781  1.00  0.00     0.040 A 
ATOM     68  C   UNL A   1      36.554  29.488  30.126  1.00  0.00     0.040 A 
ATOM     69  F   UNL A   1      38.400  28.829  31.415  1.00  0.00    -0.206 F 
ATOM     70  C   UNL A   1      36.008  29.876  28.904  1.00  0.00     0.006 A 
ENDBRANCH  49  63
BRANCH  50  71
ATOM     71  C   UNL A   1      48.251  26.484  29.512  1.00  0.00     0.057 A 
ATOM     72  C   UNL A   1      48.787  25.866  30.646  1.00  0.00     0.134 A 
ATOM     73  C   UNL A   1      49.113  26.733  28.438  1.00  0.00     0.134 A 
ATOM     74  F   UNL A   1      48.015  25.632  31.717  1.00  0.00    -0.206 F 
ATOM     75  C   UNL A   1      50.136  25.515  30.715  1.00  0.00     0.040 A 
ATOM     76  C   UNL A   1      50.459  26.366  28.485  1.00  0.00     0.040 A 
ATOM     77  F   UNL A   1      48.658  27.334  27.331  1.00  0.00    -0.206 F 
ATOM     78  C   UNL A   1      50.974  25.759  29.629  1.00  0.00     0.006 A 
ENDBRANCH  50  71
BRANCH  62  79
ATOM     79  C   UNL A   1      44.956  32.437  30.933  1.00  0.00     0.057 A 
ATOM     80  C   UNL A   1      45.226  33.457  30.011  1.00  0.00     0.134 A 
ATOM     81  C   UNL A   1      45.109  32.737  32.292  1.00  0.00     0.134 A 
ATOM     82  F   UNL A   1      45.113  33.229  28.694  1.00  0.00    -0.206 F 
ATOM     83  C   UNL A   1      45.643  34.723  30.425  1.00  0.00     0.040 A 
ATOM     84  C   UNL A   1      45.506  34.006  32.720  1.00  0.00     0.040 A 
ATOM     85  F   UNL A   1      44.862  31.808  33.228  1.00  0.00    -0.206 F 
ATOM     86  C   UNL A   1      45.777  35.002  31.784  1.00  0.00     0.006 A 
ENDBRANCH  62  79
ENDBRANCH  36  37
ENDBRANCH  28  31
ENDBRANCH  26  27
ENDBRANCH  25  26
ENDBRANCH   1  25
TORSDOF 15
ENDMDL
MODEL 2
REMARK VINA RESULT:     -11.0      0.435      6.101
REMARK SMILES CCOc1ncccc1C(=O)N1CCC[C@](CC)(C(=O)NCCCNC(=O)c2ccc(-c3c4nc(c(-c5c(F)cccc5F)c5ccc([nH]5)c(-c5c(F)cccc5F)c5nc(c(-c6c(F)cccc6F)c6ccc3[nH]6)C=C5)C=C4)cc2)C1
REMARK SMILES IDX 22 1 21 2 19 3 20 4 16 6 12 7 13 8 82 9 14 10 15 11 10 12
REMARK SMILES IDX 11 13 9 14 4 15 5 16 6 17 8 18 7 19 3 20 2 21 1 22 17 23
REMARK SMILES IDX 18 24 23 25 24 26 25 27 26 28 27 30 28 31 29 32 81 33 30 34
REMARK SMILES IDX 80 35 31 36 32 37 33 38 74 39 34 40 79 41 73 42 75 43 35 44
REMARK SMILES IDX 78 45 72 46 71 47 36 49 62 50 45 51 61 52 46 53 49 54 60 55
REMARK SMILES IDX 76 56 47 57 48 58 59 60 77 61 50 62 37 63 38 64 43 65 39 66
REMARK SMILES IDX 40 67 42 68 44 69 41 70 63 71 64 72 69 73 65 74 66 75 68 76
REMARK SMILES IDX 70 77 67 78 51 79 52 80 57 81 53 82 54 83 56 84 58 85 55 86
REMARK H PARENT 21 5 25 29 75 48 49 59
REMARK Flexibility Score: inf
ROOT
ATOM      1  C   UNL A   1      36.159  20.022  24.623  1.00  0.00     0.117 C 
ENDROOT
BRANCH   1   2
ATOM      2  N   UNL A   1      35.551  20.728  25.741  1.00  0.00    -0.355 N 
ATOM      3  C   UNL A   1      35.250  22.014  26.039  1.00  0.00     0.228 C 
ATOM      4  O   UNL A   1      34.798  22.153  27.185  1.00  0.00    -0.274 OA
ATOM      5  H   UNL A   1      35.292  20.113  26.465  1.00  0.00     0.163 HD
BRANCH   3   6
ATOM      6  C   UNL A   1      35.308  23.223  25.067  1.00  0.00     0.067 C 
ATOM      7  N   UNL A   1      33.128  24.579  25.402  1.00  0.00    -0.337 N 
ATOM      8  C   UNL A   1      32.545  24.018  24.188  1.00  0.00     0.120 C 
ATOM      9  C   UNL A   1      34.592  24.501  25.563  1.00  0.00     0.136 C 
ATOM     10  C   UNL A   1      33.132  22.672  23.822  1.00  0.00     0.023 C 
ATOM     11  C   UNL A   1      34.645  22.781  23.719  1.00  0.00     0.020 C 
BRANCH   7  12
ATOM     12  C   UNL A   1      32.294  25.472  26.103  1.00  0.00     0.259 C 
ATOM     13  O   UNL A   1      31.425  25.095  26.888  1.00  0.00    -0.269 OA
BRANCH  12  14
ATOM     14  C   UNL A   1      32.439  26.926  25.919  1.00  0.00     0.102 A 
ATOM     15  C   UNL A   1      31.635  27.586  24.997  1.00  0.00     0.226 A 
ATOM     16  N   UNL A   1      31.689  28.923  24.774  1.00  0.00    -0.221 NA
ATOM     17  C   UNL A   1      32.617  29.616  25.472  1.00  0.00     0.115 A 
ATOM     18  C   UNL A   1      33.406  27.664  26.603  1.00  0.00     0.021 A 
ATOM     19  C   UNL A   1      33.492  29.037  26.381  1.00  0.00     0.021 A 
BRANCH  15  20
ATOM     20  O   UNL A   1      30.810  26.857  24.177  1.00  0.00    -0.477 OA
BRANCH  20  21
ATOM     21  C   UNL A   1      30.670  27.435  22.885  1.00  0.00     0.228 C 
ATOM     22  C   UNL A   1      31.396  26.555  21.882  1.00  0.00     0.049 C 
ENDBRANCH  20  21
ENDBRANCH  15  20
ENDBRANCH  12  14
ENDBRANCH   7  12
BRANCH   6  23
ATOM     23  C   UNL A   1      36.813  23.470  24.696  1.00  0.00     0.015 C 
ATOM     24  C   UNL A   1      37.823  23.660  25.818  1.00  0.00     0.005 C 
ENDBRANCH   6  23
ENDBRANCH   3   6
ENDBRANCH   1   2
BRANCH   1  25
ATOM     25  C   UNL A   1      37.361  19.189  25.066  1.00  0.00     0.042 C 
BRANCH  25  26
ATOM     26  C   UNL A   1      38.619  20.011  25.368  1.00  0.00     0.118 C 
BRANCH  26  27
ATOM     27  N   UNL A   1      39.771  19.173  25.662  1.00  0.00    -0.352 N 
ATOM     28  C   UNL A   1      41.039  19.484  26.093  1.00  0.00     0.251 C 
ATOM     29  H   UNL A   1      39.614  18.210  25.529  1.00  0.00     0.163 HD
ATOM     30  O   UNL A   1      41.893  18.597  26.069  1.00  0.00    -0.269 OA
BRANCH  28  31
ATOM     31  C   UNL A   1      41.430  20.838  26.564  1.00  0.00     0.039 A 
ATOM     32  C   UNL A   1      41.160  21.167  27.899  1.00  0.00     0.014 A 
ATOM     33  C   UNL A   1      41.937  21.826  25.716  1.00  0.00     0.014 A 
ATOM     34  C   UNL A   1      41.439  22.448  28.392  1.00  0.00     0.010 A 
ATOM     35  C   UNL A   1      42.262  23.097  26.224  1.00  0.00     0.010 A 
ATOM     36  C   UNL A   1      42.021  23.425  27.569  1.00  0.00    -0.014 A 
BRANCH  36  37
ATOM     37  C   UNL A   1      42.379  24.770  28.114  1.00  0.00     0.031 A 
ATOM     38  C   UNL A   1      43.796  25.104  28.507  1.00  0.00     0.074 A 
ATOM     39  C   UNL A   1      41.427  25.712  28.277  1.00  0.00     0.049 A 
ATOM     40  N   UNL A   1      44.270  26.200  29.050  1.00  0.00    -0.248 NA
ATOM     41  C   UNL A   1      44.812  24.068  28.269  1.00  0.00     0.031 C 
ATOM     42  C   UNL A   1      40.008  25.550  27.956  1.00  0.00     0.029 A 
ATOM     43  N   UNL A   1      41.511  26.997  28.763  1.00  0.00    -0.354 N 
ATOM     44  C   UNL A   1      45.630  25.981  29.235  1.00  0.00     0.074 A 
ATOM     45  C   UNL A   1      45.901  24.635  28.772  1.00  0.00     0.031 C 
ATOM     46  C   UNL A   1      39.362  26.693  28.233  1.00  0.00     0.029 A 
ATOM     47  C   UNL A   1      40.306  27.657  28.792  1.00  0.00     0.049 A 
ATOM     48  H   UNL A   1      42.356  27.405  29.061  1.00  0.00     0.167 HD
ATOM     49  C   UNL A   1      46.572  26.822  29.729  1.00  0.00     0.037 A 
ATOM     50  C   UNL A   1      39.985  28.889  29.236  1.00  0.00     0.037 A 
ATOM     51  C   UNL A   1      46.332  28.176  30.158  1.00  0.00     0.049 A 
ATOM     52  C   UNL A   1      41.038  29.782  29.827  1.00  0.00     0.074 A 
ATOM     53  C   UNL A   1      47.254  29.116  30.594  1.00  0.00     0.029 A 
ATOM     54  N   UNL A   1      45.090  28.783  30.213  1.00  0.00    -0.354 N 
ATOM     55  N   UNL A   1      42.324  29.574  29.954  1.00  0.00    -0.248 NA
ATOM     56  C   UNL A   1      40.587  31.081  30.355  1.00  0.00     0.031 C 
ATOM     57  C   UNL A   1      46.562  30.277  30.955  1.00  0.00     0.029 A 
ATOM     58  C   UNL A   1      45.216  30.073  30.710  1.00  0.00     0.049 A 
ATOM     59  H   UNL A   1      44.242  28.364  29.940  1.00  0.00     0.167 HD
ATOM     60  C   UNL A   1      42.835  30.712  30.565  1.00  0.00     0.074 A 
ATOM     61  C   UNL A   1      41.727  31.619  30.768  1.00  0.00     0.031 C 
ATOM     62  C   UNL A   1      44.115  30.975  30.925  1.00  0.00     0.037 A 
BRANCH  49  63
ATOM     63  C   UNL A   1      47.974  26.301  29.840  1.00  0.00     0.057 A 
ATOM     64  C   UNL A   1      48.892  26.430  28.790  1.00  0.00     0.134 A 
ATOM     65  C   UNL A   1      48.428  25.725  31.033  1.00  0.00     0.134 A 
ATOM     66  F   UNL A   1      48.517  26.970  27.620  1.00  0.00    -0.206 F 
ATOM     67  C   UNL A   1      50.209  25.985  28.917  1.00  0.00     0.040 A 
ATOM     68  C   UNL A   1      49.748  25.295  31.179  1.00  0.00     0.040 A 
ATOM     69  F   UNL A   1      47.601  25.585  32.080  1.00  0.00    -0.206 F 
ATOM     70  C   UNL A   1      50.641  25.422  30.117  1.00  0.00     0.006 A 
ENDBRANCH  49  63
BRANCH  50  71
ATOM     71  C   UNL A   1      38.578  29.356  29.156  1.00  0.00     0.057 A 
ATOM     72  C   UNL A   1      37.746  29.333  30.279  1.00  0.00     0.134 A 
ATOM     73  C   UNL A   1      38.033  29.815  27.951  1.00  0.00     0.134 A 
ATOM     74  F   UNL A   1      38.206  28.873  31.452  1.00  0.00    -0.206 F 
ATOM     75  C   UNL A   1      36.415  29.744  30.207  1.00  0.00     0.040 A 
ATOM     76  C   UNL A   1      36.710  30.250  27.871  1.00  0.00     0.040 A 
ATOM     77  F   UNL A   1      38.780  29.846  26.839  1.00  0.00    -0.206 F 
ATOM     78  C   UNL A   1      35.895  30.210  29.001  1.00  0.00     0.006 A 
ENDBRANCH  50  71
BRANCH  62  79
ATOM     79  C   UNL A   1      44.394  32.296  31.576  1.00  0.00     0.057 A 
ATOM     80  C   UNL A   1      44.393  32.440  32.969  1.00  0.00     0.134 A 
ATOM     81  C   UNL A   1      44.709  33.425  30.809  1.00  0.00     0.134 A 
ATOM     82  F   UNL A   1      44.085  31.401  33.759  1.00  0.00    -0.206 F 
ATOM     83  C   UNL A   1      44.683  33.664  33.577  1.00  0.00     0.040 A 
ATOM     84  C   UNL A   1      45.021  34.649  31.405  1.00  0.00     0.040 A 
ATOM     85  F   UNL A   1      44.733  33.354  29.470  1.00  0.00    -0.206 F 
ATOM     86  C   UNL A   1      45.006  34.770  32.794  1.00  0.00     0.006 A 
ENDBRANCH  62  79
ENDBRANCH  36  37
ENDBRANCH  28  31
ENDBRANCH  26  27
ENDBRANCH  25  26
ENDBRANCH   1  25
TORSDOF 15
ENDMDL
MODEL 3
REMARK VINA RESULT:     -11.0      3.993      9.112
REMARK SMILES CCOc1ncccc1C(=O)N1CCC[C@](CC)(C(=O)NCCCNC(=O)c2ccc(-c3c4nc(c(-c5c(F)cccc5F)c5ccc([nH]5)c(-c5c(F)cccc5F)c5nc(c(-c6c(F)cccc6F)c6ccc3[nH]6)C=C5)C=C4)cc2)C1
REMARK SMILES IDX 22 1 21 2 19 3 20 4 16 6 12 7 13 8 82 9 14 10 15 11 10 12
REMARK SMILES IDX 11 13 9 14 4 15 5 16 6 17 8 18 7 19 3 20 2 21 1 22 17 23
REMARK SMILES IDX 18 24 23 25 24 26 25 27 26 28 27 30 28 31 29 32 81 33 30 34
REMARK SMILES IDX 80 35 31 36 32 37 33 38 74 39 34 40 79 41 73 42 75 43 35 44
REMARK SMILES IDX 78 45 72 46 71 47 36 49 62 50 45 51 61 52 46 53 49 54 60 55
REMARK SMILES IDX 76 56 47 57 48 58 59 60 77 61 50 62 37 63 38 64 43 65 39 66
REMARK SMILES IDX 40 67 42 68 44 69 41 70 63 71 64 72 69 73 65 74 66 75 68 76
REMARK SMILES IDX 70 77 67 78 51 79 52 80 57 81 53 82 54 83 56 84 58 85 55 86
REMARK H PARENT 21 5 25 29 75 48 49 59
REMARK Flexibility Score: inf
ROOT
ATOM      1  C   UNL A   1      30.990  30.562  25.910  1.00  0.00     0.117 C 
ENDROOT
BRANCH   1   2
ATOM      2  N   UNL A   1      31.972  30.084  24.949  1.00  0.00    -0.355 N 
ATOM      3  C   UNL A   1      32.907  29.106  24.909  1.00  0.00     0.228 C 
ATOM      4  O   UNL A   1      33.590  29.129  23.874  1.00  0.00    -0.274 OA
ATOM      5  H   UNL A   1      31.949  30.604  24.114  1.00  0.00     0.163 HD
BRANCH   3   6
ATOM      6  C   UNL A   1      33.087  27.959  25.940  1.00  0.00     0.067 C 
ATOM      7  N   UNL A   1      33.375  25.763  24.599  1.00  0.00    -0.337 N 
ATOM      8  C   UNL A   1      31.993  25.374  24.861  1.00  0.00     0.120 C 
ATOM      9  C   UNL A   1      33.979  26.787  25.472  1.00  0.00     0.136 C 
ATOM     10  C   UNL A   1      31.092  26.559  25.133  1.00  0.00     0.023 C 
ATOM     11  C   UNL A   1      31.665  27.391  26.270  1.00  0.00     0.020 C 
BRANCH   7  12
ATOM     12  C   UNL A   1      34.106  24.857  23.806  1.00  0.00     0.259 C 
ATOM     13  O   UNL A   1      34.126  24.915  22.576  1.00  0.00    -0.269 OA
BRANCH  12  14
ATOM     14  C   UNL A   1      34.895  23.785  24.435  1.00  0.00     0.102 A 
ATOM     15  C   UNL A   1      34.477  22.464  24.317  1.00  0.00     0.226 A 
ATOM     16  N   UNL A   1      35.150  21.414  24.849  1.00  0.00    -0.221 NA
ATOM     17  C   UNL A   1      36.260  21.705  25.564  1.00  0.00     0.115 A 
ATOM     18  C   UNL A   1      36.029  24.056  25.202  1.00  0.00     0.021 A 
ATOM     19  C   UNL A   1      36.730  22.995  25.771  1.00  0.00     0.021 A 
BRANCH  15  20
ATOM     20  O   UNL A   1      33.267  22.189  23.732  1.00  0.00    -0.477 OA
BRANCH  20  21
ATOM     21  C   UNL A   1      32.547  21.169  24.413  1.00  0.00     0.228 C 
ATOM     22  C   UNL A   1      31.630  21.825  25.432  1.00  0.00     0.049 C 
ENDBRANCH  20  21
ENDBRANCH  15  20
ENDBRANCH  12  14
ENDBRANCH   7  12
BRANCH   6  23
ATOM     23  C   UNL A   1      33.571  28.597  27.289  1.00  0.00     0.015 C 
ATOM     24  C   UNL A   1      34.826  29.458  27.284  1.00  0.00     0.005 C 
ENDBRANCH   6  23
ENDBRANCH   3   6
ENDBRANCH   1   2
BRANCH   1  25
ATOM     25  C   UNL A   1      31.162  32.052  26.200  1.00  0.00     0.042 C 
BRANCH  25  26
ATOM     26  C   UNL A   1      32.473  32.409  26.908  1.00  0.00     0.118 C 
BRANCH  26  27
ATOM     27  N   UNL A   1      32.452  33.750  27.472  1.00  0.00    -0.352 N 
ATOM     28  C   UNL A   1      33.220  34.342  28.446  1.00  0.00     0.251 C 
ATOM     29  H   UNL A   1      31.764  34.339  27.086  1.00  0.00     0.163 HD
ATOM     30  O   UNL A   1      32.860  35.436  28.883  1.00  0.00    -0.269 OA
BRANCH  28  31
ATOM     31  C   UNL A   1      34.448  33.720  29.007  1.00  0.00     0.039 A 
ATOM     32  C   UNL A   1      34.286  32.684  29.937  1.00  0.00     0.014 A 
ATOM     33  C   UNL A   1      35.735  34.195  28.744  1.00  0.00     0.014 A 
ATOM     34  C   UNL A   1      35.398  32.100  30.558  1.00  0.00     0.010 A 
ATOM     35  C   UNL A   1      36.853  33.575  29.330  1.00  0.00     0.010 A 
ATOM     36  C   UNL A   1      36.701  32.517  30.242  1.00  0.00    -0.014 A 
BRANCH  36  37
ATOM     37  C   UNL A   1      37.887  31.846  30.855  1.00  0.00     0.031 A 
ATOM     38  C   UNL A   1      38.631  30.753  30.130  1.00  0.00     0.074 A 
ATOM     39  C   UNL A   1      38.309  32.203  32.087  1.00  0.00     0.049 A 
ATOM     40  N   UNL A   1      39.644  30.026  30.538  1.00  0.00    -0.248 NA
ATOM     41  C   UNL A   1      38.172  30.426  28.772  1.00  0.00     0.031 C 
ATOM     42  C   UNL A   1      37.698  33.234  32.927  1.00  0.00     0.029 A 
ATOM     43  N   UNL A   1      39.352  31.730  32.850  1.00  0.00    -0.354 N 
ATOM     44  C   UNL A   1      39.930  29.146  29.501  1.00  0.00     0.074 A 
ATOM     45  C   UNL A   1      38.965  29.412  28.453  1.00  0.00     0.031 C 
ATOM     46  C   UNL A   1      38.386  33.329  34.076  1.00  0.00     0.029 A 
ATOM     47  C   UNL A   1      39.460  32.339  34.077  1.00  0.00     0.049 A 
ATOM     48  H   UNL A   1      39.963  31.022  32.545  1.00  0.00     0.167 HD
ATOM     49  C   UNL A   1      40.911  28.215  29.417  1.00  0.00     0.037 A 
ATOM     50  C   UNL A   1      40.309  32.119  35.100  1.00  0.00     0.037 A 
ATOM     51  C   UNL A   1      41.904  27.961  30.429  1.00  0.00     0.049 A 
ATOM     52  C   UNL A   1      41.355  31.044  35.002  1.00  0.00     0.074 A 
ATOM     53  C   UNL A   1      42.980  27.088  30.379  1.00  0.00     0.029 A 
ATOM     54  N   UNL A   1      41.945  28.569  31.671  1.00  0.00    -0.354 N 
ATOM     55  N   UNL A   1      41.637  30.254  33.997  1.00  0.00    -0.248 NA
ATOM     56  C   UNL A   1      42.191  30.821  36.194  1.00  0.00     0.031 C 
ATOM     57  C   UNL A   1      43.645  27.136  31.608  1.00  0.00     0.029 A 
ATOM     58  C   UNL A   1      43.005  28.064  32.411  1.00  0.00     0.049 A 
ATOM     59  H   UNL A   1      41.316  29.258  31.985  1.00  0.00     0.167 HD
ATOM     60  C   UNL A   1      42.684  29.449  34.429  1.00  0.00     0.074 A 
ATOM     61  C   UNL A   1      43.002  29.856  35.780  1.00  0.00     0.031 C 
ATOM     62  C   UNL A   1      43.320  28.458  33.759  1.00  0.00     0.037 A 
BRANCH  49  63
ATOM     63  C   UNL A   1      40.967  27.380  28.171  1.00  0.00     0.057 A 
ATOM     64  C   UNL A   1      40.245  26.187  28.051  1.00  0.00     0.134 A 
ATOM     65  C   UNL A   1      41.702  27.810  27.059  1.00  0.00     0.134 A 
ATOM     66  F   UNL A   1      39.526  25.720  29.083  1.00  0.00    -0.206 F 
ATOM     67  C   UNL A   1      40.265  25.440  26.873  1.00  0.00     0.040 A 
ATOM     68  C   UNL A   1      41.713  27.082  25.869  1.00  0.00     0.040 A 
ATOM     69  F   UNL A   1      42.405  28.951  27.106  1.00  0.00    -0.206 F 
ATOM     70  C   UNL A   1      40.997  25.891  25.775  1.00  0.00     0.006 A 
ENDBRANCH  49  63
BRANCH  50  71
ATOM     71  C   UNL A   1      40.197  32.930  36.338  1.00  0.00     0.057 A 
ATOM     72  C   UNL A   1      39.249  32.622  37.318  1.00  0.00     0.134 A 
ATOM     73  C   UNL A   1      41.020  34.041  36.554  1.00  0.00     0.134 A 
ATOM     74  F   UNL A   1      38.412  31.588  37.149  1.00  0.00    -0.206 F 
ATOM     75  C   UNL A   1      39.117  33.396  38.472  1.00  0.00     0.040 A 
ATOM     76  C   UNL A   1      40.914  34.810  37.714  1.00  0.00     0.040 A 
ATOM     77  F   UNL A   1      41.937  34.392  35.642  1.00  0.00    -0.206 F 
ATOM     78  C   UNL A   1      39.956  34.490  38.675  1.00  0.00     0.006 A 
ENDBRANCH  50  71
BRANCH  62  79
ATOM     79  C   UNL A   1      44.427  27.741  34.469  1.00  0.00     0.057 A 
ATOM     80  C   UNL A   1      45.741  28.228  34.457  1.00  0.00     0.134 A 
ATOM     81  C   UNL A   1      44.176  26.578  35.208  1.00  0.00     0.134 A 
ATOM     82  F   UNL A   1      46.051  29.328  33.757  1.00  0.00    -0.206 F 
ATOM     83  C   UNL A   1      46.767  27.576  35.145  1.00  0.00     0.040 A 
ATOM     84  C   UNL A   1      45.189  25.929  35.916  1.00  0.00     0.040 A 
ATOM     85  F   UNL A   1      42.939  26.061  35.266  1.00  0.00    -0.206 F 
ATOM     86  C   UNL A   1      46.490  26.427  35.883  1.00  0.00     0.006 A 
ENDBRANCH  62  79
ENDBRANCH  36  37
ENDBRANCH  28  31
ENDBRANCH  26  27
ENDBRANCH  25  26
ENDBRANCH   1  25
TORSDOF 15
ENDMDL
