MODEL 1
REMARK VINA RESULT:     -11.6      0.000      0.000
REMARK SMILES C[C@@H](O)[C@@H](NC(=O)CCOc1ccc(Br)cc1)C(=O)NCCCNC(=O)c1ccc(-c2c3nc(c(-c4c(F)cccc4F)c4ccc([nH]4)c(-c4c(F)cccc4F)c4nc(c(-c5c(F)cccc5F)c5ccc2[nH]5)C=C4)C=C3)cc1
REMARK SMILES IDX 18 1 19 2 20 3 4 5 2 6 1 7 3 8 5 10 6 11 7 13 8 14 9 15
REMARK SMILES IDX 10 16 11 17 12 18 17 19 13 20 16 21 14 22 15 23 21 24 22 25
REMARK SMILES IDX 23 26 24 27 25 28 26 30 27 31 28 32 80 33 29 34 79 35 30 36
REMARK SMILES IDX 31 37 32 38 73 39 33 40 78 41 72 42 74 43 34 44 77 45 71 46
REMARK SMILES IDX 70 47 35 49 61 50 44 51 60 52 45 53 48 54 59 55 75 56 46 57
REMARK SMILES IDX 47 58 58 60 76 61 49 62 36 63 37 64 42 65 38 66 39 67 41 68
REMARK SMILES IDX 43 69 40 70 62 71 63 72 68 73 64 74 65 75 67 76 69 77 66 78
REMARK SMILES IDX 50 79 51 80 56 81 52 82 53 83 55 84 57 85 54 86
REMARK H PARENT 20 4 3 9 5 12 24 29 74 48 48 59
REMARK Flexibility Score: inf
ROOT
ATOM      1  C   UNL A   1      30.303  28.662  22.613  1.00  0.00     0.245 C 
ATOM      2  O   UNL A   1      29.430  28.954  21.785  1.00  0.00    -0.273 OA
ATOM      3  N   UNL A   1      30.764  29.695  23.380  1.00  0.00    -0.354 N 
ATOM      4  H   UNL A   1      30.753  30.582  22.953  1.00  0.00     0.163 HD
ENDROOT
BRANCH   1   5
ATOM      5  C   UNL A   1      30.726  27.181  22.817  1.00  0.00     0.199 C 
BRANCH   5   6
ATOM      6  C   UNL A   1      29.742  26.270  23.606  1.00  0.00     0.143 C 
ATOM      7  C   UNL A   1      30.251  25.898  24.999  1.00  0.00     0.041 C 
BRANCH   6   8
ATOM      8  O   UNL A   1      28.499  26.966  23.776  1.00  0.00    -0.391 OA
ATOM      9  H   UNL A   1      28.672  27.910  23.912  1.00  0.00     0.211 HD
ENDBRANCH   6   8
ENDBRANCH   5   6
BRANCH   5  10
ATOM     10  N   UNL A   1      31.527  26.519  21.764  1.00  0.00    -0.342 N 
ATOM     11  C   UNL A   1      32.817  26.145  21.603  1.00  0.00     0.224 C 
ATOM     12  H   UNL A   1      30.979  26.291  20.978  1.00  0.00     0.164 HD
ATOM     13  O   UNL A   1      33.183  25.839  20.464  1.00  0.00    -0.275 OA
BRANCH  11  14
ATOM     14  C   UNL A   1      33.766  25.992  22.756  1.00  0.00     0.141 C 
BRANCH  14  15
ATOM     15  C   UNL A   1      33.733  24.597  23.373  1.00  0.00     0.239 C 
BRANCH  15  16
ATOM     16  O   UNL A   1      32.909  23.684  22.644  1.00  0.00    -0.493 OA
BRANCH  16  17
ATOM     17  C   UNL A   1      32.795  22.389  23.061  1.00  0.00     0.119 A 
ATOM     18  C   UNL A   1      32.083  21.377  22.422  1.00  0.00     0.047 A 
ATOM     19  C   UNL A   1      33.488  22.089  24.239  1.00  0.00     0.047 A 
ATOM     20  C   UNL A   1      32.106  20.072  22.923  1.00  0.00     0.019 A 
ATOM     21  C   UNL A   1      33.523  20.786  24.741  1.00  0.00     0.019 A 
ATOM     22  C   UNL A   1      32.834  19.780  24.073  1.00  0.00     0.018 A 
ATOM     23  Br  UNL A   1      32.893  18.008  24.722  1.00  0.00    -0.051 Br
ENDBRANCH  16  17
ENDBRANCH  15  16
ENDBRANCH  14  15
ENDBRANCH  11  14
ENDBRANCH   5  10
ENDBRANCH   1   5
BRANCH   3  24
ATOM     24  C   UNL A   1      31.266  29.655  24.734  1.00  0.00     0.117 C 
BRANCH  24  25
ATOM     25  C   UNL A   1      30.948  30.874  25.571  1.00  0.00     0.042 C 
BRANCH  25  26
ATOM     26  C   UNL A   1      32.025  31.179  26.600  1.00  0.00     0.118 C 
BRANCH  26  27
ATOM     27  N   UNL A   1      32.055  32.575  27.042  1.00  0.00    -0.352 N 
ATOM     28  C   UNL A   1      33.024  33.291  27.714  1.00  0.00     0.251 C 
ATOM     29  H   UNL A   1      31.246  33.090  26.822  1.00  0.00     0.163 HD
ATOM     30  O   UNL A   1      32.808  34.442  28.060  1.00  0.00    -0.269 OA
BRANCH  28  31
ATOM     31  C   UNL A   1      34.306  32.639  28.059  1.00  0.00     0.039 A 
ATOM     32  C   UNL A   1      35.419  33.429  28.356  1.00  0.00     0.014 A 
ATOM     33  C   UNL A   1      34.384  31.254  28.164  1.00  0.00     0.014 A 
ATOM     34  C   UNL A   1      36.566  32.830  28.886  1.00  0.00     0.010 A 
ATOM     35  C   UNL A   1      35.458  30.683  28.830  1.00  0.00     0.010 A 
ATOM     36  C   UNL A   1      36.566  31.461  29.197  1.00  0.00    -0.014 A 
BRANCH  36  37
ATOM     37  C   UNL A   1      37.698  30.800  29.898  1.00  0.00     0.031 A 
ATOM     38  C   UNL A   1      37.953  31.104  31.351  1.00  0.00     0.074 A 
ATOM     39  C   UNL A   1      38.563  30.026  29.210  1.00  0.00     0.049 A 
ATOM     40  N   UNL A   1      38.979  30.788  32.099  1.00  0.00    -0.248 NA
ATOM     41  C   UNL A   1      36.945  31.931  32.040  1.00  0.00     0.031 C 
ATOM     42  C   UNL A   1      38.479  29.711  27.782  1.00  0.00     0.029 A 
ATOM     43  N   UNL A   1      39.698  29.373  29.623  1.00  0.00    -0.354 N 
ATOM     44  C   UNL A   1      38.763  31.418  33.319  1.00  0.00     0.074 A 
ATOM     45  C   UNL A   1      37.549  32.193  33.188  1.00  0.00     0.031 C 
ATOM     46  C   UNL A   1      39.490  28.892  27.450  1.00  0.00     0.029 A 
ATOM     47  C   UNL A   1      40.322  28.662  28.625  1.00  0.00     0.049 A 
ATOM     48  H   UNL A   1      40.035  29.412  30.547  1.00  0.00     0.167 HD
ATOM     49  C   UNL A   1      39.485  31.330  34.461  1.00  0.00     0.037 A 
ATOM     50  C   UNL A   1      41.438  27.910  28.658  1.00  0.00     0.037 A 
ATOM     51  C   UNL A   1      40.646  30.497  34.610  1.00  0.00     0.049 A 
ATOM     52  C   UNL A   1      42.193  27.780  29.952  1.00  0.00     0.074 A 
ATOM     53  C   UNL A   1      41.402  30.265  35.745  1.00  0.00     0.029 A 
ATOM     54  N   UNL A   1      41.206  29.741  33.591  1.00  0.00    -0.354 N 
ATOM     55  N   UNL A   1      41.943  28.334  31.113  1.00  0.00    -0.248 NA
ATOM     56  C   UNL A   1      43.383  26.918  29.939  1.00  0.00     0.031 C 
ATOM     57  C   UNL A   1      42.437  29.388  35.406  1.00  0.00     0.029 A 
ATOM     58  C   UNL A   1      42.302  29.045  34.069  1.00  0.00     0.049 A 
ATOM     59  H   UNL A   1      40.874  29.707  32.665  1.00  0.00     0.167 HD
ATOM     60  C   UNL A   1      42.925  27.864  31.977  1.00  0.00     0.074 A 
ATOM     61  C   UNL A   1      43.766  26.971  31.207  1.00  0.00     0.031 C 
ATOM     62  C   UNL A   1      43.115  28.148  33.288  1.00  0.00     0.037 A 
BRANCH  49  63
ATOM     63  C   UNL A   1      39.016  32.138  35.637  1.00  0.00     0.057 A 
ATOM     64  C   UNL A   1      38.176  31.593  36.619  1.00  0.00     0.134 A 
ATOM     65  C   UNL A   1      39.407  33.473  35.792  1.00  0.00     0.134 A 
ATOM     66  F   UNL A   1      37.751  30.324  36.524  1.00  0.00    -0.206 F 
ATOM     67  C   UNL A   1      37.710  32.359  37.688  1.00  0.00     0.040 A 
ATOM     68  C   UNL A   1      38.973  34.239  36.876  1.00  0.00     0.040 A 
ATOM     69  F   UNL A   1      40.214  34.056  34.893  1.00  0.00    -0.206 F 
ATOM     70  C   UNL A   1      38.112  33.685  37.822  1.00  0.00     0.006 A 
ENDBRANCH  49  63
BRANCH  50  71
ATOM     71  C   UNL A   1      41.885  27.183  27.442  1.00  0.00     0.057 A 
ATOM     72  C   UNL A   1      42.695  27.813  26.489  1.00  0.00     0.134 A 
ATOM     73  C   UNL A   1      41.514  25.856  27.196  1.00  0.00     0.134 A 
ATOM     74  F   UNL A   1      43.068  29.090  26.661  1.00  0.00    -0.206 F 
ATOM     75  C   UNL A   1      43.103  27.160  25.326  1.00  0.00     0.040 A 
ATOM     76  C   UNL A   1      41.935  25.181  26.047  1.00  0.00     0.040 A 
ATOM     77  F   UNL A   1      40.748  25.191  28.073  1.00  0.00    -0.206 F 
ATOM     78  C   UNL A   1      42.725  25.837  25.105  1.00  0.00     0.006 A 
ENDBRANCH  50  71
BRANCH  62  79
ATOM     79  C   UNL A   1      44.249  27.456  33.982  1.00  0.00     0.057 A 
ATOM     80  C   UNL A   1      45.520  28.035  34.074  1.00  0.00     0.134 A 
ATOM     81  C   UNL A   1      44.051  26.217  34.605  1.00  0.00     0.134 A 
ATOM     82  F   UNL A   1      45.775  29.214  33.487  1.00  0.00    -0.206 F 
ATOM     83  C   UNL A   1      46.562  27.395  34.748  1.00  0.00     0.040 A 
ATOM     84  C   UNL A   1      45.077  25.581  35.302  1.00  0.00     0.040 A 
ATOM     85  F   UNL A   1      42.853  25.616  34.558  1.00  0.00    -0.206 F 
ATOM     86  C   UNL A   1      46.339  26.169  35.371  1.00  0.00     0.006 A 
ENDBRANCH  62  79
ENDBRANCH  36  37
ENDBRANCH  28  31
ENDBRANCH  26  27
ENDBRANCH  25  26
ENDBRANCH  24  25
ENDBRANCH   3  24
TORSDOF 17
ENDMDL
MODEL 2
REMARK VINA RESULT:     -11.5      3.553      4.650
REMARK SMILES C[C@@H](O)[C@@H](NC(=O)CCOc1ccc(Br)cc1)C(=O)NCCCNC(=O)c1ccc(-c2c3nc(c(-c4c(F)cccc4F)c4ccc([nH]4)c(-c4c(F)cccc4F)c4nc(c(-c5c(F)cccc5F)c5ccc2[nH]5)C=C4)C=C3)cc1
REMARK SMILES IDX 18 1 19 2 20 3 4 5 2 6 1 7 3 8 5 10 6 11 7 13 8 14 9 15
REMARK SMILES IDX 10 16 11 17 12 18 17 19 13 20 16 21 14 22 15 23 21 24 22 25
REMARK SMILES IDX 23 26 24 27 25 28 26 30 27 31 28 32 80 33 29 34 79 35 30 36
REMARK SMILES IDX 31 37 32 38 73 39 33 40 78 41 72 42 74 43 34 44 77 45 71 46
REMARK SMILES IDX 70 47 35 49 61 50 44 51 60 52 45 53 48 54 59 55 75 56 46 57
REMARK SMILES IDX 47 58 58 60 76 61 49 62 36 63 37 64 42 65 38 66 39 67 41 68
REMARK SMILES IDX 43 69 40 70 62 71 63 72 68 73 64 74 65 75 67 76 69 77 66 78
REMARK SMILES IDX 50 79 51 80 56 81 52 82 53 83 55 84 57 85 54 86
REMARK H PARENT 20 4 3 9 5 12 24 29 74 48 48 59
REMARK Flexibility Score: inf
ROOT
ATOM      1  C   UNL A   1      30.298  28.325  23.304  1.00  0.00     0.245 C 
ATOM      2  O   UNL A   1      29.345  28.713  22.616  1.00  0.00    -0.273 OA
ATOM      3  N   UNL A   1      30.885  29.274  24.096  1.00  0.00    -0.354 N 
ATOM      4  H   UNL A   1      30.856  30.195  23.751  1.00  0.00     0.163 HD
ENDROOT
BRANCH   1   5
ATOM      5  C   UNL A   1      30.688  26.823  23.327  1.00  0.00     0.199 C 
BRANCH   5   6
ATOM      6  C   UNL A   1      29.682  25.844  24.000  1.00  0.00     0.143 C 
ATOM      7  C   UNL A   1      29.863  25.739  25.514  1.00  0.00     0.041 C 
BRANCH   6   8
ATOM      8  O   UNL A   1      28.347  26.314  23.760  1.00  0.00    -0.391 OA
ATOM      9  H   UNL A   1      27.982  25.870  22.980  1.00  0.00     0.211 HD
ENDBRANCH   6   8
ENDBRANCH   5   6
BRANCH   5  10
ATOM     10  N   UNL A   1      31.477  26.275  22.202  1.00  0.00    -0.342 N 
ATOM     11  C   UNL A   1      32.760  26.346  21.778  1.00  0.00     0.224 C 
ATOM     12  H   UNL A   1      30.927  25.714  21.609  1.00  0.00     0.164 HD
ATOM     13  O   UNL A   1      33.003  25.956  20.633  1.00  0.00    -0.275 OA
BRANCH  11  14
ATOM     14  C   UNL A   1      33.886  26.774  22.674  1.00  0.00     0.141 C 
BRANCH  14  15
ATOM     15  C   UNL A   1      33.823  26.133  24.057  1.00  0.00     0.239 C 
BRANCH  15  16
ATOM     16  O   UNL A   1      33.766  24.704  24.008  1.00  0.00    -0.493 OA
BRANCH  16  17
ATOM     17  C   UNL A   1      34.867  23.968  24.339  1.00  0.00     0.119 A 
ATOM     18  C   UNL A   1      35.536  23.070  23.512  1.00  0.00     0.047 A 
ATOM     19  C   UNL A   1      35.344  24.178  25.638  1.00  0.00     0.047 A 
ATOM     20  C   UNL A   1      36.696  22.429  23.958  1.00  0.00     0.019 A 
ATOM     21  C   UNL A   1      36.506  23.548  26.087  1.00  0.00     0.019 A 
ATOM     22  C   UNL A   1      37.182  22.679  25.238  1.00  0.00     0.018 A 
ATOM     23  Br  UNL A   1      38.772  21.841  25.819  1.00  0.00    -0.051 Br
ENDBRANCH  16  17
ENDBRANCH  15  16
ENDBRANCH  14  15
ENDBRANCH  11  14
ENDBRANCH   5  10
ENDBRANCH   1   5
BRANCH   3  24
ATOM     24  C   UNL A   1      31.541  29.099  25.370  1.00  0.00     0.117 C 
BRANCH  24  25
ATOM     25  C   UNL A   1      33.004  29.482  25.395  1.00  0.00     0.042 C 
BRANCH  25  26
ATOM     26  C   UNL A   1      33.654  29.243  26.749  1.00  0.00     0.118 C 
BRANCH  26  27
ATOM     27  N   UNL A   1      33.739  30.437  27.593  1.00  0.00    -0.352 N 
ATOM     28  C   UNL A   1      34.757  30.906  28.396  1.00  0.00     0.251 C 
ATOM     29  H   UNL A   1      32.932  31.001  27.585  1.00  0.00     0.163 HD
ATOM     30  O   UNL A   1      34.587  31.898  29.089  1.00  0.00    -0.269 OA
BRANCH  28  31
ATOM     31  C   UNL A   1      36.039  30.170  28.456  1.00  0.00     0.039 A 
ATOM     32  C   UNL A   1      36.936  30.267  27.390  1.00  0.00     0.014 A 
ATOM     33  C   UNL A   1      36.383  29.450  29.596  1.00  0.00     0.014 A 
ATOM     34  C   UNL A   1      38.228  29.751  27.529  1.00  0.00     0.010 A 
ATOM     35  C   UNL A   1      37.704  29.078  29.790  1.00  0.00     0.010 A 
ATOM     36  C   UNL A   1      38.645  29.219  28.760  1.00  0.00    -0.014 A 
BRANCH  36  37
ATOM     37  C   UNL A   1      40.047  28.794  29.013  1.00  0.00     0.031 A 
ATOM     38  C   UNL A   1      41.011  29.756  29.657  1.00  0.00     0.074 A 
ATOM     39  C   UNL A   1      40.487  27.601  28.562  1.00  0.00     0.049 A 
ATOM     40  N   UNL A   1      42.308  29.662  29.800  1.00  0.00    -0.248 NA
ATOM     41  C   UNL A   1      40.448  31.026  30.151  1.00  0.00     0.031 C 
ATOM     42  C   UNL A   1      39.679  26.604  27.854  1.00  0.00     0.029 A 
ATOM     43  N   UNL A   1      41.733  27.029  28.623  1.00  0.00    -0.354 N 
ATOM     44  C   UNL A   1      42.715  30.873  30.348  1.00  0.00     0.074 A 
ATOM     45  C   UNL A   1      41.541  31.711  30.443  1.00  0.00     0.031 C 
ATOM     46  C   UNL A   1      40.438  25.530  27.587  1.00  0.00     0.029 A 
ATOM     47  C   UNL A   1      41.796  25.777  28.058  1.00  0.00     0.049 A 
ATOM     48  H   UNL A   1      42.510  27.474  29.031  1.00  0.00     0.167 HD
ATOM     49  C   UNL A   1      43.946  31.243  30.773  1.00  0.00     0.037 A 
ATOM     50  C   UNL A   1      42.832  24.926  27.936  1.00  0.00     0.037 A 
ATOM     51  C   UNL A   1      45.093  30.378  30.751  1.00  0.00     0.049 A 
ATOM     52  C   UNL A   1      44.178  25.336  28.467  1.00  0.00     0.074 A 
ATOM     53  C   UNL A   1      46.366  30.619  31.235  1.00  0.00     0.029 A 
ATOM     54  N   UNL A   1      45.097  29.093  30.229  1.00  0.00    -0.354 N 
ATOM     55  N   UNL A   1      44.534  26.461  29.037  1.00  0.00    -0.248 NA
ATOM     56  C   UNL A   1      45.265  24.355  28.340  1.00  0.00     0.031 C 
ATOM     57  C   UNL A   1      47.148  29.487  30.983  1.00  0.00     0.029 A 
ATOM     58  C   UNL A   1      46.352  28.529  30.376  1.00  0.00     0.049 A 
ATOM     59  H   UNL A   1      44.322  28.649  29.815  1.00  0.00     0.167 HD
ATOM     60  C   UNL A   1      45.876  26.313  29.365  1.00  0.00     0.074 A 
ATOM     61  C   UNL A   1      46.266  24.984  28.940  1.00  0.00     0.031 C 
ATOM     62  C   UNL A   1      46.712  27.198  29.961  1.00  0.00     0.037 A 
BRANCH  49  63
ATOM     63  C   UNL A   1      44.097  32.633  31.321  1.00  0.00     0.057 A 
ATOM     64  C   UNL A   1      44.447  33.717  30.503  1.00  0.00     0.134 A 
ATOM     65  C   UNL A   1      43.889  32.894  32.681  1.00  0.00     0.134 A 
ATOM     66  F   UNL A   1      44.675  33.534  29.193  1.00  0.00    -0.206 F 
ATOM     67  C   UNL A   1      44.625  34.998  31.024  1.00  0.00     0.040 A 
ATOM     68  C   UNL A   1      44.032  34.179  33.208  1.00  0.00     0.040 A 
ATOM     69  F   UNL A   1      43.545  31.906  33.521  1.00  0.00    -0.206 F 
ATOM     70  C   UNL A   1      44.413  35.234  32.380  1.00  0.00     0.006 A 
ENDBRANCH  49  63
BRANCH  50  71
ATOM     71  C   UNL A   1      42.631  23.586  27.329  1.00  0.00     0.057 A 
ATOM     72  C   UNL A   1      42.259  22.492  28.119  1.00  0.00     0.134 A 
ATOM     73  C   UNL A   1      42.810  23.360  25.959  1.00  0.00     0.134 A 
ATOM     74  F   UNL A   1      42.090  22.642  29.441  1.00  0.00    -0.206 F 
ATOM     75  C   UNL A   1      42.093  21.217  27.576  1.00  0.00     0.040 A 
ATOM     76  C   UNL A   1      42.624  22.095  25.397  1.00  0.00     0.040 A 
ATOM     77  F   UNL A   1      43.156  24.368  25.145  1.00  0.00    -0.206 F 
ATOM     78  C   UNL A   1      42.272  21.018  26.208  1.00  0.00     0.006 A 
ENDBRANCH  50  71
BRANCH  62  79
ATOM     79  C   UNL A   1      48.115  26.743  30.226  1.00  0.00     0.057 A 
ATOM     80  C   UNL A   1      49.162  27.027  29.341  1.00  0.00     0.134 A 
ATOM     81  C   UNL A   1      48.428  26.054  31.405  1.00  0.00     0.134 A 
ATOM     82  F   UNL A   1      48.923  27.672  28.189  1.00  0.00    -0.206 F 
ATOM     83  C   UNL A   1      50.471  26.625  29.612  1.00  0.00     0.040 A 
ATOM     84  C   UNL A   1      49.736  25.669  31.697  1.00  0.00     0.040 A 
ATOM     85  F   UNL A   1      47.470  25.759  32.296  1.00  0.00    -0.206 F 
ATOM     86  C   UNL A   1      50.761  25.951  30.796  1.00  0.00     0.006 A 
ENDBRANCH  62  79
ENDBRANCH  36  37
ENDBRANCH  28  31
ENDBRANCH  26  27
ENDBRANCH  25  26
ENDBRANCH  24  25
ENDBRANCH   3  24
TORSDOF 17
ENDMDL
MODEL 3
REMARK VINA RESULT:     -11.5      4.391      9.081
REMARK SMILES C[C@@H](O)[C@@H](NC(=O)CCOc1ccc(Br)cc1)C(=O)NCCCNC(=O)c1ccc(-c2c3nc(c(-c4c(F)cccc4F)c4ccc([nH]4)c(-c4c(F)cccc4F)c4nc(c(-c5c(F)cccc5F)c5ccc2[nH]5)C=C4)C=C3)cc1
REMARK SMILES IDX 18 1 19 2 20 3 4 5 2 6 1 7 3 8 5 10 6 11 7 13 8 14 9 15
REMARK SMILES IDX 10 16 11 17 12 18 17 19 13 20 16 21 14 22 15 23 21 24 22 25
REMARK SMILES IDX 23 26 24 27 25 28 26 30 27 31 28 32 80 33 29 34 79 35 30 36
REMARK SMILES IDX 31 37 32 38 73 39 33 40 78 41 72 42 74 43 34 44 77 45 71 46
REMARK SMILES IDX 70 47 35 49 61 50 44 51 60 52 45 53 48 54 59 55 75 56 46 57
REMARK SMILES IDX 47 58 58 60 76 61 49 62 36 63 37 64 42 65 38 66 39 67 41 68
REMARK SMILES IDX 43 69 40 70 62 71 63 72 68 73 64 74 65 75 67 76 69 77 66 78
REMARK SMILES IDX 50 79 51 80 56 81 52 82 53 83 55 84 57 85 54 86
REMARK H PARENT 20 4 3 9 5 12 24 29 74 48 48 59
REMARK Flexibility Score: inf
ROOT
ATOM      1  C   UNL A   1      34.109  20.912  25.997  1.00  0.00     0.245 C 
ATOM      2  O   UNL A   1      33.654  21.291  27.084  1.00  0.00    -0.273 OA
ATOM      3  N   UNL A   1      35.465  21.017  25.851  1.00  0.00    -0.354 N 
ATOM      4  H   UNL A   1      35.892  21.753  26.345  1.00  0.00     0.163 HD
ENDROOT
BRANCH   1   5
ATOM      5  C   UNL A   1      33.177  20.252  24.945  1.00  0.00     0.199 C 
BRANCH   5   6
ATOM      6  C   UNL A   1      32.629  18.835  25.280  1.00  0.00     0.143 C 
ATOM      7  C   UNL A   1      33.238  17.732  24.414  1.00  0.00     0.041 C 
BRANCH   6   8
ATOM      8  O   UNL A   1      32.942  18.527  26.647  1.00  0.00    -0.391 OA
ATOM      9  H   UNL A   1      33.176  19.341  27.117  1.00  0.00     0.211 HD
ENDBRANCH   6   8
ENDBRANCH   5   6
BRANCH   5  10
ATOM     10  N   UNL A   1      32.293  21.118  24.135  1.00  0.00    -0.342 N 
ATOM     11  C   UNL A   1      32.409  22.293  23.474  1.00  0.00     0.224 C 
ATOM     12  H   UNL A   1      31.386  20.742  24.055  1.00  0.00     0.164 HD
ATOM     13  O   UNL A   1      31.367  22.848  23.113  1.00  0.00    -0.275 OA
BRANCH  11  14
ATOM     14  C   UNL A   1      33.737  22.874  23.083  1.00  0.00     0.141 C 
BRANCH  14  15
ATOM     15  C   UNL A   1      34.009  24.228  23.732  1.00  0.00     0.239 C 
BRANCH  15  16
ATOM     16  O   UNL A   1      33.402  24.360  25.021  1.00  0.00    -0.493 OA
BRANCH  16  17
ATOM     17  C   UNL A   1      33.021  25.592  25.470  1.00  0.00     0.119 A 
ATOM     18  C   UNL A   1      31.762  25.940  25.954  1.00  0.00     0.047 A 
ATOM     19  C   UNL A   1      34.027  26.565  25.438  1.00  0.00     0.047 A 
ATOM     20  C   UNL A   1      31.526  27.226  26.447  1.00  0.00     0.019 A 
ATOM     21  C   UNL A   1      33.801  27.849  25.937  1.00  0.00     0.019 A 
ATOM     22  C   UNL A   1      32.548  28.171  26.447  1.00  0.00     0.018 A 
ATOM     23  Br  UNL A   1      32.234  29.895  27.152  1.00  0.00    -0.051 Br
ENDBRANCH  16  17
ENDBRANCH  15  16
ENDBRANCH  14  15
ENDBRANCH  11  14
ENDBRANCH   5  10
ENDBRANCH   1   5
BRANCH   3  24
ATOM     24  C   UNL A   1      36.350  20.188  25.066  1.00  0.00     0.117 C 
BRANCH  24  25
ATOM     25  C   UNL A   1      37.660  20.838  24.681  1.00  0.00     0.042 C 
BRANCH  25  26
ATOM     26  C   UNL A   1      38.671  20.844  25.817  1.00  0.00     0.118 C 
BRANCH  26  27
ATOM     27  N   UNL A   1      39.673  19.780  25.735  1.00  0.00    -0.352 N 
ATOM     28  C   UNL A   1      41.021  19.781  26.030  1.00  0.00     0.251 C 
ATOM     29  H   UNL A   1      39.327  18.916  25.414  1.00  0.00     0.163 HD
ATOM     30  O   UNL A   1      41.699  18.789  25.809  1.00  0.00    -0.269 OA
BRANCH  28  31
ATOM     31  C   UNL A   1      41.650  21.007  26.566  1.00  0.00     0.039 A 
ATOM     32  C   UNL A   1      42.174  21.953  25.681  1.00  0.00     0.014 A 
ATOM     33  C   UNL A   1      41.653  21.255  27.935  1.00  0.00     0.014 A 
ATOM     34  C   UNL A   1      42.575  23.201  26.167  1.00  0.00     0.010 A 
ATOM     35  C   UNL A   1      41.905  22.540  28.392  1.00  0.00     0.010 A 
ATOM     36  C   UNL A   1      42.373  23.530  27.516  1.00  0.00    -0.014 A 
BRANCH  36  37
ATOM     37  C   UNL A   1      42.640  24.889  28.057  1.00  0.00     0.031 A 
ATOM     38  C   UNL A   1      44.028  25.247  28.519  1.00  0.00     0.074 A 
ATOM     39  C   UNL A   1      41.623  25.757  28.243  1.00  0.00     0.049 A 
ATOM     40  N   UNL A   1      44.437  26.296  29.185  1.00  0.00    -0.248 NA
ATOM     41  C   UNL A   1      45.088  24.259  28.252  1.00  0.00     0.031 C 
ATOM     42  C   UNL A   1      40.218  25.511  27.911  1.00  0.00     0.029 A 
ATOM     43  N   UNL A   1      41.617  27.022  28.775  1.00  0.00    -0.354 N 
ATOM     44  C   UNL A   1      45.781  26.067  29.457  1.00  0.00     0.074 A 
ATOM     45  C   UNL A   1      46.099  24.751  28.951  1.00  0.00     0.031 C 
ATOM     46  C   UNL A   1      39.497  26.605  28.205  1.00  0.00     0.029 A 
ATOM     47  C   UNL A   1      40.375  27.611  28.790  1.00  0.00     0.049 A 
ATOM     48  H   UNL A   1      42.427  27.467  29.115  1.00  0.00     0.167 HD
ATOM     49  C   UNL A   1      46.683  26.892  30.039  1.00  0.00     0.037 A 
ATOM     50  C   UNL A   1      39.990  28.825  29.227  1.00  0.00     0.037 A 
ATOM     51  C   UNL A   1      46.383  28.229  30.469  1.00  0.00     0.049 A 
ATOM     52  C   UNL A   1      41.020  29.748  29.818  1.00  0.00     0.074 A 
ATOM     53  C   UNL A   1      47.238  29.182  30.991  1.00  0.00     0.029 A 
ATOM     54  N   UNL A   1      45.124  28.810  30.406  1.00  0.00    -0.354 N 
ATOM     55  N   UNL A   1      42.300  29.540  30.014  1.00  0.00    -0.248 NA
ATOM     56  C   UNL A   1      40.553  31.073  30.245  1.00  0.00     0.031 C 
ATOM     57  C   UNL A   1      46.493  30.332  31.268  1.00  0.00     0.029 A 
ATOM     58  C   UNL A   1      45.180  30.107  30.884  1.00  0.00     0.049 A 
ATOM     59  H   UNL A   1      44.312  28.365  30.073  1.00  0.00     0.167 HD
ATOM     60  C   UNL A   1      42.796  30.718  30.558  1.00  0.00     0.074 A 
ATOM     61  C   UNL A   1      41.682  31.639  30.649  1.00  0.00     0.031 C 
ATOM     62  C   UNL A   1      44.060  31.011  30.950  1.00  0.00     0.037 A 
BRANCH  49  63
ATOM     63  C   UNL A   1      48.081  26.371  30.214  1.00  0.00     0.057 A 
ATOM     64  C   UNL A   1      48.490  25.733  31.394  1.00  0.00     0.134 A 
ATOM     65  C   UNL A   1      49.030  26.508  29.193  1.00  0.00     0.134 A 
ATOM     66  F   UNL A   1      47.636  25.582  32.417  1.00  0.00    -0.206 F 
ATOM     67  C   UNL A   1      49.800  25.287  31.567  1.00  0.00     0.040 A 
ATOM     68  C   UNL A   1      50.335  26.036  29.343  1.00  0.00     0.040 A 
ATOM     69  F   UNL A   1      48.705  27.102  28.036  1.00  0.00    -0.206 F 
ATOM     70  C   UNL A   1      50.727  25.433  30.537  1.00  0.00     0.006 A 
ENDBRANCH  49  63
BRANCH  50  71
ATOM     71  C   UNL A   1      38.578  29.259  29.081  1.00  0.00     0.057 A 
ATOM     72  C   UNL A   1      37.698  29.209  30.169  1.00  0.00     0.134 A 
ATOM     73  C   UNL A   1      38.069  29.723  27.862  1.00  0.00     0.134 A 
ATOM     74  F   UNL A   1      38.122  28.758  31.358  1.00  0.00    -0.206 F 
ATOM     75  C   UNL A   1      36.359  29.584  30.048  1.00  0.00     0.040 A 
ATOM     76  C   UNL A   1      36.737  30.125  27.732  1.00  0.00     0.040 A 
ATOM     77  F   UNL A   1      38.861  29.805  26.783  1.00  0.00    -0.206 F 
ATOM     78  C   UNL A   1      35.877  30.048  28.826  1.00  0.00     0.006 A 
ENDBRANCH  50  71
BRANCH  62  79
ATOM     79  C   UNL A   1      44.313  32.393  31.472  1.00  0.00     0.057 A 
ATOM     80  C   UNL A   1      44.239  32.690  32.838  1.00  0.00     0.134 A 
ATOM     81  C   UNL A   1      44.681  33.426  30.600  1.00  0.00     0.134 A 
ATOM     82  F   UNL A   1      43.879  31.746  33.721  1.00  0.00    -0.206 F 
ATOM     83  C   UNL A   1      44.505  33.974  33.317  1.00  0.00     0.040 A 
ATOM     84  C   UNL A   1      44.972  34.705  31.071  1.00  0.00     0.040 A 
ATOM     85  F   UNL A   1      44.776  33.202  29.281  1.00  0.00    -0.206 F 
ATOM     86  C   UNL A   1      44.881  34.983  32.433  1.00  0.00     0.006 A 
ENDBRANCH  62  79
ENDBRANCH  36  37
ENDBRANCH  28  31
ENDBRANCH  26  27
ENDBRANCH  25  26
ENDBRANCH  24  25
ENDBRANCH   3  24
TORSDOF 17
ENDMDL
