MODEL 1
REMARK VINA RESULT:     -12.6      0.000      0.000
REMARK SMILES Cc1cc2c(c(C)c1Cl)C=C(C(=O)NCCCNC(=O)c1ccc(-c3c4nc(c(-c5c(F)cccc5F)c5ccc([nH]5)c(-c5c(F)cccc5F)c5nc(c(-c6c(F)cccc6F)c6ccc3[nH]6)C=C5)C=C4)cc1)[C@@H](C(F)(F)F)O2
REMARK SMILES IDX 16 1 15 2 14 3 12 4 13 5 11 7 1 8 2 9 3 10 8 11 4 12 6 13
REMARK SMILES IDX 9 14 5 15 80 16 7 17 10 18 75 19 76 20 77 21 78 22 79 23
REMARK SMILES IDX 17 24 18 25 19 26 20 28 21 29 22 30 74 31 23 32 73 33 24 34
REMARK SMILES IDX 25 35 26 36 67 37 27 38 72 39 66 40 68 41 28 42 71 43 65 44
REMARK SMILES IDX 64 45 29 47 55 48 38 49 54 50 39 51 42 52 53 53 69 54 40 55
REMARK SMILES IDX 41 56 52 58 70 59 43 60 30 61 31 62 36 63 32 64 33 65 35 66
REMARK SMILES IDX 37 67 34 68 56 69 57 70 62 71 58 72 59 73 61 74 63 75 60 76
REMARK SMILES IDX 44 77 45 78 50 79 46 80 47 81 49 82 51 83 48 84
REMARK H PARENT 14 6 18 27 68 46 42 57
REMARK Flexibility Score: inf
ROOT
ATOM      1  C   UNL A   1      37.695  19.596  24.854  1.00  0.00     0.042 C 
ENDROOT
BRANCH   1   2
ATOM      2  C   UNL A   1      36.398  20.381  24.977  1.00  0.00     0.118 C 
BRANCH   2   3
ATOM      3  N   UNL A   1      35.234  19.511  24.940  1.00  0.00    -0.352 N 
ATOM      4  C   UNL A   1      33.888  19.649  24.958  1.00  0.00     0.251 C 
ATOM      5  O   UNL A   1      33.252  18.591  24.914  1.00  0.00    -0.270 OA
ATOM      6  H   UNL A   1      35.496  18.563  24.890  1.00  0.00     0.163 HD
BRANCH   4   7
ATOM      7  C   UNL A   1      33.162  20.949  25.026  1.00  0.00     0.067 C 
ATOM      8  C   UNL A   1      30.085  26.598  24.085  1.00  0.00     0.046 C 
ATOM      9  C   UNL A   1      30.923  25.355  23.961  1.00  0.00    -0.028 A 
ATOM     10  C   UNL A   1      30.914  24.466  25.039  1.00  0.00     0.052 A 
ATOM     11  C   UNL A   1      31.653  25.012  22.804  1.00  0.00     0.047 A 
ATOM     12  C   UNL A   1      31.638  23.282  24.985  1.00  0.00     0.128 A 
ATOM     13  C   UNL A   1      32.403  23.809  22.741  1.00  0.00    -0.021 A 
ATOM     14  Cl  UNL A   1      31.592  26.083  21.437  1.00  0.00    -0.084 Cl
ATOM     15  C   UNL A   1      32.382  22.934  23.854  1.00  0.00     0.022 A 
ATOM     16  O   UNL A   1      31.522  22.483  26.086  1.00  0.00    -0.475 OA
ATOM     17  C   UNL A   1      33.209  23.434  21.518  1.00  0.00     0.047 C 
ATOM     18  C   UNL A   1      33.066  21.636  23.873  1.00  0.00     0.026 C 
ATOM     19  C   UNL A   1      32.576  21.511  26.284  1.00  0.00     0.314 C 
BRANCH  19  20
ATOM     20  C   UNL A   1      33.640  22.094  27.233  1.00  0.00     0.429 C 
ATOM     21  F   UNL A   1      33.046  22.714  28.283  1.00  0.00    -0.167 F 
ATOM     22  F   UNL A   1      34.447  21.142  27.760  1.00  0.00    -0.167 F 
ATOM     23  F   UNL A   1      34.444  22.996  26.629  1.00  0.00    -0.167 F 
ENDBRANCH  19  20
ENDBRANCH   4   7
ENDBRANCH   2   3
ENDBRANCH   1   2
BRANCH   1  24
ATOM     24  C   UNL A   1      38.807  20.198  25.700  1.00  0.00     0.118 C 
BRANCH  24  25
ATOM     25  N   UNL A   1      39.947  19.292  25.821  1.00  0.00    -0.352 N 
ATOM     26  C   UNL A   1      41.270  19.561  26.063  1.00  0.00     0.251 C 
ATOM     27  H   UNL A   1      39.731  18.337  25.712  1.00  0.00     0.163 HD
ATOM     28  O   UNL A   1      42.121  18.702  25.844  1.00  0.00    -0.269 OA
BRANCH  26  29
ATOM     29  C   UNL A   1      41.666  20.882  26.581  1.00  0.00     0.039 A 
ATOM     30  C   UNL A   1      42.136  21.855  25.697  1.00  0.00     0.014 A 
ATOM     31  C   UNL A   1      41.588  21.150  27.949  1.00  0.00     0.014 A 
ATOM     32  C   UNL A   1      42.465  23.120  26.184  1.00  0.00     0.010 A 
ATOM     33  C   UNL A   1      41.811  22.436  28.415  1.00  0.00     0.010 A 
ATOM     34  C   UNL A   1      42.269  23.430  27.540  1.00  0.00    -0.014 A 
BRANCH  34  35
ATOM     35  C   UNL A   1      42.568  24.777  28.076  1.00  0.00     0.031 A 
ATOM     36  C   UNL A   1      43.977  25.129  28.464  1.00  0.00     0.074 A 
ATOM     37  C   UNL A   1      41.565  25.655  28.265  1.00  0.00     0.049 A 
ATOM     38  N   UNL A   1      44.433  26.228  29.006  1.00  0.00    -0.248 NA
ATOM     39  C   UNL A   1      45.006  24.099  28.242  1.00  0.00     0.031 C 
ATOM     40  C   UNL A   1      40.153  25.405  27.966  1.00  0.00     0.029 A 
ATOM     41  N   UNL A   1      41.580  26.937  28.753  1.00  0.00    -0.354 N 
ATOM     42  C   UNL A   1      45.793  26.019  29.191  1.00  0.00     0.074 A 
ATOM     43  C   UNL A   1      46.078  24.665  28.775  1.00  0.00     0.031 C 
ATOM     44  C   UNL A   1      39.444  26.513  28.237  1.00  0.00     0.029 A 
ATOM     45  C   UNL A   1      40.342  27.535  28.767  1.00  0.00     0.049 A 
ATOM     46  H   UNL A   1      42.399  27.387  29.062  1.00  0.00     0.167 HD
ATOM     47  C   UNL A   1      46.728  26.890  29.633  1.00  0.00     0.037 A 
ATOM     48  C   UNL A   1      39.978  28.769  29.162  1.00  0.00     0.037 A 
ATOM     49  C   UNL A   1      46.440  28.245  30.019  1.00  0.00     0.049 A 
ATOM     50  C   UNL A   1      41.031  29.712  29.674  1.00  0.00     0.074 A 
ATOM     51  C   UNL A   1      47.321  29.225  30.439  1.00  0.00     0.029 A 
ATOM     52  N   UNL A   1      45.174  28.811  30.025  1.00  0.00    -0.354 N 
ATOM     53  N   UNL A   1      42.323  29.519  29.792  1.00  0.00    -0.248 NA
ATOM     54  C   UNL A   1      40.579  31.041  30.106  1.00  0.00     0.031 C 
ATOM     55  C   UNL A   1      46.582  30.370  30.744  1.00  0.00     0.029 A 
ATOM     56  C   UNL A   1      45.248  30.121  30.464  1.00  0.00     0.049 A 
ATOM     57  H   UNL A   1      44.347  28.349  29.757  1.00  0.00     0.167 HD
ATOM     58  C   UNL A   1      42.842  30.708  30.286  1.00  0.00     0.074 A 
ATOM     59  C   UNL A   1      41.726  31.621  30.434  1.00  0.00     0.031 C 
ATOM     60  C   UNL A   1      44.125  31.016  30.594  1.00  0.00     0.037 A 
BRANCH  47  61
ATOM     61  C   UNL A   1      48.150  26.415  29.699  1.00  0.00     0.057 A 
ATOM     62  C   UNL A   1      48.658  25.778  30.840  1.00  0.00     0.134 A 
ATOM     63  C   UNL A   1      49.004  26.544  28.597  1.00  0.00     0.134 A 
ATOM     64  F   UNL A   1      47.897  25.636  31.936  1.00  0.00    -0.206 F 
ATOM     65  C   UNL A   1      49.969  25.302  30.887  1.00  0.00     0.040 A 
ATOM     66  C   UNL A   1      50.307  26.046  28.622  1.00  0.00     0.040 A 
ATOM     67  F   UNL A   1      48.579  27.141  27.472  1.00  0.00    -0.206 F 
ATOM     68  C   UNL A   1      50.794  25.426  29.771  1.00  0.00     0.006 A 
ENDBRANCH  47  61
BRANCH  48  69
ATOM     69  C   UNL A   1      38.559  29.193  29.044  1.00  0.00     0.057 A 
ATOM     70  C   UNL A   1      38.053  29.678  27.832  1.00  0.00     0.134 A 
ATOM     71  C   UNL A   1      37.672  29.106  30.124  1.00  0.00     0.134 A 
ATOM     72  F   UNL A   1      38.857  29.798  26.766  1.00  0.00    -0.206 F 
ATOM     73  C   UNL A   1      36.720  30.070  27.700  1.00  0.00     0.040 A 
ATOM     74  C   UNL A   1      36.330  29.471  29.998  1.00  0.00     0.040 A 
ATOM     75  F   UNL A   1      38.090  28.641  31.310  1.00  0.00    -0.206 F 
ATOM     76  C   UNL A   1      35.852  29.960  28.784  1.00  0.00     0.006 A 
ENDBRANCH  48  69
BRANCH  60  77
ATOM     77  C   UNL A   1      44.406  32.399  31.103  1.00  0.00     0.057 A 
ATOM     78  C   UNL A   1      44.460  32.681  32.473  1.00  0.00     0.134 A 
ATOM     79  C   UNL A   1      44.715  33.436  30.212  1.00  0.00     0.134 A 
ATOM     80  F   UNL A   1      44.165  31.733  33.375  1.00  0.00    -0.206 F 
ATOM     81  C   UNL A   1      44.804  33.950  32.941  1.00  0.00     0.040 A 
ATOM     82  C   UNL A   1      45.087  34.700  30.669  1.00  0.00     0.040 A 
ATOM     83  F   UNL A   1      44.694  33.227  28.888  1.00  0.00    -0.206 F 
ATOM     84  C   UNL A   1      45.131  34.961  32.037  1.00  0.00     0.006 A 
ENDBRANCH  60  77
ENDBRANCH  34  35
ENDBRANCH  26  29
ENDBRANCH  24  25
ENDBRANCH   1  24
TORSDOF 11
ENDMDL
MODEL 2
REMARK VINA RESULT:     -12.6      0.310      6.221
REMARK SMILES Cc1cc2c(c(C)c1Cl)C=C(C(=O)NCCCNC(=O)c1ccc(-c3c4nc(c(-c5c(F)cccc5F)c5ccc([nH]5)c(-c5c(F)cccc5F)c5nc(c(-c6c(F)cccc6F)c6ccc3[nH]6)C=C5)C=C4)cc1)[C@@H](C(F)(F)F)O2
REMARK SMILES IDX 16 1 15 2 14 3 12 4 13 5 11 7 1 8 2 9 3 10 8 11 4 12 6 13
REMARK SMILES IDX 9 14 5 15 80 16 7 17 10 18 75 19 76 20 77 21 78 22 79 23
REMARK SMILES IDX 17 24 18 25 19 26 20 28 21 29 22 30 74 31 23 32 73 33 24 34
REMARK SMILES IDX 25 35 26 36 67 37 27 38 72 39 66 40 68 41 28 42 71 43 65 44
REMARK SMILES IDX 64 45 29 47 55 48 38 49 54 50 39 51 42 52 53 53 69 54 40 55
REMARK SMILES IDX 41 56 52 58 70 59 43 60 30 61 31 62 36 63 32 64 33 65 35 66
REMARK SMILES IDX 37 67 34 68 56 69 57 70 62 71 58 72 59 73 61 74 63 75 60 76
REMARK SMILES IDX 44 77 45 78 50 79 46 80 47 81 49 82 51 83 48 84
REMARK H PARENT 14 6 18 27 68 46 42 57
REMARK Flexibility Score: inf
ROOT
ATOM      1  C   UNL A   1      37.774  19.937  24.802  1.00  0.00     0.042 C 
ENDROOT
BRANCH   1   2
ATOM      2  C   UNL A   1      36.443  20.627  25.058  1.00  0.00     0.118 C 
BRANCH   2   3
ATOM      3  N   UNL A   1      35.325  19.704  24.943  1.00  0.00    -0.352 N 
ATOM      4  C   UNL A   1      33.974  19.778  24.913  1.00  0.00     0.251 C 
ATOM      5  O   UNL A   1      33.392  18.694  24.804  1.00  0.00    -0.270 OA
ATOM      6  H   UNL A   1      35.634  18.773  24.867  1.00  0.00     0.163 HD
BRANCH   4   7
ATOM      7  C   UNL A   1      33.183  21.039  25.002  1.00  0.00     0.067 C 
ATOM      8  C   UNL A   1      29.864  26.565  24.157  1.00  0.00     0.046 C 
ATOM      9  C   UNL A   1      30.766  25.369  24.017  1.00  0.00    -0.028 A 
ATOM     10  C   UNL A   1      30.766  24.441  25.062  1.00  0.00     0.052 A 
ATOM     11  C   UNL A   1      31.547  25.102  22.874  1.00  0.00     0.047 A 
ATOM     12  C   UNL A   1      31.549  23.296  24.992  1.00  0.00     0.128 A 
ATOM     13  C   UNL A   1      32.357  23.940  22.793  1.00  0.00    -0.021 A 
ATOM     14  Cl  UNL A   1      31.477  26.218  21.543  1.00  0.00    -0.084 Cl
ATOM     15  C   UNL A   1      32.344  23.026  23.874  1.00  0.00     0.022 A 
ATOM     16  O   UNL A   1      31.439  22.453  26.060  1.00  0.00    -0.475 OA
ATOM     17  C   UNL A   1      33.218  23.649  21.586  1.00  0.00     0.047 C 
ATOM     18  C   UNL A   1      33.090  21.762  23.871  1.00  0.00     0.026 C 
ATOM     19  C   UNL A   1      32.532  21.526  26.259  1.00  0.00     0.314 C 
BRANCH  19  20
ATOM     20  C   UNL A   1      33.536  22.125  27.262  1.00  0.00     0.429 C 
ATOM     21  F   UNL A   1      32.885  22.606  28.351  1.00  0.00    -0.167 F 
ATOM     22  F   UNL A   1      34.422  21.209  27.723  1.00  0.00    -0.167 F 
ATOM     23  F   UNL A   1      34.259  23.139  26.739  1.00  0.00    -0.167 F 
ENDBRANCH  19  20
ENDBRANCH   4   7
ENDBRANCH   2   3
ENDBRANCH   1   2
BRANCH   1  24
ATOM     24  C   UNL A   1      38.858  20.419  25.753  1.00  0.00     0.118 C 
BRANCH  24  25
ATOM     25  N   UNL A   1      39.950  19.454  25.864  1.00  0.00    -0.352 N 
ATOM     26  C   UNL A   1      41.287  19.653  26.097  1.00  0.00     0.251 C 
ATOM     27  H   UNL A   1      39.684  18.512  25.754  1.00  0.00     0.163 HD
ATOM     28  O   UNL A   1      42.091  18.753  25.870  1.00  0.00    -0.269 OA
BRANCH  26  29
ATOM     29  C   UNL A   1      41.755  20.951  26.617  1.00  0.00     0.039 A 
ATOM     30  C   UNL A   1      42.227  21.917  25.727  1.00  0.00     0.014 A 
ATOM     31  C   UNL A   1      41.742  21.201  27.990  1.00  0.00     0.014 A 
ATOM     32  C   UNL A   1      42.624  23.162  26.217  1.00  0.00     0.010 A 
ATOM     33  C   UNL A   1      42.033  22.471  28.463  1.00  0.00     0.010 A 
ATOM     34  C   UNL A   1      42.495  23.459  27.584  1.00  0.00    -0.014 A 
BRANCH  34  35
ATOM     35  C   UNL A   1      42.867  24.786  28.125  1.00  0.00     0.031 A 
ATOM     36  C   UNL A   1      41.806  25.831  28.330  1.00  0.00     0.074 A 
ATOM     37  C   UNL A   1      44.160  25.064  28.376  1.00  0.00     0.049 A 
ATOM     38  N   UNL A   1      41.934  27.068  28.734  1.00  0.00    -0.248 NA
ATOM     39  C   UNL A   1      40.420  25.445  28.009  1.00  0.00     0.031 C 
ATOM     40  C   UNL A   1      45.279  24.141  28.172  1.00  0.00     0.029 A 
ATOM     41  N   UNL A   1      44.752  26.202  28.857  1.00  0.00    -0.354 N 
ATOM     42  C   UNL A   1      40.653  27.604  28.711  1.00  0.00     0.074 A 
ATOM     43  C   UNL A   1      39.772  26.587  28.185  1.00  0.00     0.031 C 
ATOM     44  C   UNL A   1      46.416  24.736  28.566  1.00  0.00     0.029 A 
ATOM     45  C   UNL A   1      46.114  26.093  29.010  1.00  0.00     0.049 A 
ATOM     46  H   UNL A   1      44.250  27.021  29.075  1.00  0.00     0.167 HD
ATOM     47  C   UNL A   1      40.242  28.823  29.129  1.00  0.00     0.037 A 
ATOM     48  C   UNL A   1      47.013  26.988  29.459  1.00  0.00     0.037 A 
ATOM     49  C   UNL A   1      41.121  29.820  29.678  1.00  0.00     0.049 A 
ATOM     50  C   UNL A   1      46.536  28.347  29.892  1.00  0.00     0.074 A 
ATOM     51  C   UNL A   1      40.800  31.071  30.171  1.00  0.00     0.029 A 
ATOM     52  N   UNL A   1      42.494  29.673  29.809  1.00  0.00    -0.354 N 
ATOM     53  N   UNL A   1      45.313  28.822  29.919  1.00  0.00    -0.248 NA
ATOM     54  C   UNL A   1      47.558  29.292  30.360  1.00  0.00     0.031 C 
ATOM     55  C   UNL A   1      41.985  31.700  30.560  1.00  0.00     0.029 A 
ATOM     56  C   UNL A   1      43.038  30.822  30.357  1.00  0.00     0.049 A 
ATOM     57  H   UNL A   1      43.005  28.872  29.552  1.00  0.00     0.167 HD
ATOM     58  C   UNL A   1      45.416  30.109  30.428  1.00  0.00     0.074 A 
ATOM     59  C   UNL A   1      46.818  30.336  30.710  1.00  0.00     0.031 C 
ATOM     60  C   UNL A   1      44.437  31.023  30.639  1.00  0.00     0.037 A 
BRANCH  47  61
ATOM     61  C   UNL A   1      38.778  29.137  29.031  1.00  0.00     0.057 A 
ATOM     62  C   UNL A   1      37.932  29.045  30.146  1.00  0.00     0.134 A 
ATOM     63  C   UNL A   1      38.217  29.588  27.830  1.00  0.00     0.134 A 
ATOM     64  F   UNL A   1      38.403  28.605  31.322  1.00  0.00    -0.206 F 
ATOM     65  C   UNL A   1      36.578  29.374  30.064  1.00  0.00     0.040 A 
ATOM     66  C   UNL A   1      36.871  29.948  27.744  1.00  0.00     0.040 A 
ATOM     67  F   UNL A   1      38.971  29.703  26.727  1.00  0.00    -0.206 F 
ATOM     68  C   UNL A   1      36.047  29.837  28.862  1.00  0.00     0.006 A 
ENDBRANCH  47  61
BRANCH  48  69
ATOM     69  C   UNL A   1      48.446  26.609  29.561  1.00  0.00     0.057 A 
ATOM     70  C   UNL A   1      48.932  25.944  30.692  1.00  0.00     0.134 A 
ATOM     71  C   UNL A   1      49.355  26.879  28.531  1.00  0.00     0.134 A 
ATOM     72  F   UNL A   1      48.114  25.670  31.719  1.00  0.00    -0.206 F 
ATOM     73  C   UNL A   1      50.272  25.569  30.801  1.00  0.00     0.040 A 
ATOM     74  C   UNL A   1      50.692  26.488  28.616  1.00  0.00     0.040 A 
ATOM     75  F   UNL A   1      48.950  27.505  27.416  1.00  0.00    -0.206 F 
ATOM     76  C   UNL A   1      51.156  25.835  29.756  1.00  0.00     0.006 A 
ENDBRANCH  48  69
BRANCH  60  77
ATOM     77  C   UNL A   1      44.836  32.347  31.221  1.00  0.00     0.057 A 
ATOM     78  C   UNL A   1      44.916  32.547  32.605  1.00  0.00     0.134 A 
ATOM     79  C   UNL A   1      45.232  33.401  30.387  1.00  0.00     0.134 A 
ATOM     80  F   UNL A   1      44.543  31.580  33.455  1.00  0.00    -0.206 F 
ATOM     81  C   UNL A   1      45.369  33.754  33.139  1.00  0.00     0.040 A 
ATOM     82  C   UNL A   1      45.711  34.602  30.909  1.00  0.00     0.040 A 
ATOM     83  F   UNL A   1      45.191  33.267  29.053  1.00  0.00    -0.206 F 
ATOM     84  C   UNL A   1      45.779  34.781  32.290  1.00  0.00     0.006 A 
ENDBRANCH  60  77
ENDBRANCH  34  35
ENDBRANCH  26  29
ENDBRANCH  24  25
ENDBRANCH   1  24
TORSDOF 11
ENDMDL
MODEL 3
REMARK VINA RESULT:     -12.5      1.259      6.346
REMARK SMILES Cc1cc2c(c(C)c1Cl)C=C(C(=O)NCCCNC(=O)c1ccc(-c3c4nc(c(-c5c(F)cccc5F)c5ccc([nH]5)c(-c5c(F)cccc5F)c5nc(c(-c6c(F)cccc6F)c6ccc3[nH]6)C=C5)C=C4)cc1)[C@@H](C(F)(F)F)O2
REMARK SMILES IDX 16 1 15 2 14 3 12 4 13 5 11 7 1 8 2 9 3 10 8 11 4 12 6 13
REMARK SMILES IDX 9 14 5 15 80 16 7 17 10 18 75 19 76 20 77 21 78 22 79 23
REMARK SMILES IDX 17 24 18 25 19 26 20 28 21 29 22 30 74 31 23 32 73 33 24 34
REMARK SMILES IDX 25 35 26 36 67 37 27 38 72 39 66 40 68 41 28 42 71 43 65 44
REMARK SMILES IDX 64 45 29 47 55 48 38 49 54 50 39 51 42 52 53 53 69 54 40 55
REMARK SMILES IDX 41 56 52 58 70 59 43 60 30 61 31 62 36 63 32 64 33 65 35 66
REMARK SMILES IDX 37 67 34 68 56 69 57 70 62 71 58 72 59 73 61 74 63 75 60 76
REMARK SMILES IDX 44 77 45 78 50 79 46 80 47 81 49 82 51 83 48 84
REMARK H PARENT 14 6 18 27 68 46 42 57
REMARK Flexibility Score: inf
ROOT
ATOM      1  C   UNL A   1      37.753  19.766  24.816  1.00  0.00     0.042 C 
ENDROOT
BRANCH   1   2
ATOM      2  C   UNL A   1      36.444  20.499  25.064  1.00  0.00     0.118 C 
BRANCH   2   3
ATOM      3  N   UNL A   1      35.298  19.607  24.968  1.00  0.00    -0.352 N 
ATOM      4  C   UNL A   1      33.950  19.720  24.938  1.00  0.00     0.251 C 
ATOM      5  O   UNL A   1      33.337  18.651  24.851  1.00  0.00    -0.270 OA
ATOM      6  H   UNL A   1      35.581  18.666  24.908  1.00  0.00     0.163 HD
BRANCH   4   7
ATOM      7  C   UNL A   1      33.197  21.005  25.005  1.00  0.00     0.067 C 
ATOM      8  C   UNL A   1      30.020  26.597  24.061  1.00  0.00     0.046 C 
ATOM      9  C   UNL A   1      30.885  25.373  23.940  1.00  0.00    -0.028 A 
ATOM     10  C   UNL A   1      30.877  24.474  25.010  1.00  0.00     0.052 A 
ATOM     11  C   UNL A   1      31.640  25.053  22.792  1.00  0.00     0.047 A 
ATOM     12  C   UNL A   1      31.626  23.306  24.959  1.00  0.00     0.128 A 
ATOM     13  C   UNL A   1      32.415  23.866  22.731  1.00  0.00    -0.021 A 
ATOM     14  Cl  UNL A   1      31.579  26.134  21.432  1.00  0.00    -0.084 Cl
ATOM     15  C   UNL A   1      32.395  22.983  23.837  1.00  0.00     0.022 A 
ATOM     16  O   UNL A   1      31.510  22.495  26.051  1.00  0.00    -0.475 OA
ATOM     17  C   UNL A   1      33.248  23.518  21.518  1.00  0.00     0.047 C 
ATOM     18  C   UNL A   1      33.105  21.699  23.856  1.00  0.00     0.026 C 
ATOM     19  C   UNL A   1      32.580  21.544  26.258  1.00  0.00     0.314 C 
BRANCH  19  20
ATOM     20  C   UNL A   1      33.617  22.141  27.229  1.00  0.00     0.429 C 
ATOM     21  F   UNL A   1      32.996  22.692  28.302  1.00  0.00    -0.167 F 
ATOM     22  F   UNL A   1      34.469  21.208  27.719  1.00  0.00    -0.167 F 
ATOM     23  F   UNL A   1      34.376  23.102  26.659  1.00  0.00    -0.167 F 
ENDBRANCH  19  20
ENDBRANCH   4   7
ENDBRANCH   2   3
ENDBRANCH   1   2
BRANCH   1  24
ATOM     24  C   UNL A   1      38.859  20.249  25.742  1.00  0.00     0.118 C 
BRANCH  24  25
ATOM     25  N   UNL A   1      39.884  19.226  25.940  1.00  0.00    -0.352 N 
ATOM     26  C   UNL A   1      41.239  19.352  26.109  1.00  0.00     0.251 C 
ATOM     27  H   UNL A   1      39.550  18.300  25.954  1.00  0.00     0.163 HD
ATOM     28  O   UNL A   1      41.970  18.374  25.972  1.00  0.00    -0.269 OA
BRANCH  26  29
ATOM     29  C   UNL A   1      41.816  20.665  26.452  1.00  0.00     0.039 A 
ATOM     30  C   UNL A   1      42.177  21.545  25.431  1.00  0.00     0.014 A 
ATOM     31  C   UNL A   1      42.015  21.015  27.789  1.00  0.00     0.014 A 
ATOM     32  C   UNL A   1      42.677  22.806  25.759  1.00  0.00     0.010 A 
ATOM     33  C   UNL A   1      42.409  22.303  28.114  1.00  0.00     0.010 A 
ATOM     34  C   UNL A   1      42.761  23.206  27.103  1.00  0.00    -0.014 A 
BRANCH  34  35
ATOM     35  C   UNL A   1      43.247  24.553  27.479  1.00  0.00     0.031 A 
ATOM     36  C   UNL A   1      42.264  25.605  27.913  1.00  0.00     0.074 A 
ATOM     37  C   UNL A   1      44.557  24.841  27.375  1.00  0.00     0.049 A 
ATOM     38  N   UNL A   1      42.479  26.856  28.224  1.00  0.00    -0.248 NA
ATOM     39  C   UNL A   1      40.847  25.206  27.978  1.00  0.00     0.031 C 
ATOM     40  C   UNL A   1      45.595  23.912  26.922  1.00  0.00     0.029 A 
ATOM     41  N   UNL A   1      45.242  25.998  27.644  1.00  0.00    -0.354 N 
ATOM     42  C   UNL A   1      41.231  27.390  28.515  1.00  0.00     0.074 A 
ATOM     43  C   UNL A   1      40.254  26.353  28.273  1.00  0.00     0.031 C 
ATOM     44  C   UNL A   1      46.789  24.523  26.985  1.00  0.00     0.029 A 
ATOM     45  C   UNL A   1      46.598  25.896  27.441  1.00  0.00     0.049 A 
ATOM     46  H   UNL A   1      44.804  26.824  27.953  1.00  0.00     0.167 HD
ATOM     47  C   UNL A   1      40.929  28.624  28.979  1.00  0.00     0.037 A 
ATOM     48  C   UNL A   1      47.573  26.809  27.608  1.00  0.00     0.037 A 
ATOM     49  C   UNL A   1      41.909  29.642  29.243  1.00  0.00     0.049 A 
ATOM     50  C   UNL A   1      47.210  28.182  28.099  1.00  0.00     0.074 A 
ATOM     51  C   UNL A   1      41.714  30.911  29.757  1.00  0.00     0.029 A 
ATOM     52  N   UNL A   1      43.271  29.502  29.019  1.00  0.00    -0.354 N 
ATOM     53  N   UNL A   1      46.031  28.657  28.424  1.00  0.00    -0.248 NA
ATOM     54  C   UNL A   1      48.308  29.146  28.250  1.00  0.00     0.031 C 
ATOM     55  C   UNL A   1      42.953  31.556  29.800  1.00  0.00     0.029 A 
ATOM     56  C   UNL A   1      43.926  30.671  29.364  1.00  0.00     0.049 A 
ATOM     57  H   UNL A   1      43.706  28.692  28.669  1.00  0.00     0.167 HD
ATOM     58  C   UNL A   1      46.248  29.964  28.841  1.00  0.00     0.074 A 
ATOM     59  C   UNL A   1      47.673  30.203  28.741  1.00  0.00     0.031 C 
ATOM     60  C   UNL A   1      45.348  30.884  29.265  1.00  0.00     0.037 A 
BRANCH  47  61
ATOM     61  C   UNL A   1      39.486  28.933  29.254  1.00  0.00     0.057 A 
ATOM     62  C   UNL A   1      38.634  29.411  28.248  1.00  0.00     0.134 A 
ATOM     63  C   UNL A   1      38.929  28.702  30.517  1.00  0.00     0.134 A 
ATOM     64  F   UNL A   1      39.108  29.668  27.020  1.00  0.00    -0.206 F 
ATOM     65  C   UNL A   1      37.283  29.661  28.495  1.00  0.00     0.040 A 
ATOM     66  C   UNL A   1      37.573  28.921  30.767  1.00  0.00     0.040 A 
ATOM     67  F   UNL A   1      39.688  28.242  31.523  1.00  0.00    -0.206 F 
ATOM     68  C   UNL A   1      36.748  29.406  29.755  1.00  0.00     0.006 A 
ENDBRANCH  47  61
BRANCH  48  69
ATOM     69  C   UNL A   1      48.987  26.435  27.349  1.00  0.00     0.057 A 
ATOM     70  C   UNL A   1      49.540  26.562  26.069  1.00  0.00     0.134 A 
ATOM     71  C   UNL A   1      49.824  25.966  28.368  1.00  0.00     0.134 A 
ATOM     72  F   UNL A   1      48.785  26.992  25.047  1.00  0.00    -0.206 F 
ATOM     73  C   UNL A   1      50.870  26.227  25.810  1.00  0.00     0.040 A 
ATOM     74  C   UNL A   1      51.163  25.651  28.129  1.00  0.00     0.040 A 
ATOM     75  F   UNL A   1      49.358  25.831  29.619  1.00  0.00    -0.206 F 
ATOM     76  C   UNL A   1      51.688  25.777  26.844  1.00  0.00     0.006 A 
ENDBRANCH  48  69
BRANCH  60  77
ATOM     77  C   UNL A   1      45.870  32.230  29.674  1.00  0.00     0.057 A 
ATOM     78  C   UNL A   1      45.939  33.296  28.770  1.00  0.00     0.134 A 
ATOM     79  C   UNL A   1      46.219  32.483  31.007  1.00  0.00     0.134 A 
ATOM     80  F   UNL A   1      45.628  33.115  27.478  1.00  0.00    -0.206 F 
ATOM     81  C   UNL A   1      46.346  34.568  29.176  1.00  0.00     0.040 A 
ATOM     82  C   UNL A   1      46.600  33.756  31.430  1.00  0.00     0.040 A 
ATOM     83  F   UNL A   1      46.161  31.507  31.925  1.00  0.00    -0.206 F 
ATOM     84  C   UNL A   1      46.666  34.803  30.512  1.00  0.00     0.006 A 
ENDBRANCH  60  77
ENDBRANCH  34  35
ENDBRANCH  26  29
ENDBRANCH  24  25
ENDBRANCH   1  24
TORSDOF 11
ENDMDL
