MODEL 1
REMARK VINA RESULT:     -12.4      0.000      0.000
REMARK SMILES CCOc1ccc(-c2cc(Cl)cc3c2O[C@H](C(F)(F)F)C(C(=O)NCCCNC(=O)c2ccc(-c4c5nc(c(-c6c(F)cccc6F)c6ccc([nH]6)c(-c6c(F)cccc6F)c6nc(c(-c7c(F)cccc7F)c7ccc4[nH]7)C=C6)C=C5)cc2)=C3)cc1
REMARK SMILES IDX 25 1 24 2 22 3 23 4 21 6 8 7 9 8 14 9 10 10 13 11 15 12
REMARK SMILES IDX 11 13 12 14 85 15 16 16 7 17 4 18 5 19 87 20 6 21 86 22 3 23
REMARK SMILES IDX 2 24 1 25 17 26 18 27 19 28 20 29 26 30 27 31 28 32 29 33
REMARK SMILES IDX 30 35 31 36 32 37 84 38 33 39 83 40 34 41 35 42 36 43 77 44
REMARK SMILES IDX 37 45 82 46 76 47 78 48 38 49 81 50 75 51 74 52 39 54 65 55
REMARK SMILES IDX 48 56 64 57 49 58 52 59 63 60 79 61 50 62 51 63 62 65 80 66
REMARK SMILES IDX 53 67 40 68 41 69 46 70 42 71 43 72 45 73 47 74 44 75 66 76
REMARK SMILES IDX 67 77 72 78 68 79 69 80 71 81 73 82 70 83 54 84 55 85 60 86
REMARK SMILES IDX 56 87 57 88 59 89 61 90 58 91
REMARK H PARENT 24 5 28 34 78 53 52 64
REMARK Flexibility Score: inf
ROOT
ATOM      1  C   UNL A   1      33.228  28.231  24.613  1.00  0.00     0.118 C 
ENDROOT
BRANCH   1   2
ATOM      2  N   UNL A   1      34.083  27.143  25.040  1.00  0.00    -0.352 N 
ATOM      3  C   UNL A   1      33.731  25.835  25.127  1.00  0.00     0.251 C 
ATOM      4  O   UNL A   1      34.073  25.173  26.100  1.00  0.00    -0.270 OA
ATOM      5  H   UNL A   1      35.007  27.372  25.289  1.00  0.00     0.163 HD
BRANCH   3   6
ATOM      6  C   UNL A   1      33.068  25.238  23.931  1.00  0.00     0.067 C 
ATOM      7  C   UNL A   1      33.890  21.301  24.575  1.00  0.00     0.026 A 
ATOM      8  C   UNL A   1      35.251  21.222  24.968  1.00  0.00     0.033 A 
ATOM      9  C   UNL A   1      33.470  22.529  24.034  1.00  0.00     0.135 A 
ATOM     10  C   UNL A   1      36.175  22.221  24.670  1.00  0.00     0.042 A 
ATOM     11  C   UNL A   1      34.443  23.478  23.631  1.00  0.00     0.019 A 
ATOM     12  O   UNL A   1      32.135  22.892  23.910  1.00  0.00    -0.475 OA
ATOM     13  Cl  UNL A   1      37.804  22.059  25.189  1.00  0.00    -0.084 Cl
ATOM     14  C   UNL A   1      35.792  23.322  23.930  1.00  0.00     0.032 A 
ATOM     15  C   UNL A   1      33.963  24.752  23.049  1.00  0.00     0.025 C 
ATOM     16  C   UNL A   1      31.883  24.329  24.235  1.00  0.00     0.314 C 
BRANCH   7  17
ATOM     17  C   UNL A   1      33.164  20.003  24.559  1.00  0.00    -0.014 A 
ATOM     18  C   UNL A   1      32.767  17.191  24.569  1.00  0.00     0.119 A 
ATOM     19  C   UNL A   1      32.708  17.911  25.760  1.00  0.00     0.047 A 
ATOM     20  C   UNL A   1      32.899  17.879  23.367  1.00  0.00     0.047 A 
ATOM     21  C   UNL A   1      32.893  19.302  25.754  1.00  0.00     0.013 A 
ATOM     22  C   UNL A   1      33.092  19.271  23.362  1.00  0.00     0.013 A 
BRANCH  18  23
ATOM     23  O   UNL A   1      32.583  15.839  24.633  1.00  0.00    -0.494 OA
BRANCH  23  24
ATOM     24  C   UNL A   1      33.508  15.134  25.476  1.00  0.00     0.226 C 
ATOM     25  C   UNL A   1      34.947  15.533  25.185  1.00  0.00     0.049 C 
ENDBRANCH  23  24
ENDBRANCH  18  23
ENDBRANCH   7  17
BRANCH  16  26
ATOM     26  C   UNL A   1      30.649  24.888  23.488  1.00  0.00     0.429 C 
ATOM     27  F   UNL A   1      30.979  25.724  22.480  1.00  0.00    -0.167 F 
ATOM     28  F   UNL A   1      29.900  23.888  22.966  1.00  0.00    -0.167 F 
ATOM     29  F   UNL A   1      29.817  25.587  24.309  1.00  0.00    -0.167 F 
ENDBRANCH  16  26
ENDBRANCH   3   6
ENDBRANCH   1   2
BRANCH   1  30
ATOM     30  C   UNL A   1      32.783  29.057  25.822  1.00  0.00     0.042 C 
BRANCH  30  31
ATOM     31  C   UNL A   1      33.799  29.117  26.962  1.00  0.00     0.118 C 
BRANCH  31  32
ATOM     32  N   UNL A   1      33.747  30.362  27.711  1.00  0.00    -0.352 N 
ATOM     33  C   UNL A   1      34.687  30.913  28.546  1.00  0.00     0.251 C 
ATOM     34  H   UNL A   1      32.919  30.885  27.605  1.00  0.00     0.163 HD
ATOM     35  O   UNL A   1      34.412  31.906  29.216  1.00  0.00    -0.269 OA
BRANCH  33  36
ATOM     36  C   UNL A   1      36.022  30.291  28.661  1.00  0.00     0.039 A 
ATOM     37  C   UNL A   1      36.910  30.394  27.588  1.00  0.00     0.014 A 
ATOM     38  C   UNL A   1      36.403  29.627  29.830  1.00  0.00     0.014 A 
ATOM     39  C   UNL A   1      38.207  29.894  27.716  1.00  0.00     0.010 A 
ATOM     40  C   UNL A   1      37.720  29.205  29.985  1.00  0.00     0.010 A 
ATOM     41  C   UNL A   1      38.636  29.332  28.930  1.00  0.00    -0.014 A 
BRANCH  41  42
ATOM     42  C   UNL A   1      40.036  28.874  29.116  1.00  0.00     0.031 A 
ATOM     43  C   UNL A   1      41.065  29.805  29.699  1.00  0.00     0.074 A 
ATOM     44  C   UNL A   1      40.400  27.644  28.702  1.00  0.00     0.049 A 
ATOM     45  N   UNL A   1      42.349  29.617  29.869  1.00  0.00    -0.248 NA
ATOM     46  C   UNL A   1      40.593  31.134  30.116  1.00  0.00     0.031 C 
ATOM     47  C   UNL A   1      39.510  26.663  28.076  1.00  0.00     0.029 A 
ATOM     48  N   UNL A   1      41.618  27.011  28.734  1.00  0.00    -0.354 N 
ATOM     49  C   UNL A   1      42.837  30.806  30.396  1.00  0.00     0.074 A 
ATOM     50  C   UNL A   1      41.724  31.728  30.462  1.00  0.00     0.031 C 
ATOM     51  C   UNL A   1      40.204  25.545  27.809  1.00  0.00     0.029 A 
ATOM     52  C   UNL A   1      41.596  25.745  28.202  1.00  0.00     0.049 A 
ATOM     53  H   UNL A   1      42.430  27.426  29.103  1.00  0.00     0.167 HD
ATOM     54  C   UNL A   1      44.093  31.097  30.812  1.00  0.00     0.037 A 
ATOM     55  C   UNL A   1      42.587  24.846  28.041  1.00  0.00     0.037 A 
ATOM     56  C   UNL A   1      45.192  30.170  30.768  1.00  0.00     0.049 A 
ATOM     57  C   UNL A   1      43.976  25.198  28.501  1.00  0.00     0.074 A 
ATOM     58  C   UNL A   1      46.488  30.346  31.223  1.00  0.00     0.029 A 
ATOM     59  N   UNL A   1      45.127  28.891  30.235  1.00  0.00    -0.354 N 
ATOM     60  N   UNL A   1      44.407  26.301  29.063  1.00  0.00    -0.248 NA
ATOM     61  C   UNL A   1      45.015  24.177  28.306  1.00  0.00     0.031 C 
ATOM     62  C   UNL A   1      47.218  29.193  30.920  1.00  0.00     0.029 A 
ATOM     63  C   UNL A   1      46.366  28.278  30.325  1.00  0.00     0.049 A 
ATOM     64  H   UNL A   1      44.320  28.480  29.849  1.00  0.00     0.167 HD
ATOM     65  C   UNL A   1      45.759  26.096  29.313  1.00  0.00     0.074 A 
ATOM     66  C   UNL A   1      46.070  24.758  28.858  1.00  0.00     0.031 C 
ATOM     67  C   UNL A   1      46.660  26.942  29.870  1.00  0.00     0.037 A 
BRANCH  54  68
ATOM     68  C   UNL A   1      44.341  32.475  31.355  1.00  0.00     0.057 A 
ATOM     69  C   UNL A   1      44.744  33.534  30.529  1.00  0.00     0.134 A 
ATOM     70  C   UNL A   1      44.149  32.756  32.713  1.00  0.00     0.134 A 
ATOM     71  F   UNL A   1      44.958  33.331  29.220  1.00  0.00    -0.206 F 
ATOM     72  C   UNL A   1      44.975  34.812  31.039  1.00  0.00     0.040 A 
ATOM     73  C   UNL A   1      44.348  34.038  33.230  1.00  0.00     0.040 A 
ATOM     74  F   UNL A   1      43.757  31.792  33.560  1.00  0.00    -0.206 F 
ATOM     75  C   UNL A   1      44.770  35.068  32.393  1.00  0.00     0.006 A 
ENDBRANCH  54  68
BRANCH  55  76
ATOM     76  C   UNL A   1      42.302  23.522  27.433  1.00  0.00     0.057 A 
ATOM     77  C   UNL A   1      41.980  22.417  28.230  1.00  0.00     0.134 A 
ATOM     78  C   UNL A   1      42.359  23.322  26.049  1.00  0.00     0.134 A 
ATOM     79  F   UNL A   1      41.929  22.538  29.565  1.00  0.00    -0.206 F 
ATOM     80  C   UNL A   1      41.747  21.156  27.675  1.00  0.00     0.040 A 
ATOM     81  C   UNL A   1      42.101  22.075  25.478  1.00  0.00     0.040 A 
ATOM     82  F   UNL A   1      42.654  24.342  25.229  1.00  0.00    -0.206 F 
ATOM     83  C   UNL A   1      41.803  20.985  26.294  1.00  0.00     0.006 A 
ENDBRANCH  55  76
BRANCH  67  84
ATOM     84  C   UNL A   1      48.062  26.433  30.048  1.00  0.00     0.057 A 
ATOM     85  C   UNL A   1      49.045  26.616  29.067  1.00  0.00     0.134 A 
ATOM     86  C   UNL A   1      48.440  25.788  31.231  1.00  0.00     0.134 A 
ATOM     87  F   UNL A   1      48.744  27.216  27.905  1.00  0.00    -0.206 F 
ATOM     88  C   UNL A   1      50.349  26.152  29.248  1.00  0.00     0.040 A 
ATOM     89  C   UNL A   1      49.748  25.346  31.436  1.00  0.00     0.040 A 
ATOM     90  F   UNL A   1      47.550  25.588  32.215  1.00  0.00    -0.206 F 
ATOM     91  C   UNL A   1      50.705  25.523  30.439  1.00  0.00     0.006 A 
ENDBRANCH  67  84
ENDBRANCH  41  42
ENDBRANCH  33  36
ENDBRANCH  31  32
ENDBRANCH  30  31
ENDBRANCH   1  30
TORSDOF 14
ENDMDL
MODEL 2
REMARK VINA RESULT:     -12.3      3.283      6.662
REMARK SMILES CCOc1ccc(-c2cc(Cl)cc3c2O[C@H](C(F)(F)F)C(C(=O)NCCCNC(=O)c2ccc(-c4c5nc(c(-c6c(F)cccc6F)c6ccc([nH]6)c(-c6c(F)cccc6F)c6nc(c(-c7c(F)cccc7F)c7ccc4[nH]7)C=C6)C=C5)cc2)=C3)cc1
REMARK SMILES IDX 25 1 24 2 22 3 23 4 21 6 8 7 9 8 14 9 10 10 13 11 15 12
REMARK SMILES IDX 11 13 12 14 85 15 16 16 7 17 4 18 5 19 87 20 6 21 86 22 3 23
REMARK SMILES IDX 2 24 1 25 17 26 18 27 19 28 20 29 26 30 27 31 28 32 29 33
REMARK SMILES IDX 30 35 31 36 32 37 84 38 33 39 83 40 34 41 35 42 36 43 77 44
REMARK SMILES IDX 37 45 82 46 76 47 78 48 38 49 81 50 75 51 74 52 39 54 65 55
REMARK SMILES IDX 48 56 64 57 49 58 52 59 63 60 79 61 50 62 51 63 62 65 80 66
REMARK SMILES IDX 53 67 40 68 41 69 46 70 42 71 43 72 45 73 47 74 44 75 66 76
REMARK SMILES IDX 67 77 72 78 68 79 69 80 71 81 73 82 70 83 54 84 55 85 60 86
REMARK SMILES IDX 56 87 57 88 59 89 61 90 58 91
REMARK H PARENT 24 5 28 34 78 53 52 64
REMARK Flexibility Score: inf
ROOT
ATOM      1  C   UNL A   1      33.023  29.269  24.771  1.00  0.00     0.118 C 
ENDROOT
BRANCH   1   2
ATOM      2  N   UNL A   1      33.412  28.109  25.546  1.00  0.00    -0.352 N 
ATOM      3  C   UNL A   1      32.705  26.956  25.672  1.00  0.00     0.251 C 
ATOM      4  O   UNL A   1      32.596  26.423  26.769  1.00  0.00    -0.270 OA
ATOM      5  H   UNL A   1      34.269  28.159  26.027  1.00  0.00     0.163 HD
BRANCH   3   6
ATOM      6  C   UNL A   1      32.228  26.321  24.409  1.00  0.00     0.067 C 
ATOM      7  C   UNL A   1      33.461  22.493  25.049  1.00  0.00     0.026 A 
ATOM      8  C   UNL A   1      34.781  22.565  25.564  1.00  0.00     0.033 A 
ATOM      9  C   UNL A   1      32.945  23.678  24.495  1.00  0.00     0.135 A 
ATOM     10  C   UNL A   1      35.600  23.675  25.371  1.00  0.00     0.042 A 
ATOM     11  C   UNL A   1      33.828  24.748  24.202  1.00  0.00     0.019 A 
ATOM     12  O   UNL A   1      31.592  23.883  24.256  1.00  0.00    -0.475 OA
ATOM     13  Cl  UNL A   1      37.184  23.693  26.035  1.00  0.00    -0.084 Cl
ATOM     14  C   UNL A   1      35.153  24.745  24.621  1.00  0.00     0.032 A 
ATOM     15  C   UNL A   1      33.250  25.973  23.603  1.00  0.00     0.025 C 
ATOM     16  C   UNL A   1      31.140  25.269  24.585  1.00  0.00     0.314 C 
BRANCH   7  17
ATOM     17  C   UNL A   1      32.902  21.119  24.941  1.00  0.00    -0.014 A 
ATOM     18  C   UNL A   1      32.818  18.328  24.425  1.00  0.00     0.119 A 
ATOM     19  C   UNL A   1      33.051  18.794  25.716  1.00  0.00     0.047 A 
ATOM     20  C   UNL A   1      32.508  19.239  23.420  1.00  0.00     0.047 A 
ATOM     21  C   UNL A   1      33.082  20.173  25.974  1.00  0.00     0.013 A 
ATOM     22  C   UNL A   1      32.545  20.620  23.677  1.00  0.00     0.013 A 
BRANCH  18  23
ATOM     23  O   UNL A   1      32.803  16.975  24.230  1.00  0.00    -0.494 OA
BRANCH  23  24
ATOM     24  C   UNL A   1      33.432  16.200  25.263  1.00  0.00     0.226 C 
ATOM     25  C   UNL A   1      32.529  15.080  25.752  1.00  0.00     0.049 C 
ENDBRANCH  23  24
ENDBRANCH  18  23
ENDBRANCH   7  17
BRANCH  16  26
ATOM     26  C   UNL A   1      29.919  25.700  23.739  1.00  0.00     0.429 C 
ATOM     27  F   UNL A   1      29.528  24.753  22.859  1.00  0.00    -0.167 F 
ATOM     28  F   UNL A   1      28.857  25.993  24.528  1.00  0.00    -0.167 F 
ATOM     29  F   UNL A   1      30.162  26.824  23.010  1.00  0.00    -0.167 F 
ENDBRANCH  16  26
ENDBRANCH   3   6
ENDBRANCH   1   2
BRANCH   1  30
ATOM     30  C   UNL A   1      31.779  29.918  25.381  1.00  0.00     0.042 C 
BRANCH  30  31
ATOM     31  C   UNL A   1      31.974  30.471  26.792  1.00  0.00     0.118 C 
BRANCH  31  32
ATOM     32  N   UNL A   1      31.906  31.922  26.853  1.00  0.00    -0.352 N 
ATOM     33  C   UNL A   1      32.772  32.807  27.446  1.00  0.00     0.251 C 
ATOM     34  H   UNL A   1      31.128  32.328  26.406  1.00  0.00     0.163 HD
ATOM     35  O   UNL A   1      32.476  33.998  27.528  1.00  0.00    -0.269 OA
BRANCH  33  36
ATOM     36  C   UNL A   1      34.045  32.321  28.014  1.00  0.00     0.039 A 
ATOM     37  C   UNL A   1      35.054  33.244  28.297  1.00  0.00     0.014 A 
ATOM     38  C   UNL A   1      34.235  30.964  28.287  1.00  0.00     0.014 A 
ATOM     39  C   UNL A   1      36.226  32.815  28.922  1.00  0.00     0.010 A 
ATOM     40  C   UNL A   1      35.366  30.552  28.984  1.00  0.00     0.010 A 
ATOM     41  C   UNL A   1      36.376  31.472  29.308  1.00  0.00    -0.014 A 
BRANCH  41  42
ATOM     42  C   UNL A   1      37.576  31.011  30.051  1.00  0.00     0.031 A 
ATOM     43  C   UNL A   1      38.545  30.059  29.406  1.00  0.00     0.074 A 
ATOM     44  C   UNL A   1      37.760  31.396  31.330  1.00  0.00     0.049 A 
ATOM     45  N   UNL A   1      39.606  29.486  29.916  1.00  0.00    -0.248 NA
ATOM     46  C   UNL A   1      38.268  29.677  28.012  1.00  0.00     0.031 C 
ATOM     47  C   UNL A   1      36.868  32.277  32.087  1.00  0.00     0.029 A 
ATOM     48  N   UNL A   1      38.755  31.087  32.224  1.00  0.00    -0.354 N 
ATOM     49  C   UNL A   1      40.111  28.667  28.914  1.00  0.00     0.074 A 
ATOM     50  C   UNL A   1      39.208  28.771  27.787  1.00  0.00     0.031 C 
ATOM     51  C   UNL A   1      37.369  32.458  33.320  1.00  0.00     0.029 A 
ATOM     52  C   UNL A   1      38.592  31.674  33.456  1.00  0.00     0.049 A 
ATOM     53  H   UNL A   1      39.514  30.500  32.003  1.00  0.00     0.167 HD
ATOM     54  C   UNL A   1      41.237  27.916  28.919  1.00  0.00     0.037 A 
ATOM     55  C   UNL A   1      39.339  31.583  34.573  1.00  0.00     0.037 A 
ATOM     56  C   UNL A   1      42.146  27.834  30.031  1.00  0.00     0.049 A 
ATOM     57  C   UNL A   1      40.581  30.732  34.558  1.00  0.00     0.074 A 
ATOM     58  C   UNL A   1      43.347  27.150  30.115  1.00  0.00     0.029 A 
ATOM     59  N   UNL A   1      41.954  28.453  31.258  1.00  0.00    -0.354 N 
ATOM     60  N   UNL A   1      41.083  30.020  33.579  1.00  0.00    -0.248 NA
ATOM     61  C   UNL A   1      41.360  30.677  35.802  1.00  0.00     0.031 C 
ATOM     62  C   UNL A   1      43.856  27.316  31.407  1.00  0.00     0.029 A 
ATOM     63  C   UNL A   1      43.000  28.146  32.112  1.00  0.00     0.049 A 
ATOM     64  H   UNL A   1      41.187  29.026  31.487  1.00  0.00     0.167 HD
ATOM     65  C   UNL A   1      42.249  29.454  34.080  1.00  0.00     0.074 A 
ATOM     66  C   UNL A   1      42.387  29.922  35.443  1.00  0.00     0.031 C 
ATOM     67  C   UNL A   1      43.125  28.622  33.466  1.00  0.00     0.037 A 
BRANCH  54  68
ATOM     68  C   UNL A   1      41.550  27.125  27.681  1.00  0.00     0.057 A 
ATOM     69  C   UNL A   1      42.290  27.669  26.623  1.00  0.00     0.134 A 
ATOM     70  C   UNL A   1      41.130  25.795  27.556  1.00  0.00     0.134 A 
ATOM     71  F   UNL A   1      42.713  28.942  26.672  1.00  0.00    -0.206 F 
ATOM     72  C   UNL A   1      42.575  26.930  25.473  1.00  0.00     0.040 A 
ATOM     73  C   UNL A   1      41.435  25.036  26.425  1.00  0.00     0.040 A 
ATOM     74  F   UNL A   1      40.423  25.208  28.533  1.00  0.00    -0.206 F 
ATOM     75  C   UNL A   1      42.153  25.606  25.376  1.00  0.00     0.006 A 
ENDBRANCH  54  68
BRANCH  55  76
ATOM     76  C   UNL A   1      38.948  32.330  35.795  1.00  0.00     0.057 A 
ATOM     77  C   UNL A   1      38.177  31.724  36.795  1.00  0.00     0.134 A 
ATOM     78  C   UNL A   1      39.317  33.666  35.988  1.00  0.00     0.134 A 
ATOM     79  F   UNL A   1      37.775  30.451  36.660  1.00  0.00    -0.206 F 
ATOM     80  C   UNL A   1      37.770  32.426  37.932  1.00  0.00     0.040 A 
ATOM     81  C   UNL A   1      38.940  34.372  37.133  1.00  0.00     0.040 A 
ATOM     82  F   UNL A   1      40.061  34.302  35.073  1.00  0.00    -0.206 F 
ATOM     83  C   UNL A   1      38.156  33.753  38.105  1.00  0.00     0.006 A 
ENDBRANCH  55  76
BRANCH  67  84
ATOM     84  C   UNL A   1      44.330  28.190  34.253  1.00  0.00     0.057 A 
ATOM     85  C   UNL A   1      45.511  28.942  34.272  1.00  0.00     0.134 A 
ATOM     86  C   UNL A   1      44.290  27.027  35.033  1.00  0.00     0.134 A 
ATOM     87  F   UNL A   1      45.618  30.059  33.537  1.00  0.00    -0.206 F 
ATOM     88  C   UNL A   1      46.619  28.540  35.018  1.00  0.00     0.040 A 
ATOM     89  C   UNL A   1      45.381  26.630  35.807  1.00  0.00     0.040 A 
ATOM     90  F   UNL A   1      43.186  26.265  35.067  1.00  0.00    -0.206 F 
ATOM     91  C   UNL A   1      46.553  27.385  35.796  1.00  0.00     0.006 A 
ENDBRANCH  67  84
ENDBRANCH  41  42
ENDBRANCH  33  36
ENDBRANCH  31  32
ENDBRANCH  30  31
ENDBRANCH   1  30
TORSDOF 14
ENDMDL
MODEL 3
REMARK VINA RESULT:     -12.1      3.116      4.234
REMARK SMILES CCOc1ccc(-c2cc(Cl)cc3c2O[C@H](C(F)(F)F)C(C(=O)NCCCNC(=O)c2ccc(-c4c5nc(c(-c6c(F)cccc6F)c6ccc([nH]6)c(-c6c(F)cccc6F)c6nc(c(-c7c(F)cccc7F)c7ccc4[nH]7)C=C6)C=C5)cc2)=C3)cc1
REMARK SMILES IDX 25 1 24 2 22 3 23 4 21 6 8 7 9 8 14 9 10 10 13 11 15 12
REMARK SMILES IDX 11 13 12 14 85 15 16 16 7 17 4 18 5 19 87 20 6 21 86 22 3 23
REMARK SMILES IDX 2 24 1 25 17 26 18 27 19 28 20 29 26 30 27 31 28 32 29 33
REMARK SMILES IDX 30 35 31 36 32 37 84 38 33 39 83 40 34 41 35 42 36 43 77 44
REMARK SMILES IDX 37 45 82 46 76 47 78 48 38 49 81 50 75 51 74 52 39 54 65 55
REMARK SMILES IDX 48 56 64 57 49 58 52 59 63 60 79 61 50 62 51 63 62 65 80 66
REMARK SMILES IDX 53 67 40 68 41 69 46 70 42 71 43 72 45 73 47 74 44 75 66 76
REMARK SMILES IDX 67 77 72 78 68 79 69 80 71 81 73 82 70 83 54 84 55 85 60 86
REMARK SMILES IDX 56 87 57 88 59 89 61 90 58 91
REMARK H PARENT 24 5 28 34 78 53 52 64
REMARK Flexibility Score: inf
ROOT
ATOM      1  C   UNL A   1      33.077  29.071  24.582  1.00  0.00     0.118 C 
ENDROOT
BRANCH   1   2
ATOM      2  N   UNL A   1      33.716  27.946  25.235  1.00  0.00    -0.352 N 
ATOM      3  C   UNL A   1      33.188  26.706  25.391  1.00  0.00     0.251 C 
ATOM      4  O   UNL A   1      33.303  26.123  26.462  1.00  0.00    -0.270 OA
ATOM      5  H   UNL A   1      34.618  28.095  25.599  1.00  0.00     0.163 HD
BRANCH   3   6
ATOM      6  C   UNL A   1      32.627  26.058  24.170  1.00  0.00     0.067 C 
ATOM      7  C   UNL A   1      33.622  22.181  24.919  1.00  0.00     0.026 A 
ATOM      8  C   UNL A   1      34.962  22.182  25.387  1.00  0.00     0.033 A 
ATOM      9  C   UNL A   1      33.168  23.377  24.336  1.00  0.00     0.135 A 
ATOM     10  C   UNL A   1      35.846  23.226  25.125  1.00  0.00     0.042 A 
ATOM     11  C   UNL A   1      34.109  24.372  23.973  1.00  0.00     0.019 A 
ATOM     12  O   UNL A   1      31.824  23.665  24.133  1.00  0.00    -0.475 OA
ATOM     13  Cl  UNL A   1      37.450  23.160  25.736  1.00  0.00    -0.084 Cl
ATOM     14  C   UNL A   1      35.445  24.295  24.348  1.00  0.00     0.032 A 
ATOM     15  C   UNL A   1      33.594  25.611  23.346  1.00  0.00     0.025 C 
ATOM     16  C   UNL A   1      31.477  25.090  24.422  1.00  0.00     0.314 C 
BRANCH   7  17
ATOM     17  C   UNL A   1      32.970  20.845  24.884  1.00  0.00    -0.014 A 
ATOM     18  C   UNL A   1      32.708  18.033  24.587  1.00  0.00     0.119 A 
ATOM     19  C   UNL A   1      32.895  18.589  25.850  1.00  0.00     0.047 A 
ATOM     20  C   UNL A   1      32.529  18.875  23.494  1.00  0.00     0.047 A 
ATOM     21  C   UNL A   1      33.013  19.980  25.998  1.00  0.00     0.013 A 
ATOM     22  C   UNL A   1      32.654  20.267  23.642  1.00  0.00     0.013 A 
BRANCH  18  23
ATOM     23  O   UNL A   1      32.603  16.673  24.499  1.00  0.00    -0.494 OA
BRANCH  23  24
ATOM     24  C   UNL A   1      33.471  15.935  25.373  1.00  0.00     0.226 C 
ATOM     25  C   UNL A   1      34.931  16.093  24.977  1.00  0.00     0.049 C 
ENDBRANCH  23  24
ENDBRANCH  18  23
ENDBRANCH   7  17
BRANCH  16  26
ATOM     26  C   UNL A   1      30.258  25.571  23.600  1.00  0.00     0.429 C 
ATOM     27  F   UNL A   1      29.586  24.558  23.012  1.00  0.00    -0.167 F 
ATOM     28  F   UNL A   1      29.382  26.251  24.378  1.00  0.00    -0.167 F 
ATOM     29  F   UNL A   1      30.610  26.427  22.601  1.00  0.00    -0.167 F 
ENDBRANCH  16  26
ENDBRANCH   3   6
ENDBRANCH   1   2
BRANCH   1  30
ATOM     30  C   UNL A   1      31.830  29.493  25.362  1.00  0.00     0.042 C 
BRANCH  30  31
ATOM     31  C   UNL A   1      32.107  30.036  26.763  1.00  0.00     0.118 C 
BRANCH  31  32
ATOM     32  N   UNL A   1      32.120  31.489  26.822  1.00  0.00    -0.352 N 
ATOM     33  C   UNL A   1      33.042  32.327  27.400  1.00  0.00     0.251 C 
ATOM     34  H   UNL A   1      31.359  31.937  26.386  1.00  0.00     0.163 HD
ATOM     35  O   UNL A   1      32.814  33.532  27.484  1.00  0.00    -0.269 OA
BRANCH  33  36
ATOM     36  C   UNL A   1      34.295  31.771  27.950  1.00  0.00     0.039 A 
ATOM     37  C   UNL A   1      35.369  32.632  28.184  1.00  0.00     0.014 A 
ATOM     38  C   UNL A   1      34.403  30.412  28.254  1.00  0.00     0.014 A 
ATOM     39  C   UNL A   1      36.527  32.142  28.792  1.00  0.00     0.010 A 
ATOM     40  C   UNL A   1      35.522  29.944  28.934  1.00  0.00     0.010 A 
ATOM     41  C   UNL A   1      36.598  30.802  29.209  1.00  0.00    -0.014 A 
BRANCH  41  42
ATOM     42  C   UNL A   1      37.784  30.282  29.935  1.00  0.00     0.031 A 
ATOM     43  C   UNL A   1      38.046  30.704  31.356  1.00  0.00     0.074 A 
ATOM     44  C   UNL A   1      38.663  29.484  29.297  1.00  0.00     0.049 A 
ATOM     45  N   UNL A   1      39.063  30.419  32.129  1.00  0.00    -0.248 NA
ATOM     46  C   UNL A   1      37.047  31.586  31.978  1.00  0.00     0.031 C 
ATOM     47  C   UNL A   1      38.551  29.042  27.905  1.00  0.00     0.029 A 
ATOM     48  N   UNL A   1      39.832  28.909  29.733  1.00  0.00    -0.354 N 
ATOM     49  C   UNL A   1      38.833  31.099  33.319  1.00  0.00     0.074 A 
ATOM     50  C   UNL A   1      37.612  31.856  33.144  1.00  0.00     0.031 C 
ATOM     51  C   UNL A   1      39.591  28.245  27.610  1.00  0.00     0.029 A 
ATOM     52  C   UNL A   1      40.466  28.155  28.775  1.00  0.00     0.049 A 
ATOM     53  H   UNL A   1      40.181  29.027  30.645  1.00  0.00     0.167 HD
ATOM     54  C   UNL A   1      39.558  31.075  34.462  1.00  0.00     0.037 A 
ATOM     55  C   UNL A   1      41.628  27.474  28.826  1.00  0.00     0.037 A 
ATOM     56  C   UNL A   1      40.758  30.302  34.641  1.00  0.00     0.049 A 
ATOM     57  C   UNL A   1      42.421  27.473  30.105  1.00  0.00     0.074 A 
ATOM     58  C   UNL A   1      41.531  30.161  35.781  1.00  0.00     0.029 A 
ATOM     59  N   UNL A   1      41.362  29.540  33.652  1.00  0.00    -0.354 N 
ATOM     60  N   UNL A   1      42.154  28.063  31.245  1.00  0.00    -0.248 NA
ATOM     61  C   UNL A   1      43.675  26.708  30.105  1.00  0.00     0.031 C 
ATOM     62  C   UNL A   1      42.630  29.355  35.467  1.00  0.00     0.029 A 
ATOM     63  C   UNL A   1      42.513  28.949  34.148  1.00  0.00     0.049 A 
ATOM     64  H   UNL A   1      41.024  29.436  32.734  1.00  0.00     0.167 HD
ATOM     65  C   UNL A   1      43.191  27.719  32.103  1.00  0.00     0.074 A 
ATOM     66  C   UNL A   1      44.080  26.855  31.358  1.00  0.00     0.031 C 
ATOM     67  C   UNL A   1      43.387  28.087  33.393  1.00  0.00     0.037 A 
BRANCH  54  68
ATOM     68  C   UNL A   1      39.068  31.910  35.611  1.00  0.00     0.057 A 
ATOM     69  C   UNL A   1      38.216  31.389  36.594  1.00  0.00     0.134 A 
ATOM     70  C   UNL A   1      39.474  33.243  35.752  1.00  0.00     0.134 A 
ATOM     71  F   UNL A   1      37.779  30.123  36.514  1.00  0.00    -0.206 F 
ATOM     72  C   UNL A   1      37.762  32.171  37.658  1.00  0.00     0.040 A 
ATOM     73  C   UNL A   1      39.052  34.026  36.828  1.00  0.00     0.040 A 
ATOM     74  F   UNL A   1      40.295  33.805  34.851  1.00  0.00    -0.206 F 
ATOM     75  C   UNL A   1      38.187  33.492  37.780  1.00  0.00     0.006 A 
ENDBRANCH  54  68
BRANCH  55  76
ATOM     76  C   UNL A   1      42.104  26.722  27.638  1.00  0.00     0.057 A 
ATOM     77  C   UNL A   1      42.865  27.349  26.645  1.00  0.00     0.134 A 
ATOM     78  C   UNL A   1      41.800  25.367  27.457  1.00  0.00     0.134 A 
ATOM     79  F   UNL A   1      43.173  28.650  26.750  1.00  0.00    -0.206 F 
ATOM     80  C   UNL A   1      43.288  26.663  25.504  1.00  0.00     0.040 A 
ATOM     81  C   UNL A   1      42.240  24.662  26.336  1.00  0.00     0.040 A 
ATOM     82  F   UNL A   1      41.082  24.706  28.376  1.00  0.00    -0.206 F 
ATOM     83  C   UNL A   1      42.979  25.314  25.350  1.00  0.00     0.006 A 
ENDBRANCH  55  76
BRANCH  67  84
ATOM     84  C   UNL A   1      44.595  27.529  34.090  1.00  0.00     0.057 A 
ATOM     85  C   UNL A   1      44.570  26.285  34.731  1.00  0.00     0.134 A 
ATOM     86  C   UNL A   1      45.808  28.230  34.084  1.00  0.00     0.134 A 
ATOM     87  F   UNL A   1      43.437  25.568  34.785  1.00  0.00    -0.206 F 
ATOM     88  C   UNL A   1      45.702  25.768  35.364  1.00  0.00     0.040 A 
ATOM     89  C   UNL A   1      46.954  27.711  34.687  1.00  0.00     0.040 A 
ATOM     90  F   UNL A   1      45.903  29.424  33.479  1.00  0.00    -0.206 F 
ATOM     91  C   UNL A   1      46.901  26.479  35.334  1.00  0.00     0.006 A 
ENDBRANCH  67  84
ENDBRANCH  41  42
ENDBRANCH  33  36
ENDBRANCH  31  32
ENDBRANCH  30  31
ENDBRANCH   1  30
TORSDOF 14
ENDMDL
