MODEL 1
REMARK VINA RESULT:     -13.8      0.000      0.000
REMARK SMILES O=C(NCCCNC(=O)c1[nH]ncc1C[N@H+]1CCC[C@H](C(=O)c2ccc3ccccc3c2)C1)c1ccc(-c2c3nc(c(-c4c(F)cccc4F)c4ccc([nH]4)c(-c4c(F)cccc4F)c4nc(c(-c5c(F)cccc5F)c5ccc2[nH]5)C=C4)C=C3)cc1
REMARK SMILES IDX 6 1 5 2 4 3 3 4 1 5 2 6 34 8 35 9 87 10 36 11 86 12 37 13
REMARK SMILES IDX 38 14 39 15 80 16 40 17 85 18 79 19 81 20 41 21 84 22 78 23
REMARK SMILES IDX 77 24 42 26 68 27 51 28 67 29 52 30 55 31 66 32 82 33 53 34
REMARK SMILES IDX 54 35 65 37 83 38 56 39 43 40 44 41 49 42 45 43 46 44 48 45
REMARK SMILES IDX 50 46 47 47 69 48 70 49 75 50 71 51 72 52 74 53 76 54 73 55
REMARK SMILES IDX 57 56 58 57 63 58 59 59 60 60 62 61 64 62 61 63 7 64 8 65
REMARK SMILES IDX 9 67 10 68 11 69 14 70 12 71 13 73 15 74 16 75 17 76 33 77
REMARK SMILES IDX 18 79 20 80 19 81 21 82 22 83 23 84 24 85 32 86 25 87 31 88
REMARK SMILES IDX 26 89 30 90 27 91 29 92 28 93
REMARK H PARENT 3 7 81 25 55 36 7 66 11 72 16 78
REMARK Flexibility Score: inf
ROOT
ATOM      1  C   UNL A   1      32.889  29.715  25.391  1.00  0.00     0.118 C 
ENDROOT
BRANCH   1   2
ATOM      2  C   UNL A   1      33.048  28.700  26.521  1.00  0.00     0.042 C 
BRANCH   2   3
ATOM      3  C   UNL A   1      34.370  28.815  27.275  1.00  0.00     0.118 C 
BRANCH   3   4
ATOM      4  N   UNL A   1      34.456  30.026  28.082  1.00  0.00    -0.352 N 
ATOM      5  O   UNL A   1      35.236  31.483  29.597  1.00  0.00    -0.269 OA
ATOM      6  C   UNL A   1      35.479  30.546  28.839  1.00  0.00     0.251 C 
ATOM      7  H   UNL A   1      33.635  30.567  28.086  1.00  0.00     0.163 HD
BRANCH   6   8
ATOM      8  C   UNL A   1      36.858  29.998  28.785  1.00  0.00     0.039 A 
ATOM      9  C   UNL A   1      37.434  29.333  29.868  1.00  0.00     0.014 A 
ATOM     10  C   UNL A   1      37.565  30.080  27.578  1.00  0.00     0.014 A 
ATOM     11  C   UNL A   1      38.755  28.891  29.793  1.00  0.00     0.010 A 
ATOM     12  C   UNL A   1      38.863  29.562  27.478  1.00  0.00     0.010 A 
ATOM     13  C   UNL A   1      39.487  28.999  28.598  1.00  0.00    -0.014 A 
BRANCH  13  14
ATOM     14  C   UNL A   1      40.888  28.500  28.562  1.00  0.00     0.031 A 
ATOM     15  C   UNL A   1      41.200  27.089  28.139  1.00  0.00     0.074 A 
ATOM     16  C   UNL A   1      41.898  29.353  28.829  1.00  0.00     0.049 A 
ATOM     17  N   UNL A   1      42.368  26.534  27.930  1.00  0.00    -0.248 NA
ATOM     18  C   UNL A   1      40.062  26.180  27.937  1.00  0.00     0.031 C 
ATOM     19  C   UNL A   1      41.739  30.736  29.282  1.00  0.00     0.029 A 
ATOM     20  N   UNL A   1      43.256  29.199  28.699  1.00  0.00    -0.354 N 
ATOM     21  C   UNL A   1      42.109  25.206  27.618  1.00  0.00     0.074 A 
ATOM     22  C   UNL A   1      40.672  25.037  27.656  1.00  0.00     0.031 C 
ATOM     23  C   UNL A   1      42.941  31.334  29.296  1.00  0.00     0.029 A 
ATOM     24  C   UNL A   1      43.954  30.370  28.877  1.00  0.00     0.049 A 
ATOM     25  H   UNL A   1      43.687  28.337  28.500  1.00  0.00     0.167 HD
ATOM     26  C   UNL A   1      42.985  24.216  27.327  1.00  0.00     0.037 A 
ATOM     27  C   UNL A   1      45.257  30.646  28.684  1.00  0.00     0.037 A 
ATOM     28  C   UNL A   1      44.409  24.382  27.223  1.00  0.00     0.049 A 
ATOM     29  C   UNL A   1      46.193  29.566  28.235  1.00  0.00     0.074 A 
ATOM     30  C   UNL A   1      45.372  23.434  26.920  1.00  0.00     0.029 A 
ATOM     31  N   UNL A   1      45.073  25.584  27.399  1.00  0.00    -0.354 N 
ATOM     32  N   UNL A   1      45.930  28.315  27.953  1.00  0.00    -0.248 NA
ATOM     33  C   UNL A   1      47.610  29.934  28.088  1.00  0.00     0.031 C 
ATOM     34  C   UNL A   1      46.621  24.067  26.905  1.00  0.00     0.029 A 
ATOM     35  C   UNL A   1      46.431  25.407  27.197  1.00  0.00     0.049 A 
ATOM     36  H   UNL A   1      44.643  26.439  27.632  1.00  0.00     0.167 HD
ATOM     37  C   UNL A   1      47.146  27.741  27.613  1.00  0.00     0.074 A 
ATOM     38  C   UNL A   1      48.145  28.786  27.692  1.00  0.00     0.031 C 
ATOM     39  C   UNL A   1      47.411  26.455  27.282  1.00  0.00     0.037 A 
BRANCH  26  40
ATOM     40  C   UNL A   1      42.420  22.849  27.107  1.00  0.00     0.057 A 
ATOM     41  C   UNL A   1      42.313  22.300  25.820  1.00  0.00     0.134 A 
ATOM     42  C   UNL A   1      42.004  22.068  28.197  1.00  0.00     0.134 A 
ATOM     43  F   UNL A   1      42.678  23.010  24.741  1.00  0.00    -0.206 F 
ATOM     44  C   UNL A   1      41.804  21.015  25.627  1.00  0.00     0.040 A 
ATOM     45  C   UNL A   1      41.503  20.779  28.014  1.00  0.00     0.040 A 
ATOM     46  F   UNL A   1      42.081  22.544  29.450  1.00  0.00    -0.206 F 
ATOM     47  C   UNL A   1      41.401  20.251  26.725  1.00  0.00     0.006 A 
ENDBRANCH  26  40
BRANCH  27  48
ATOM     48  C   UNL A   1      45.739  32.037  28.853  1.00  0.00     0.057 A 
ATOM     49  C   UNL A   1      46.244  32.466  30.091  1.00  0.00     0.134 A 
ATOM     50  C   UNL A   1      45.732  32.946  27.786  1.00  0.00     0.134 A 
ATOM     51  F   UNL A   1      46.260  31.637  31.146  1.00  0.00    -0.206 F 
ATOM     52  C   UNL A   1      46.731  33.763  30.262  1.00  0.00     0.040 A 
ATOM     53  C   UNL A   1      46.225  34.243  27.942  1.00  0.00     0.040 A 
ATOM     54  F   UNL A   1      45.263  32.585  26.580  1.00  0.00    -0.206 F 
ATOM     55  C   UNL A   1      46.725  34.651  29.183  1.00  0.00     0.006 A 
ENDBRANCH  27  48
BRANCH  39  56
ATOM     56  C   UNL A   1      48.837  26.109  27.007  1.00  0.00     0.057 A 
ATOM     57  C   UNL A   1      49.645  25.546  28.007  1.00  0.00     0.134 A 
ATOM     58  C   UNL A   1      49.400  26.316  25.742  1.00  0.00     0.134 A 
ATOM     59  F   UNL A   1      49.160  25.337  29.240  1.00  0.00    -0.206 F 
ATOM     60  C   UNL A   1      50.974  25.203  27.755  1.00  0.00     0.040 A 
ATOM     61  C   UNL A   1      50.726  25.973  25.477  1.00  0.00     0.040 A 
ATOM     62  F   UNL A   1      48.672  26.857  24.750  1.00  0.00    -0.206 F 
ATOM     63  C   UNL A   1      51.516  25.416  26.486  1.00  0.00     0.006 A 
ENDBRANCH  39  56
ENDBRANCH  13  14
ENDBRANCH   6   8
ENDBRANCH   3   4
ENDBRANCH   2   3
ENDBRANCH   1   2
BRANCH   1  64
ATOM     64  N   UNL A   1      33.563  29.282  24.173  1.00  0.00    -0.351 N 
ATOM     65  C   UNL A   1      33.046  28.723  23.031  1.00  0.00     0.269 C 
ATOM     66  H   UNL A   1      34.539  29.410  24.168  1.00  0.00     0.163 HD
ATOM     67  O   UNL A   1      33.809  28.107  22.294  1.00  0.00    -0.268 OA
BRANCH  65  68
ATOM     68  C   UNL A   1      31.642  28.837  22.747  1.00  0.00     0.131 A 
ATOM     69  N   UNL A   1      31.176  29.685  21.779  1.00  0.00    -0.272 N 
ATOM     70  C   UNL A   1      30.507  28.319  23.363  1.00  0.00     0.057 A 
ATOM     71  N   UNL A   1      29.846  29.635  21.608  1.00  0.00    -0.183 NA
ATOM     72  H   UNL A   1      31.763  30.277  21.255  1.00  0.00     0.190 HD
ATOM     73  C   UNL A   1      29.439  28.817  22.579  1.00  0.00     0.145 A 
BRANCH  70  74
ATOM     74  C   UNL A   1      30.436  27.433  24.566  1.00  0.00     0.303 C 
BRANCH  74  75
ATOM     75  N   UNL A   1      30.867  26.053  24.353  1.00  0.00    -0.330 N 
ATOM     76  C   UNL A   1      30.402  25.097  25.356  1.00  0.00     0.262 C 
ATOM     77  C   UNL A   1      30.688  25.561  22.990  1.00  0.00     0.274 C 
ATOM     78  H   UNL A   1      31.876  26.116  24.491  1.00  0.00     0.348 HD
ATOM     79  C   UNL A   1      31.233  23.819  25.275  1.00  0.00     0.062 C 
ATOM     80  C   UNL A   1      31.495  24.276  22.759  1.00  0.00     0.116 C 
ATOM     81  C   UNL A   1      31.282  23.236  23.863  1.00  0.00     0.023 C 
BRANCH  80  82
ATOM     82  C   UNL A   1      32.939  24.616  22.381  1.00  0.00     0.171 C 
ATOM     83  O   UNL A   1      33.204  25.155  21.304  1.00  0.00    -0.294 OA
BRANCH  82  84
ATOM     84  C   UNL A   1      34.050  24.447  23.342  1.00  0.00     0.019 A 
ATOM     85  C   UNL A   1      34.165  25.277  24.457  1.00  0.00     0.012 A 
ATOM     86  C   UNL A   1      34.912  23.355  23.180  1.00  0.00     0.020 A 
ATOM     87  C   UNL A   1      35.190  25.056  25.381  1.00  0.00     0.009 A 
ATOM     88  C   UNL A   1      35.934  23.109  24.112  1.00  0.00    -0.018 A 
ATOM     89  C   UNL A   1      36.081  23.979  25.222  1.00  0.00    -0.018 A 
ATOM     90  C   UNL A   1      36.805  22.013  23.976  1.00  0.00     0.009 A 
ATOM     91  C   UNL A   1      37.102  23.735  26.155  1.00  0.00     0.009 A 
ATOM     92  C   UNL A   1      37.811  21.781  24.916  1.00  0.00     0.001 A 
ATOM     93  C   UNL A   1      37.961  22.641  26.002  1.00  0.00     0.001 A 
ENDBRANCH  82  84
ENDBRANCH  80  82
ENDBRANCH  74  75
ENDBRANCH  70  74
ENDBRANCH  65  68
ENDBRANCH   1  64
TORSDOF 14
ENDMDL
MODEL 2
REMARK VINA RESULT:     -13.7      5.148      9.652
REMARK SMILES O=C(NCCCNC(=O)c1[nH]ncc1C[N@H+]1CCC[C@H](C(=O)c2ccc3ccccc3c2)C1)c1ccc(-c2c3nc(c(-c4c(F)cccc4F)c4ccc([nH]4)c(-c4c(F)cccc4F)c4nc(c(-c5c(F)cccc5F)c5ccc2[nH]5)C=C4)C=C3)cc1
REMARK SMILES IDX 6 1 5 2 4 3 3 4 1 5 2 6 34 8 35 9 87 10 36 11 86 12 37 13
REMARK SMILES IDX 38 14 39 15 80 16 40 17 85 18 79 19 81 20 41 21 84 22 78 23
REMARK SMILES IDX 77 24 42 26 68 27 51 28 67 29 52 30 55 31 66 32 82 33 53 34
REMARK SMILES IDX 54 35 65 37 83 38 56 39 43 40 44 41 49 42 45 43 46 44 48 45
REMARK SMILES IDX 50 46 47 47 69 48 70 49 75 50 71 51 72 52 74 53 76 54 73 55
REMARK SMILES IDX 57 56 58 57 63 58 59 59 60 60 62 61 64 62 61 63 7 64 8 65
REMARK SMILES IDX 9 67 10 68 11 69 14 70 12 71 13 73 15 74 16 75 17 76 33 77
REMARK SMILES IDX 18 79 20 80 19 81 21 82 22 83 23 84 24 85 32 86 25 87 31 88
REMARK SMILES IDX 26 89 30 90 27 91 29 92 28 93
REMARK H PARENT 3 7 81 25 55 36 7 66 11 72 16 78
REMARK Flexibility Score: inf
ROOT
ATOM      1  C   UNL A   1      36.294  21.701  25.753  1.00  0.00     0.118 C 
ENDROOT
BRANCH   1   2
ATOM      2  C   UNL A   1      36.727  22.992  25.060  1.00  0.00     0.042 C 
BRANCH   2   3
ATOM      3  C   UNL A   1      37.677  23.851  25.890  1.00  0.00     0.118 C 
BRANCH   3   4
ATOM      4  N   UNL A   1      39.025  23.301  25.955  1.00  0.00    -0.352 N 
ATOM      5  O   UNL A   1      41.246  23.227  26.249  1.00  0.00    -0.269 OA
ATOM      6  C   UNL A   1      40.186  23.792  26.505  1.00  0.00     0.251 C 
ATOM      7  H   UNL A   1      39.122  22.419  25.530  1.00  0.00     0.163 HD
BRANCH   6   8
ATOM      8  C   UNL A   1      40.197  24.994  27.377  1.00  0.00     0.039 A 
ATOM      9  C   UNL A   1      40.945  26.129  27.064  1.00  0.00     0.014 A 
ATOM     10  C   UNL A   1      39.363  25.013  28.503  1.00  0.00     0.014 A 
ATOM     11  C   UNL A   1      40.975  27.210  27.945  1.00  0.00     0.010 A 
ATOM     12  C   UNL A   1      39.332  26.133  29.346  1.00  0.00     0.010 A 
ATOM     13  C   UNL A   1      40.170  27.227  29.097  1.00  0.00    -0.014 A 
BRANCH  13  14
ATOM     14  C   UNL A   1      40.225  28.408  30.000  1.00  0.00     0.031 A 
ATOM     15  C   UNL A   1      39.168  29.478  29.945  1.00  0.00     0.074 A 
ATOM     16  C   UNL A   1      41.190  28.474  30.940  1.00  0.00     0.049 A 
ATOM     17  N   UNL A   1      38.996  30.503  30.742  1.00  0.00    -0.248 NA
ATOM     18  C   UNL A   1      38.186  29.399  28.852  1.00  0.00     0.031 C 
ATOM     19  C   UNL A   1      42.295  27.524  31.084  1.00  0.00     0.029 A 
ATOM     20  N   UNL A   1      41.361  29.345  31.987  1.00  0.00    -0.354 N 
ATOM     21  C   UNL A   1      37.921  31.213  30.224  1.00  0.00     0.074 A 
ATOM     22  C   UNL A   1      37.473  30.499  29.047  1.00  0.00     0.031 C 
ATOM     23  C   UNL A   1      42.969  27.803  32.212  1.00  0.00     0.029 A 
ATOM     24  C   UNL A   1      42.357  28.964  32.853  1.00  0.00     0.049 A 
ATOM     25  H   UNL A   1      40.823  30.162  32.105  1.00  0.00     0.167 HD
ATOM     26  C   UNL A   1      37.357  32.355  30.683  1.00  0.00     0.037 A 
ATOM     27  C   UNL A   1      42.712  29.467  34.050  1.00  0.00     0.037 A 
ATOM     28  C   UNL A   1      37.749  33.041  31.883  1.00  0.00     0.049 A 
ATOM     29  C   UNL A   1      41.989  30.657  34.606  1.00  0.00     0.074 A 
ATOM     30  C   UNL A   1      37.223  34.200  32.430  1.00  0.00     0.029 A 
ATOM     31  N   UNL A   1      38.753  32.616  32.737  1.00  0.00    -0.354 N 
ATOM     32  N   UNL A   1      40.981  31.318  34.097  1.00  0.00    -0.248 NA
ATOM     33  C   UNL A   1      42.462  31.176  35.899  1.00  0.00     0.031 C 
ATOM     34  C   UNL A   1      37.906  34.471  33.622  1.00  0.00     0.029 A 
ATOM     35  C   UNL A   1      38.854  33.480  33.813  1.00  0.00     0.049 A 
ATOM     36  H   UNL A   1      39.312  31.817  32.599  1.00  0.00     0.167 HD
ATOM     37  C   UNL A   1      40.709  32.341  34.993  1.00  0.00     0.074 A 
ATOM     38  C   UNL A   1      41.637  32.196  36.096  1.00  0.00     0.031 C 
ATOM     39  C   UNL A   1      39.783  33.324  34.899  1.00  0.00     0.037 A 
BRANCH  26  40
ATOM     40  C   UNL A   1      36.249  32.944  29.867  1.00  0.00     0.057 A 
ATOM     41  C   UNL A   1      36.511  33.677  28.701  1.00  0.00     0.134 A 
ATOM     42  C   UNL A   1      34.911  32.750  30.243  1.00  0.00     0.134 A 
ATOM     43  F   UNL A   1      37.773  33.909  28.306  1.00  0.00    -0.206 F 
ATOM     44  C   UNL A   1      35.470  34.204  27.935  1.00  0.00     0.040 A 
ATOM     45  C   UNL A   1      33.863  33.264  29.479  1.00  0.00     0.040 A 
ATOM     46  F   UNL A   1      34.603  32.058  31.352  1.00  0.00    -0.206 F 
ATOM     47  C   UNL A   1      34.144  33.995  28.322  1.00  0.00     0.006 A 
ENDBRANCH  26  40
BRANCH  27  48
ATOM     48  C   UNL A   1      43.770  28.795  34.838  1.00  0.00     0.057 A 
ATOM     49  C   UNL A   1      45.111  29.191  34.706  1.00  0.00     0.134 A 
ATOM     50  C   UNL A   1      43.466  27.774  35.749  1.00  0.00     0.134 A 
ATOM     51  F   UNL A   1      45.456  30.155  33.838  1.00  0.00    -0.206 F 
ATOM     52  C   UNL A   1      46.120  28.591  35.461  1.00  0.00     0.040 A 
ATOM     53  C   UNL A   1      44.464  27.172  36.517  1.00  0.00     0.040 A 
ATOM     54  F   UNL A   1      42.199  27.361  35.916  1.00  0.00    -0.206 F 
ATOM     55  C   UNL A   1      45.794  27.582  36.372  1.00  0.00     0.006 A 
ENDBRANCH  27  48
BRANCH  39  56
ATOM     56  C   UNL A   1      39.748  34.327  36.005  1.00  0.00     0.057 A 
ATOM     57  C   UNL A   1      39.026  34.074  37.182  1.00  0.00     0.134 A 
ATOM     58  C   UNL A   1      40.453  35.533  35.909  1.00  0.00     0.134 A 
ATOM     59  F   UNL A   1      38.324  32.939  37.321  1.00  0.00    -0.206 F 
ATOM     60  C   UNL A   1      39.003  34.996  38.228  1.00  0.00     0.040 A 
ATOM     61  C   UNL A   1      40.441  36.461  36.951  1.00  0.00     0.040 A 
ATOM     62  F   UNL A   1      41.157  35.828  34.803  1.00  0.00    -0.206 F 
ATOM     63  C   UNL A   1      39.713  36.192  38.113  1.00  0.00     0.006 A 
ENDBRANCH  39  56
ENDBRANCH  13  14
ENDBRANCH   6   8
ENDBRANCH   3   4
ENDBRANCH   2   3
ENDBRANCH   1   2
BRANCH   1  64
ATOM     64  N   UNL A   1      35.344  21.954  26.828  1.00  0.00    -0.351 N 
ATOM     65  C   UNL A   1      33.986  21.757  26.869  1.00  0.00     0.269 C 
ATOM     66  H   UNL A   1      35.735  22.324  27.653  1.00  0.00     0.163 HD
ATOM     67  O   UNL A   1      33.340  22.367  27.715  1.00  0.00    -0.268 OA
BRANCH  65  68
ATOM     68  C   UNL A   1      33.358  20.887  25.914  1.00  0.00     0.131 A 
ATOM     69  N   UNL A   1      32.980  19.614  26.249  1.00  0.00    -0.272 N 
ATOM     70  C   UNL A   1      33.114  20.998  24.549  1.00  0.00     0.057 A 
ATOM     71  N   UNL A   1      32.365  18.952  25.258  1.00  0.00    -0.183 NA
ATOM     72  H   UNL A   1      33.145  19.220  27.137  1.00  0.00     0.190 HD
ATOM     73  C   UNL A   1      32.459  19.787  24.222  1.00  0.00     0.145 A 
BRANCH  70  74
ATOM     74  C   UNL A   1      33.455  22.138  23.644  1.00  0.00     0.303 C 
BRANCH  74  75
ATOM     75  N   UNL A   1      32.563  23.292  23.727  1.00  0.00    -0.330 N 
ATOM     76  C   UNL A   1      32.491  24.108  22.516  1.00  0.00     0.262 C 
ATOM     77  C   UNL A   1      31.244  23.005  24.284  1.00  0.00     0.274 C 
ATOM     78  H   UNL A   1      33.030  23.880  24.418  1.00  0.00     0.348 HD
ATOM     79  C   UNL A   1      31.887  25.471  22.847  1.00  0.00     0.062 C 
ATOM     80  C   UNL A   1      30.523  24.299  24.686  1.00  0.00     0.116 C 
ATOM     81  C   UNL A   1      30.550  25.360  23.580  1.00  0.00     0.023 C 
BRANCH  80  82
ATOM     82  C   UNL A   1      30.954  24.734  26.089  1.00  0.00     0.171 C 
ATOM     83  O   UNL A   1      30.603  24.099  27.086  1.00  0.00    -0.294 OA
BRANCH  82  84
ATOM     84  C   UNL A   1      31.918  25.836  26.295  1.00  0.00     0.019 A 
ATOM     85  C   UNL A   1      33.274  25.662  26.023  1.00  0.00     0.012 A 
ATOM     86  C   UNL A   1      31.422  27.097  26.649  1.00  0.00     0.020 A 
ATOM     87  C   UNL A   1      34.153  26.738  26.169  1.00  0.00     0.009 A 
ATOM     88  C   UNL A   1      32.292  28.193  26.780  1.00  0.00    -0.018 A 
ATOM     89  C   UNL A   1      33.678  28.007  26.547  1.00  0.00    -0.018 A 
ATOM     90  C   UNL A   1      31.817  29.472  27.124  1.00  0.00     0.009 A 
ATOM     91  C   UNL A   1      34.549  29.101  26.678  1.00  0.00     0.009 A 
ATOM     92  C   UNL A   1      32.696  30.550  27.243  1.00  0.00     0.001 A 
ATOM     93  C   UNL A   1      34.059  30.365  27.023  1.00  0.00     0.001 A 
ENDBRANCH  82  84
ENDBRANCH  80  82
ENDBRANCH  74  75
ENDBRANCH  70  74
ENDBRANCH  65  68
ENDBRANCH   1  64
TORSDOF 14
ENDMDL
MODEL 3
REMARK VINA RESULT:     -12.9      5.405     10.178
REMARK SMILES O=C(NCCCNC(=O)c1[nH]ncc1C[N@H+]1CCC[C@H](C(=O)c2ccc3ccccc3c2)C1)c1ccc(-c2c3nc(c(-c4c(F)cccc4F)c4ccc([nH]4)c(-c4c(F)cccc4F)c4nc(c(-c5c(F)cccc5F)c5ccc2[nH]5)C=C4)C=C3)cc1
REMARK SMILES IDX 6 1 5 2 4 3 3 4 1 5 2 6 34 8 35 9 87 10 36 11 86 12 37 13
REMARK SMILES IDX 38 14 39 15 80 16 40 17 85 18 79 19 81 20 41 21 84 22 78 23
REMARK SMILES IDX 77 24 42 26 68 27 51 28 67 29 52 30 55 31 66 32 82 33 53 34
REMARK SMILES IDX 54 35 65 37 83 38 56 39 43 40 44 41 49 42 45 43 46 44 48 45
REMARK SMILES IDX 50 46 47 47 69 48 70 49 75 50 71 51 72 52 74 53 76 54 73 55
REMARK SMILES IDX 57 56 58 57 63 58 59 59 60 60 62 61 64 62 61 63 7 64 8 65
REMARK SMILES IDX 9 67 10 68 11 69 14 70 12 71 13 73 15 74 16 75 17 76 33 77
REMARK SMILES IDX 18 79 20 80 19 81 21 82 22 83 23 84 24 85 32 86 25 87 31 88
REMARK SMILES IDX 26 89 30 90 27 91 29 92 28 93
REMARK H PARENT 3 7 81 25 55 36 7 66 11 72 16 78
REMARK Flexibility Score: inf
ROOT
ATOM      1  C   UNL A   1      36.315  22.075  25.261  1.00  0.00     0.118 C 
ENDROOT
BRANCH   1   2
ATOM      2  C   UNL A   1      36.789  23.508  25.028  1.00  0.00     0.042 C 
BRANCH   2   3
ATOM      3  C   UNL A   1      37.630  24.074  26.171  1.00  0.00     0.118 C 
BRANCH   3   4
ATOM      4  N   UNL A   1      39.017  23.629  26.125  1.00  0.00    -0.352 N 
ATOM      5  O   UNL A   1      41.252  23.719  26.277  1.00  0.00    -0.269 OA
ATOM      6  C   UNL A   1      40.170  24.186  26.626  1.00  0.00     0.251 C 
ATOM      7  H   UNL A   1      39.153  22.778  25.651  1.00  0.00     0.163 HD
BRANCH   6   8
ATOM      8  C   UNL A   1      40.148  25.344  27.554  1.00  0.00     0.039 A 
ATOM      9  C   UNL A   1      40.816  26.536  27.268  1.00  0.00     0.014 A 
ATOM     10  C   UNL A   1      39.360  25.262  28.710  1.00  0.00     0.014 A 
ATOM     11  C   UNL A   1      40.820  27.575  28.199  1.00  0.00     0.010 A 
ATOM     12  C   UNL A   1      39.298  26.338  29.606  1.00  0.00     0.010 A 
ATOM     13  C   UNL A   1      40.061  27.490  29.379  1.00  0.00    -0.014 A 
BRANCH  13  14
ATOM     14  C   UNL A   1      40.085  28.630  30.336  1.00  0.00     0.031 A 
ATOM     15  C   UNL A   1      39.035  29.707  30.287  1.00  0.00     0.074 A 
ATOM     16  C   UNL A   1      41.011  28.648  31.316  1.00  0.00     0.049 A 
ATOM     17  N   UNL A   1      38.834  30.696  31.122  1.00  0.00    -0.248 NA
ATOM     18  C   UNL A   1      38.097  29.682  29.154  1.00  0.00     0.031 C 
ATOM     19  C   UNL A   1      42.106  27.687  31.462  1.00  0.00     0.029 A 
ATOM     20  N   UNL A   1      41.143  29.471  32.407  1.00  0.00    -0.354 N 
ATOM     21  C   UNL A   1      37.784  31.435  30.593  1.00  0.00     0.074 A 
ATOM     22  C   UNL A   1      37.380  30.776  29.368  1.00  0.00     0.031 C 
ATOM     23  C   UNL A   1      42.735  27.912  32.627  1.00  0.00     0.029 A 
ATOM     24  C   UNL A   1      42.102  29.046  33.294  1.00  0.00     0.049 A 
ATOM     25  H   UNL A   1      40.604  30.285  32.540  1.00  0.00     0.167 HD
ATOM     26  C   UNL A   1      37.206  32.558  31.080  1.00  0.00     0.037 A 
ATOM     27  C   UNL A   1      42.410  29.494  34.526  1.00  0.00     0.037 A 
ATOM     28  C   UNL A   1      37.552  33.188  32.325  1.00  0.00     0.049 A 
ATOM     29  C   UNL A   1      41.671  30.662  35.105  1.00  0.00     0.074 A 
ATOM     30  C   UNL A   1      37.008  34.324  32.901  1.00  0.00     0.029 A 
ATOM     31  N   UNL A   1      38.520  32.720  33.198  1.00  0.00    -0.354 N 
ATOM     32  N   UNL A   1      40.686  31.350  34.586  1.00  0.00    -0.248 NA
ATOM     33  C   UNL A   1      42.094  31.120  36.437  1.00  0.00     0.031 C 
ATOM     34  C   UNL A   1      37.645  34.538  34.130  1.00  0.00     0.029 A 
ATOM     35  C   UNL A   1      38.580  33.535  34.315  1.00  0.00     0.049 A 
ATOM     36  H   UNL A   1      39.080  31.924  33.047  1.00  0.00     0.167 HD
ATOM     37  C   UNL A   1      40.383  32.334  35.515  1.00  0.00     0.074 A 
ATOM     38  C   UNL A   1      41.265  32.134  36.647  1.00  0.00     0.031 C 
ATOM     39  C   UNL A   1      39.464  33.325  35.429  1.00  0.00     0.037 A 
BRANCH  26  40
ATOM     40  C   UNL A   1      36.134  33.189  30.248  1.00  0.00     0.057 A 
ATOM     41  C   UNL A   1      34.778  33.061  30.583  1.00  0.00     0.134 A 
ATOM     42  C   UNL A   1      36.468  33.951  29.118  1.00  0.00     0.134 A 
ATOM     43  F   UNL A   1      34.401  32.328  31.643  1.00  0.00    -0.206 F 
ATOM     44  C   UNL A   1      33.787  33.671  29.813  1.00  0.00     0.040 A 
ATOM     45  C   UNL A   1      35.485  34.573  28.348  1.00  0.00     0.040 A 
ATOM     46  F   UNL A   1      37.750  34.105  28.750  1.00  0.00    -0.206 F 
ATOM     47  C   UNL A   1      34.140  34.431  28.696  1.00  0.00     0.006 A 
ENDBRANCH  26  40
BRANCH  27  48
ATOM     48  C   UNL A   1      43.434  28.781  35.324  1.00  0.00     0.057 A 
ATOM     49  C   UNL A   1      43.052  27.796  36.250  1.00  0.00     0.134 A 
ATOM     50  C   UNL A   1      44.802  29.043  35.159  1.00  0.00     0.134 A 
ATOM     51  F   UNL A   1      41.755  27.518  36.453  1.00  0.00    -0.206 F 
ATOM     52  C   UNL A   1      44.002  27.092  36.990  1.00  0.00     0.040 A 
ATOM     53  C   UNL A   1      45.763  28.339  35.886  1.00  0.00     0.040 A 
ATOM     54  F   UNL A   1      45.220  29.972  34.284  1.00  0.00    -0.206 F 
ATOM     55  C   UNL A   1      45.361  27.361  36.803  1.00  0.00     0.006 A 
ENDBRANCH  27  48
BRANCH  39  56
ATOM     56  C   UNL A   1      39.389  34.277  36.577  1.00  0.00     0.057 A 
ATOM     57  C   UNL A   1      38.645  33.963  37.724  1.00  0.00     0.134 A 
ATOM     58  C   UNL A   1      40.077  35.497  36.549  1.00  0.00     0.134 A 
ATOM     59  F   UNL A   1      37.958  32.812  37.797  1.00  0.00    -0.206 F 
ATOM     60  C   UNL A   1      38.583  34.838  38.809  1.00  0.00     0.040 A 
ATOM     61  C   UNL A   1      40.027  36.378  37.630  1.00  0.00     0.040 A 
ATOM     62  F   UNL A   1      40.801  35.850  35.474  1.00  0.00    -0.206 F 
ATOM     63  C   UNL A   1      39.277  36.048  38.762  1.00  0.00     0.006 A 
ENDBRANCH  39  56
ENDBRANCH  13  14
ENDBRANCH   6   8
ENDBRANCH   3   4
ENDBRANCH   2   3
ENDBRANCH   1   2
BRANCH   1  64
ATOM     64  N   UNL A   1      35.549  21.949  26.494  1.00  0.00    -0.351 N 
ATOM     65  C   UNL A   1      34.287  21.450  26.701  1.00  0.00     0.269 C 
ATOM     66  H   UNL A   1      36.006  22.271  27.304  1.00  0.00     0.163 HD
ATOM     67  O   UNL A   1      33.702  21.771  27.731  1.00  0.00    -0.268 OA
BRANCH  65  68
ATOM     68  C   UNL A   1      33.674  20.612  25.708  1.00  0.00     0.131 A 
ATOM     69  N   UNL A   1      34.272  19.455  25.284  1.00  0.00    -0.272 N 
ATOM     70  C   UNL A   1      32.550  20.764  24.902  1.00  0.00     0.057 A 
ATOM     71  N   UNL A   1      33.547  18.765  24.390  1.00  0.00    -0.183 NA
ATOM     72  H   UNL A   1      35.153  19.156  25.606  1.00  0.00     0.190 HD
ATOM     73  C   UNL A   1      32.509  19.567  24.148  1.00  0.00     0.145 A 
BRANCH  70  74
ATOM     74  C   UNL A   1      31.603  21.920  24.854  1.00  0.00     0.303 C 
BRANCH  74  75
ATOM     75  N   UNL A   1      32.017  23.034  24.005  1.00  0.00    -0.330 N 
ATOM     76  C   UNL A   1      32.944  22.682  22.929  1.00  0.00     0.262 C 
ATOM     77  C   UNL A   1      30.927  23.889  23.543  1.00  0.00     0.274 C 
ATOM     78  H   UNL A   1      32.562  23.608  24.649  1.00  0.00     0.348 HD
ATOM     79  C   UNL A   1      33.617  23.944  22.395  1.00  0.00     0.062 C 
ATOM     80  C   UNL A   1      31.464  25.217  22.993  1.00  0.00     0.116 C 
ATOM     81  C   UNL A   1      32.612  25.024  21.996  1.00  0.00     0.023 C 
BRANCH  80  82
ATOM     82  C   UNL A   1      31.682  26.215  24.133  1.00  0.00     0.171 C 
ATOM     83  O   UNL A   1      32.491  25.984  25.034  1.00  0.00    -0.294 OA
BRANCH  82  84
ATOM     84  C   UNL A   1      31.047  27.551  24.123  1.00  0.00     0.019 A 
ATOM     85  C   UNL A   1      31.617  28.621  24.811  1.00  0.00     0.012 A 
ATOM     86  C   UNL A   1      29.929  27.750  23.303  1.00  0.00     0.020 A 
ATOM     87  C   UNL A   1      31.027  29.886  24.734  1.00  0.00     0.009 A 
ATOM     88  C   UNL A   1      29.338  29.020  23.201  1.00  0.00    -0.018 A 
ATOM     89  C   UNL A   1      29.890  30.100  23.936  1.00  0.00    -0.018 A 
ATOM     90  C   UNL A   1      28.221  29.248  22.377  1.00  0.00     0.009 A 
ATOM     91  C   UNL A   1      29.300  31.372  23.835  1.00  0.00     0.009 A 
ATOM     92  C   UNL A   1      27.651  30.520  22.283  1.00  0.00     0.001 A 
ATOM     93  C   UNL A   1      28.188  31.579  23.012  1.00  0.00     0.001 A 
ENDBRANCH  82  84
ENDBRANCH  80  82
ENDBRANCH  74  75
ENDBRANCH  70  74
ENDBRANCH  65  68
ENDBRANCH   1  64
TORSDOF 14
ENDMDL
