MODEL 1
REMARK VINA RESULT:     -11.6      0.000      0.000
REMARK SMILES O=C(NCCCNC(=O)c1cccc(S(=O)(=O)Cc2cccc(O)c2)c1)c1ccc(-c2c3nc(c(-c4c(F)cccc4F)c4ccc([nH]4)c(-c4c(F)cccc4F)c4nc(c(-c5c(F)cccc5F)c5ccc2[nH]5)C=C4)C=C3)cc1
REMARK SMILES IDX 6 1 5 2 4 3 3 4 1 5 2 6 27 8 28 9 80 10 29 11 79 12 30 13
REMARK SMILES IDX 31 14 32 15 73 16 33 17 78 18 72 19 74 20 34 21 77 22 71 23
REMARK SMILES IDX 70 24 35 26 61 27 44 28 60 29 45 30 48 31 59 32 75 33 46 34
REMARK SMILES IDX 47 35 58 37 76 38 49 39 36 40 37 41 42 42 38 43 39 44 41 45
REMARK SMILES IDX 43 46 40 47 62 48 63 49 68 50 64 51 65 52 67 53 69 54 66 55
REMARK SMILES IDX 50 56 51 57 56 58 52 59 53 60 55 61 57 62 54 63 7 64 8 65
REMARK SMILES IDX 9 67 10 68 11 69 26 70 12 71 14 72 13 73 15 74 16 75 17 76
REMARK SMILES IDX 18 77 19 78 20 79 25 80 21 81 23 82 22 83 24 84
REMARK H PARENT 3 7 74 25 48 36 7 66 24 85
REMARK Flexibility Score: inf
ROOT
ATOM      1  C   UNL A   1      37.291  21.285  24.336  1.00  0.00     0.118 C 
ENDROOT
BRANCH   1   2
ATOM      2  C   UNL A   1      37.892  19.940  24.692  1.00  0.00     0.042 C 
BRANCH   2   3
ATOM      3  C   UNL A   1      38.776  19.976  25.927  1.00  0.00     0.118 C 
BRANCH   3   4
ATOM      4  N   UNL A   1      40.027  19.243  25.772  1.00  0.00    -0.352 N 
ATOM      5  O   UNL A   1      42.247  18.840  25.746  1.00  0.00    -0.269 OA
ATOM      6  C   UNL A   1      41.328  19.606  26.028  1.00  0.00     0.251 C 
ATOM      7  H   UNL A   1      39.921  18.328  25.424  1.00  0.00     0.163 HD
BRANCH   6   8
ATOM      8  C   UNL A   1      41.656  20.932  26.589  1.00  0.00     0.039 A 
ATOM      9  C   UNL A   1      41.911  22.029  25.770  1.00  0.00     0.014 A 
ATOM     10  C   UNL A   1      41.680  21.082  27.982  1.00  0.00     0.014 A 
ATOM     11  C   UNL A   1      42.366  23.216  26.329  1.00  0.00     0.010 A 
ATOM     12  C   UNL A   1      42.020  22.314  28.547  1.00  0.00     0.010 A 
ATOM     13  C   UNL A   1      42.400  23.380  27.723  1.00  0.00    -0.014 A 
BRANCH  13  14
ATOM     14  C   UNL A   1      42.748  24.712  28.274  1.00  0.00     0.031 A 
ATOM     15  C   UNL A   1      44.172  25.093  28.561  1.00  0.00     0.074 A 
ATOM     16  C   UNL A   1      41.751  25.596  28.469  1.00  0.00     0.049 A 
ATOM     17  N   UNL A   1      44.643  26.235  28.993  1.00  0.00    -0.248 NA
ATOM     18  C   UNL A   1      45.201  24.063  28.348  1.00  0.00     0.031 C 
ATOM     19  C   UNL A   1      40.327  25.319  28.249  1.00  0.00     0.029 A 
ATOM     20  N   UNL A   1      41.774  26.908  28.861  1.00  0.00    -0.354 N 
ATOM     21  C   UNL A   1      46.014  26.057  29.127  1.00  0.00     0.074 A 
ATOM     22  C   UNL A   1      46.300  24.690  28.746  1.00  0.00     0.031 C 
ATOM     23  C   UNL A   1      39.624  26.443  28.442  1.00  0.00     0.029 A 
ATOM     24  C   UNL A   1      40.535  27.500  28.862  1.00  0.00     0.049 A 
ATOM     25  H   UNL A   1      42.600  27.381  29.117  1.00  0.00     0.167 HD
ATOM     26  C   UNL A   1      46.943  26.956  29.527  1.00  0.00     0.037 A 
ATOM     27  C   UNL A   1      40.168  28.755  29.176  1.00  0.00     0.037 A 
ATOM     28  C   UNL A   1      46.651  28.323  29.877  1.00  0.00     0.049 A 
ATOM     29  C   UNL A   1      41.223  29.731  29.598  1.00  0.00     0.074 A 
ATOM     30  C   UNL A   1      47.529  29.324  30.255  1.00  0.00     0.029 A 
ATOM     31  N   UNL A   1      45.380  28.879  29.889  1.00  0.00    -0.354 N 
ATOM     32  N   UNL A   1      42.518  29.554  29.689  1.00  0.00    -0.248 NA
ATOM     33  C   UNL A   1      40.768  31.076  29.970  1.00  0.00     0.031 C 
ATOM     34  C   UNL A   1      46.785  30.477  30.528  1.00  0.00     0.029 A 
ATOM     35  C   UNL A   1      45.449  30.204  30.286  1.00  0.00     0.049 A 
ATOM     36  H   UNL A   1      44.552  28.403  29.650  1.00  0.00     0.167 HD
ATOM     37  C   UNL A   1      43.035  30.763  30.128  1.00  0.00     0.074 A 
ATOM     38  C   UNL A   1      41.916  31.674  30.255  1.00  0.00     0.031 C 
ATOM     39  C   UNL A   1      44.319  31.089  30.410  1.00  0.00     0.037 A 
BRANCH  26  40
ATOM     40  C   UNL A   1      48.368  26.497  29.621  1.00  0.00     0.057 A 
ATOM     41  C   UNL A   1      49.279  26.693  28.576  1.00  0.00     0.134 A 
ATOM     42  C   UNL A   1      48.850  25.908  30.798  1.00  0.00     0.134 A 
ATOM     43  F   UNL A   1      48.879  27.240  27.419  1.00  0.00    -0.206 F 
ATOM     44  C   UNL A   1      50.618  26.313  28.695  1.00  0.00     0.040 A 
ATOM     45  C   UNL A   1      50.189  25.541  30.935  1.00  0.00     0.040 A 
ATOM     46  F   UNL A   1      48.029  25.696  31.838  1.00  0.00    -0.206 F 
ATOM     47  C   UNL A   1      51.078  25.743  29.881  1.00  0.00     0.006 A 
ENDBRANCH  26  40
BRANCH  27  48
ATOM     48  C   UNL A   1      38.739  29.145  29.105  1.00  0.00     0.057 A 
ATOM     49  C   UNL A   1      37.912  29.078  30.232  1.00  0.00     0.134 A 
ATOM     50  C   UNL A   1      38.173  29.616  27.914  1.00  0.00     0.134 A 
ATOM     51  F   UNL A   1      38.396  28.622  31.398  1.00  0.00    -0.206 F 
ATOM     52  C   UNL A   1      36.570  29.455  30.176  1.00  0.00     0.040 A 
ATOM     53  C   UNL A   1      36.840  30.020  27.849  1.00  0.00     0.040 A 
ATOM     54  F   UNL A   1      38.917  29.714  26.804  1.00  0.00    -0.206 F 
ATOM     55  C   UNL A   1      36.033  29.934  28.982  1.00  0.00     0.006 A 
ENDBRANCH  27  48
BRANCH  39  56
ATOM     56  C   UNL A   1      44.570  32.488  30.878  1.00  0.00     0.057 A 
ATOM     57  C   UNL A   1      44.812  33.529  29.974  1.00  0.00     0.134 A 
ATOM     58  C   UNL A   1      44.555  32.800  32.242  1.00  0.00     0.134 A 
ATOM     59  F   UNL A   1      44.856  33.287  28.654  1.00  0.00    -0.206 F 
ATOM     60  C   UNL A   1      45.053  34.831  30.411  1.00  0.00     0.040 A 
ATOM     61  C   UNL A   1      44.773  34.102  32.692  1.00  0.00     0.040 A 
ATOM     62  F   UNL A   1      44.323  31.846  33.156  1.00  0.00    -0.206 F 
ATOM     63  C   UNL A   1      45.029  35.121  31.775  1.00  0.00     0.006 A 
ENDBRANCH  39  56
ENDBRANCH  13  14
ENDBRANCH   6   8
ENDBRANCH   3   4
ENDBRANCH   2   3
ENDBRANCH   1   2
BRANCH   1  64
ATOM     64  N   UNL A   1      37.849  22.400  25.082  1.00  0.00    -0.352 N 
ATOM     65  C   UNL A   1      37.190  23.455  25.663  1.00  0.00     0.251 C 
ATOM     66  H   UNL A   1      38.828  22.398  25.185  1.00  0.00     0.163 HD
ATOM     67  O   UNL A   1      37.805  24.319  26.274  1.00  0.00    -0.269 OA
BRANCH  65  68
ATOM     68  C   UNL A   1      35.727  23.564  25.494  1.00  0.00     0.041 A 
ATOM     69  C   UNL A   1      34.921  23.121  26.547  1.00  0.00     0.014 A 
ATOM     70  C   UNL A   1      35.171  24.142  24.342  1.00  0.00     0.034 A 
ATOM     71  C   UNL A   1      33.546  23.312  26.482  1.00  0.00     0.002 A 
ATOM     72  C   UNL A   1      33.800  24.370  24.307  1.00  0.00     0.068 A 
ATOM     73  C   UNL A   1      32.988  23.951  25.374  1.00  0.00     0.020 A 
BRANCH  72  74
ATOM     74  S   UNL A   1      32.977  25.202  22.969  1.00  0.00     0.182 S 
ATOM     75  O   UNL A   1      34.046  25.858  22.233  1.00  0.00    -0.223 OA
ATOM     76  O   UNL A   1      32.168  24.193  22.308  1.00  0.00    -0.223 OA
BRANCH  74  77
ATOM     77  C   UNL A   1      31.921  26.500  23.568  1.00  0.00     0.177 C 
BRANCH  77  78
ATOM     78  C   UNL A   1      32.363  27.204  24.829  1.00  0.00    -0.029 A 
ATOM     79  C   UNL A   1      33.650  27.736  25.001  1.00  0.00     0.005 A 
ATOM     80  C   UNL A   1      31.494  27.209  25.936  1.00  0.00     0.051 A 
ATOM     81  C   UNL A   1      34.034  28.314  26.217  1.00  0.00     0.004 A 
ATOM     82  C   UNL A   1      31.887  27.788  27.141  1.00  0.00     0.115 A 
ATOM     83  C   UNL A   1      33.146  28.348  27.287  1.00  0.00     0.046 A 
BRANCH  82  84
ATOM     84  O   UNL A   1      31.017  27.883  28.187  1.00  0.00    -0.508 OA
ATOM     85  H   UNL A   1      30.162  28.239  28.053  1.00  0.00     0.293 HD
ENDBRANCH  82  84
ENDBRANCH  77  78
ENDBRANCH  74  77
ENDBRANCH  72  74
ENDBRANCH  65  68
ENDBRANCH   1  64
TORSDOF 14
ENDMDL
MODEL 2
REMARK VINA RESULT:     -11.4      4.311      9.282
REMARK SMILES O=C(NCCCNC(=O)c1cccc(S(=O)(=O)Cc2cccc(O)c2)c1)c1ccc(-c2c3nc(c(-c4c(F)cccc4F)c4ccc([nH]4)c(-c4c(F)cccc4F)c4nc(c(-c5c(F)cccc5F)c5ccc2[nH]5)C=C4)C=C3)cc1
REMARK SMILES IDX 6 1 5 2 4 3 3 4 1 5 2 6 27 8 28 9 80 10 29 11 79 12 30 13
REMARK SMILES IDX 31 14 32 15 73 16 33 17 78 18 72 19 74 20 34 21 77 22 71 23
REMARK SMILES IDX 70 24 35 26 61 27 44 28 60 29 45 30 48 31 59 32 75 33 46 34
REMARK SMILES IDX 47 35 58 37 76 38 49 39 36 40 37 41 42 42 38 43 39 44 41 45
REMARK SMILES IDX 43 46 40 47 62 48 63 49 68 50 64 51 65 52 67 53 69 54 66 55
REMARK SMILES IDX 50 56 51 57 56 58 52 59 53 60 55 61 57 62 54 63 7 64 8 65
REMARK SMILES IDX 9 67 10 68 11 69 26 70 12 71 14 72 13 73 15 74 16 75 17 76
REMARK SMILES IDX 18 77 19 78 20 79 25 80 21 81 23 82 22 83 24 84
REMARK H PARENT 3 7 74 25 48 36 7 66 24 85
REMARK Flexibility Score: inf
ROOT
ATOM      1  C   UNL A   1      31.806  30.412  26.917  1.00  0.00     0.118 C 
ENDROOT
BRANCH   1   2
ATOM      2  C   UNL A   1      31.435  31.880  26.852  1.00  0.00     0.042 C 
BRANCH   2   3
ATOM      3  C   UNL A   1      32.635  32.813  26.850  1.00  0.00     0.118 C 
BRANCH   3   4
ATOM      4  N   UNL A   1      32.421  34.042  27.604  1.00  0.00    -0.352 N 
ATOM      5  O   UNL A   1      32.694  35.610  29.204  1.00  0.00    -0.269 OA
ATOM      6  C   UNL A   1      33.103  34.583  28.668  1.00  0.00     0.251 C 
ATOM      7  H   UNL A   1      31.655  34.579  27.297  1.00  0.00     0.163 HD
BRANCH   6   8
ATOM      8  C   UNL A   1      34.300  33.921  29.225  1.00  0.00     0.039 A 
ATOM      9  C   UNL A   1      34.199  32.812  30.062  1.00  0.00     0.014 A 
ATOM     10  C   UNL A   1      35.563  34.414  28.873  1.00  0.00     0.014 A 
ATOM     11  C   UNL A   1      35.333  32.315  30.688  1.00  0.00     0.010 A 
ATOM     12  C   UNL A   1      36.715  33.833  29.409  1.00  0.00     0.010 A 
ATOM     13  C   UNL A   1      36.606  32.802  30.349  1.00  0.00    -0.014 A 
BRANCH  13  14
ATOM     14  C   UNL A   1      37.799  32.140  30.929  1.00  0.00     0.031 A 
ATOM     15  C   UNL A   1      38.260  32.442  32.326  1.00  0.00     0.074 A 
ATOM     16  C   UNL A   1      38.438  31.218  30.182  1.00  0.00     0.049 A 
ATOM     17  N   UNL A   1      39.251  31.908  32.995  1.00  0.00    -0.248 NA
ATOM     18  C   UNL A   1      37.528  33.480  33.068  1.00  0.00     0.031 C 
ATOM     19  C   UNL A   1      38.088  30.868  28.801  1.00  0.00     0.029 A 
ATOM     20  N   UNL A   1      39.483  30.386  30.479  1.00  0.00    -0.354 N 
ATOM     21  C   UNL A   1      39.278  32.559  34.222  1.00  0.00     0.074 A 
ATOM     22  C   UNL A   1      38.214  33.540  34.202  1.00  0.00     0.031 C 
ATOM     23  C   UNL A   1      38.859  29.849  28.397  1.00  0.00     0.029 A 
ATOM     24  C   UNL A   1      39.797  29.519  29.461  1.00  0.00     0.049 A 
ATOM     25  H   UNL A   1      39.963  30.407  31.339  1.00  0.00     0.167 HD
ATOM     26  C   UNL A   1      40.113  32.349  35.266  1.00  0.00     0.037 A 
ATOM     27  C   UNL A   1      40.743  28.566  29.387  1.00  0.00     0.037 A 
ATOM     28  C   UNL A   1      41.151  31.350  35.285  1.00  0.00     0.049 A 
ATOM     29  C   UNL A   1      41.640  28.347  30.568  1.00  0.00     0.074 A 
ATOM     30  C   UNL A   1      42.024  31.032  36.312  1.00  0.00     0.029 A 
ATOM     31  N   UNL A   1      41.455  30.507  34.227  1.00  0.00    -0.354 N 
ATOM     32  N   UNL A   1      41.631  28.950  31.731  1.00  0.00    -0.248 NA
ATOM     33  C   UNL A   1      42.683  27.324  30.423  1.00  0.00     0.031 C 
ATOM     34  C   UNL A   1      42.877  30.018  35.862  1.00  0.00     0.029 A 
ATOM     35  C   UNL A   1      42.513  29.682  34.569  1.00  0.00     0.049 A 
ATOM     36  H   UNL A   1      40.986  30.496  33.360  1.00  0.00     0.167 HD
ATOM     37  C   UNL A   1      42.664  28.381  32.460  1.00  0.00     0.074 A 
ATOM     38  C   UNL A   1      43.260  27.364  31.616  1.00  0.00     0.031 C 
ATOM     39  C   UNL A   1      43.090  28.680  33.710  1.00  0.00     0.037 A 
BRANCH  26  40
ATOM     40  C   UNL A   1      39.953  33.220  36.477  1.00  0.00     0.057 A 
ATOM     41  C   UNL A   1      40.669  34.412  36.630  1.00  0.00     0.134 A 
ATOM     42  C   UNL A   1      39.021  32.892  37.471  1.00  0.00     0.134 A 
ATOM     43  F   UNL A   1      41.584  34.778  35.720  1.00  0.00    -0.206 F 
ATOM     44  C   UNL A   1      40.470  35.246  37.733  1.00  0.00     0.040 A 
ATOM     45  C   UNL A   1      38.800  33.725  38.568  1.00  0.00     0.040 A 
ATOM     46  F   UNL A   1      38.299  31.765  37.382  1.00  0.00    -0.206 F 
ATOM     47  C   UNL A   1      39.527  34.907  38.703  1.00  0.00     0.006 A 
ENDBRANCH  26  40
BRANCH  27  48
ATOM     48  C   UNL A   1      40.885  27.761  28.150  1.00  0.00     0.057 A 
ATOM     49  C   UNL A   1      41.662  28.211  27.078  1.00  0.00     0.134 A 
ATOM     50  C   UNL A   1      40.264  26.513  28.021  1.00  0.00     0.134 A 
ATOM     51  F   UNL A   1      42.271  29.406  27.139  1.00  0.00    -0.206 F 
ATOM     52  C   UNL A   1      41.810  27.454  25.915  1.00  0.00     0.040 A 
ATOM     53  C   UNL A   1      40.423  25.733  26.875  1.00  0.00     0.040 A 
ATOM     54  F   UNL A   1      39.515  26.023  29.019  1.00  0.00    -0.206 F 
ATOM     55  C   UNL A   1      41.193  26.208  25.815  1.00  0.00     0.006 A 
ENDBRANCH  27  48
BRANCH  39  56
ATOM     56  C   UNL A   1      44.249  27.890  34.231  1.00  0.00     0.057 A 
ATOM     57  C   UNL A   1      44.066  26.662  34.876  1.00  0.00     0.134 A 
ATOM     58  C   UNL A   1      45.560  28.356  34.075  1.00  0.00     0.134 A 
ATOM     59  F   UNL A   1      42.831  26.173  35.070  1.00  0.00    -0.206 F 
ATOM     60  C   UNL A   1      45.147  25.930  35.368  1.00  0.00     0.040 A 
ATOM     61  C   UNL A   1      46.651  27.624  34.543  1.00  0.00     0.040 A 
ATOM     62  F   UNL A   1      45.800  29.525  33.462  1.00  0.00    -0.206 F 
ATOM     63  C   UNL A   1      46.445  26.409  35.197  1.00  0.00     0.006 A 
ENDBRANCH  39  56
ENDBRANCH  13  14
ENDBRANCH   6   8
ENDBRANCH   3   4
ENDBRANCH   2   3
ENDBRANCH   1   2
BRANCH   1  64
ATOM     64  N   UNL A   1      33.156  30.163  27.392  1.00  0.00    -0.352 N 
ATOM     65  C   UNL A   1      34.027  29.173  27.011  1.00  0.00     0.251 C 
ATOM     66  H   UNL A   1      33.491  30.786  28.077  1.00  0.00     0.163 HD
ATOM     67  O   UNL A   1      35.147  29.099  27.499  1.00  0.00    -0.269 OA
BRANCH  65  68
ATOM     68  C   UNL A   1      33.574  28.159  26.038  1.00  0.00     0.041 A 
ATOM     69  C   UNL A   1      33.836  28.399  24.686  1.00  0.00     0.014 A 
ATOM     70  C   UNL A   1      32.954  26.973  26.462  1.00  0.00     0.034 A 
ATOM     71  C   UNL A   1      33.534  27.420  23.746  1.00  0.00     0.002 A 
ATOM     72  C   UNL A   1      32.698  25.982  25.520  1.00  0.00     0.068 A 
ATOM     73  C   UNL A   1      32.984  26.207  24.163  1.00  0.00     0.020 A 
BRANCH  72  74
ATOM     74  S   UNL A   1      32.031  24.386  25.931  1.00  0.00     0.182 S 
ATOM     75  O   UNL A   1      31.341  24.592  27.195  1.00  0.00    -0.223 OA
ATOM     76  O   UNL A   1      31.276  23.956  24.767  1.00  0.00    -0.223 OA
BRANCH  74  77
ATOM     77  C   UNL A   1      33.323  23.211  26.260  1.00  0.00     0.177 C 
BRANCH  77  78
ATOM     78  C   UNL A   1      34.493  23.208  25.304  1.00  0.00    -0.029 A 
ATOM     79  C   UNL A   1      34.385  22.816  23.961  1.00  0.00     0.005 A 
ATOM     80  C   UNL A   1      35.777  23.477  25.813  1.00  0.00     0.051 A 
ATOM     81  C   UNL A   1      35.514  22.760  23.135  1.00  0.00     0.004 A 
ATOM     82  C   UNL A   1      36.894  23.418  24.980  1.00  0.00     0.115 A 
ATOM     83  C   UNL A   1      36.771  23.070  23.644  1.00  0.00     0.046 A 
BRANCH  82  84
ATOM     84  O   UNL A   1      38.127  23.771  25.440  1.00  0.00    -0.508 OA
ATOM     85  H   UNL A   1      38.672  23.133  25.855  1.00  0.00     0.293 HD
ENDBRANCH  82  84
ENDBRANCH  77  78
ENDBRANCH  74  77
ENDBRANCH  72  74
ENDBRANCH  65  68
ENDBRANCH   1  64
TORSDOF 14
ENDMDL
MODEL 3
REMARK VINA RESULT:     -11.4      0.471      1.666
REMARK SMILES O=C(NCCCNC(=O)c1cccc(S(=O)(=O)Cc2cccc(O)c2)c1)c1ccc(-c2c3nc(c(-c4c(F)cccc4F)c4ccc([nH]4)c(-c4c(F)cccc4F)c4nc(c(-c5c(F)cccc5F)c5ccc2[nH]5)C=C4)C=C3)cc1
REMARK SMILES IDX 6 1 5 2 4 3 3 4 1 5 2 6 27 8 28 9 80 10 29 11 79 12 30 13
REMARK SMILES IDX 31 14 32 15 73 16 33 17 78 18 72 19 74 20 34 21 77 22 71 23
REMARK SMILES IDX 70 24 35 26 61 27 44 28 60 29 45 30 48 31 59 32 75 33 46 34
REMARK SMILES IDX 47 35 58 37 76 38 49 39 36 40 37 41 42 42 38 43 39 44 41 45
REMARK SMILES IDX 43 46 40 47 62 48 63 49 68 50 64 51 65 52 67 53 69 54 66 55
REMARK SMILES IDX 50 56 51 57 56 58 52 59 53 60 55 61 57 62 54 63 7 64 8 65
REMARK SMILES IDX 9 67 10 68 11 69 26 70 12 71 14 72 13 73 15 74 16 75 17 76
REMARK SMILES IDX 18 77 19 78 20 79 25 80 21 81 23 82 22 83 24 84
REMARK H PARENT 3 7 74 25 48 36 7 66 24 85
REMARK Flexibility Score: inf
ROOT
ATOM      1  C   UNL A   1      37.367  20.952  24.702  1.00  0.00     0.118 C 
ENDROOT
BRANCH   1   2
ATOM      2  C   UNL A   1      38.196  19.705  24.937  1.00  0.00     0.042 C 
BRANCH   2   3
ATOM      3  C   UNL A   1      39.184  19.838  26.084  1.00  0.00     0.118 C 
BRANCH   3   4
ATOM      4  N   UNL A   1      40.453  19.162  25.843  1.00  0.00    -0.352 N 
ATOM      5  O   UNL A   1      42.682  18.865  25.653  1.00  0.00    -0.269 OA
ATOM      6  C   UNL A   1      41.751  19.590  25.995  1.00  0.00     0.251 C 
ATOM      7  H   UNL A   1      40.366  18.238  25.515  1.00  0.00     0.163 HD
BRANCH   6   8
ATOM      8  C   UNL A   1      42.056  20.939  26.514  1.00  0.00     0.039 A 
ATOM      9  C   UNL A   1      42.355  21.999  25.662  1.00  0.00     0.014 A 
ATOM     10  C   UNL A   1      42.012  21.149  27.898  1.00  0.00     0.014 A 
ATOM     11  C   UNL A   1      42.786  23.208  26.190  1.00  0.00     0.010 A 
ATOM     12  C   UNL A   1      42.328  22.404  28.425  1.00  0.00     0.010 A 
ATOM     13  C   UNL A   1      42.752  23.433  27.576  1.00  0.00    -0.014 A 
BRANCH  13  14
ATOM     14  C   UNL A   1      43.078  24.787  28.085  1.00  0.00     0.031 A 
ATOM     15  C   UNL A   1      44.500  25.230  28.277  1.00  0.00     0.074 A 
ATOM     16  C   UNL A   1      42.058  25.633  28.330  1.00  0.00     0.049 A 
ATOM     17  N   UNL A   1      44.948  26.398  28.663  1.00  0.00    -0.248 NA
ATOM     18  C   UNL A   1      45.555  24.240  28.016  1.00  0.00     0.031 C 
ATOM     19  C   UNL A   1      40.637  25.294  28.203  1.00  0.00     0.029 A 
ATOM     20  N   UNL A   1      42.051  26.951  28.701  1.00  0.00    -0.354 N 
ATOM     21  C   UNL A   1      46.331  26.278  28.714  1.00  0.00     0.074 A 
ATOM     22  C   UNL A   1      46.650  24.918  28.335  1.00  0.00     0.031 C 
ATOM     23  C   UNL A   1      39.901  26.392  28.424  1.00  0.00     0.029 A 
ATOM     24  C   UNL A   1      40.790  27.492  28.772  1.00  0.00     0.049 A 
ATOM     25  H   UNL A   1      42.870  27.461  28.898  1.00  0.00     0.167 HD
ATOM     26  C   UNL A   1      47.245  27.221  29.042  1.00  0.00     0.037 A 
ATOM     27  C   UNL A   1      40.391  28.735  29.089  1.00  0.00     0.037 A 
ATOM     28  C   UNL A   1      46.918  28.580  29.391  1.00  0.00     0.049 A 
ATOM     29  C   UNL A   1      41.429  29.761  29.431  1.00  0.00     0.074 A 
ATOM     30  C   UNL A   1      47.775  29.622  29.699  1.00  0.00     0.029 A 
ATOM     31  N   UNL A   1      45.628  29.084  29.474  1.00  0.00    -0.354 N 
ATOM     32  N   UNL A   1      42.734  29.638  29.444  1.00  0.00    -0.248 NA
ATOM     33  C   UNL A   1      40.942  31.092  29.812  1.00  0.00     0.031 C 
ATOM     34  C   UNL A   1      47.002  30.749  30.002  1.00  0.00     0.029 A 
ATOM     35  C   UNL A   1      45.666  30.418  29.848  1.00  0.00     0.049 A 
ATOM     36  H   UNL A   1      44.807  28.571  29.294  1.00  0.00     0.167 HD
ATOM     37  C   UNL A   1      43.226  30.875  29.832  1.00  0.00     0.074 A 
ATOM     38  C   UNL A   1      42.079  31.741  30.017  1.00  0.00     0.031 C 
ATOM     39  C   UNL A   1      44.510  31.257  30.029  1.00  0.00     0.037 A 
BRANCH  26  40
ATOM     40  C   UNL A   1      48.690  26.821  29.053  1.00  0.00     0.057 A 
ATOM     41  C   UNL A   1      49.313  26.329  30.206  1.00  0.00     0.134 A 
ATOM     42  C   UNL A   1      49.451  26.868  27.878  1.00  0.00     0.134 A 
ATOM     43  F   UNL A   1      48.644  26.269  31.367  1.00  0.00    -0.206 F 
ATOM     44  C   UNL A   1      50.644  25.904  30.193  1.00  0.00     0.040 A 
ATOM     45  C   UNL A   1      50.776  26.431  27.846  1.00  0.00     0.040 A 
ATOM     46  F   UNL A   1      48.913  27.326  26.736  1.00  0.00    -0.206 F 
ATOM     47  C   UNL A   1      51.377  25.947  29.007  1.00  0.00     0.006 A 
ENDBRANCH  26  40
BRANCH  27  48
ATOM     48  C   UNL A   1      38.946  29.066  29.103  1.00  0.00     0.057 A 
ATOM     49  C   UNL A   1      38.296  29.525  27.952  1.00  0.00     0.134 A 
ATOM     50  C   UNL A   1      38.176  28.907  30.262  1.00  0.00     0.134 A 
ATOM     51  F   UNL A   1      38.986  29.709  26.815  1.00  0.00    -0.206 F 
ATOM     52  C   UNL A   1      36.934  29.826  27.955  1.00  0.00     0.040 A 
ATOM     53  C   UNL A   1      36.808  29.181  30.272  1.00  0.00     0.040 A 
ATOM     54  F   UNL A   1      38.739  28.461  31.393  1.00  0.00    -0.206 F 
ATOM     55  C   UNL A   1      36.185  29.648  29.116  1.00  0.00     0.006 A 
ENDBRANCH  27  48
BRANCH  39  56
ATOM     56  C   UNL A   1      44.730  32.673  30.460  1.00  0.00     0.057 A 
ATOM     57  C   UNL A   1      44.804  33.022  31.814  1.00  0.00     0.134 A 
ATOM     58  C   UNL A   1      44.883  33.693  29.515  1.00  0.00     0.134 A 
ATOM     59  F   UNL A   1      44.648  32.089  32.766  1.00  0.00    -0.206 F 
ATOM     60  C   UNL A   1      45.002  34.343  32.215  1.00  0.00     0.040 A 
ATOM     61  C   UNL A   1      45.102  35.015  29.902  1.00  0.00     0.040 A 
ATOM     62  F   UNL A   1      44.826  33.421  28.202  1.00  0.00    -0.206 F 
ATOM     63  C   UNL A   1      45.157  35.344  31.256  1.00  0.00     0.006 A 
ENDBRANCH  39  56
ENDBRANCH  13  14
ENDBRANCH   6   8
ENDBRANCH   3   4
ENDBRANCH   2   3
ENDBRANCH   1   2
BRANCH   1  64
ATOM     64  N   UNL A   1      37.969  22.170  25.216  1.00  0.00    -0.352 N 
ATOM     65  C   UNL A   1      37.346  23.299  25.687  1.00  0.00     0.251 C 
ATOM     66  H   UNL A   1      38.954  22.188  25.229  1.00  0.00     0.163 HD
ATOM     67  O   UNL A   1      37.997  24.249  26.101  1.00  0.00    -0.269 OA
BRANCH  65  68
ATOM     68  C   UNL A   1      35.873  23.375  25.635  1.00  0.00     0.041 A 
ATOM     69  C   UNL A   1      35.166  22.985  26.777  1.00  0.00     0.014 A 
ATOM     70  C   UNL A   1      35.211  23.874  24.503  1.00  0.00     0.034 A 
ATOM     71  C   UNL A   1      33.787  23.150  26.817  1.00  0.00     0.002 A 
ATOM     72  C   UNL A   1      33.837  24.079  24.570  1.00  0.00     0.068 A 
ATOM     73  C   UNL A   1      33.125  23.712  25.725  1.00  0.00     0.020 A 
BRANCH  72  74
ATOM     74  S   UNL A   1      32.889  24.815  23.259  1.00  0.00     0.182 S 
ATOM     75  O   UNL A   1      33.872  25.500  22.436  1.00  0.00    -0.223 OA
ATOM     76  O   UNL A   1      32.099  23.740  22.684  1.00  0.00    -0.223 OA
BRANCH  74  77
ATOM     77  C   UNL A   1      31.801  26.076  23.879  1.00  0.00     0.177 C 
BRANCH  77  78
ATOM     78  C   UNL A   1      32.328  26.929  25.009  1.00  0.00    -0.029 A 
ATOM     79  C   UNL A   1      33.627  27.461  25.028  1.00  0.00     0.005 A 
ATOM     80  C   UNL A   1      31.533  27.088  26.159  1.00  0.00     0.051 A 
ATOM     81  C   UNL A   1      34.092  28.184  26.132  1.00  0.00     0.004 A 
ATOM     82  C   UNL A   1      32.007  27.811  27.253  1.00  0.00     0.115 A 
ATOM     83  C   UNL A   1      33.277  28.367  27.244  1.00  0.00     0.046 A 
BRANCH  82  84
ATOM     84  O   UNL A   1      31.209  28.051  28.331  1.00  0.00    -0.508 OA
ATOM     85  H   UNL A   1      31.297  27.531  29.104  1.00  0.00     0.293 HD
ENDBRANCH  82  84
ENDBRANCH  77  78
ENDBRANCH  74  77
ENDBRANCH  72  74
ENDBRANCH  65  68
ENDBRANCH   1  64
TORSDOF 14
ENDMDL
