MODEL 1
REMARK VINA RESULT:      -9.9      0.000      0.000
REMARK SMILES [NH3+][C@@H](Cc1ccc(F)cc1C(F)(F)F)C(=O)NCCCNC(=O)c1ccc(-c2c3nc(c(-c4c(F)cccc4F)c4ccc([nH]4)c(-c4c(F)cccc4F)c4nc(c(-c5c(F)cccc5F)c5ccc2[nH]5)C=C4)C=C3)cc1
REMARK SMILES IDX 18 1 17 2 15 3 16 4 2 6 1 7 3 11 4 12 5 13 10 14 6 15 9 16
REMARK SMILES IDX 7 17 8 18 11 19 12 20 13 21 14 22 19 23 20 24 21 25 22 26
REMARK SMILES IDX 23 28 24 29 25 30 77 31 26 32 76 33 27 34 28 35 29 36 70 37
REMARK SMILES IDX 30 38 75 39 69 40 71 41 31 42 74 43 68 44 67 45 32 47 58 48
REMARK SMILES IDX 41 49 57 50 42 51 45 52 56 53 72 54 43 55 44 56 55 58 73 59
REMARK SMILES IDX 46 60 33 61 34 62 39 63 35 64 36 65 38 66 40 67 37 68 59 69
REMARK SMILES IDX 60 70 65 71 61 72 62 73 64 74 66 75 63 76 47 77 48 78 53 79
REMARK SMILES IDX 49 80 50 81 52 82 54 83 51 84
REMARK H PARENT 17 5 1 8 1 9 1 10 21 27 71 46 45 57
REMARK Flexibility Score: inf
ROOT
ATOM      1  C   UNL A   1      42.781  20.862  25.813  1.00  0.00     0.118 C 
ENDROOT
BRANCH   1   2
ATOM      2  N   UNL A   1      44.132  20.374  25.691  1.00  0.00    -0.351 N 
ATOM      3  C   UNL A   1      45.250  21.019  25.242  1.00  0.00     0.278 C 
ATOM      4  O   UNL A   1      46.335  20.475  25.475  1.00  0.00    -0.268 OA
ATOM      5  H   UNL A   1      44.269  19.440  25.972  1.00  0.00     0.163 HD
BRANCH   3   6
ATOM      6  C   UNL A   1      45.196  22.360  24.463  1.00  0.00     0.275 C 
BRANCH   6   7
ATOM      7  N   UNL A   1      44.548  22.192  23.142  1.00  0.00    -0.347 N 
ATOM      8  H   UNL A   1      44.629  23.059  22.612  1.00  0.00     0.345 HD
ATOM      9  H   UNL A   1      43.563  21.964  23.274  1.00  0.00     0.345 HD
ATOM     10  H   UNL A   1      45.006  21.437  22.633  1.00  0.00     0.345 HD
ENDBRANCH   6   7
BRANCH   6  11
ATOM     11  C   UNL A   1      44.803  23.626  25.276  1.00  0.00     0.111 C 
BRANCH  11  12
ATOM     12  C   UNL A   1      45.643  24.044  26.473  1.00  0.00    -0.029 A 
ATOM     13  C   UNL A   1      46.998  24.373  26.222  1.00  0.00     0.007 A 
ATOM     14  C   UNL A   1      45.151  24.175  27.797  1.00  0.00     0.062 A 
ATOM     15  C   UNL A   1      47.807  24.938  27.208  1.00  0.00     0.039 A 
ATOM     16  C   UNL A   1      45.999  24.738  28.781  1.00  0.00     0.052 A 
ATOM     17  C   UNL A   1      47.294  25.134  28.476  1.00  0.00     0.123 A 
ATOM     18  F   UNL A   1      48.050  25.715  29.416  1.00  0.00    -0.207 F 
BRANCH  14  19
ATOM     19  C   UNL A   1      43.773  23.775  28.298  1.00  0.00     0.416 C 
ATOM     20  F   UNL A   1      42.841  23.847  27.304  1.00  0.00    -0.166 F 
ATOM     21  F   UNL A   1      43.750  22.483  28.732  1.00  0.00    -0.166 F 
ATOM     22  F   UNL A   1      43.272  24.512  29.319  1.00  0.00    -0.166 F 
ENDBRANCH  14  19
ENDBRANCH  11  12
ENDBRANCH   6  11
ENDBRANCH   3   6
ENDBRANCH   1   2
BRANCH   1  23
ATOM     23  C   UNL A   1      41.965  20.250  26.930  1.00  0.00     0.042 C 
BRANCH  23  24
ATOM     24  C   UNL A   1      40.990  21.220  27.571  1.00  0.00     0.118 C 
BRANCH  24  25
ATOM     25  N   UNL A   1      39.821  21.495  26.738  1.00  0.00    -0.352 N 
ATOM     26  C   UNL A   1      39.150  22.661  26.447  1.00  0.00     0.251 C 
ATOM     27  H   UNL A   1      39.444  20.696  26.303  1.00  0.00     0.163 HD
ATOM     28  O   UNL A   1      38.088  22.605  25.842  1.00  0.00    -0.269 OA
BRANCH  26  29
ATOM     29  C   UNL A   1      39.681  23.975  26.876  1.00  0.00     0.039 A 
ATOM     30  C   UNL A   1      40.133  24.877  25.908  1.00  0.00     0.014 A 
ATOM     31  C   UNL A   1      39.764  24.317  28.224  1.00  0.00     0.014 A 
ATOM     32  C   UNL A   1      40.579  26.146  26.292  1.00  0.00     0.010 A 
ATOM     33  C   UNL A   1      40.081  25.617  28.594  1.00  0.00     0.010 A 
ATOM     34  C   UNL A   1      40.507  26.545  27.635  1.00  0.00    -0.014 A 
BRANCH  34  35
ATOM     35  C   UNL A   1      40.896  27.907  28.080  1.00  0.00     0.031 A 
ATOM     36  C   UNL A   1      42.347  28.311  28.073  1.00  0.00     0.074 A 
ATOM     37  C   UNL A   1      39.965  28.746  28.576  1.00  0.00     0.049 A 
ATOM     38  N   UNL A   1      42.908  29.390  28.556  1.00  0.00    -0.248 NA
ATOM     39  C   UNL A   1      43.301  27.356  27.483  1.00  0.00     0.031 C 
ATOM     40  C   UNL A   1      38.534  28.457  28.685  1.00  0.00     0.029 A 
ATOM     41  N   UNL A   1      40.086  30.013  29.090  1.00  0.00    -0.354 N 
ATOM     42  C   UNL A   1      44.273  29.224  28.359  1.00  0.00     0.074 A 
ATOM     43  C   UNL A   1      44.464  27.920  27.768  1.00  0.00     0.031 C 
ATOM     44  C   UNL A   1      37.906  29.527  29.197  1.00  0.00     0.029 A 
ATOM     45  C   UNL A   1      38.893  30.561  29.494  1.00  0.00     0.049 A 
ATOM     46  H   UNL A   1      40.948  30.484  29.163  1.00  0.00     0.167 HD
ATOM     47  C   UNL A   1      45.278  30.095  28.617  1.00  0.00     0.037 A 
ATOM     48  C   UNL A   1      38.625  31.760  30.044  1.00  0.00     0.037 A 
ATOM     49  C   UNL A   1      45.080  31.416  29.147  1.00  0.00     0.049 A 
ATOM     50  C   UNL A   1      39.752  32.721  30.296  1.00  0.00     0.074 A 
ATOM     51  C   UNL A   1      46.025  32.399  29.381  1.00  0.00     0.029 A 
ATOM     52  N   UNL A   1      43.850  31.943  29.511  1.00  0.00    -0.354 N 
ATOM     53  N   UNL A   1      41.034  32.566  30.069  1.00  0.00    -0.248 NA
ATOM     54  C   UNL A   1      39.399  34.023  30.880  1.00  0.00     0.031 C 
ATOM     55  C   UNL A   1      45.371  33.513  29.915  1.00  0.00     0.029 A 
ATOM     56  C   UNL A   1      44.013  33.237  29.975  1.00  0.00     0.049 A 
ATOM     57  H   UNL A   1      42.990  31.469  29.447  1.00  0.00     0.167 HD
ATOM     58  C   UNL A   1      41.636  33.756  30.455  1.00  0.00     0.074 A 
ATOM     59  C   UNL A   1      40.579  34.628  30.924  1.00  0.00     0.031 C 
ATOM     60  C   UNL A   1      42.947  34.095  30.424  1.00  0.00     0.037 A 
BRANCH  47  61
ATOM     61  C   UNL A   1      46.677  29.657  28.302  1.00  0.00     0.057 A 
ATOM     62  C   UNL A   1      47.193  29.779  27.005  1.00  0.00     0.134 A 
ATOM     63  C   UNL A   1      47.500  29.068  29.271  1.00  0.00     0.134 A 
ATOM     64  F   UNL A   1      46.456  30.329  26.028  1.00  0.00    -0.206 F 
ATOM     65  C   UNL A   1      48.473  29.324  26.683  1.00  0.00     0.040 A 
ATOM     66  C   UNL A   1      48.791  28.635  28.967  1.00  0.00     0.040 A 
ATOM     67  F   UNL A   1      47.072  28.935  30.535  1.00  0.00    -0.206 F 
ATOM     68  C   UNL A   1      49.277  28.754  27.667  1.00  0.00     0.006 A 
ENDBRANCH  47  61
BRANCH  48  69
ATOM     69  C   UNL A   1      37.221  32.132  30.349  1.00  0.00     0.057 A 
ATOM     70  C   UNL A   1      36.638  31.858  31.591  1.00  0.00     0.134 A 
ATOM     71  C   UNL A   1      36.419  32.747  29.381  1.00  0.00     0.134 A 
ATOM     72  F   UNL A   1      37.351  31.261  32.557  1.00  0.00    -0.206 F 
ATOM     73  C   UNL A   1      35.303  32.170  31.856  1.00  0.00     0.040 A 
ATOM     74  C   UNL A   1      35.089  33.085  29.640  1.00  0.00     0.040 A 
ATOM     75  F   UNL A   1      36.926  33.048  28.178  1.00  0.00    -0.206 F 
ATOM     76  C   UNL A   1      34.526  32.789  30.879  1.00  0.00     0.006 A 
ENDBRANCH  48  69
BRANCH  60  77
ATOM     77  C   UNL A   1      43.321  35.472  30.880  1.00  0.00     0.057 A 
ATOM     78  C   UNL A   1      43.494  36.506  29.950  1.00  0.00     0.134 A 
ATOM     79  C   UNL A   1      43.596  35.752  32.223  1.00  0.00     0.134 A 
ATOM     80  F   UNL A   1      43.256  36.296  28.647  1.00  0.00    -0.206 F 
ATOM     81  C   UNL A   1      43.945  37.767  30.339  1.00  0.00     0.040 A 
ATOM     82  C   UNL A   1      44.026  37.017  32.628  1.00  0.00     0.040 A 
ATOM     83  F   UNL A   1      43.441  34.806  33.161  1.00  0.00    -0.206 F 
ATOM     84  C   UNL A   1      44.212  38.025  31.682  1.00  0.00     0.006 A 
ENDBRANCH  60  77
ENDBRANCH  34  35
ENDBRANCH  26  29
ENDBRANCH  24  25
ENDBRANCH  23  24
ENDBRANCH   1  23
TORSDOF 14
ENDMDL
MODEL 2
REMARK VINA RESULT:      -9.8      1.013      2.280
REMARK SMILES [NH3+][C@@H](Cc1ccc(F)cc1C(F)(F)F)C(=O)NCCCNC(=O)c1ccc(-c2c3nc(c(-c4c(F)cccc4F)c4ccc([nH]4)c(-c4c(F)cccc4F)c4nc(c(-c5c(F)cccc5F)c5ccc2[nH]5)C=C4)C=C3)cc1
REMARK SMILES IDX 18 1 17 2 15 3 16 4 2 6 1 7 3 11 4 12 5 13 10 14 6 15 9 16
REMARK SMILES IDX 7 17 8 18 11 19 12 20 13 21 14 22 19 23 20 24 21 25 22 26
REMARK SMILES IDX 23 28 24 29 25 30 77 31 26 32 76 33 27 34 28 35 29 36 70 37
REMARK SMILES IDX 30 38 75 39 69 40 71 41 31 42 74 43 68 44 67 45 32 47 58 48
REMARK SMILES IDX 41 49 57 50 42 51 45 52 56 53 72 54 43 55 44 56 55 58 73 59
REMARK SMILES IDX 46 60 33 61 34 62 39 63 35 64 36 65 38 66 40 67 37 68 59 69
REMARK SMILES IDX 60 70 65 71 61 72 62 73 64 74 66 75 63 76 47 77 48 78 53 79
REMARK SMILES IDX 49 80 50 81 52 82 54 83 51 84
REMARK H PARENT 17 5 1 8 1 9 1 10 21 27 71 46 45 57
REMARK Flexibility Score: inf
ROOT
ATOM      1  C   UNL A   1      42.831  21.421  25.813  1.00  0.00     0.118 C 
ENDROOT
BRANCH   1   2
ATOM      2  N   UNL A   1      44.167  20.886  25.727  1.00  0.00    -0.351 N 
ATOM      3  C   UNL A   1      45.275  21.414  25.127  1.00  0.00     0.278 C 
ATOM      4  O   UNL A   1      46.359  20.895  25.410  1.00  0.00    -0.268 OA
ATOM      5  H   UNL A   1      44.300  20.014  26.165  1.00  0.00     0.163 HD
BRANCH   3   6
ATOM      6  C   UNL A   1      45.211  22.596  24.124  1.00  0.00     0.275 C 
BRANCH   6   7
ATOM      7  N   UNL A   1      44.533  22.203  22.868  1.00  0.00    -0.347 N 
ATOM      8  H   UNL A   1      43.833  22.904  22.627  1.00  0.00     0.345 HD
ATOM      9  H   UNL A   1      44.079  21.298  22.995  1.00  0.00     0.345 HD
ATOM     10  H   UNL A   1      45.220  22.135  22.118  1.00  0.00     0.345 HD
ENDBRANCH   6   7
BRANCH   6  11
ATOM     11  C   UNL A   1      44.842  23.990  24.708  1.00  0.00     0.111 C 
BRANCH  11  12
ATOM     12  C   UNL A   1      45.518  24.477  25.980  1.00  0.00    -0.029 A 
ATOM     13  C   UNL A   1      44.893  24.138  27.207  1.00  0.00     0.007 A 
ATOM     14  C   UNL A   1      46.742  25.190  26.021  1.00  0.00     0.062 A 
ATOM     15  C   UNL A   1      45.514  24.375  28.433  1.00  0.00     0.039 A 
ATOM     16  C   UNL A   1      47.344  25.429  27.281  1.00  0.00     0.052 A 
ATOM     17  C   UNL A   1      46.746  25.003  28.458  1.00  0.00     0.123 A 
ATOM     18  F   UNL A   1      47.369  25.195  29.627  1.00  0.00    -0.207 F 
BRANCH  14  19
ATOM     19  C   UNL A   1      47.514  25.739  24.833  1.00  0.00     0.416 C 
ATOM     20  F   UNL A   1      46.855  26.780  24.248  1.00  0.00    -0.166 F 
ATOM     21  F   UNL A   1      48.728  26.235  25.207  1.00  0.00    -0.166 F 
ATOM     22  F   UNL A   1      47.770  24.864  23.831  1.00  0.00    -0.166 F 
ENDBRANCH  14  19
ENDBRANCH  11  12
ENDBRANCH   6  11
ENDBRANCH   3   6
ENDBRANCH   1   2
BRANCH   1  23
ATOM     23  C   UNL A   1      41.794  20.493  26.405  1.00  0.00     0.042 C 
BRANCH  23  24
ATOM     24  C   UNL A   1      40.740  21.207  27.231  1.00  0.00     0.118 C 
BRANCH  24  25
ATOM     25  N   UNL A   1      39.541  21.542  26.468  1.00  0.00    -0.352 N 
ATOM     26  C   UNL A   1      38.878  22.733  26.266  1.00  0.00     0.251 C 
ATOM     27  H   UNL A   1      39.129  20.773  26.012  1.00  0.00     0.163 HD
ATOM     28  O   UNL A   1      37.789  22.724  25.709  1.00  0.00    -0.269 OA
BRANCH  26  29
ATOM     29  C   UNL A   1      39.452  24.014  26.735  1.00  0.00     0.039 A 
ATOM     30  C   UNL A   1      40.162  24.814  25.832  1.00  0.00     0.014 A 
ATOM     31  C   UNL A   1      39.323  24.424  28.060  1.00  0.00     0.014 A 
ATOM     32  C   UNL A   1      40.657  26.057  26.242  1.00  0.00     0.010 A 
ATOM     33  C   UNL A   1      39.697  25.709  28.431  1.00  0.00     0.010 A 
ATOM     34  C   UNL A   1      40.382  26.537  27.532  1.00  0.00    -0.014 A 
BRANCH  34  35
ATOM     35  C   UNL A   1      40.820  27.881  27.988  1.00  0.00     0.031 A 
ATOM     36  C   UNL A   1      42.283  28.236  27.975  1.00  0.00     0.074 A 
ATOM     37  C   UNL A   1      39.921  28.745  28.498  1.00  0.00     0.049 A 
ATOM     38  N   UNL A   1      42.883  29.290  28.465  1.00  0.00    -0.248 NA
ATOM     39  C   UNL A   1      43.200  27.255  27.369  1.00  0.00     0.031 C 
ATOM     40  C   UNL A   1      38.481  28.503  28.615  1.00  0.00     0.029 A 
ATOM     41  N   UNL A   1      40.088  30.002  29.024  1.00  0.00    -0.354 N 
ATOM     42  C   UNL A   1      44.241  29.081  28.257  1.00  0.00     0.074 A 
ATOM     43  C   UNL A   1      44.384  27.777  27.652  1.00  0.00     0.031 C 
ATOM     44  C   UNL A   1      37.893  29.589  29.141  1.00  0.00     0.029 A 
ATOM     45  C   UNL A   1      38.916  30.586  29.441  1.00  0.00     0.049 A 
ATOM     46  H   UNL A   1      40.965  30.444  29.095  1.00  0.00     0.167 HD
ATOM     47  C   UNL A   1      45.276  29.915  28.516  1.00  0.00     0.037 A 
ATOM     48  C   UNL A   1      38.692  31.788  30.005  1.00  0.00     0.037 A 
ATOM     49  C   UNL A   1      45.126  31.237  29.061  1.00  0.00     0.049 A 
ATOM     50  C   UNL A   1      39.852  32.708  30.259  1.00  0.00     0.074 A 
ATOM     51  C   UNL A   1      46.105  32.185  29.298  1.00  0.00     0.029 A 
ATOM     52  N   UNL A   1      43.917  31.801  29.438  1.00  0.00    -0.354 N 
ATOM     53  N   UNL A   1      41.127  32.512  30.021  1.00  0.00    -0.248 NA
ATOM     54  C   UNL A   1      39.547  34.015  30.858  1.00  0.00     0.031 C 
ATOM     55  C   UNL A   1      45.491  33.314  29.848  1.00  0.00     0.029 A 
ATOM     56  C   UNL A   1      44.126  33.084  29.914  1.00  0.00     0.049 A 
ATOM     57  H   UNL A   1      43.041  31.357  29.376  1.00  0.00     0.167 HD
ATOM     58  C   UNL A   1      41.771  33.677  30.415  1.00  0.00     0.074 A 
ATOM     59  C   UNL A   1      40.746  34.579  30.900  1.00  0.00     0.031 C 
ATOM     60  C   UNL A   1      43.093  33.972  30.379  1.00  0.00     0.037 A 
BRANCH  47  61
ATOM     61  C   UNL A   1      46.658  29.434  28.188  1.00  0.00     0.057 A 
ATOM     62  C   UNL A   1      47.452  28.815  29.162  1.00  0.00     0.134 A 
ATOM     63  C   UNL A   1      47.223  29.628  26.921  1.00  0.00     0.134 A 
ATOM     64  F   UNL A   1      46.975  28.603  30.397  1.00  0.00    -0.206 F 
ATOM     65  C   UNL A   1      48.761  28.414  28.888  1.00  0.00     0.040 A 
ATOM     66  C   UNL A   1      48.521  29.206  26.628  1.00  0.00     0.040 A 
ATOM     67  F   UNL A   1      46.511  30.202  25.940  1.00  0.00    -0.206 F 
ATOM     68  C   UNL A   1      49.297  28.606  27.616  1.00  0.00     0.006 A 
ENDBRANCH  47  61
BRANCH  48  69
ATOM     69  C   UNL A   1      37.303  32.203  30.323  1.00  0.00     0.057 A 
ATOM     70  C   UNL A   1      36.527  32.938  29.420  1.00  0.00     0.134 A 
ATOM     71  C   UNL A   1      36.732  31.894  31.563  1.00  0.00     0.134 A 
ATOM     72  F   UNL A   1      37.021  33.275  28.220  1.00  0.00    -0.206 F 
ATOM     73  C   UNL A   1      35.237  33.364  29.743  1.00  0.00     0.040 A 
ATOM     74  C   UNL A   1      35.435  32.294  31.891  1.00  0.00     0.040 A 
ATOM     75  F   UNL A   1      37.421  31.179  32.463  1.00  0.00    -0.206 F 
ATOM     76  C   UNL A   1      34.687  33.037  30.981  1.00  0.00     0.006 A 
ENDBRANCH  48  69
BRANCH  60  77
ATOM     77  C   UNL A   1      43.515  35.332  30.846  1.00  0.00     0.057 A 
ATOM     78  C   UNL A   1      43.792  35.563  32.199  1.00  0.00     0.134 A 
ATOM     79  C   UNL A   1      43.558  36.427  29.976  1.00  0.00     0.134 A 
ATOM     80  F   UNL A   1      43.756  34.556  33.084  1.00  0.00    -0.206 F 
ATOM     81  C   UNL A   1      44.082  36.842  32.674  1.00  0.00     0.040 A 
ATOM     82  C   UNL A   1      43.870  37.708  30.435  1.00  0.00     0.040 A 
ATOM     83  F   UNL A   1      43.310  36.267  28.667  1.00  0.00    -0.206 F 
ATOM     84  C   UNL A   1      44.122  37.919  31.791  1.00  0.00     0.006 A 
ENDBRANCH  60  77
ENDBRANCH  34  35
ENDBRANCH  26  29
ENDBRANCH  24  25
ENDBRANCH  23  24
ENDBRANCH   1  23
TORSDOF 14
ENDMDL
MODEL 3
REMARK VINA RESULT:      -9.8      3.903      9.198
REMARK SMILES [NH3+][C@@H](Cc1ccc(F)cc1C(F)(F)F)C(=O)NCCCNC(=O)c1ccc(-c2c3nc(c(-c4c(F)cccc4F)c4ccc([nH]4)c(-c4c(F)cccc4F)c4nc(c(-c5c(F)cccc5F)c5ccc2[nH]5)C=C4)C=C3)cc1
REMARK SMILES IDX 18 1 17 2 15 3 16 4 2 6 1 7 3 11 4 12 5 13 10 14 6 15 9 16
REMARK SMILES IDX 7 17 8 18 11 19 12 20 13 21 14 22 19 23 20 24 21 25 22 26
REMARK SMILES IDX 23 28 24 29 25 30 77 31 26 32 76 33 27 34 28 35 29 36 70 37
REMARK SMILES IDX 30 38 75 39 69 40 71 41 31 42 74 43 68 44 67 45 32 47 58 48
REMARK SMILES IDX 41 49 57 50 42 51 45 52 56 53 72 54 43 55 44 56 55 58 73 59
REMARK SMILES IDX 46 60 33 61 34 62 39 63 35 64 36 65 38 66 40 67 37 68 59 69
REMARK SMILES IDX 60 70 65 71 61 72 62 73 64 74 66 75 63 76 47 77 48 78 53 79
REMARK SMILES IDX 49 80 50 81 52 82 54 83 51 84
REMARK H PARENT 17 5 1 8 1 9 1 10 21 27 71 46 45 57
REMARK Flexibility Score: inf
ROOT
ATOM      1  C   UNL A   1      33.072  27.250  25.054  1.00  0.00     0.118 C 
ENDROOT
BRANCH   1   2
ATOM      2  N   UNL A   1      33.715  26.380  24.101  1.00  0.00    -0.351 N 
ATOM      3  C   UNL A   1      33.540  25.040  23.894  1.00  0.00     0.278 C 
ATOM      4  O   UNL A   1      34.012  24.574  22.852  1.00  0.00    -0.268 OA
ATOM      5  H   UNL A   1      34.375  26.814  23.513  1.00  0.00     0.163 HD
BRANCH   3   6
ATOM      6  C   UNL A   1      32.804  24.119  24.903  1.00  0.00     0.275 C 
BRANCH   6   7
ATOM      7  N   UNL A   1      31.828  23.240  24.219  1.00  0.00    -0.347 N 
ATOM      8  H   UNL A   1      32.327  22.565  23.641  1.00  0.00     0.345 HD
ATOM      9  H   UNL A   1      31.215  23.806  23.632  1.00  0.00     0.345 HD
ATOM     10  H   UNL A   1      31.270  22.746  24.916  1.00  0.00     0.345 HD
ENDBRANCH   6   7
BRANCH   6  11
ATOM     11  C   UNL A   1      33.673  23.463  26.015  1.00  0.00     0.111 C 
BRANCH  11  12
ATOM     12  C   UNL A   1      35.076  22.977  25.687  1.00  0.00    -0.029 A 
ATOM     13  C   UNL A   1      36.131  23.909  25.847  1.00  0.00     0.007 A 
ATOM     14  C   UNL A   1      35.398  21.654  25.288  1.00  0.00     0.062 A 
ATOM     15  C   UNL A   1      37.468  23.523  25.749  1.00  0.00     0.039 A 
ATOM     16  C   UNL A   1      36.764  21.294  25.183  1.00  0.00     0.052 A 
ATOM     17  C   UNL A   1      37.774  22.212  25.436  1.00  0.00     0.123 A 
ATOM     18  F   UNL A   1      39.053  21.823  25.382  1.00  0.00    -0.207 F 
BRANCH  14  19
ATOM     19  C   UNL A   1      34.419  20.541  24.958  1.00  0.00     0.416 C 
ATOM     20  F   UNL A   1      33.651  20.856  23.876  1.00  0.00    -0.166 F 
ATOM     21  F   UNL A   1      35.064  19.385  24.628  1.00  0.00    -0.166 F 
ATOM     22  F   UNL A   1      33.545  20.204  25.937  1.00  0.00    -0.166 F 
ENDBRANCH  14  19
ENDBRANCH  11  12
ENDBRANCH   6  11
ENDBRANCH   3   6
ENDBRANCH   1   2
BRANCH   1  23
ATOM     23  C   UNL A   1      33.990  28.190  25.801  1.00  0.00     0.042 C 
BRANCH  23  24
ATOM     24  C   UNL A   1      33.570  28.436  27.238  1.00  0.00     0.118 C 
BRANCH  24  25
ATOM     25  N   UNL A   1      33.646  29.842  27.627  1.00  0.00    -0.352 N 
ATOM     26  C   UNL A   1      34.660  30.595  28.176  1.00  0.00     0.251 C 
ATOM     27  H   UNL A   1      32.815  30.346  27.465  1.00  0.00     0.163 HD
ATOM     28  O   UNL A   1      34.419  31.729  28.564  1.00  0.00    -0.269 OA
BRANCH  26  29
ATOM     29  C   UNL A   1      36.025  30.042  28.325  1.00  0.00     0.039 A 
ATOM     30  C   UNL A   1      36.930  30.164  27.265  1.00  0.00     0.014 A 
ATOM     31  C   UNL A   1      36.416  29.381  29.487  1.00  0.00     0.014 A 
ATOM     32  C   UNL A   1      38.242  29.703  27.412  1.00  0.00     0.010 A 
ATOM     33  C   UNL A   1      37.749  29.044  29.682  1.00  0.00     0.010 A 
ATOM     34  C   UNL A   1      38.676  29.186  28.642  1.00  0.00    -0.014 A 
BRANCH  34  35
ATOM     35  C   UNL A   1      40.079  28.756  28.871  1.00  0.00     0.031 A 
ATOM     36  C   UNL A   1      41.069  29.718  29.473  1.00  0.00     0.074 A 
ATOM     37  C   UNL A   1      40.488  27.541  28.455  1.00  0.00     0.049 A 
ATOM     38  N   UNL A   1      42.364  29.592  29.617  1.00  0.00    -0.248 NA
ATOM     39  C   UNL A   1      40.541  31.013  29.936  1.00  0.00     0.031 C 
ATOM     40  C   UNL A   1      39.640  26.535  27.810  1.00  0.00     0.029 A 
ATOM     41  N   UNL A   1      41.725  26.948  28.504  1.00  0.00    -0.354 N 
ATOM     42  C   UNL A   1      42.802  30.797  30.151  1.00  0.00     0.074 A 
ATOM     43  C   UNL A   1      41.650  31.663  30.252  1.00  0.00     0.031 C 
ATOM     44  C   UNL A   1      40.372  25.438  27.559  1.00  0.00     0.029 A 
ATOM     45  C   UNL A   1      41.749  25.678  27.982  1.00  0.00     0.049 A 
ATOM     46  H   UNL A   1      42.520  27.392  28.879  1.00  0.00     0.167 HD
ATOM     47  C   UNL A   1      44.048  31.141  30.554  1.00  0.00     0.037 A 
ATOM     48  C   UNL A   1      42.767  24.805  27.855  1.00  0.00     0.037 A 
ATOM     49  C   UNL A   1      45.180  30.256  30.511  1.00  0.00     0.049 A 
ATOM     50  C   UNL A   1      44.135  25.198  28.333  1.00  0.00     0.074 A 
ATOM     51  C   UNL A   1      46.469  30.486  30.957  1.00  0.00     0.029 A 
ATOM     52  N   UNL A   1      45.152  28.965  30.004  1.00  0.00    -0.354 N 
ATOM     53  N   UNL A   1      44.527  26.328  28.872  1.00  0.00    -0.248 NA
ATOM     54  C   UNL A   1      45.204  24.200  28.188  1.00  0.00     0.031 C 
ATOM     55  C   UNL A   1      47.231  29.344  30.693  1.00  0.00     0.029 A 
ATOM     56  C   UNL A   1      46.405  28.389  30.121  1.00  0.00     0.049 A 
ATOM     57  H   UNL A   1      44.360  28.525  29.621  1.00  0.00     0.167 HD
ATOM     58  C   UNL A   1      45.877  26.167  29.154  1.00  0.00     0.074 A 
ATOM     59  C   UNL A   1      46.236  24.828  28.734  1.00  0.00     0.031 C 
ATOM     60  C   UNL A   1      46.741  27.050  29.711  1.00  0.00     0.037 A 
BRANCH  47  61
ATOM     61  C   UNL A   1      44.247  32.522  31.103  1.00  0.00     0.057 A 
ATOM     62  C   UNL A   1      44.615  33.582  30.263  1.00  0.00     0.134 A 
ATOM     63  C   UNL A   1      44.123  32.796  32.471  1.00  0.00     0.134 A 
ATOM     64  F   UNL A   1      44.755  33.388  28.943  1.00  0.00    -0.206 F 
ATOM     65  C   UNL A   1      44.859  34.860  30.767  1.00  0.00     0.040 A 
ATOM     66  C   UNL A   1      44.338  34.076  32.982  1.00  0.00     0.040 A 
ATOM     67  F   UNL A   1      43.760  31.829  33.327  1.00  0.00    -0.206 F 
ATOM     68  C   UNL A   1      44.717  35.111  32.130  1.00  0.00     0.006 A 
ENDBRANCH  47  61
BRANCH  48  69
ATOM     69  C   UNL A   1      42.513  23.457  27.289  1.00  0.00     0.057 A 
ATOM     70  C   UNL A   1      42.101  22.386  28.089  1.00  0.00     0.134 A 
ATOM     71  C   UNL A   1      42.709  23.206  25.926  1.00  0.00     0.134 A 
ATOM     72  F   UNL A   1      41.905  22.559  29.405  1.00  0.00    -0.206 F 
ATOM     73  C   UNL A   1      41.906  21.109  27.558  1.00  0.00     0.040 A 
ATOM     74  C   UNL A   1      42.497  21.940  25.377  1.00  0.00     0.040 A 
ATOM     75  F   UNL A   1      43.088  24.196  25.106  1.00  0.00    -0.206 F 
ATOM     76  C   UNL A   1      42.101  20.885  26.197  1.00  0.00     0.006 A 
ENDBRANCH  48  69
BRANCH  60  77
ATOM     77  C   UNL A   1      48.152  26.598  29.930  1.00  0.00     0.057 A 
ATOM     78  C   UNL A   1      49.110  26.745  28.917  1.00  0.00     0.134 A 
ATOM     79  C   UNL A   1      48.540  25.939  31.102  1.00  0.00     0.134 A 
ATOM     80  F   UNL A   1      48.796  27.358  27.767  1.00  0.00    -0.206 F 
ATOM     81  C   UNL A   1      50.401  26.236  29.058  1.00  0.00     0.040 A 
ATOM     82  C   UNL A   1      49.836  25.445  31.263  1.00  0.00     0.040 A 
ATOM     83  F   UNL A   1      47.670  25.775  32.109  1.00  0.00    -0.206 F 
ATOM     84  C   UNL A   1      50.766  25.584  30.234  1.00  0.00     0.006 A 
ENDBRANCH  60  77
ENDBRANCH  34  35
ENDBRANCH  26  29
ENDBRANCH  24  25
ENDBRANCH  23  24
ENDBRANCH   1  23
TORSDOF 14
ENDMDL
