MODEL 1
REMARK VINA RESULT:     -11.1      0.000      0.000
REMARK SMILES C=CCCC[C@@]1(C(=O)NCCCNC(=O)c2ccc(-c3c4nc(c(-c5c(F)cccc5F)c5ccc([nH]5)c(-c5c(F)cccc5F)c5nc(c(-c6c(F)cccc6F)c6ccc3[nH]6)C=C5)C=C4)cc2)CCCN(C(=O)OC(C)(C)C)C1
REMARK SMILES IDX 10 1 9 2 7 3 8 4 6 6 70 7 81 8 71 9 73 10 72 11 5 12 4 13
REMARK SMILES IDX 3 14 2 15 1 16 74 17 75 18 76 19 77 20 78 21 79 22 80 23
REMARK SMILES IDX 11 24 12 25 13 26 14 27 15 29 16 30 17 31 69 32 18 33 68 34
REMARK SMILES IDX 19 35 20 36 21 37 62 38 22 39 67 40 61 41 63 42 23 43 66 44
REMARK SMILES IDX 60 45 59 46 24 48 50 49 33 50 49 51 34 52 37 53 48 54 64 55
REMARK SMILES IDX 35 56 36 57 47 59 65 60 38 61 25 62 26 63 31 64 27 65 28 66
REMARK SMILES IDX 30 67 32 68 29 69 51 70 52 71 57 72 53 73 54 74 56 75 58 76
REMARK SMILES IDX 55 77 39 78 40 79 45 80 41 81 42 82 44 83 46 84 43 85
REMARK H PARENT 9 5 13 28 63 47 37 58
REMARK Flexibility Score: inf
ROOT
ATOM      1  C   UNL A   1      31.160  30.431  25.768  1.00  0.00     0.117 C 
ENDROOT
BRANCH   1   2
ATOM      2  N   UNL A   1      32.283  29.895  25.047  1.00  0.00    -0.355 N 
ATOM      3  C   UNL A   1      32.312  28.941  24.083  1.00  0.00     0.228 C 
ATOM      4  O   UNL A   1      33.355  28.933  23.412  1.00  0.00    -0.274 OA
ATOM      5  H   UNL A   1      33.158  30.277  25.287  1.00  0.00     0.163 HD
BRANCH   3   6
ATOM      6  C   UNL A   1      31.263  27.793  23.917  1.00  0.00     0.067 C 
ATOM      7  C   UNL A   1      30.824  27.418  25.367  1.00  0.00     0.020 C 
ATOM      8  C   UNL A   1      31.680  26.452  23.275  1.00  0.00     0.140 C 
ATOM      9  C   UNL A   1      31.974  26.736  26.132  1.00  0.00     0.023 C 
ATOM     10  N   UNL A   1      32.776  25.798  23.981  1.00  0.00    -0.307 N 
ATOM     11  C   UNL A   1      32.537  25.521  25.393  1.00  0.00     0.123 C 
BRANCH   6  12
ATOM     12  C   UNL A   1      30.116  28.497  23.116  1.00  0.00     0.019 C 
BRANCH  12  13
ATOM     13  C   UNL A   1      28.667  28.004  23.236  1.00  0.00     0.005 C 
BRANCH  13  14
ATOM     14  C   UNL A   1      27.552  29.016  22.973  1.00  0.00     0.027 C 
BRANCH  14  15
ATOM     15  C   UNL A   1      28.028  30.435  22.864  1.00  0.00    -0.035 C 
ATOM     16  C   UNL A   1      27.600  31.424  23.659  1.00  0.00     0.004 C 
ENDBRANCH  14  15
ENDBRANCH  13  14
ENDBRANCH  12  13
ENDBRANCH   6  12
BRANCH  10  17
ATOM     17  C   UNL A   1      33.882  25.338  23.277  1.00  0.00     0.410 C 
ATOM     18  O   UNL A   1      34.011  25.483  22.067  1.00  0.00    -0.224 OA
BRANCH  17  19
ATOM     19  O   UNL A   1      34.833  24.796  24.077  1.00  0.00    -0.444 OA
BRANCH  19  20
ATOM     20  C   UNL A   1      35.078  23.360  24.090  1.00  0.00     0.106 C 
ATOM     21  C   UNL A   1      33.884  22.515  23.626  1.00  0.00     0.056 C 
ATOM     22  C   UNL A   1      36.324  23.045  23.257  1.00  0.00     0.056 C 
ATOM     23  C   UNL A   1      35.373  23.027  25.559  1.00  0.00     0.056 C 
ENDBRANCH  19  20
ENDBRANCH  17  19
ENDBRANCH  10  17
ENDBRANCH   3   6
ENDBRANCH   1   2
BRANCH   1  24
ATOM     24  C   UNL A   1      31.230  31.907  26.073  1.00  0.00     0.042 C 
BRANCH  24  25
ATOM     25  C   UNL A   1      32.378  32.286  26.985  1.00  0.00     0.118 C 
BRANCH  25  26
ATOM     26  N   UNL A   1      32.313  33.677  27.426  1.00  0.00    -0.352 N 
ATOM     27  C   UNL A   1      33.050  34.352  28.372  1.00  0.00     0.251 C 
ATOM     28  H   UNL A   1      31.632  34.221  26.971  1.00  0.00     0.163 HD
ATOM     29  O   UNL A   1      32.679  35.452  28.773  1.00  0.00    -0.269 OA
BRANCH  27  30
ATOM     30  C   UNL A   1      34.289  33.755  28.909  1.00  0.00     0.039 A 
ATOM     31  C   UNL A   1      35.531  34.324  28.607  1.00  0.00     0.014 A 
ATOM     32  C   UNL A   1      34.223  32.610  29.700  1.00  0.00     0.014 A 
ATOM     33  C   UNL A   1      36.693  33.783  29.167  1.00  0.00     0.010 A 
ATOM     34  C   UNL A   1      35.353  32.158  30.360  1.00  0.00     0.010 A 
ATOM     35  C   UNL A   1      36.606  32.721  30.081  1.00  0.00    -0.014 A 
BRANCH  35  36
ATOM     36  C   UNL A   1      37.796  32.127  30.739  1.00  0.00     0.031 A 
ATOM     37  C   UNL A   1      38.559  31.039  30.029  1.00  0.00     0.074 A 
ATOM     38  C   UNL A   1      38.106  32.468  32.004  1.00  0.00     0.049 A 
ATOM     39  N   UNL A   1      39.498  30.251  30.486  1.00  0.00    -0.248 NA
ATOM     40  C   UNL A   1      38.176  30.763  28.632  1.00  0.00     0.031 C 
ATOM     41  C   UNL A   1      37.403  33.465  32.815  1.00  0.00     0.029 A 
ATOM     42  N   UNL A   1      39.085  31.994  32.840  1.00  0.00    -0.354 N 
ATOM     43  C   UNL A   1      39.776  29.361  29.454  1.00  0.00     0.074 A 
ATOM     44  C   UNL A   1      38.876  29.671  28.368  1.00  0.00     0.031 C 
ATOM     45  C   UNL A   1      37.989  33.545  34.021  1.00  0.00     0.029 A 
ATOM     46  C   UNL A   1      39.077  32.576  34.085  1.00  0.00     0.049 A 
ATOM     47  H   UNL A   1      39.732  31.302  32.572  1.00  0.00     0.167 HD
ATOM     48  C   UNL A   1      40.716  28.389  29.409  1.00  0.00     0.037 A 
ATOM     49  C   UNL A   1      39.857  32.342  35.156  1.00  0.00     0.037 A 
ATOM     50  C   UNL A   1      41.659  28.142  30.466  1.00  0.00     0.049 A 
ATOM     51  C   UNL A   1      40.926  31.288  35.062  1.00  0.00     0.074 A 
ATOM     52  C   UNL A   1      42.719  27.255  30.484  1.00  0.00     0.029 A 
ATOM     53  N   UNL A   1      41.657  28.795  31.689  1.00  0.00    -0.354 N 
ATOM     54  N   UNL A   1      41.227  30.503  34.055  1.00  0.00    -0.248 NA
ATOM     55  C   UNL A   1      41.766  31.088  36.250  1.00  0.00     0.031 C 
ATOM     56  C   UNL A   1      43.340  27.348  31.734  1.00  0.00     0.029 A 
ATOM     57  C   UNL A   1      42.691  28.321  32.476  1.00  0.00     0.049 A 
ATOM     58  H   UNL A   1      41.015  29.493  31.957  1.00  0.00     0.167 HD
ATOM     59  C   UNL A   1      42.311  29.744  34.474  1.00  0.00     0.074 A 
ATOM     60  C   UNL A   1      42.621  30.170  35.824  1.00  0.00     0.031 C 
ATOM     61  C   UNL A   1      42.991  28.780  33.807  1.00  0.00     0.037 A 
BRANCH  48  62
ATOM     62  C   UNL A   1      40.788  27.538  28.175  1.00  0.00     0.057 A 
ATOM     63  C   UNL A   1      41.572  27.896  27.070  1.00  0.00     0.134 A 
ATOM     64  C   UNL A   1      40.096  26.322  28.107  1.00  0.00     0.134 A 
ATOM     65  F   UNL A   1      42.248  29.054  27.063  1.00  0.00    -0.206 F 
ATOM     66  C   UNL A   1      41.648  27.087  25.935  1.00  0.00     0.040 A 
ATOM     67  C   UNL A   1      40.188  25.490  26.990  1.00  0.00     0.040 A 
ATOM     68  F   UNL A   1      39.329  25.916  29.130  1.00  0.00    -0.206 F 
ATOM     69  C   UNL A   1      40.962  25.876  25.897  1.00  0.00     0.006 A 
ENDBRANCH  48  62
BRANCH  49  70
ATOM     70  C   UNL A   1      39.685  33.135  36.400  1.00  0.00     0.057 A 
ATOM     71  C   UNL A   1      38.810  32.706  37.406  1.00  0.00     0.134 A 
ATOM     72  C   UNL A   1      40.363  34.340  36.609  1.00  0.00     0.134 A 
ATOM     73  F   UNL A   1      38.119  31.566  37.258  1.00  0.00    -0.206 F 
ATOM     74  C   UNL A   1      38.595  33.459  38.562  1.00  0.00     0.040 A 
ATOM     75  C   UNL A   1      40.177  35.092  37.771  1.00  0.00     0.040 A 
ATOM     76  F   UNL A   1      41.223  34.803  35.688  1.00  0.00    -0.206 F 
ATOM     77  C   UNL A   1      39.283  34.656  38.747  1.00  0.00     0.006 A 
ENDBRANCH  49  70
BRANCH  61  78
ATOM     78  C   UNL A   1      44.162  28.161  34.507  1.00  0.00     0.057 A 
ATOM     79  C   UNL A   1      44.045  26.968  35.230  1.00  0.00     0.134 A 
ATOM     80  C   UNL A   1      45.431  28.747  34.417  1.00  0.00     0.134 A 
ATOM     81  F   UNL A   1      42.853  26.367  35.362  1.00  0.00    -0.206 F 
ATOM     82  C   UNL A   1      45.147  26.389  35.859  1.00  0.00     0.040 A 
ATOM     83  C   UNL A   1      46.545  28.163  35.019  1.00  0.00     0.040 A 
ATOM     84  F   UNL A   1      45.610  29.884  33.730  1.00  0.00    -0.206 F 
ATOM     85  C   UNL A   1      46.403  26.984  35.748  1.00  0.00     0.006 A 
ENDBRANCH  61  78
ENDBRANCH  35  36
ENDBRANCH  27  30
ENDBRANCH  25  26
ENDBRANCH  24  25
ENDBRANCH   1  24
TORSDOF 17
ENDMDL
MODEL 2
REMARK VINA RESULT:     -11.0      1.797      6.304
REMARK SMILES C=CCCC[C@@]1(C(=O)NCCCNC(=O)c2ccc(-c3c4nc(c(-c5c(F)cccc5F)c5ccc([nH]5)c(-c5c(F)cccc5F)c5nc(c(-c6c(F)cccc6F)c6ccc3[nH]6)C=C5)C=C4)cc2)CCCN(C(=O)OC(C)(C)C)C1
REMARK SMILES IDX 10 1 9 2 7 3 8 4 6 6 70 7 81 8 71 9 73 10 72 11 5 12 4 13
REMARK SMILES IDX 3 14 2 15 1 16 74 17 75 18 76 19 77 20 78 21 79 22 80 23
REMARK SMILES IDX 11 24 12 25 13 26 14 27 15 29 16 30 17 31 69 32 18 33 68 34
REMARK SMILES IDX 19 35 20 36 21 37 62 38 22 39 67 40 61 41 63 42 23 43 66 44
REMARK SMILES IDX 60 45 59 46 24 48 50 49 33 50 49 51 34 52 37 53 48 54 64 55
REMARK SMILES IDX 35 56 36 57 47 59 65 60 38 61 25 62 26 63 31 64 27 65 28 66
REMARK SMILES IDX 30 67 32 68 29 69 51 70 52 71 57 72 53 73 54 74 56 75 58 76
REMARK SMILES IDX 55 77 39 78 40 79 45 80 41 81 42 82 44 83 46 84 43 85
REMARK H PARENT 9 5 13 28 63 47 37 58
REMARK Flexibility Score: inf
ROOT
ATOM      1  C   UNL A   1      31.190  30.548  25.843  1.00  0.00     0.117 C 
ENDROOT
BRANCH   1   2
ATOM      2  N   UNL A   1      32.293  29.988  25.110  1.00  0.00    -0.355 N 
ATOM      3  C   UNL A   1      32.315  28.928  24.264  1.00  0.00     0.228 C 
ATOM      4  O   UNL A   1      33.311  28.892  23.526  1.00  0.00    -0.274 OA
ATOM      5  H   UNL A   1      33.158  30.440  25.240  1.00  0.00     0.163 HD
BRANCH   3   6
ATOM      6  C   UNL A   1      31.328  27.716  24.310  1.00  0.00     0.067 C 
ATOM      7  C   UNL A   1      31.070  27.444  25.824  1.00  0.00     0.020 C 
ATOM      8  C   UNL A   1      31.756  26.348  23.734  1.00  0.00     0.140 C 
ATOM      9  C   UNL A   1      32.337  26.893  26.508  1.00  0.00     0.023 C 
ATOM     10  N   UNL A   1      32.960  25.816  24.363  1.00  0.00    -0.307 N 
ATOM     11  C   UNL A   1      32.892  25.650  25.811  1.00  0.00     0.123 C 
BRANCH   6  12
ATOM     12  C   UNL A   1      30.061  28.285  23.588  1.00  0.00     0.019 C 
BRANCH  12  13
ATOM     13  C   UNL A   1      30.206  29.179  22.348  1.00  0.00     0.005 C 
BRANCH  13  14
ATOM     14  C   UNL A   1      29.046  30.115  22.011  1.00  0.00     0.027 C 
BRANCH  14  15
ATOM     15  C   UNL A   1      28.812  31.191  23.031  1.00  0.00    -0.035 C 
ATOM     16  C   UNL A   1      27.644  31.376  23.659  1.00  0.00     0.004 C 
ENDBRANCH  14  15
ENDBRANCH  13  14
ENDBRANCH  12  13
ENDBRANCH   6  12
BRANCH  10  17
ATOM     17  C   UNL A   1      34.010  25.356  23.580  1.00  0.00     0.410 C 
ATOM     18  O   UNL A   1      34.044  25.492  22.361  1.00  0.00    -0.224 OA
BRANCH  17  19
ATOM     19  O   UNL A   1      35.024  24.826  24.307  1.00  0.00    -0.444 OA
BRANCH  19  20
ATOM     20  C   UNL A   1      35.271  23.390  24.321  1.00  0.00     0.106 C 
ATOM     21  C   UNL A   1      34.036  22.538  24.002  1.00  0.00     0.056 C 
ATOM     22  C   UNL A   1      36.422  23.058  23.366  1.00  0.00     0.056 C 
ATOM     23  C   UNL A   1      35.721  23.083  25.756  1.00  0.00     0.056 C 
ENDBRANCH  19  20
ENDBRANCH  17  19
ENDBRANCH  10  17
ENDBRANCH   3   6
ENDBRANCH   1   2
BRANCH   1  24
ATOM     24  C   UNL A   1      31.289  32.025  26.135  1.00  0.00     0.042 C 
BRANCH  24  25
ATOM     25  C   UNL A   1      32.425  32.386  27.069  1.00  0.00     0.118 C 
BRANCH  25  26
ATOM     26  N   UNL A   1      32.385  33.783  27.493  1.00  0.00    -0.352 N 
ATOM     27  C   UNL A   1      33.147  34.461  28.416  1.00  0.00     0.251 C 
ATOM     28  H   UNL A   1      31.701  34.330  27.044  1.00  0.00     0.163 HD
ATOM     29  O   UNL A   1      32.797  35.571  28.810  1.00  0.00    -0.269 OA
BRANCH  27  30
ATOM     30  C   UNL A   1      34.390  33.856  28.937  1.00  0.00     0.039 A 
ATOM     31  C   UNL A   1      34.367  33.118  30.125  1.00  0.00     0.014 A 
ATOM     32  C   UNL A   1      35.590  34.040  28.255  1.00  0.00     0.014 A 
ATOM     33  C   UNL A   1      35.539  32.503  30.578  1.00  0.00     0.010 A 
ATOM     34  C   UNL A   1      36.715  33.324  28.629  1.00  0.00     0.010 A 
ATOM     35  C   UNL A   1      36.711  32.568  29.809  1.00  0.00    -0.014 A 
BRANCH  35  36
ATOM     36  C   UNL A   1      37.976  31.907  30.214  1.00  0.00     0.031 A 
ATOM     37  C   UNL A   1      38.917  32.630  31.143  1.00  0.00     0.074 A 
ATOM     38  C   UNL A   1      38.332  30.735  29.654  1.00  0.00     0.049 A 
ATOM     39  N   UNL A   1      40.148  32.335  31.472  1.00  0.00    -0.248 NA
ATOM     40  C   UNL A   1      38.424  33.885  31.740  1.00  0.00     0.031 C 
ATOM     41  C   UNL A   1      37.532  29.971  28.696  1.00  0.00     0.029 A 
ATOM     42  N   UNL A   1      39.476  29.991  29.798  1.00  0.00    -0.354 N 
ATOM     43  C   UNL A   1      40.587  33.388  32.267  1.00  0.00     0.074 A 
ATOM     44  C   UNL A   1      39.513  34.353  32.331  1.00  0.00     0.031 C 
ATOM     45  C   UNL A   1      38.198  28.854  28.356  1.00  0.00     0.029 A 
ATOM     46  C   UNL A   1      39.489  28.848  29.035  1.00  0.00     0.049 A 
ATOM     47  H   UNL A   1      40.217  30.253  30.389  1.00  0.00     0.167 HD
ATOM     48  C   UNL A   1      41.771  33.526  32.906  1.00  0.00     0.037 A 
ATOM     49  C   UNL A   1      40.442  27.908  28.898  1.00  0.00     0.037 A 
ATOM     50  C   UNL A   1      42.802  32.524  32.899  1.00  0.00     0.049 A 
ATOM     51  C   UNL A   1      41.731  28.062  29.659  1.00  0.00     0.074 A 
ATOM     52  C   UNL A   1      43.996  32.512  33.596  1.00  0.00     0.029 A 
ATOM     53  N   UNL A   1      42.751  31.349  32.164  1.00  0.00    -0.354 N 
ATOM     54  N   UNL A   1      42.104  29.027  30.465  1.00  0.00    -0.248 NA
ATOM     55  C   UNL A   1      42.728  26.997  29.493  1.00  0.00     0.031 C 
ATOM     56  C   UNL A   1      44.685  31.343  33.255  1.00  0.00     0.029 A 
ATOM     57  C   UNL A   1      43.901  30.610  32.379  1.00  0.00     0.049 A 
ATOM     58  H   UNL A   1      42.007  31.082  31.576  1.00  0.00     0.167 HD
ATOM     59  C   UNL A   1      43.362  28.668  30.929  1.00  0.00     0.074 A 
ATOM     60  C   UNL A   1      43.683  27.392  30.323  1.00  0.00     0.031 C 
ATOM     61  C   UNL A   1      44.182  29.332  31.780  1.00  0.00     0.037 A 
BRANCH  48  62
ATOM     62  C   UNL A   1      42.008  34.789  33.682  1.00  0.00     0.057 A 
ATOM     63  C   UNL A   1      41.628  34.918  35.024  1.00  0.00     0.134 A 
ATOM     64  C   UNL A   1      42.664  35.875  33.090  1.00  0.00     0.134 A 
ATOM     65  F   UNL A   1      40.982  33.921  35.647  1.00  0.00    -0.206 F 
ATOM     66  C   UNL A   1      41.872  36.090  35.743  1.00  0.00     0.040 A 
ATOM     67  C   UNL A   1      42.940  37.041  33.807  1.00  0.00     0.040 A 
ATOM     68  F   UNL A   1      43.059  35.818  31.809  1.00  0.00    -0.206 F 
ATOM     69  C   UNL A   1      42.538  37.152  35.137  1.00  0.00     0.006 A 
ENDBRANCH  48  62
BRANCH  49  70
ATOM     70  C   UNL A   1      40.211  26.722  28.035  1.00  0.00     0.057 A 
ATOM     71  C   UNL A   1      39.453  25.639  28.497  1.00  0.00     0.134 A 
ATOM     72  C   UNL A   1      40.752  26.626  26.748  1.00  0.00     0.134 A 
ATOM     73  F   UNL A   1      38.921  25.664  29.728  1.00  0.00    -0.206 F 
ATOM     74  C   UNL A   1      39.263  24.492  27.723  1.00  0.00     0.040 A 
ATOM     75  C   UNL A   1      40.550  25.496  25.953  1.00  0.00     0.040 A 
ATOM     76  F   UNL A   1      41.480  27.632  26.242  1.00  0.00    -0.206 F 
ATOM     77  C   UNL A   1      39.811  24.421  26.444  1.00  0.00     0.006 A 
ENDBRANCH  49  70
BRANCH  61  78
ATOM     78  C   UNL A   1      45.476  28.667  32.141  1.00  0.00     0.057 A 
ATOM     79  C   UNL A   1      46.656  28.911  31.429  1.00  0.00     0.134 A 
ATOM     80  C   UNL A   1      45.545  27.807  33.244  1.00  0.00     0.134 A 
ATOM     81  F   UNL A   1      46.649  29.716  30.356  1.00  0.00    -0.206 F 
ATOM     82  C   UNL A   1      47.859  28.303  31.789  1.00  0.00     0.040 A 
ATOM     83  C   UNL A   1      46.748  27.214  33.629  1.00  0.00     0.040 A 
ATOM     84  F   UNL A   1      44.452  27.542  33.973  1.00  0.00    -0.206 F 
ATOM     85  C   UNL A   1      47.908  27.457  32.896  1.00  0.00     0.006 A 
ENDBRANCH  61  78
ENDBRANCH  35  36
ENDBRANCH  27  30
ENDBRANCH  25  26
ENDBRANCH  24  25
ENDBRANCH   1  24
TORSDOF 17
ENDMDL
MODEL 3
REMARK VINA RESULT:     -10.8      3.904      8.212
REMARK SMILES C=CCCC[C@@]1(C(=O)NCCCNC(=O)c2ccc(-c3c4nc(c(-c5c(F)cccc5F)c5ccc([nH]5)c(-c5c(F)cccc5F)c5nc(c(-c6c(F)cccc6F)c6ccc3[nH]6)C=C5)C=C4)cc2)CCCN(C(=O)OC(C)(C)C)C1
REMARK SMILES IDX 10 1 9 2 7 3 8 4 6 6 70 7 81 8 71 9 73 10 72 11 5 12 4 13
REMARK SMILES IDX 3 14 2 15 1 16 74 17 75 18 76 19 77 20 78 21 79 22 80 23
REMARK SMILES IDX 11 24 12 25 13 26 14 27 15 29 16 30 17 31 69 32 18 33 68 34
REMARK SMILES IDX 19 35 20 36 21 37 62 38 22 39 67 40 61 41 63 42 23 43 66 44
REMARK SMILES IDX 60 45 59 46 24 48 50 49 33 50 49 51 34 52 37 53 48 54 64 55
REMARK SMILES IDX 35 56 36 57 47 59 65 60 38 61 25 62 26 63 31 64 27 65 28 66
REMARK SMILES IDX 30 67 32 68 29 69 51 70 52 71 57 72 53 73 54 74 56 75 58 76
REMARK SMILES IDX 55 77 39 78 40 79 45 80 41 81 42 82 44 83 46 84 43 85
REMARK H PARENT 9 5 13 28 63 47 37 58
REMARK Flexibility Score: inf
ROOT
ATOM      1  C   UNL A   1      33.139  26.476  25.358  1.00  0.00     0.117 C 
ENDROOT
BRANCH   1   2
ATOM      2  N   UNL A   1      32.489  25.255  25.750  1.00  0.00    -0.355 N 
ATOM      3  C   UNL A   1      32.980  23.992  25.788  1.00  0.00     0.228 C 
ATOM      4  O   UNL A   1      32.313  23.211  26.483  1.00  0.00    -0.274 OA
ATOM      5  H   UNL A   1      31.550  25.350  26.032  1.00  0.00     0.163 HD
BRANCH   3   6
ATOM      6  C   UNL A   1      34.145  23.449  24.897  1.00  0.00     0.067 C 
ATOM      7  C   UNL A   1      33.923  24.083  23.489  1.00  0.00     0.020 C 
ATOM      8  C   UNL A   1      34.271  21.933  24.629  1.00  0.00     0.140 C 
ATOM      9  C   UNL A   1      32.664  23.501  22.816  1.00  0.00     0.023 C 
ATOM     10  N   UNL A   1      33.083  21.364  24.002  1.00  0.00    -0.307 N 
ATOM     11  C   UNL A   1      32.687  21.975  22.737  1.00  0.00     0.123 C 
BRANCH   6  12
ATOM     12  C   UNL A   1      35.413  24.026  25.611  1.00  0.00     0.019 C 
BRANCH  12  13
ATOM     13  C   UNL A   1      36.813  23.780  25.031  1.00  0.00     0.005 C 
BRANCH  13  14
ATOM     14  C   UNL A   1      37.923  23.384  26.005  1.00  0.00     0.027 C 
BRANCH  14  15
ATOM     15  C   UNL A   1      38.445  21.992  25.805  1.00  0.00    -0.035 C 
ATOM     16  C   UNL A   1      37.800  21.052  25.102  1.00  0.00     0.004 C 
ENDBRANCH  14  15
ENDBRANCH  13  14
ENDBRANCH  12  13
ENDBRANCH   6  12
BRANCH  10  17
ATOM     17  C   UNL A   1      32.503  20.215  24.522  1.00  0.00     0.410 C 
ATOM     18  O   UNL A   1      31.953  20.181  25.617  1.00  0.00    -0.224 OA
BRANCH  17  19
ATOM     19  O   UNL A   1      32.531  19.168  23.660  1.00  0.00    -0.444 OA
BRANCH  19  20
ATOM     20  C   UNL A   1      33.240  17.939  23.990  1.00  0.00     0.106 C 
ATOM     21  C   UNL A   1      32.527  17.063  25.029  1.00  0.00     0.056 C 
ATOM     22  C   UNL A   1      33.517  17.146  22.710  1.00  0.00     0.056 C 
ATOM     23  C   UNL A   1      34.579  18.405  24.578  1.00  0.00     0.056 C 
ENDBRANCH  19  20
ENDBRANCH  17  19
ENDBRANCH  10  17
ENDBRANCH   3   6
ENDBRANCH   1   2
BRANCH   1  24
ATOM     24  C   UNL A   1      33.470  27.425  26.484  1.00  0.00     0.042 C 
BRANCH  24  25
ATOM     25  C   UNL A   1      34.362  28.576  26.068  1.00  0.00     0.118 C 
BRANCH  25  26
ATOM     26  N   UNL A   1      34.013  29.829  26.732  1.00  0.00    -0.352 N 
ATOM     27  C   UNL A   1      34.625  30.494  27.769  1.00  0.00     0.251 C 
ATOM     28  H   UNL A   1      33.209  30.272  26.378  1.00  0.00     0.163 HD
ATOM     29  O   UNL A   1      34.040  31.406  28.348  1.00  0.00    -0.269 OA
BRANCH  27  30
ATOM     30  C   UNL A   1      35.988  30.113  28.190  1.00  0.00     0.039 A 
ATOM     31  C   UNL A   1      36.204  29.562  29.458  1.00  0.00     0.014 A 
ATOM     32  C   UNL A   1      37.065  30.323  27.331  1.00  0.00     0.014 A 
ATOM     33  C   UNL A   1      37.490  29.153  29.823  1.00  0.00     0.010 A 
ATOM     34  C   UNL A   1      38.308  29.798  27.639  1.00  0.00     0.010 A 
ATOM     35  C   UNL A   1      38.543  29.230  28.899  1.00  0.00    -0.014 A 
BRANCH  35  36
ATOM     36  C   UNL A   1      39.922  28.780  29.211  1.00  0.00     0.031 A 
ATOM     37  C   UNL A   1      40.867  29.730  29.900  1.00  0.00     0.074 A 
ATOM     38  C   UNL A   1      40.356  27.584  28.766  1.00  0.00     0.049 A 
ATOM     39  N   UNL A   1      42.156  29.624  30.094  1.00  0.00    -0.248 NA
ATOM     40  C   UNL A   1      40.292  30.997  30.389  1.00  0.00     0.031 C 
ATOM     41  C   UNL A   1      39.551  26.604  28.035  1.00  0.00     0.029 A 
ATOM     42  N   UNL A   1      41.595  27.000  28.849  1.00  0.00    -0.354 N 
ATOM     43  C   UNL A   1      42.548  30.825  30.675  1.00  0.00     0.074 A 
ATOM     44  C   UNL A   1      41.375  31.663  30.758  1.00  0.00     0.031 C 
ATOM     45  C   UNL A   1      40.309  25.530  27.757  1.00  0.00     0.029 A 
ATOM     46  C   UNL A   1      41.662  25.766  28.248  1.00  0.00     0.049 A 
ATOM     47  H   UNL A   1      42.362  27.426  29.294  1.00  0.00     0.167 HD
ATOM     48  C   UNL A   1      43.773  31.184  31.124  1.00  0.00     0.037 A 
ATOM     49  C   UNL A   1      42.705  24.927  28.107  1.00  0.00     0.037 A 
ATOM     50  C   UNL A   1      44.916  30.312  31.108  1.00  0.00     0.049 A 
ATOM     51  C   UNL A   1      44.045  25.332  28.658  1.00  0.00     0.074 A 
ATOM     52  C   UNL A   1      46.176  30.533  31.630  1.00  0.00     0.029 A 
ATOM     53  N   UNL A   1      44.928  29.043  30.546  1.00  0.00    -0.354 N 
ATOM     54  N   UNL A   1      44.386  26.440  29.271  1.00  0.00    -0.248 NA
ATOM     55  C   UNL A   1      45.144  24.371  28.499  1.00  0.00     0.031 C 
ATOM     56  C   UNL A   1      46.963  29.411  31.355  1.00  0.00     0.029 A 
ATOM     57  C   UNL A   1      46.180  28.475  30.698  1.00  0.00     0.049 A 
ATOM     58  H   UNL A   1      44.160  28.612  30.106  1.00  0.00     0.167 HD
ATOM     59  C   UNL A   1      45.726  26.294  29.603  1.00  0.00     0.074 A 
ATOM     60  C   UNL A   1      46.133  24.986  29.132  1.00  0.00     0.031 C 
ATOM     61  C   UNL A   1      46.550  27.162  30.239  1.00  0.00     0.037 A 
BRANCH  48  62
ATOM     62  C   UNL A   1      43.937  32.565  31.687  1.00  0.00     0.057 A 
ATOM     63  C   UNL A   1      44.303  33.656  30.886  1.00  0.00     0.134 A 
ATOM     64  C   UNL A   1      43.683  32.817  33.041  1.00  0.00     0.134 A 
ATOM     65  F   UNL A   1      44.575  33.482  29.585  1.00  0.00    -0.206 F 
ATOM     66  C   UNL A   1      44.432  34.941  31.416  1.00  0.00     0.040 A 
ATOM     67  C   UNL A   1      43.780  34.102  33.577  1.00  0.00     0.040 A 
ATOM     68  F   UNL A   1      43.325  31.820  33.864  1.00  0.00    -0.206 F 
ATOM     69  C   UNL A   1      44.161  35.168  32.763  1.00  0.00     0.006 A 
ENDBRANCH  48  62
BRANCH  49  70
ATOM     70  C   UNL A   1      42.526  23.609  27.447  1.00  0.00     0.057 A 
ATOM     71  C   UNL A   1      42.658  23.481  26.059  1.00  0.00     0.134 A 
ATOM     72  C   UNL A   1      42.201  22.457  28.171  1.00  0.00     0.134 A 
ATOM     73  F   UNL A   1      42.952  24.552  25.308  1.00  0.00    -0.206 F 
ATOM     74  C   UNL A   1      42.446  22.262  25.411  1.00  0.00     0.040 A 
ATOM     75  C   UNL A   1      42.011  21.225  27.539  1.00  0.00     0.040 A 
ATOM     76  F   UNL A   1      42.070  22.509  29.505  1.00  0.00    -0.206 F 
ATOM     77  C   UNL A   1      42.124  21.129  26.153  1.00  0.00     0.006 A 
ENDBRANCH  49  70
BRANCH  61  78
ATOM     78  C   UNL A   1      47.952  26.704  30.504  1.00  0.00     0.057 A 
ATOM     79  C   UNL A   1      48.999  26.975  29.616  1.00  0.00     0.134 A 
ATOM     80  C   UNL A   1      48.261  26.021  31.688  1.00  0.00     0.134 A 
ATOM     81  F   UNL A   1      48.762  27.615  28.461  1.00  0.00    -0.206 F 
ATOM     82  C   UNL A   1      50.304  26.563  29.884  1.00  0.00     0.040 A 
ATOM     83  C   UNL A   1      49.567  25.627  31.979  1.00  0.00     0.040 A 
ATOM     84  F   UNL A   1      47.304  25.740  32.584  1.00  0.00    -0.206 F 
ATOM     85  C   UNL A   1      50.592  25.893  31.073  1.00  0.00     0.006 A 
ENDBRANCH  61  78
ENDBRANCH  35  36
ENDBRANCH  27  30
ENDBRANCH  25  26
ENDBRANCH  24  25
ENDBRANCH   1  24
TORSDOF 17
ENDMDL
