MODEL 1
REMARK VINA RESULT:     -12.5      0.000      0.000
REMARK SMILES O=C(NCCCNC(=O)c1sccc1S(=O)(=O)Nc1ccc(Cn2cncn2)cc1)c1ccc(-c2c3nc(c(-c4c(F)cccc4F)c4ccc([nH]4)c(-c4c(F)cccc4F)c4nc(c(-c5c(F)cccc5F)c5ccc2[nH]5)C=C4)C=C3)cc1
REMARK SMILES IDX 7 1 8 2 9 3 6 5 5 6 4 7 3 8 1 9 2 10 31 12 32 13 84 14 33 15
REMARK SMILES IDX 83 16 34 17 35 18 36 19 77 20 37 21 82 22 76 23 78 24 38 25
REMARK SMILES IDX 81 26 75 27 74 28 39 30 65 31 48 32 64 33 49 34 52 35 63 36
REMARK SMILES IDX 79 37 50 38 51 39 62 41 80 42 53 43 40 44 41 45 46 46 42 47
REMARK SMILES IDX 43 48 45 49 47 50 44 51 66 52 67 53 72 54 68 55 69 56 71 57
REMARK SMILES IDX 73 58 70 59 54 60 55 61 60 62 56 63 57 64 59 65 61 66 58 67
REMARK SMILES IDX 10 68 11 69 14 70 12 71 13 72 15 73 16 74 17 75 18 76 19 78
REMARK SMILES IDX 20 79 30 80 21 81 29 82 22 83 23 84 24 85 25 86 28 87 26 88
REMARK SMILES IDX 27 89
REMARK H PARENT 7 4 3 11 78 29 52 40 18 77
REMARK Flexibility Score: inf
ROOT
ATOM      1  N   UNL A   1      33.159  29.677  24.742  1.00  0.00    -0.351 N 
ATOM      2  C   UNL A   1      32.843  28.641  23.915  1.00  0.00     0.262 C 
ATOM      3  O   UNL A   1      33.720  28.333  23.102  1.00  0.00    -0.268 OA
ATOM      4  H   UNL A   1      33.991  30.146  24.507  1.00  0.00     0.163 HD
ENDROOT
BRANCH   1   5
ATOM      5  C   UNL A   1      32.484  30.207  25.906  1.00  0.00     0.118 C 
BRANCH   5   6
ATOM      6  C   UNL A   1      33.316  30.007  27.169  1.00  0.00     0.042 C 
BRANCH   6   7
ATOM      7  C   UNL A   1      34.275  31.160  27.489  1.00  0.00     0.118 C 
BRANCH   7   8
ATOM      8  N   UNL A   1      34.173  31.740  28.812  1.00  0.00    -0.352 N 
ATOM      9  O   UNL A   1      34.690  32.708  30.734  1.00  0.00    -0.269 OA
ATOM     10  C   UNL A   1      35.061  31.960  29.828  1.00  0.00     0.251 C 
ATOM     11  H   UNL A   1      33.262  32.043  29.029  1.00  0.00     0.163 HD
BRANCH  10  12
ATOM     12  C   UNL A   1      36.373  31.284  29.940  1.00  0.00     0.039 A 
ATOM     13  C   UNL A   1      37.606  31.930  29.886  1.00  0.00     0.014 A 
ATOM     14  C   UNL A   1      36.338  29.882  30.054  1.00  0.00     0.014 A 
ATOM     15  C   UNL A   1      38.775  31.194  29.790  1.00  0.00     0.010 A 
ATOM     16  C   UNL A   1      37.508  29.139  30.001  1.00  0.00     0.010 A 
ATOM     17  C   UNL A   1      38.719  29.799  29.820  1.00  0.00    -0.014 A 
BRANCH  17  18
ATOM     18  C   UNL A   1      39.987  29.089  29.827  1.00  0.00     0.031 A 
ATOM     19  C   UNL A   1      40.592  28.932  31.179  1.00  0.00     0.074 A 
ATOM     20  C   UNL A   1      40.518  28.509  28.735  1.00  0.00     0.049 A 
ATOM     21  N   UNL A   1      41.733  29.364  31.607  1.00  0.00    -0.248 NA
ATOM     22  C   UNL A   1      39.759  28.307  32.221  1.00  0.00     0.031 C 
ATOM     23  C   UNL A   1      39.903  28.319  27.421  1.00  0.00     0.029 A 
ATOM     24  N   UNL A   1      41.708  27.860  28.618  1.00  0.00    -0.354 N 
ATOM     25  C   UNL A   1      41.842  28.920  32.924  1.00  0.00     0.074 A 
ATOM     26  C   UNL A   1      40.551  28.399  33.290  1.00  0.00     0.031 C 
ATOM     27  C   UNL A   1      40.623  27.409  26.726  1.00  0.00     0.029 A 
ATOM     28  C   UNL A   1      41.806  27.056  27.493  1.00  0.00     0.049 A 
ATOM     29  H   UNL A   1      42.436  27.952  29.275  1.00  0.00     0.167 HD
ATOM     30  C   UNL A   1      43.042  28.826  33.558  1.00  0.00     0.037 A 
ATOM     31  C   UNL A   1      42.751  26.111  27.262  1.00  0.00     0.037 A 
ATOM     32  C   UNL A   1      44.054  29.609  32.904  1.00  0.00     0.049 A 
ATOM     33  C   UNL A   1      43.897  26.381  28.166  1.00  0.00     0.074 A 
ATOM     34  C   UNL A   1      44.226  30.953  32.637  1.00  0.00     0.029 A 
ATOM     35  N   UNL A   1      44.962  28.953  32.114  1.00  0.00    -0.354 N 
ATOM     36  N   UNL A   1      44.699  27.400  28.048  1.00  0.00    -0.248 NA
ATOM     37  C   UNL A   1      43.897  25.736  29.471  1.00  0.00     0.031 C 
ATOM     38  C   UNL A   1      44.869  30.995  31.365  1.00  0.00     0.029 A 
ATOM     39  C   UNL A   1      45.082  29.677  30.959  1.00  0.00     0.049 A 
ATOM     40  H   UNL A   1      45.438  28.119  32.335  1.00  0.00     0.167 HD
ATOM     41  C   UNL A   1      44.973  27.787  29.352  1.00  0.00     0.074 A 
ATOM     42  C   UNL A   1      44.535  26.669  30.182  1.00  0.00     0.031 C 
ATOM     43  C   UNL A   1      45.268  29.085  29.656  1.00  0.00     0.037 A 
BRANCH  30  44
ATOM     44  C   UNL A   1      43.387  27.749  34.555  1.00  0.00     0.057 A 
ATOM     45  C   UNL A   1      43.477  26.412  34.126  1.00  0.00     0.134 A 
ATOM     46  C   UNL A   1      43.327  27.928  35.952  1.00  0.00     0.134 A 
ATOM     47  F   UNL A   1      43.523  26.110  32.819  1.00  0.00    -0.206 F 
ATOM     48  C   UNL A   1      43.432  25.334  35.017  1.00  0.00     0.040 A 
ATOM     49  C   UNL A   1      43.337  26.861  36.853  1.00  0.00     0.040 A 
ATOM     50  F   UNL A   1      43.154  29.132  36.512  1.00  0.00    -0.206 F 
ATOM     51  C   UNL A   1      43.354  25.557  36.386  1.00  0.00     0.006 A 
ENDBRANCH  30  44
BRANCH  31  52
ATOM     52  C   UNL A   1      42.604  24.826  26.544  1.00  0.00     0.057 A 
ATOM     53  C   UNL A   1      43.328  24.562  25.372  1.00  0.00     0.134 A 
ATOM     54  C   UNL A   1      41.959  23.724  27.131  1.00  0.00     0.134 A 
ATOM     55  F   UNL A   1      44.015  25.538  24.762  1.00  0.00    -0.206 F 
ATOM     56  C   UNL A   1      43.421  23.274  24.829  1.00  0.00     0.040 A 
ATOM     57  C   UNL A   1      42.035  22.436  26.595  1.00  0.00     0.040 A 
ATOM     58  F   UNL A   1      41.306  23.842  28.297  1.00  0.00    -0.206 F 
ATOM     59  C   UNL A   1      42.781  22.204  25.446  1.00  0.00     0.006 A 
ENDBRANCH  31  52
BRANCH  43  60
ATOM     60  C   UNL A   1      45.548  30.026  28.520  1.00  0.00     0.057 A 
ATOM     61  C   UNL A   1      44.558  30.756  27.847  1.00  0.00     0.134 A 
ATOM     62  C   UNL A   1      46.879  30.318  28.201  1.00  0.00     0.134 A 
ATOM     63  F   UNL A   1      43.263  30.622  28.160  1.00  0.00    -0.206 F 
ATOM     64  C   UNL A   1      44.878  31.699  26.866  1.00  0.00     0.040 A 
ATOM     65  C   UNL A   1      47.213  31.283  27.249  1.00  0.00     0.040 A 
ATOM     66  F   UNL A   1      47.881  29.703  28.849  1.00  0.00    -0.206 F 
ATOM     67  C   UNL A   1      46.211  31.970  26.569  1.00  0.00     0.006 A 
ENDBRANCH  43  60
ENDBRANCH  17  18
ENDBRANCH  10  12
ENDBRANCH   7   8
ENDBRANCH   6   7
ENDBRANCH   5   6
ENDBRANCH   1   5
BRANCH   2  68
ATOM     68  C   UNL A   1      31.606  27.913  24.060  1.00  0.00     0.112 A 
ATOM     69  S   UNL A   1      30.409  28.363  22.883  1.00  0.00    -0.137 S 
ATOM     70  C   UNL A   1      31.101  26.970  24.942  1.00  0.00     0.111 A 
ATOM     71  C   UNL A   1      29.293  27.220  23.448  1.00  0.00     0.067 A 
ATOM     72  C   UNL A   1      29.781  26.539  24.533  1.00  0.00     0.035 A 
BRANCH  70  73
ATOM     73  S   UNL A   1      31.785  26.205  26.344  1.00  0.00     0.263 S 
ATOM     74  O   UNL A   1      33.175  26.035  25.961  1.00  0.00    -0.201 OA
ATOM     75  O   UNL A   1      31.438  27.134  27.398  1.00  0.00    -0.201 OA
BRANCH  73  76
ATOM     76  N   UNL A   1      31.288  24.715  26.894  1.00  0.00    -0.280 N 
ATOM     77  H   UNL A   1      30.565  24.698  27.563  1.00  0.00     0.180 HD
BRANCH  76  78
ATOM     78  C   UNL A   1      31.813  23.475  26.482  1.00  0.00     0.049 A 
ATOM     79  C   UNL A   1      31.370  22.982  25.255  1.00  0.00     0.027 A 
ATOM     80  C   UNL A   1      32.734  22.757  27.229  1.00  0.00     0.027 A 
ATOM     81  C   UNL A   1      32.019  21.906  24.657  1.00  0.00     0.008 A 
ATOM     82  C   UNL A   1      33.365  21.654  26.646  1.00  0.00     0.008 A 
ATOM     83  C   UNL A   1      33.074  21.273  25.324  1.00  0.00    -0.026 A 
BRANCH  83  84
ATOM     84  C   UNL A   1      33.980  20.300  24.605  1.00  0.00     0.181 C 
BRANCH  84  85
ATOM     85  N   UNL A   1      33.589  18.921  24.804  1.00  0.00    -0.249 N 
ATOM     86  C   UNL A   1      34.320  17.803  24.540  1.00  0.00     0.220 A 
ATOM     87  N   UNL A   1      32.408  18.603  25.365  1.00  0.00    -0.160 NA
ATOM     88  N   UNL A   1      33.629  16.739  24.872  1.00  0.00    -0.224 NA
ATOM     89  C   UNL A   1      32.472  17.270  25.368  1.00  0.00     0.246 A 
ENDBRANCH  84  85
ENDBRANCH  83  84
ENDBRANCH  76  78
ENDBRANCH  73  76
ENDBRANCH  70  73
ENDBRANCH   2  68
TORSDOF 15
ENDMDL
MODEL 2
REMARK VINA RESULT:     -12.3      2.104      4.766
REMARK SMILES O=C(NCCCNC(=O)c1sccc1S(=O)(=O)Nc1ccc(Cn2cncn2)cc1)c1ccc(-c2c3nc(c(-c4c(F)cccc4F)c4ccc([nH]4)c(-c4c(F)cccc4F)c4nc(c(-c5c(F)cccc5F)c5ccc2[nH]5)C=C4)C=C3)cc1
REMARK SMILES IDX 7 1 8 2 9 3 6 5 5 6 4 7 3 8 1 9 2 10 31 12 32 13 84 14 33 15
REMARK SMILES IDX 83 16 34 17 35 18 36 19 77 20 37 21 82 22 76 23 78 24 38 25
REMARK SMILES IDX 81 26 75 27 74 28 39 30 65 31 48 32 64 33 49 34 52 35 63 36
REMARK SMILES IDX 79 37 50 38 51 39 62 41 80 42 53 43 40 44 41 45 46 46 42 47
REMARK SMILES IDX 43 48 45 49 47 50 44 51 66 52 67 53 72 54 68 55 69 56 71 57
REMARK SMILES IDX 73 58 70 59 54 60 55 61 60 62 56 63 57 64 59 65 61 66 58 67
REMARK SMILES IDX 10 68 11 69 14 70 12 71 13 72 15 73 16 74 17 75 18 76 19 78
REMARK SMILES IDX 20 79 30 80 21 81 29 82 22 83 23 84 24 85 25 86 28 87 26 88
REMARK SMILES IDX 27 89
REMARK H PARENT 7 4 3 11 78 29 52 40 18 77
REMARK Flexibility Score: inf
ROOT
ATOM      1  N   UNL A   1      33.561  27.904  25.389  1.00  0.00    -0.351 N 
ATOM      2  C   UNL A   1      33.624  26.771  24.634  1.00  0.00     0.262 C 
ATOM      3  O   UNL A   1      33.885  26.951  23.440  1.00  0.00    -0.268 OA
ATOM      4  H   UNL A   1      33.596  28.740  24.871  1.00  0.00     0.163 HD
ENDROOT
BRANCH   1   5
ATOM      5  C   UNL A   1      33.450  28.091  26.818  1.00  0.00     0.118 C 
BRANCH   5   6
ATOM      6  C   UNL A   1      32.916  29.481  27.155  1.00  0.00     0.042 C 
BRANCH   6   7
ATOM      7  C   UNL A   1      33.989  30.575  27.225  1.00  0.00     0.118 C 
BRANCH   7   8
ATOM      8  N   UNL A   1      33.954  31.444  28.383  1.00  0.00    -0.352 N 
ATOM      9  O   UNL A   1      34.566  32.829  29.997  1.00  0.00    -0.269 OA
ATOM     10  C   UNL A   1      34.896  31.893  29.267  1.00  0.00     0.251 C 
ATOM     11  H   UNL A   1      33.053  31.787  28.579  1.00  0.00     0.163 HD
BRANCH  10  12
ATOM     12  C   UNL A   1      36.222  31.263  29.453  1.00  0.00     0.039 A 
ATOM     13  C   UNL A   1      37.432  31.954  29.486  1.00  0.00     0.014 A 
ATOM     14  C   UNL A   1      36.232  29.859  29.544  1.00  0.00     0.014 A 
ATOM     15  C   UNL A   1      38.630  31.261  29.455  1.00  0.00     0.010 A 
ATOM     16  C   UNL A   1      37.429  29.159  29.556  1.00  0.00     0.010 A 
ATOM     17  C   UNL A   1      38.624  29.865  29.462  1.00  0.00    -0.014 A 
BRANCH  17  18
ATOM     18  C   UNL A   1      39.914  29.201  29.540  1.00  0.00     0.031 A 
ATOM     19  C   UNL A   1      40.413  28.995  30.929  1.00  0.00     0.074 A 
ATOM     20  C   UNL A   1      40.555  28.697  28.469  1.00  0.00     0.049 A 
ATOM     21  N   UNL A   1      41.497  29.445  31.471  1.00  0.00    -0.248 NA
ATOM     22  C   UNL A   1      39.523  28.287  31.865  1.00  0.00     0.031 C 
ATOM     23  C   UNL A   1      40.057  28.554  27.100  1.00  0.00     0.029 A 
ATOM     24  N   UNL A   1      41.775  28.098  28.420  1.00  0.00    -0.354 N 
ATOM     25  C   UNL A   1      41.515  28.936  32.769  1.00  0.00     0.074 A 
ATOM     26  C   UNL A   1      40.221  28.352  32.999  1.00  0.00     0.031 C 
ATOM     27  C   UNL A   1      40.867  27.708  26.424  1.00  0.00     0.029 A 
ATOM     28  C   UNL A   1      41.997  27.358  27.269  1.00  0.00     0.049 A 
ATOM     29  H   UNL A   1      42.443  28.181  29.139  1.00  0.00     0.167 HD
ATOM     30  C   UNL A   1      42.662  28.852  33.495  1.00  0.00     0.037 A 
ATOM     31  C   UNL A   1      42.994  26.460  27.071  1.00  0.00     0.037 A 
ATOM     32  C   UNL A   1      43.693  29.703  32.967  1.00  0.00     0.049 A 
ATOM     33  C   UNL A   1      44.050  26.723  28.080  1.00  0.00     0.074 A 
ATOM     34  C   UNL A   1      43.833  31.064  32.782  1.00  0.00     0.029 A 
ATOM     35  N   UNL A   1      44.688  29.122  32.224  1.00  0.00    -0.354 N 
ATOM     36  N   UNL A   1      44.818  27.775  28.080  1.00  0.00    -0.248 NA
ATOM     37  C   UNL A   1      43.969  26.011  29.348  1.00  0.00     0.031 C 
ATOM     38  C   UNL A   1      44.575  31.196  31.572  1.00  0.00     0.029 A 
ATOM     39  C   UNL A   1      44.873  29.909  31.120  1.00  0.00     0.049 A 
ATOM     40  H   UNL A   1      45.176  28.295  32.443  1.00  0.00     0.167 HD
ATOM     41  C   UNL A   1      44.970  28.103  29.419  1.00  0.00     0.074 A 
ATOM     42  C   UNL A   1      44.510  26.928  30.154  1.00  0.00     0.031 C 
ATOM     43  C   UNL A   1      45.188  29.392  29.810  1.00  0.00     0.037 A 
BRANCH  30  44
ATOM     44  C   UNL A   1      42.967  27.738  34.464  1.00  0.00     0.057 A 
ATOM     45  C   UNL A   1      43.259  26.453  33.970  1.00  0.00     0.134 A 
ATOM     46  C   UNL A   1      42.684  27.800  35.843  1.00  0.00     0.134 A 
ATOM     47  F   UNL A   1      43.528  26.259  32.669  1.00  0.00    -0.206 F 
ATOM     48  C   UNL A   1      43.196  25.308  34.774  1.00  0.00     0.040 A 
ATOM     49  C   UNL A   1      42.672  26.672  36.665  1.00  0.00     0.040 A 
ATOM     50  F   UNL A   1      42.306  28.935  36.445  1.00  0.00    -0.206 F 
ATOM     51  C   UNL A   1      42.894  25.416  36.126  1.00  0.00     0.006 A 
ENDBRANCH  30  44
BRANCH  31  52
ATOM     52  C   UNL A   1      42.957  25.210  26.281  1.00  0.00     0.057 A 
ATOM     53  C   UNL A   1      43.884  24.971  25.257  1.00  0.00     0.134 A 
ATOM     54  C   UNL A   1      42.187  24.105  26.687  1.00  0.00     0.134 A 
ATOM     55  F   UNL A   1      44.696  25.949  24.832  1.00  0.00    -0.206 F 
ATOM     56  C   UNL A   1      44.049  23.703  24.683  1.00  0.00     0.040 A 
ATOM     57  C   UNL A   1      42.334  22.838  26.117  1.00  0.00     0.040 A 
ATOM     58  F   UNL A   1      41.328  24.197  27.712  1.00  0.00    -0.206 F 
ATOM     59  C   UNL A   1      43.279  22.629  25.120  1.00  0.00     0.006 A 
ENDBRANCH  31  52
BRANCH  43  60
ATOM     60  C   UNL A   1      45.522  30.401  28.749  1.00  0.00     0.057 A 
ATOM     61  C   UNL A   1      46.822  30.647  28.285  1.00  0.00     0.134 A 
ATOM     62  C   UNL A   1      44.476  31.031  28.067  1.00  0.00     0.134 A 
ATOM     63  F   UNL A   1      47.878  30.007  28.805  1.00  0.00    -0.206 F 
ATOM     64  C   UNL A   1      47.072  31.519  27.222  1.00  0.00     0.040 A 
ATOM     65  C   UNL A   1      44.708  31.877  26.981  1.00  0.00     0.040 A 
ATOM     66  F   UNL A   1      43.201  30.795  28.416  1.00  0.00    -0.206 F 
ATOM     67  C   UNL A   1      46.011  32.133  26.561  1.00  0.00     0.006 A 
ENDBRANCH  43  60
ENDBRANCH  17  18
ENDBRANCH  10  12
ENDBRANCH   7   8
ENDBRANCH   6   7
ENDBRANCH   5   6
ENDBRANCH   1   5
BRANCH   2  68
ATOM     68  C   UNL A   1      33.484  25.463  25.227  1.00  0.00     0.112 A 
ATOM     69  S   UNL A   1      34.995  24.616  25.369  1.00  0.00    -0.137 S 
ATOM     70  C   UNL A   1      32.433  24.677  25.672  1.00  0.00     0.111 A 
ATOM     71  C   UNL A   1      34.280  23.287  26.141  1.00  0.00     0.067 A 
ATOM     72  C   UNL A   1      32.923  23.446  26.252  1.00  0.00     0.035 A 
BRANCH  70  73
ATOM     73  S   UNL A   1      30.716  24.945  25.714  1.00  0.00     0.263 S 
ATOM     74  O   UNL A   1      30.217  23.695  26.257  1.00  0.00    -0.201 OA
ATOM     75  O   UNL A   1      30.618  26.159  26.497  1.00  0.00    -0.201 OA
BRANCH  73  76
ATOM     76  N   UNL A   1      29.813  25.232  24.347  1.00  0.00    -0.280 N 
ATOM     77  H   UNL A   1      29.567  24.454  23.796  1.00  0.00     0.180 HD
BRANCH  76  78
ATOM     78  C   UNL A   1      29.370  26.495  23.911  1.00  0.00     0.049 A 
ATOM     79  C   UNL A   1      30.340  27.361  23.406  1.00  0.00     0.027 A 
ATOM     80  C   UNL A   1      28.042  26.890  23.958  1.00  0.00     0.027 A 
ATOM     81  C   UNL A   1      29.963  28.514  22.725  1.00  0.00     0.008 A 
ATOM     82  C   UNL A   1      27.662  28.066  23.305  1.00  0.00     0.008 A 
ATOM     83  C   UNL A   1      28.606  28.842  22.610  1.00  0.00    -0.026 A 
BRANCH  83  84
ATOM     84  C   UNL A   1      28.141  29.913  21.651  1.00  0.00     0.181 C 
BRANCH  84  85
ATOM     85  N   UNL A   1      28.365  31.250  22.157  1.00  0.00    -0.249 N 
ATOM     86  C   UNL A   1      28.104  32.431  21.530  1.00  0.00     0.220 A 
ATOM     87  N   UNL A   1      28.827  31.458  23.404  1.00  0.00    -0.160 NA
ATOM     88  N   UNL A   1      28.427  33.427  22.321  1.00  0.00    -0.224 NA
ATOM     89  C   UNL A   1      28.863  32.792  23.449  1.00  0.00     0.246 A 
ENDBRANCH  84  85
ENDBRANCH  83  84
ENDBRANCH  76  78
ENDBRANCH  73  76
ENDBRANCH  70  73
ENDBRANCH   2  68
TORSDOF 15
ENDMDL
MODEL 3
REMARK VINA RESULT:     -12.1      3.006      8.604
REMARK SMILES O=C(NCCCNC(=O)c1sccc1S(=O)(=O)Nc1ccc(Cn2cncn2)cc1)c1ccc(-c2c3nc(c(-c4c(F)cccc4F)c4ccc([nH]4)c(-c4c(F)cccc4F)c4nc(c(-c5c(F)cccc5F)c5ccc2[nH]5)C=C4)C=C3)cc1
REMARK SMILES IDX 7 1 8 2 9 3 6 5 5 6 4 7 3 8 1 9 2 10 31 12 32 13 84 14 33 15
REMARK SMILES IDX 83 16 34 17 35 18 36 19 77 20 37 21 82 22 76 23 78 24 38 25
REMARK SMILES IDX 81 26 75 27 74 28 39 30 65 31 48 32 64 33 49 34 52 35 63 36
REMARK SMILES IDX 79 37 50 38 51 39 62 41 80 42 53 43 40 44 41 45 46 46 42 47
REMARK SMILES IDX 43 48 45 49 47 50 44 51 66 52 67 53 72 54 68 55 69 56 71 57
REMARK SMILES IDX 73 58 70 59 54 60 55 61 60 62 56 63 57 64 59 65 61 66 58 67
REMARK SMILES IDX 10 68 11 69 14 70 12 71 13 72 15 73 16 74 17 75 18 76 19 78
REMARK SMILES IDX 20 79 30 80 21 81 29 82 22 83 23 84 24 85 25 86 28 87 26 88
REMARK SMILES IDX 27 89
REMARK H PARENT 7 4 3 11 78 29 52 40 18 77
REMARK Flexibility Score: inf
ROOT
ATOM      1  N   UNL A   1      35.965  22.758  26.559  1.00  0.00    -0.351 N 
ATOM      2  C   UNL A   1      34.607  22.648  26.595  1.00  0.00     0.262 C 
ATOM      3  O   UNL A   1      34.108  22.692  27.724  1.00  0.00    -0.268 OA
ATOM      4  H   UNL A   1      36.400  22.722  27.441  1.00  0.00     0.163 HD
ENDROOT
BRANCH   1   5
ATOM      5  C   UNL A   1      36.879  22.916  25.450  1.00  0.00     0.118 C 
BRANCH   5   6
ATOM      6  C   UNL A   1      38.005  21.888  25.509  1.00  0.00     0.042 C 
BRANCH   6   7
ATOM      7  C   UNL A   1      39.164  22.266  26.440  1.00  0.00     0.118 C 
BRANCH   7   8
ATOM      8  N   UNL A   1      40.494  22.232  25.867  1.00  0.00    -0.352 N 
ATOM      9  O   UNL A   1      42.673  22.490  25.584  1.00  0.00    -0.269 OA
ATOM     10  C   UNL A   1      41.639  22.949  26.074  1.00  0.00     0.251 C 
ATOM     11  H   UNL A   1      40.596  21.540  25.174  1.00  0.00     0.163 HD
BRANCH  10  12
ATOM     12  C   UNL A   1      41.682  24.263  26.753  1.00  0.00     0.039 A 
ATOM     13  C   UNL A   1      42.215  24.484  28.021  1.00  0.00     0.014 A 
ATOM     14  C   UNL A   1      41.083  25.333  26.065  1.00  0.00     0.014 A 
ATOM     15  C   UNL A   1      42.022  25.700  28.655  1.00  0.00     0.010 A 
ATOM     16  C   UNL A   1      40.923  26.567  26.678  1.00  0.00     0.010 A 
ATOM     17  C   UNL A   1      41.351  26.728  27.991  1.00  0.00    -0.014 A 
BRANCH  17  18
ATOM     18  C   UNL A   1      41.278  28.012  28.669  1.00  0.00     0.031 A 
ATOM     19  C   UNL A   1      42.362  28.963  28.294  1.00  0.00     0.074 A 
ATOM     20  C   UNL A   1      40.258  28.371  29.469  1.00  0.00     0.049 A 
ATOM     21  N   UNL A   1      43.259  29.503  29.054  1.00  0.00    -0.248 NA
ATOM     22  C   UNL A   1      42.535  29.257  26.861  1.00  0.00     0.031 C 
ATOM     23  C   UNL A   1      38.990  27.675  29.688  1.00  0.00     0.029 A 
ATOM     24  N   UNL A   1      40.108  29.521  30.181  1.00  0.00    -0.354 N 
ATOM     25  C   UNL A   1      44.006  30.341  28.228  1.00  0.00     0.074 A 
ATOM     26  C   UNL A   1      43.609  30.047  26.876  1.00  0.00     0.031 C 
ATOM     27  C   UNL A   1      38.120  28.521  30.285  1.00  0.00     0.029 A 
ATOM     28  C   UNL A   1      38.808  29.763  30.599  1.00  0.00     0.049 A 
ATOM     29  H   UNL A   1      40.856  30.129  30.381  1.00  0.00     0.167 HD
ATOM     30  C   UNL A   1      44.755  31.363  28.724  1.00  0.00     0.037 A 
ATOM     31  C   UNL A   1      38.326  30.932  31.086  1.00  0.00     0.037 A 
ATOM     32  C   UNL A   1      45.018  31.200  30.127  1.00  0.00     0.049 A 
ATOM     33  C   UNL A   1      39.482  31.756  31.521  1.00  0.00     0.074 A 
ATOM     34  C   UNL A   1      45.677  30.259  30.894  1.00  0.00     0.029 A 
ATOM     35  N   UNL A   1      44.282  31.949  31.009  1.00  0.00    -0.354 N 
ATOM     36  N   UNL A   1      40.231  31.483  32.551  1.00  0.00    -0.248 NA
ATOM     37  C   UNL A   1      40.070  32.667  30.548  1.00  0.00     0.031 C 
ATOM     38  C   UNL A   1      44.928  30.182  32.104  1.00  0.00     0.029 A 
ATOM     39  C   UNL A   1      43.888  31.108  32.014  1.00  0.00     0.049 A 
ATOM     40  H   UNL A   1      44.076  32.909  30.933  1.00  0.00     0.167 HD
ATOM     41  C   UNL A   1      41.516  31.827  32.157  1.00  0.00     0.074 A 
ATOM     42  C   UNL A   1      41.341  32.641  30.957  1.00  0.00     0.031 C 
ATOM     43  C   UNL A   1      42.607  31.192  32.674  1.00  0.00     0.037 A 
BRANCH  30  44
ATOM     44  C   UNL A   1      44.947  32.685  28.024  1.00  0.00     0.057 A 
ATOM     45  C   UNL A   1      43.875  33.593  27.956  1.00  0.00     0.134 A 
ATOM     46  C   UNL A   1      46.026  32.964  27.162  1.00  0.00     0.134 A 
ATOM     47  F   UNL A   1      42.781  33.425  28.715  1.00  0.00    -0.206 F 
ATOM     48  C   UNL A   1      43.847  34.652  27.041  1.00  0.00     0.040 A 
ATOM     49  C   UNL A   1      46.032  34.050  26.284  1.00  0.00     0.040 A 
ATOM     50  F   UNL A   1      47.082  32.148  27.049  1.00  0.00    -0.206 F 
ATOM     51  C   UNL A   1      44.927  34.879  26.196  1.00  0.00     0.006 A 
ENDBRANCH  30  44
BRANCH  31  52
ATOM     52  C   UNL A   1      36.974  31.507  30.918  1.00  0.00     0.057 A 
ATOM     53  C   UNL A   1      36.142  31.741  32.022  1.00  0.00     0.134 A 
ATOM     54  C   UNL A   1      36.567  32.089  29.704  1.00  0.00     0.134 A 
ATOM     55  F   UNL A   1      36.467  31.267  33.232  1.00  0.00    -0.206 F 
ATOM     56  C   UNL A   1      34.985  32.526  31.929  1.00  0.00     0.040 A 
ATOM     57  C   UNL A   1      35.410  32.865  29.595  1.00  0.00     0.040 A 
ATOM     58  F   UNL A   1      37.326  32.000  28.603  1.00  0.00    -0.206 F 
ATOM     59  C   UNL A   1      34.620  33.099  30.714  1.00  0.00     0.006 A 
ENDBRANCH  31  52
BRANCH  43  60
ATOM     60  C   UNL A   1      42.402  30.301  33.866  1.00  0.00     0.057 A 
ATOM     61  C   UNL A   1      42.423  30.753  35.193  1.00  0.00     0.134 A 
ATOM     62  C   UNL A   1      42.018  28.973  33.654  1.00  0.00     0.134 A 
ATOM     63  F   UNL A   1      42.675  32.036  35.486  1.00  0.00    -0.206 F 
ATOM     64  C   UNL A   1      42.123  29.907  36.263  1.00  0.00     0.040 A 
ATOM     65  C   UNL A   1      41.680  28.126  34.712  1.00  0.00     0.040 A 
ATOM     66  F   UNL A   1      41.916  28.488  32.406  1.00  0.00    -0.206 F 
ATOM     67  C   UNL A   1      41.743  28.589  36.023  1.00  0.00     0.006 A 
ENDBRANCH  43  60
ENDBRANCH  17  18
ENDBRANCH  10  12
ENDBRANCH   7   8
ENDBRANCH   6   7
ENDBRANCH   5   6
ENDBRANCH   1   5
BRANCH   2  68
ATOM     68  C   UNL A   1      33.825  22.581  25.384  1.00  0.00     0.112 A 
ATOM     69  S   UNL A   1      33.542  20.953  24.846  1.00  0.00    -0.137 S 
ATOM     70  C   UNL A   1      33.278  23.496  24.499  1.00  0.00     0.111 A 
ATOM     71  C   UNL A   1      32.586  21.455  23.540  1.00  0.00     0.067 A 
ATOM     72  C   UNL A   1      32.514  22.822  23.471  1.00  0.00     0.035 A 
BRANCH  70  73
ATOM     73  S   UNL A   1      33.294  25.234  24.464  1.00  0.00     0.263 S 
ATOM     74  O   UNL A   1      34.484  25.551  25.231  1.00  0.00    -0.201 OA
ATOM     75  O   UNL A   1      33.259  25.509  23.043  1.00  0.00    -0.201 OA
BRANCH  73  76
ATOM     76  N   UNL A   1      32.078  26.162  25.119  1.00  0.00    -0.280 N 
ATOM     77  H   UNL A   1      32.067  26.268  26.097  1.00  0.00     0.180 HD
BRANCH  76  78
ATOM     78  C   UNL A   1      31.062  26.809  24.390  1.00  0.00     0.049 A 
ATOM     79  C   UNL A   1      29.910  26.069  24.125  1.00  0.00     0.027 A 
ATOM     80  C   UNL A   1      31.163  28.119  23.948  1.00  0.00     0.027 A 
ATOM     81  C   UNL A   1      28.767  26.699  23.643  1.00  0.00     0.008 A 
ATOM     82  C   UNL A   1      30.028  28.748  23.430  1.00  0.00     0.008 A 
ATOM     83  C   UNL A   1      28.799  28.069  23.353  1.00  0.00    -0.026 A 
BRANCH  83  84
ATOM     84  C   UNL A   1      27.525  28.843  23.103  1.00  0.00     0.181 C 
BRANCH  84  85
ATOM     85  N   UNL A   1      27.764  30.115  22.455  1.00  0.00    -0.249 N 
ATOM     86  C   UNL A   1      27.701  31.356  23.011  1.00  0.00     0.220 A 
ATOM     87  N   UNL A   1      28.156  30.182  21.169  1.00  0.00    -0.160 NA
ATOM     88  N   UNL A   1      28.001  32.258  22.106  1.00  0.00    -0.224 NA
ATOM     89  C   UNL A   1      28.270  31.501  21.001  1.00  0.00     0.246 A 
ENDBRANCH  84  85
ENDBRANCH  83  84
ENDBRANCH  76  78
ENDBRANCH  73  76
ENDBRANCH  70  73
ENDBRANCH   2  68
TORSDOF 15
ENDMDL
