MODEL 1
REMARK VINA RESULT:     -13.3      0.000      0.000
REMARK SMILES CC1=C([C@H](NC(=O)[C@@H]2[C@H](C)c3cc(F)ccc3N2C)C(=O)NCCCNC(=O)c2ccc(-c3c4nc(c(-c5c(F)cccc5F)c5ccc([nH]5)c(-c5c(F)cccc5F)c5nc(c(-c6c(F)cccc6F)c6ccc3[nH]6)C=C5)C=C4)cc2)[C@@H](C)N=N1
REMARK SMILES IDX 24 1 23 2 22 3 20 4 21 5 4 7 3 8 1 9 2 10 86 11 83 12 85 13
REMARK SMILES IDX 84 14 5 15 6 16 7 18 8 19 9 20 18 21 11 22 10 23 17 24 19 25
REMARK SMILES IDX 12 26 16 27 13 28 15 29 14 30 25 31 26 32 27 33 28 35 29 36
REMARK SMILES IDX 30 37 82 38 31 39 81 40 32 41 33 42 34 43 75 44 35 45 80 46
REMARK SMILES IDX 74 47 76 48 36 49 79 50 73 51 72 52 37 54 63 55 46 56 62 57
REMARK SMILES IDX 47 58 50 59 61 60 77 61 48 62 49 63 60 65 78 66 51 67 38 68
REMARK SMILES IDX 39 69 44 70 40 71 41 72 43 73 45 74 42 75 64 76 65 77 70 78
REMARK SMILES IDX 66 79 67 80 69 81 71 82 68 83 52 84 53 85 58 86 54 87 55 88
REMARK SMILES IDX 57 89 59 90 56 91
REMARK H PARENT 22 6 5 17 26 34 76 53 50 64
REMARK Flexibility Score: inf
ROOT
ATOM      1  C   UNL A   1      35.439  29.375  27.577  1.00  0.00     0.042 C 
ENDROOT
BRANCH   1   2
ATOM      2  C   UNL A   1      34.337  28.664  26.800  1.00  0.00     0.117 C 
BRANCH   2   3
ATOM      3  N   UNL A   1      33.019  28.568  27.426  1.00  0.00    -0.354 N 
ATOM      4  C   UNL A   1      31.938  27.756  27.174  1.00  0.00     0.247 C 
ATOM      5  O   UNL A   1      30.903  27.901  27.833  1.00  0.00    -0.272 OA
ATOM      6  H   UNL A   1      32.879  29.203  28.164  1.00  0.00     0.163 HD
BRANCH   4   7
ATOM      7  C   UNL A   1      32.049  26.585  26.201  1.00  0.00     0.202 C 
BRANCH   7   8
ATOM      8  C   UNL A   1      31.544  27.128  24.856  1.00  0.00     0.011 C 
ATOM      9  C   UNL A   1      29.053  26.506  24.459  1.00  0.00     0.069 C 
ATOM     10  C   UNL A   1      30.383  27.111  24.176  1.00  0.00     0.064 C 
ATOM     11  N   UNL A   1      30.463  27.727  22.947  1.00  0.00    -0.160 NA
ATOM     12  C   UNL A   1      32.482  27.862  23.890  1.00  0.00     0.156 C 
ATOM     13  N   UNL A   1      31.623  28.135  22.718  1.00  0.00    -0.181 NA
ATOM     14  C   UNL A   1      33.731  27.137  23.392  1.00  0.00     0.040 C 
ENDBRANCH   7   8
BRANCH   7  15
ATOM     15  N   UNL A   1      31.310  25.484  26.817  1.00  0.00    -0.339 N 
ATOM     16  C   UNL A   1      31.429  24.107  26.605  1.00  0.00     0.244 C 
ATOM     17  H   UNL A   1      30.631  25.750  27.477  1.00  0.00     0.164 HD
ATOM     18  O   UNL A   1      30.586  23.438  27.218  1.00  0.00    -0.273 OA
BRANCH  16  19
ATOM     19  C   UNL A   1      32.589  23.414  25.722  1.00  0.00     0.178 C 
ATOM     20  C   UNL A   1      32.232  23.110  24.216  1.00  0.00     0.050 C 
ATOM     21  N   UNL A   1      33.079  22.075  26.288  1.00  0.00    -0.362 N 
ATOM     22  C   UNL A   1      32.330  21.614  24.126  1.00  0.00    -0.016 A 
ATOM     23  C   UNL A   1      30.885  23.582  23.695  1.00  0.00     0.015 C 
ATOM     24  C   UNL A   1      32.687  21.079  25.354  1.00  0.00     0.041 A 
ATOM     25  C   UNL A   1      34.518  21.899  26.546  1.00  0.00     0.144 C 
ATOM     26  C   UNL A   1      32.217  20.796  23.008  1.00  0.00     0.045 A 
ATOM     27  C   UNL A   1      32.830  19.700  25.515  1.00  0.00     0.029 A 
ATOM     28  C   UNL A   1      32.395  19.422  23.164  1.00  0.00     0.123 A 
ATOM     29  C   UNL A   1      32.673  18.863  24.411  1.00  0.00     0.041 A 
ATOM     30  F   UNL A   1      32.321  18.622  22.092  1.00  0.00    -0.207 F 
ENDBRANCH  16  19
ENDBRANCH   7  15
ENDBRANCH   4   7
ENDBRANCH   2   3
ENDBRANCH   1   2
BRANCH   1  31
ATOM     31  C   UNL A   1      35.461  30.885  27.809  1.00  0.00     0.118 C 
BRANCH  31  32
ATOM     32  N   UNL A   1      34.686  31.529  28.858  1.00  0.00    -0.352 N 
ATOM     33  C   UNL A   1      35.106  31.886  30.127  1.00  0.00     0.251 C 
ATOM     34  H   UNL A   1      33.748  31.733  28.639  1.00  0.00     0.163 HD
ATOM     35  O   UNL A   1      34.396  32.562  30.870  1.00  0.00    -0.269 OA
BRANCH  33  36
ATOM     36  C   UNL A   1      36.371  31.332  30.630  1.00  0.00     0.039 A 
ATOM     37  C   UNL A   1      37.545  32.068  30.511  1.00  0.00     0.014 A 
ATOM     38  C   UNL A   1      36.390  29.973  30.956  1.00  0.00     0.014 A 
ATOM     39  C   UNL A   1      38.721  31.375  30.352  1.00  0.00     0.010 A 
ATOM     40  C   UNL A   1      37.597  29.301  30.947  1.00  0.00     0.010 A 
ATOM     41  C   UNL A   1      38.737  29.980  30.517  1.00  0.00    -0.014 A 
BRANCH  41  42
ATOM     42  C   UNL A   1      40.029  29.316  30.369  1.00  0.00     0.031 A 
ATOM     43  C   UNL A   1      40.766  29.229  31.665  1.00  0.00     0.074 A 
ATOM     44  C   UNL A   1      40.452  28.775  29.209  1.00  0.00     0.049 A 
ATOM     45  N   UNL A   1      41.920  29.728  31.965  1.00  0.00    -0.248 NA
ATOM     46  C   UNL A   1      40.003  28.743  32.835  1.00  0.00     0.031 C 
ATOM     47  C   UNL A   1      39.712  28.645  27.949  1.00  0.00     0.029 A 
ATOM     48  N   UNL A   1      41.604  28.096  28.948  1.00  0.00    -0.354 N 
ATOM     49  C   UNL A   1      42.109  29.440  33.316  1.00  0.00     0.074 A 
ATOM     50  C   UNL A   1      40.832  29.040  33.833  1.00  0.00     0.031 C 
ATOM     51  C   UNL A   1      40.303  27.710  27.175  1.00  0.00     0.029 A 
ATOM     52  C   UNL A   1      41.533  27.289  27.815  1.00  0.00     0.049 A 
ATOM     53  H   UNL A   1      42.411  28.170  29.507  1.00  0.00     0.167 HD
ATOM     54  C   UNL A   1      43.357  29.269  33.829  1.00  0.00     0.037 A 
ATOM     55  C   UNL A   1      42.383  26.278  27.511  1.00  0.00     0.037 A 
ATOM     56  C   UNL A   1      44.343  29.920  33.005  1.00  0.00     0.049 A 
ATOM     57  C   UNL A   1      43.615  26.480  28.313  1.00  0.00     0.074 A 
ATOM     58  C   UNL A   1      44.626  31.225  32.656  1.00  0.00     0.029 A 
ATOM     59  N   UNL A   1      45.023  29.132  32.111  1.00  0.00    -0.354 N 
ATOM     60  N   UNL A   1      44.446  27.468  28.122  1.00  0.00    -0.248 NA
ATOM     61  C   UNL A   1      43.678  25.861  29.628  1.00  0.00     0.031 C 
ATOM     62  C   UNL A   1      45.102  31.158  31.313  1.00  0.00     0.029 A 
ATOM     63  C   UNL A   1      45.134  29.816  30.932  1.00  0.00     0.049 A 
ATOM     64  H   UNL A   1      45.369  28.228  32.289  1.00  0.00     0.167 HD
ATOM     65  C   UNL A   1      44.814  27.874  29.397  1.00  0.00     0.074 A 
ATOM     66  C   UNL A   1      44.383  26.791  30.279  1.00  0.00     0.031 C 
ATOM     67  C   UNL A   1      45.169  29.170  29.640  1.00  0.00     0.037 A 
BRANCH  54  68
ATOM     68  C   UNL A   1      43.709  28.109  34.742  1.00  0.00     0.057 A 
ATOM     69  C   UNL A   1      43.976  28.223  36.124  1.00  0.00     0.134 A 
ATOM     70  C   UNL A   1      43.422  26.803  34.303  1.00  0.00     0.134 A 
ATOM     71  F   UNL A   1      44.273  29.380  36.722  1.00  0.00    -0.206 F 
ATOM     72  C   UNL A   1      43.860  27.151  37.011  1.00  0.00     0.040 A 
ATOM     73  C   UNL A   1      43.264  25.732  35.190  1.00  0.00     0.040 A 
ATOM     74  F   UNL A   1      43.181  26.550  33.008  1.00  0.00    -0.206 F 
ATOM     75  C   UNL A   1      43.458  25.910  36.553  1.00  0.00     0.006 A 
ENDBRANCH  54  68
BRANCH  55  76
ATOM     76  C   UNL A   1      42.057  24.989  26.858  1.00  0.00     0.057 A 
ATOM     77  C   UNL A   1      41.088  24.118  27.392  1.00  0.00     0.134 A 
ATOM     78  C   UNL A   1      42.862  24.461  25.840  1.00  0.00     0.134 A 
ATOM     79  F   UNL A   1      40.322  24.486  28.429  1.00  0.00    -0.206 F 
ATOM     80  C   UNL A   1      40.927  22.805  26.940  1.00  0.00     0.040 A 
ATOM     81  C   UNL A   1      42.716  23.143  25.383  1.00  0.00     0.040 A 
ATOM     82  F   UNL A   1      43.847  25.196  25.304  1.00  0.00    -0.206 F 
ATOM     83  C   UNL A   1      41.750  22.309  25.939  1.00  0.00     0.006 A 
ENDBRANCH  55  76
BRANCH  67  84
ATOM     84  C   UNL A   1      45.403  30.055  28.448  1.00  0.00     0.057 A 
ATOM     85  C   UNL A   1      46.715  30.259  28.011  1.00  0.00     0.134 A 
ATOM     86  C   UNL A   1      44.397  30.796  27.808  1.00  0.00     0.134 A 
ATOM     87  F   UNL A   1      47.734  29.630  28.617  1.00  0.00    -0.206 F 
ATOM     88  C   UNL A   1      47.017  31.146  26.976  1.00  0.00     0.040 A 
ATOM     89  C   UNL A   1      44.680  31.660  26.747  1.00  0.00     0.040 A 
ATOM     90  F   UNL A   1      43.126  30.742  28.227  1.00  0.00    -0.206 F 
ATOM     91  C   UNL A   1      45.996  31.840  26.331  1.00  0.00     0.006 A 
ENDBRANCH  67  84
ENDBRANCH  41  42
ENDBRANCH  33  36
ENDBRANCH  31  32
ENDBRANCH   1  31
TORSDOF 13
ENDMDL
MODEL 2
REMARK VINA RESULT:     -13.1      2.131      2.811
REMARK SMILES CC1=C([C@H](NC(=O)[C@@H]2[C@H](C)c3cc(F)ccc3N2C)C(=O)NCCCNC(=O)c2ccc(-c3c4nc(c(-c5c(F)cccc5F)c5ccc([nH]5)c(-c5c(F)cccc5F)c5nc(c(-c6c(F)cccc6F)c6ccc3[nH]6)C=C5)C=C4)cc2)[C@@H](C)N=N1
REMARK SMILES IDX 24 1 23 2 22 3 20 4 21 5 4 7 3 8 1 9 2 10 86 11 83 12 85 13
REMARK SMILES IDX 84 14 5 15 6 16 7 18 8 19 9 20 18 21 11 22 10 23 17 24 19 25
REMARK SMILES IDX 12 26 16 27 13 28 15 29 14 30 25 31 26 32 27 33 28 35 29 36
REMARK SMILES IDX 30 37 82 38 31 39 81 40 32 41 33 42 34 43 75 44 35 45 80 46
REMARK SMILES IDX 74 47 76 48 36 49 79 50 73 51 72 52 37 54 63 55 46 56 62 57
REMARK SMILES IDX 47 58 50 59 61 60 77 61 48 62 49 63 60 65 78 66 51 67 38 68
REMARK SMILES IDX 39 69 44 70 40 71 41 72 43 73 45 74 42 75 64 76 65 77 70 78
REMARK SMILES IDX 66 79 67 80 69 81 71 82 68 83 52 84 53 85 58 86 54 87 55 88
REMARK SMILES IDX 57 89 59 90 56 91
REMARK H PARENT 22 6 5 17 26 34 76 53 50 64
REMARK Flexibility Score: inf
ROOT
ATOM      1  C   UNL A   1      34.747  30.025  26.819  1.00  0.00     0.042 C 
ENDROOT
BRANCH   1   2
ATOM      2  C   UNL A   1      34.256  28.651  27.262  1.00  0.00     0.117 C 
BRANCH   2   3
ATOM      3  N   UNL A   1      32.857  28.528  27.669  1.00  0.00    -0.354 N 
ATOM      4  C   UNL A   1      31.860  27.662  27.285  1.00  0.00     0.247 C 
ATOM      5  O   UNL A   1      30.727  27.793  27.761  1.00  0.00    -0.272 OA
ATOM      6  H   UNL A   1      32.578  29.187  28.345  1.00  0.00     0.163 HD
BRANCH   4   7
ATOM      7  C   UNL A   1      32.167  26.457  26.400  1.00  0.00     0.202 C 
BRANCH   7   8
ATOM      8  C   UNL A   1      31.861  26.920  24.968  1.00  0.00     0.011 C 
ATOM      9  C   UNL A   1      29.319  26.786  24.453  1.00  0.00     0.069 C 
ATOM     10  C   UNL A   1      30.761  27.060  24.206  1.00  0.00     0.064 C 
ATOM     11  N   UNL A   1      31.036  27.486  22.926  1.00  0.00    -0.160 NA
ATOM     12  C   UNL A   1      32.984  27.314  24.001  1.00  0.00     0.156 C 
ATOM     13  N   UNL A   1      32.266  27.611  22.743  1.00  0.00    -0.181 NA
ATOM     14  C   UNL A   1      34.071  26.287  23.685  1.00  0.00     0.040 C 
ENDBRANCH   7   8
BRANCH   7  15
ATOM     15  N   UNL A   1      31.383  25.351  26.946  1.00  0.00    -0.339 N 
ATOM     16  C   UNL A   1      31.461  23.984  26.666  1.00  0.00     0.244 C 
ATOM     17  H   UNL A   1      30.700  25.606  27.607  1.00  0.00     0.164 HD
ATOM     18  O   UNL A   1      30.586  23.312  27.229  1.00  0.00    -0.273 OA
BRANCH  16  19
ATOM     19  C   UNL A   1      32.616  23.298  25.769  1.00  0.00     0.178 C 
ATOM     20  C   UNL A   1      32.253  23.023  24.260  1.00  0.00     0.050 C 
ATOM     21  N   UNL A   1      33.098  21.947  26.311  1.00  0.00    -0.362 N 
ATOM     22  C   UNL A   1      32.342  21.528  24.144  1.00  0.00    -0.016 A 
ATOM     23  C   UNL A   1      30.909  23.512  23.749  1.00  0.00     0.015 C 
ATOM     24  C   UNL A   1      32.698  20.970  25.361  1.00  0.00     0.041 A 
ATOM     25  C   UNL A   1      34.536  21.758  26.563  1.00  0.00     0.144 C 
ATOM     26  C   UNL A   1      32.222  20.729  23.011  1.00  0.00     0.045 A 
ATOM     27  C   UNL A   1      32.832  19.587  25.499  1.00  0.00     0.029 A 
ATOM     28  C   UNL A   1      32.391  19.352  23.144  1.00  0.00     0.123 A 
ATOM     29  C   UNL A   1      32.667  18.771  24.381  1.00  0.00     0.041 A 
ATOM     30  F   UNL A   1      32.309  18.571  22.059  1.00  0.00    -0.207 F 
ENDBRANCH  16  19
ENDBRANCH   7  15
ENDBRANCH   4   7
ENDBRANCH   2   3
ENDBRANCH   1   2
BRANCH   1  31
ATOM     31  C   UNL A   1      35.707  30.879  27.647  1.00  0.00     0.118 C 
BRANCH  31  32
ATOM     32  N   UNL A   1      35.793  30.781  29.096  1.00  0.00    -0.352 N 
ATOM     33  C   UNL A   1      36.874  30.375  29.857  1.00  0.00     0.251 C 
ATOM     34  H   UNL A   1      34.982  31.033  29.596  1.00  0.00     0.163 HD
ATOM     35  O   UNL A   1      36.870  30.479  31.083  1.00  0.00    -0.269 OA
BRANCH  33  36
ATOM     36  C   UNL A   1      37.987  29.688  29.186  1.00  0.00     0.039 A 
ATOM     37  C   UNL A   1      37.889  28.330  28.898  1.00  0.00     0.014 A 
ATOM     38  C   UNL A   1      39.208  30.364  29.114  1.00  0.00     0.014 A 
ATOM     39  C   UNL A   1      39.046  27.590  28.906  1.00  0.00     0.010 A 
ATOM     40  C   UNL A   1      40.369  29.630  28.967  1.00  0.00     0.010 A 
ATOM     41  C   UNL A   1      40.289  28.238  28.995  1.00  0.00    -0.014 A 
BRANCH  41  42
ATOM     42  C   UNL A   1      41.476  27.389  28.960  1.00  0.00     0.031 A 
ATOM     43  C   UNL A   1      42.329  27.567  30.174  1.00  0.00     0.074 A 
ATOM     44  C   UNL A   1      41.714  26.493  27.981  1.00  0.00     0.049 A 
ATOM     45  N   UNL A   1      43.556  27.968  30.238  1.00  0.00    -0.248 NA
ATOM     46  C   UNL A   1      41.641  27.536  31.482  1.00  0.00     0.031 C 
ATOM     47  C   UNL A   1      40.838  26.119  26.866  1.00  0.00     0.029 A 
ATOM     48  N   UNL A   1      42.750  25.618  27.851  1.00  0.00    -0.354 N 
ATOM     49  C   UNL A   1      43.851  28.045  31.598  1.00  0.00     0.074 A 
ATOM     50  C   UNL A   1      42.597  27.983  32.294  1.00  0.00     0.031 C 
ATOM     51  C   UNL A   1      41.238  24.934  26.357  1.00  0.00     0.029 A 
ATOM     52  C   UNL A   1      42.473  24.545  27.009  1.00  0.00     0.049 A 
ATOM     53  H   UNL A   1      43.613  25.734  28.309  1.00  0.00     0.167 HD
ATOM     54  C   UNL A   1      45.117  27.855  32.054  1.00  0.00     0.037 A 
ATOM     55  C   UNL A   1      43.169  23.383  26.954  1.00  0.00     0.037 A 
ATOM     56  C   UNL A   1      46.080  28.110  31.013  1.00  0.00     0.049 A 
ATOM     57  C   UNL A   1      44.492  23.630  27.579  1.00  0.00     0.074 A 
ATOM     58  C   UNL A   1      46.469  29.214  30.283  1.00  0.00     0.029 A 
ATOM     59  N   UNL A   1      46.571  27.018  30.342  1.00  0.00    -0.354 N 
ATOM     60  N   UNL A   1      45.404  24.402  27.055  1.00  0.00    -0.248 NA
ATOM     61  C   UNL A   1      44.621  23.400  29.010  1.00  0.00     0.031 C 
ATOM     62  C   UNL A   1      46.793  28.710  28.988  1.00  0.00     0.029 A 
ATOM     63  C   UNL A   1      46.636  27.324  29.011  1.00  0.00     0.049 A 
ATOM     64  H   UNL A   1      46.831  26.161  30.750  1.00  0.00     0.167 HD
ATOM     65  C   UNL A   1      45.944  25.093  28.129  1.00  0.00     0.074 A 
ATOM     66  C   UNL A   1      45.489  24.369  29.314  1.00  0.00     0.031 C 
ATOM     67  C   UNL A   1      46.465  26.345  27.962  1.00  0.00     0.037 A 
BRANCH  54  68
ATOM     68  C   UNL A   1      45.430  26.959  33.238  1.00  0.00     0.057 A 
ATOM     69  C   UNL A   1      45.186  25.569  33.285  1.00  0.00     0.134 A 
ATOM     70  C   UNL A   1      46.325  27.433  34.215  1.00  0.00     0.134 A 
ATOM     71  F   UNL A   1      44.363  24.939  32.443  1.00  0.00    -0.206 F 
ATOM     72  C   UNL A   1      45.856  24.709  34.156  1.00  0.00     0.040 A 
ATOM     73  C   UNL A   1      47.032  26.574  35.064  1.00  0.00     0.040 A 
ATOM     74  F   UNL A   1      46.621  28.739  34.302  1.00  0.00    -0.206 F 
ATOM     75  C   UNL A   1      46.817  25.203  35.019  1.00  0.00     0.006 A 
ENDBRANCH  54  68
BRANCH  55  76
ATOM     76  C   UNL A   1      42.635  22.019  26.726  1.00  0.00     0.057 A 
ATOM     77  C   UNL A   1      41.691  21.444  27.598  1.00  0.00     0.134 A 
ATOM     78  C   UNL A   1      43.221  21.151  25.796  1.00  0.00     0.134 A 
ATOM     79  F   UNL A   1      41.133  22.159  28.585  1.00  0.00    -0.206 F 
ATOM     80  C   UNL A   1      41.350  20.089  27.547  1.00  0.00     0.040 A 
ATOM     81  C   UNL A   1      42.894  19.788  25.741  1.00  0.00     0.040 A 
ATOM     82  F   UNL A   1      44.169  21.594  24.958  1.00  0.00    -0.206 F 
ATOM     83  C   UNL A   1      41.960  19.253  26.623  1.00  0.00     0.006 A 
ENDBRANCH  55  76
BRANCH  67  84
ATOM     84  C   UNL A   1      46.672  26.821  26.551  1.00  0.00     0.057 A 
ATOM     85  C   UNL A   1      47.936  26.676  25.973  1.00  0.00     0.134 A 
ATOM     86  C   UNL A   1      45.708  27.520  25.808  1.00  0.00     0.134 A 
ATOM     87  F   UNL A   1      48.924  26.073  26.652  1.00  0.00    -0.206 F 
ATOM     88  C   UNL A   1      48.229  27.186  24.707  1.00  0.00     0.040 A 
ATOM     89  C   UNL A   1      45.977  28.003  24.524  1.00  0.00     0.040 A 
ATOM     90  F   UNL A   1      44.503  27.796  26.323  1.00  0.00    -0.206 F 
ATOM     91  C   UNL A   1      47.244  27.840  23.972  1.00  0.00     0.006 A 
ENDBRANCH  67  84
ENDBRANCH  41  42
ENDBRANCH  33  36
ENDBRANCH  31  32
ENDBRANCH   1  31
TORSDOF 13
ENDMDL
MODEL 3
REMARK VINA RESULT:     -13.0      1.930      5.945
REMARK SMILES CC1=C([C@H](NC(=O)[C@@H]2[C@H](C)c3cc(F)ccc3N2C)C(=O)NCCCNC(=O)c2ccc(-c3c4nc(c(-c5c(F)cccc5F)c5ccc([nH]5)c(-c5c(F)cccc5F)c5nc(c(-c6c(F)cccc6F)c6ccc3[nH]6)C=C5)C=C4)cc2)[C@@H](C)N=N1
REMARK SMILES IDX 24 1 23 2 22 3 20 4 21 5 4 7 3 8 1 9 2 10 86 11 83 12 85 13
REMARK SMILES IDX 84 14 5 15 6 16 7 18 8 19 9 20 18 21 11 22 10 23 17 24 19 25
REMARK SMILES IDX 12 26 16 27 13 28 15 29 14 30 25 31 26 32 27 33 28 35 29 36
REMARK SMILES IDX 30 37 82 38 31 39 81 40 32 41 33 42 34 43 75 44 35 45 80 46
REMARK SMILES IDX 74 47 76 48 36 49 79 50 73 51 72 52 37 54 63 55 46 56 62 57
REMARK SMILES IDX 47 58 50 59 61 60 77 61 48 62 49 63 60 65 78 66 51 67 38 68
REMARK SMILES IDX 39 69 44 70 40 71 41 72 43 73 45 74 42 75 64 76 65 77 70 78
REMARK SMILES IDX 66 79 67 80 69 81 71 82 68 83 52 84 53 85 58 86 54 87 55 88
REMARK SMILES IDX 57 89 59 90 56 91
REMARK H PARENT 22 6 5 17 26 34 76 53 50 64
REMARK Flexibility Score: inf
ROOT
ATOM      1  C   UNL A   1      34.828  29.964  26.864  1.00  0.00     0.042 C 
ENDROOT
BRANCH   1   2
ATOM      2  C   UNL A   1      34.259  28.574  27.124  1.00  0.00     0.117 C 
BRANCH   2   3
ATOM      3  N   UNL A   1      32.902  28.484  27.659  1.00  0.00    -0.354 N 
ATOM      4  C   UNL A   1      31.825  27.702  27.312  1.00  0.00     0.247 C 
ATOM      5  O   UNL A   1      30.753  27.846  27.908  1.00  0.00    -0.272 OA
ATOM      6  H   UNL A   1      32.726  29.097  28.409  1.00  0.00     0.163 HD
BRANCH   4   7
ATOM      7  C   UNL A   1      31.978  26.561  26.308  1.00  0.00     0.202 C 
BRANCH   7   8
ATOM      8  C   UNL A   1      31.527  27.145  24.961  1.00  0.00     0.011 C 
ATOM      9  C   UNL A   1      29.064  26.513  24.433  1.00  0.00     0.069 C 
ATOM     10  C   UNL A   1      30.397  27.140  24.230  1.00  0.00     0.064 C 
ATOM     11  N   UNL A   1      30.525  27.799  23.027  1.00  0.00    -0.160 NA
ATOM     12  C   UNL A   1      32.499  27.920  24.064  1.00  0.00     0.156 C 
ATOM     13  N   UNL A   1      31.689  28.225  22.865  1.00  0.00    -0.181 NA
ATOM     14  C   UNL A   1      33.776  27.225  23.597  1.00  0.00     0.040 C 
ENDBRANCH   7   8
BRANCH   7  15
ATOM     15  N   UNL A   1      31.217  25.441  26.860  1.00  0.00    -0.339 N 
ATOM     16  C   UNL A   1      31.329  24.074  26.591  1.00  0.00     0.244 C 
ATOM     17  H   UNL A   1      30.526  25.685  27.516  1.00  0.00     0.164 HD
ATOM     18  O   UNL A   1      30.468  23.386  27.155  1.00  0.00    -0.273 OA
BRANCH  16  19
ATOM     19  C   UNL A   1      32.504  23.409  25.704  1.00  0.00     0.178 C 
ATOM     20  C   UNL A   1      32.167  23.148  24.186  1.00  0.00     0.050 C 
ATOM     21  N   UNL A   1      32.989  22.056  26.238  1.00  0.00    -0.362 N 
ATOM     22  C   UNL A   1      32.271  21.655  24.054  1.00  0.00    -0.016 A 
ATOM     23  C   UNL A   1      30.826  23.631  23.660  1.00  0.00     0.015 C 
ATOM     24  C   UNL A   1      32.613  21.087  25.270  1.00  0.00     0.041 A 
ATOM     25  C   UNL A   1      34.425  21.876  26.510  1.00  0.00     0.144 C 
ATOM     26  C   UNL A   1      32.175  20.869  22.911  1.00  0.00     0.045 A 
ATOM     27  C   UNL A   1      32.757  19.703  25.394  1.00  0.00     0.029 A 
ATOM     28  C   UNL A   1      32.355  19.492  23.031  1.00  0.00     0.123 A 
ATOM     29  C   UNL A   1      32.617  18.898  24.264  1.00  0.00     0.041 A 
ATOM     30  F   UNL A   1      32.297  18.723  21.935  1.00  0.00    -0.207 F 
ENDBRANCH  16  19
ENDBRANCH   7  15
ENDBRANCH   4   7
ENDBRANCH   2   3
ENDBRANCH   1   2
BRANCH   1  31
ATOM     31  C   UNL A   1      35.659  30.734  27.889  1.00  0.00     0.118 C 
BRANCH  31  32
ATOM     32  N   UNL A   1      35.543  30.509  29.322  1.00  0.00    -0.352 N 
ATOM     33  C   UNL A   1      36.456  29.900  30.163  1.00  0.00     0.251 C 
ATOM     34  H   UNL A   1      34.712  30.828  29.744  1.00  0.00     0.163 HD
ATOM     35  O   UNL A   1      36.305  29.905  31.383  1.00  0.00    -0.269 OA
BRANCH  33  36
ATOM     36  C   UNL A   1      37.552  29.123  29.565  1.00  0.00     0.039 A 
ATOM     37  C   UNL A   1      38.095  28.047  30.258  1.00  0.00     0.014 A 
ATOM     38  C   UNL A   1      38.188  29.669  28.447  1.00  0.00     0.014 A 
ATOM     39  C   UNL A   1      39.426  27.767  30.063  1.00  0.00     0.010 A 
ATOM     40  C   UNL A   1      39.480  29.275  28.156  1.00  0.00     0.010 A 
ATOM     41  C   UNL A   1      40.135  28.424  29.045  1.00  0.00    -0.014 A 
BRANCH  41  42
ATOM     42  C   UNL A   1      41.536  28.049  28.873  1.00  0.00     0.031 A 
ATOM     43  C   UNL A   1      41.684  26.712  28.223  1.00  0.00     0.074 A 
ATOM     44  C   UNL A   1      42.563  28.865  29.191  1.00  0.00     0.049 A 
ATOM     45  N   UNL A   1      42.254  25.652  28.694  1.00  0.00    -0.248 NA
ATOM     46  C   UNL A   1      40.873  26.467  27.012  1.00  0.00     0.031 C 
ATOM     47  C   UNL A   1      42.503  30.257  29.646  1.00  0.00     0.029 A 
ATOM     48  N   UNL A   1      43.901  28.658  29.043  1.00  0.00    -0.354 N 
ATOM     49  C   UNL A   1      42.041  24.660  27.738  1.00  0.00     0.074 A 
ATOM     50  C   UNL A   1      41.022  25.153  26.856  1.00  0.00     0.031 C 
ATOM     51  C   UNL A   1      43.707  30.840  29.468  1.00  0.00     0.029 A 
ATOM     52  C   UNL A   1      44.650  29.831  29.029  1.00  0.00     0.049 A 
ATOM     53  H   UNL A   1      44.301  27.763  28.955  1.00  0.00     0.167 HD
ATOM     54  C   UNL A   1      42.926  23.641  27.574  1.00  0.00     0.037 A 
ATOM     55  C   UNL A   1      45.922  29.952  28.577  1.00  0.00     0.037 A 
ATOM     56  C   UNL A   1      43.707  23.444  28.768  1.00  0.00     0.049 A 
ATOM     57  C   UNL A   1      46.510  28.589  28.542  1.00  0.00     0.074 A 
ATOM     58  C   UNL A   1      43.439  23.052  30.064  1.00  0.00     0.029 A 
ATOM     59  N   UNL A   1      44.956  24.011  28.793  1.00  0.00    -0.354 N 
ATOM     60  N   UNL A   1      46.771  27.890  29.612  1.00  0.00    -0.248 NA
ATOM     61  C   UNL A   1      46.367  27.819  27.316  1.00  0.00     0.031 C 
ATOM     62  C   UNL A   1      44.350  23.794  30.874  1.00  0.00     0.029 A 
ATOM     63  C   UNL A   1      45.156  24.558  30.030  1.00  0.00     0.049 A 
ATOM     64  H   UNL A   1      45.597  24.022  28.047  1.00  0.00     0.167 HD
ATOM     65  C   UNL A   1      46.398  26.593  29.289  1.00  0.00     0.074 A 
ATOM     66  C   UNL A   1      46.243  26.594  27.836  1.00  0.00     0.031 C 
ATOM     67  C   UNL A   1      45.972  25.728  30.258  1.00  0.00     0.037 A 
BRANCH  54  68
ATOM     68  C   UNL A   1      43.420  23.205  26.207  1.00  0.00     0.057 A 
ATOM     69  C   UNL A   1      44.157  24.018  25.318  1.00  0.00     0.134 A 
ATOM     70  C   UNL A   1      43.470  21.827  25.925  1.00  0.00     0.134 A 
ATOM     71  F   UNL A   1      44.224  25.348  25.424  1.00  0.00    -0.206 F 
ATOM     72  C   UNL A   1      44.962  23.498  24.304  1.00  0.00     0.040 A 
ATOM     73  C   UNL A   1      44.305  21.295  24.936  1.00  0.00     0.040 A 
ATOM     74  F   UNL A   1      42.788  20.946  26.672  1.00  0.00    -0.206 F 
ATOM     75  C   UNL A   1      45.075  22.130  24.138  1.00  0.00     0.006 A 
ENDBRANCH  54  68
BRANCH  55  76
ATOM     76  C   UNL A   1      46.519  31.098  27.853  1.00  0.00     0.057 A 
ATOM     77  C   UNL A   1      47.700  31.718  28.303  1.00  0.00     0.134 A 
ATOM     78  C   UNL A   1      45.814  31.776  26.850  1.00  0.00     0.134 A 
ATOM     79  F   UNL A   1      48.408  31.206  29.320  1.00  0.00    -0.206 F 
ATOM     80  C   UNL A   1      48.155  32.935  27.786  1.00  0.00     0.040 A 
ATOM     81  C   UNL A   1      46.255  33.001  26.328  1.00  0.00     0.040 A 
ATOM     82  F   UNL A   1      44.651  31.291  26.392  1.00  0.00    -0.206 F 
ATOM     83  C   UNL A   1      47.425  33.587  26.802  1.00  0.00     0.006 A 
ENDBRANCH  55  76
BRANCH  67  84
ATOM     84  C   UNL A   1      46.179  26.141  31.688  1.00  0.00     0.057 A 
ATOM     85  C   UNL A   1      45.166  26.856  32.333  1.00  0.00     0.134 A 
ATOM     86  C   UNL A   1      47.381  25.966  32.391  1.00  0.00     0.134 A 
ATOM     87  F   UNL A   1      44.012  27.114  31.698  1.00  0.00    -0.206 F 
ATOM     88  C   UNL A   1      45.328  27.360  33.625  1.00  0.00     0.040 A 
ATOM     89  C   UNL A   1      47.544  26.434  33.698  1.00  0.00     0.040 A 
ATOM     90  F   UNL A   1      48.441  25.385  31.815  1.00  0.00    -0.206 F 
ATOM     91  C   UNL A   1      46.516  27.138  34.317  1.00  0.00     0.006 A 
ENDBRANCH  67  84
ENDBRANCH  41  42
ENDBRANCH  33  36
ENDBRANCH  31  32
ENDBRANCH   1  31
TORSDOF 13
ENDMDL
