MODEL 1
REMARK VINA RESULT:     -13.1      0.000      0.000
REMARK SMILES O=C(NCCCNC(=O)[C@@H]1[C@@H](C(=O)Nc2nc(-c3ccc(F)cc3)cs2)[C@H]2C=C[C@@H]1O2)c1ccc(-c2c3nc(c(-c4c(F)cccc4F)c4ccc([nH]4)c(-c4c(F)cccc4F)c4nc(c(-c5c(F)cccc5F)c5ccc2[nH]5)C=C4)C=C3)cc1
REMARK SMILES IDX 5 1 4 2 3 3 1 4 2 5 32 7 33 8 85 9 34 10 84 11 35 12 36 13
REMARK SMILES IDX 37 14 78 15 38 16 83 17 77 18 79 19 39 20 82 21 76 22 75 23
REMARK SMILES IDX 40 25 66 26 49 27 65 28 50 29 53 30 64 31 80 32 51 33 52 34
REMARK SMILES IDX 63 36 81 37 54 38 41 39 42 40 47 41 43 42 44 43 46 44 48 45
REMARK SMILES IDX 45 46 67 47 68 48 73 49 69 50 70 51 72 52 74 53 71 54 55 55
REMARK SMILES IDX 56 56 61 57 57 58 58 59 60 60 62 61 59 62 6 63 7 64 8 65
REMARK SMILES IDX 9 67 10 68 11 69 30 70 27 71 29 72 31 73 28 74 12 75 13 76
REMARK SMILES IDX 14 77 15 79 16 80 26 81 17 82 25 83 18 84 19 85 24 86 20 87
REMARK SMILES IDX 23 88 21 89 22 90
REMARK H PARENT 3 6 79 24 53 35 7 66 14 78
REMARK Flexibility Score: inf
ROOT
ATOM      1  C   UNL A   1      33.522  29.066  27.108  1.00  0.00     0.042 C 
ENDROOT
BRANCH   1   2
ATOM      2  C   UNL A   1      34.959  29.359  27.514  1.00  0.00     0.118 C 
BRANCH   2   3
ATOM      3  N   UNL A   1      35.071  30.194  28.701  1.00  0.00    -0.352 N 
ATOM      4  O   UNL A   1      35.946  31.068  30.581  1.00  0.00    -0.269 OA
ATOM      5  C   UNL A   1      36.124  30.415  29.555  1.00  0.00     0.251 C 
ATOM      6  H   UNL A   1      34.251  30.686  28.932  1.00  0.00     0.163 HD
BRANCH   5   7
ATOM      7  C   UNL A   1      37.460  29.843  29.278  1.00  0.00     0.039 A 
ATOM      8  C   UNL A   1      38.200  29.213  30.277  1.00  0.00     0.014 A 
ATOM      9  C   UNL A   1      37.975  29.924  27.980  1.00  0.00     0.014 A 
ATOM     10  C   UNL A   1      39.518  28.847  30.034  1.00  0.00     0.010 A 
ATOM     11  C   UNL A   1      39.263  29.452  27.708  1.00  0.00     0.010 A 
ATOM     12  C   UNL A   1      40.065  28.955  28.745  1.00  0.00    -0.014 A 
BRANCH  12  13
ATOM     13  C   UNL A   1      41.462  28.509  28.508  1.00  0.00     0.031 A 
ATOM     14  C   UNL A   1      41.771  27.090  28.121  1.00  0.00     0.074 A 
ATOM     15  C   UNL A   1      42.458  29.414  28.595  1.00  0.00     0.049 A 
ATOM     16  N   UNL A   1      42.929  26.544  27.845  1.00  0.00    -0.248 NA
ATOM     17  C   UNL A   1      40.637  26.156  28.038  1.00  0.00     0.031 C 
ATOM     18  C   UNL A   1      42.284  30.820  28.964  1.00  0.00     0.029 A 
ATOM     19  N   UNL A   1      43.801  29.296  28.351  1.00  0.00    -0.354 N 
ATOM     20  C   UNL A   1      42.669  25.207  27.577  1.00  0.00     0.074 A 
ATOM     21  C   UNL A   1      41.244  25.013  27.750  1.00  0.00     0.031 C 
ATOM     22  C   UNL A   1      43.463  31.449  28.859  1.00  0.00     0.029 A 
ATOM     23  C   UNL A   1      44.486  30.480  28.481  1.00  0.00     0.049 A 
ATOM     24  H   UNL A   1      44.235  28.447  28.107  1.00  0.00     0.167 HD
ATOM     25  C   UNL A   1      43.535  24.233  27.209  1.00  0.00     0.037 A 
ATOM     26  C   UNL A   1      45.792  30.760  28.321  1.00  0.00     0.037 A 
ATOM     27  C   UNL A   1      44.950  24.433  27.021  1.00  0.00     0.049 A 
ATOM     28  C   UNL A   1      46.735  29.662  27.932  1.00  0.00     0.074 A 
ATOM     29  C   UNL A   1      45.907  23.510  26.636  1.00  0.00     0.029 A 
ATOM     30  N   UNL A   1      45.610  25.639  27.204  1.00  0.00    -0.354 N 
ATOM     31  N   UNL A   1      46.471  28.404  27.680  1.00  0.00    -0.248 NA
ATOM     32  C   UNL A   1      48.155  30.018  27.814  1.00  0.00     0.031 C 
ATOM     33  C   UNL A   1      47.151  24.148  26.623  1.00  0.00     0.029 A 
ATOM     34  C   UNL A   1      46.963  25.481  26.953  1.00  0.00     0.049 A 
ATOM     35  H   UNL A   1      45.180  26.483  27.473  1.00  0.00     0.167 HD
ATOM     36  C   UNL A   1      47.688  27.818  27.360  1.00  0.00     0.074 A 
ATOM     37  C   UNL A   1      48.688  28.864  27.437  1.00  0.00     0.031 C 
ATOM     38  C   UNL A   1      47.948  26.529  27.033  1.00  0.00     0.037 A 
BRANCH  25  39
ATOM     39  C   UNL A   1      42.982  22.853  26.995  1.00  0.00     0.057 A 
ATOM     40  C   UNL A   1      42.622  22.051  28.085  1.00  0.00     0.134 A 
ATOM     41  C   UNL A   1      42.849  22.300  25.715  1.00  0.00     0.134 A 
ATOM     42  F   UNL A   1      42.732  22.515  29.338  1.00  0.00    -0.206 F 
ATOM     43  C   UNL A   1      42.156  20.747  27.911  1.00  0.00     0.040 A 
ATOM     44  C   UNL A   1      42.361  21.005  25.526  1.00  0.00     0.040 A 
ATOM     45  F   UNL A   1      43.164  23.020  24.627  1.00  0.00    -0.206 F 
ATOM     46  C   UNL A   1      42.019  20.222  26.627  1.00  0.00     0.006 A 
ENDBRANCH  25  39
BRANCH  26  47
ATOM     47  C   UNL A   1      46.260  32.154  28.512  1.00  0.00     0.057 A 
ATOM     48  C   UNL A   1      46.706  32.608  29.759  1.00  0.00     0.134 A 
ATOM     49  C   UNL A   1      46.201  33.082  27.467  1.00  0.00     0.134 A 
ATOM     50  F   UNL A   1      46.773  31.767  30.802  1.00  0.00    -0.206 F 
ATOM     51  C   UNL A   1      47.049  33.944  29.969  1.00  0.00     0.040 A 
ATOM     52  C   UNL A   1      46.563  34.416  27.658  1.00  0.00     0.040 A 
ATOM     53  F   UNL A   1      45.792  32.702  26.249  1.00  0.00    -0.206 F 
ATOM     54  C   UNL A   1      46.977  34.853  28.916  1.00  0.00     0.006 A 
ENDBRANCH  26  47
BRANCH  38  55
ATOM     55  C   UNL A   1      49.369  26.175  26.710  1.00  0.00     0.057 A 
ATOM     56  C   UNL A   1      50.246  25.761  27.720  1.00  0.00     0.134 A 
ATOM     57  C   UNL A   1      49.884  26.303  25.414  1.00  0.00     0.134 A 
ATOM     58  F   UNL A   1      49.816  25.626  28.982  1.00  0.00    -0.206 F 
ATOM     59  C   UNL A   1      51.590  25.497  27.455  1.00  0.00     0.040 A 
ATOM     60  C   UNL A   1      51.222  26.020  25.132  1.00  0.00     0.040 A 
ATOM     61  F   UNL A   1      49.091  26.684  24.401  1.00  0.00    -0.206 F 
ATOM     62  C   UNL A   1      52.081  25.625  26.156  1.00  0.00     0.006 A 
ENDBRANCH  38  55
ENDBRANCH  12  13
ENDBRANCH   5   7
ENDBRANCH   2   3
ENDBRANCH   1   2
BRANCH   1  63
ATOM     63  C   UNL A   1      32.967  30.012  26.058  1.00  0.00     0.117 C 
BRANCH  63  64
ATOM     64  N   UNL A   1      33.300  29.619  24.699  1.00  0.00    -0.356 N 
ATOM     65  C   UNL A   1      32.557  28.904  23.797  1.00  0.00     0.227 C 
ATOM     66  H   UNL A   1      34.186  29.906  24.382  1.00  0.00     0.163 HD
ATOM     67  O   UNL A   1      32.934  28.897  22.625  1.00  0.00    -0.275 OA
BRANCH  65  68
ATOM     68  C   UNL A   1      31.299  28.213  24.287  1.00  0.00     0.127 C 
ATOM     69  C   UNL A   1      31.505  26.739  24.742  1.00  0.00     0.127 C 
ATOM     70  C   UNL A   1      30.407  28.035  23.040  1.00  0.00     0.155 C 
ATOM     71  C   UNL A   1      30.583  25.997  23.743  1.00  0.00     0.155 C 
ATOM     72  C   UNL A   1      29.027  27.640  23.454  1.00  0.00     0.004 C 
ATOM     73  O   UNL A   1      30.879  26.754  22.541  1.00  0.00    -0.365 OA
ATOM     74  C   UNL A   1      29.130  26.373  23.871  1.00  0.00     0.004 C 
BRANCH  69  75
ATOM     75  C   UNL A   1      31.132  26.389  26.182  1.00  0.00     0.233 C 
ATOM     76  O   UNL A   1      30.505  27.164  26.911  1.00  0.00    -0.274 OA
ATOM     77  N   UNL A   1      31.345  25.143  26.685  1.00  0.00    -0.302 N 
ATOM     78  H   UNL A   1      30.828  24.902  27.487  1.00  0.00     0.172 HD
BRANCH  77  79
ATOM     79  C   UNL A   1      32.190  24.197  26.205  1.00  0.00     0.189 A 
ATOM     80  N   UNL A   1      33.492  24.163  26.271  1.00  0.00    -0.220 NA
ATOM     81  S   UNL A   1      31.416  22.853  25.494  1.00  0.00    -0.105 S 
ATOM     82  C   UNL A   1      33.941  23.021  25.632  1.00  0.00     0.084 A 
ATOM     83  C   UNL A   1      32.957  22.208  25.101  1.00  0.00     0.097 A 
BRANCH  82  84
ATOM     84  C   UNL A   1      35.348  22.684  25.581  1.00  0.00     0.001 A 
ATOM     85  C   UNL A   1      36.301  23.672  25.865  1.00  0.00     0.013 A 
ATOM     86  C   UNL A   1      35.763  21.386  25.261  1.00  0.00     0.013 A 
ATOM     87  C   UNL A   1      37.661  23.354  25.852  1.00  0.00     0.040 A 
ATOM     88  C   UNL A   1      37.124  21.076  25.233  1.00  0.00     0.040 A 
ATOM     89  C   UNL A   1      38.059  22.061  25.532  1.00  0.00     0.123 A 
ATOM     90  F   UNL A   1      39.364  21.765  25.506  1.00  0.00    -0.207 F 
ENDBRANCH  82  84
ENDBRANCH  77  79
ENDBRANCH  69  75
ENDBRANCH  65  68
ENDBRANCH  63  64
ENDBRANCH   1  63
TORSDOF 13
ENDMDL
MODEL 2
REMARK VINA RESULT:     -13.0      5.630     10.408
REMARK SMILES O=C(NCCCNC(=O)[C@@H]1[C@@H](C(=O)Nc2nc(-c3ccc(F)cc3)cs2)[C@H]2C=C[C@@H]1O2)c1ccc(-c2c3nc(c(-c4c(F)cccc4F)c4ccc([nH]4)c(-c4c(F)cccc4F)c4nc(c(-c5c(F)cccc5F)c5ccc2[nH]5)C=C4)C=C3)cc1
REMARK SMILES IDX 5 1 4 2 3 3 1 4 2 5 32 7 33 8 85 9 34 10 84 11 35 12 36 13
REMARK SMILES IDX 37 14 78 15 38 16 83 17 77 18 79 19 39 20 82 21 76 22 75 23
REMARK SMILES IDX 40 25 66 26 49 27 65 28 50 29 53 30 64 31 80 32 51 33 52 34
REMARK SMILES IDX 63 36 81 37 54 38 41 39 42 40 47 41 43 42 44 43 46 44 48 45
REMARK SMILES IDX 45 46 67 47 68 48 73 49 69 50 70 51 72 52 74 53 71 54 55 55
REMARK SMILES IDX 56 56 61 57 57 58 58 59 60 60 62 61 59 62 6 63 7 64 8 65
REMARK SMILES IDX 9 67 10 68 11 69 30 70 27 71 29 72 31 73 28 74 12 75 13 76
REMARK SMILES IDX 14 77 15 79 16 80 26 81 17 82 25 83 18 84 19 85 24 86 20 87
REMARK SMILES IDX 23 88 21 89 22 90
REMARK H PARENT 3 6 79 24 53 35 7 66 14 78
REMARK Flexibility Score: inf
ROOT
ATOM      1  C   UNL A   1      37.251  23.521  25.377  1.00  0.00     0.042 C 
ENDROOT
BRANCH   1   2
ATOM      2  C   UNL A   1      38.189  24.083  26.436  1.00  0.00     0.118 C 
BRANCH   2   3
ATOM      3  N   UNL A   1      39.582  24.128  26.016  1.00  0.00    -0.352 N 
ATOM      4  O   UNL A   1      41.673  24.916  25.752  1.00  0.00    -0.269 OA
ATOM      5  C   UNL A   1      40.596  24.997  26.338  1.00  0.00     0.251 C 
ATOM      6  H   UNL A   1      39.843  23.412  25.393  1.00  0.00     0.163 HD
BRANCH   5   7
ATOM      7  C   UNL A   1      40.396  26.056  27.352  1.00  0.00     0.039 A 
ATOM      8  C   UNL A   1      40.943  27.327  27.190  1.00  0.00     0.014 A 
ATOM      9  C   UNL A   1      39.623  25.772  28.484  1.00  0.00     0.014 A 
ATOM     10  C   UNL A   1      40.890  28.241  28.235  1.00  0.00     0.010 A 
ATOM     11  C   UNL A   1      39.476  26.733  29.488  1.00  0.00     0.010 A 
ATOM     12  C   UNL A   1      40.150  27.959  29.395  1.00  0.00    -0.014 A 
BRANCH  12  13
ATOM     13  C   UNL A   1      40.073  28.977  30.475  1.00  0.00     0.031 A 
ATOM     14  C   UNL A   1      39.049  30.076  30.436  1.00  0.00     0.074 A 
ATOM     15  C   UNL A   1      40.909  28.874  31.528  1.00  0.00     0.049 A 
ATOM     16  N   UNL A   1      38.824  31.024  31.312  1.00  0.00    -0.248 NA
ATOM     17  C   UNL A   1      38.164  30.127  29.262  1.00  0.00     0.031 C 
ATOM     18  C   UNL A   1      41.947  27.852  31.679  1.00  0.00     0.029 A 
ATOM     19  N   UNL A   1      40.999  29.613  32.678  1.00  0.00    -0.354 N 
ATOM     20  C   UNL A   1      37.792  31.792  30.788  1.00  0.00     0.074 A 
ATOM     21  C   UNL A   1      37.451  31.218  29.504  1.00  0.00     0.031 C 
ATOM     22  C   UNL A   1      42.524  27.988  32.881  1.00  0.00     0.029 A 
ATOM     23  C   UNL A   1      41.945  29.144  33.556  1.00  0.00     0.049 A 
ATOM     24  H   UNL A   1      40.440  30.403  32.859  1.00  0.00     0.167 HD
ATOM     25  C   UNL A   1      37.178  32.869  31.334  1.00  0.00     0.037 A 
ATOM     26  C   UNL A   1      42.315  29.593  34.770  1.00  0.00     0.037 A 
ATOM     27  C   UNL A   1      37.509  33.428  32.619  1.00  0.00     0.049 A 
ATOM     28  C   UNL A   1      41.634  30.798  35.344  1.00  0.00     0.074 A 
ATOM     29  C   UNL A   1      36.933  34.510  33.263  1.00  0.00     0.029 A 
ATOM     30  N   UNL A   1      38.503  32.948  33.459  1.00  0.00    -0.354 N 
ATOM     31  N   UNL A   1      40.658  31.510  34.837  1.00  0.00    -0.248 NA
ATOM     32  C   UNL A   1      42.108  31.267  36.653  1.00  0.00     0.031 C 
ATOM     33  C   UNL A   1      37.604  34.708  34.473  1.00  0.00     0.029 A 
ATOM     34  C   UNL A   1      38.566  33.720  34.607  1.00  0.00     0.049 A 
ATOM     35  H   UNL A   1      39.079  32.173  33.267  1.00  0.00     0.167 HD
ATOM     36  C   UNL A   1      40.391  32.504  35.767  1.00  0.00     0.074 A 
ATOM     37  C   UNL A   1      41.299  32.294  36.877  1.00  0.00     0.031 C 
ATOM     38  C   UNL A   1      39.475  33.500  35.704  1.00  0.00     0.037 A 
BRANCH  25  39
ATOM     39  C   UNL A   1      36.088  33.527  30.535  1.00  0.00     0.057 A 
ATOM     40  C   UNL A   1      34.749  33.418  30.930  1.00  0.00     0.134 A 
ATOM     41  C   UNL A   1      36.358  34.227  29.353  1.00  0.00     0.134 A 
ATOM     42  F   UNL A   1      34.419  32.755  32.048  1.00  0.00    -0.206 F 
ATOM     43  C   UNL A   1      33.717  33.977  30.174  1.00  0.00     0.040 A 
ATOM     44  C   UNL A   1      35.337  34.811  28.601  1.00  0.00     0.040 A 
ATOM     45  F   UNL A   1      37.621  34.379  28.925  1.00  0.00    -0.206 F 
ATOM     46  C   UNL A   1      34.010  34.680  29.008  1.00  0.00     0.006 A 
ENDBRANCH  25  39
BRANCH  26  47
ATOM     47  C   UNL A   1      43.371  28.869  35.516  1.00  0.00     0.057 A 
ATOM     48  C   UNL A   1      44.727  29.162  35.327  1.00  0.00     0.134 A 
ATOM     49  C   UNL A   1      43.050  27.816  36.380  1.00  0.00     0.134 A 
ATOM     50  F   UNL A   1      45.098  30.152  34.502  1.00  0.00    -0.206 F 
ATOM     51  C   UNL A   1      45.729  28.414  35.948  1.00  0.00     0.040 A 
ATOM     52  C   UNL A   1      44.041  27.076  37.025  1.00  0.00     0.040 A 
ATOM     53  F   UNL A   1      41.768  27.498  36.608  1.00  0.00    -0.206 F 
ATOM     54  C   UNL A   1      45.386  27.367  36.800  1.00  0.00     0.006 A 
ENDBRANCH  26  47
BRANCH  38  55
ATOM     55  C   UNL A   1      39.388  34.432  36.876  1.00  0.00     0.057 A 
ATOM     56  C   UNL A   1      40.049  35.666  36.855  1.00  0.00     0.134 A 
ATOM     57  C   UNL A   1      38.706  34.081  38.047  1.00  0.00     0.134 A 
ATOM     58  F   UNL A   1      40.727  36.056  35.765  1.00  0.00    -0.206 F 
ATOM     59  C   UNL A   1      40.044  36.515  37.961  1.00  0.00     0.040 A 
ATOM     60  C   UNL A   1      38.674  34.932  39.153  1.00  0.00     0.040 A 
ATOM     61  F   UNL A   1      38.042  32.917  38.126  1.00  0.00    -0.206 F 
ATOM     62  C   UNL A   1      39.352  36.150  39.115  1.00  0.00     0.006 A 
ENDBRANCH  38  55
ENDBRANCH  12  13
ENDBRANCH   5   7
ENDBRANCH   2   3
ENDBRANCH   1   2
BRANCH   1  63
ATOM     63  C   UNL A   1      36.882  22.063  25.585  1.00  0.00     0.117 C 
BRANCH  63  64
ATOM     64  N   UNL A   1      35.770  21.877  26.502  1.00  0.00    -0.356 N 
ATOM     65  C   UNL A   1      34.469  21.547  26.232  1.00  0.00     0.227 C 
ATOM     66  H   UNL A   1      35.983  22.010  27.454  1.00  0.00     0.163 HD
ATOM     67  O   UNL A   1      33.759  21.205  27.176  1.00  0.00    -0.275 OA
BRANCH  65  68
ATOM     68  C   UNL A   1      34.004  21.575  24.788  1.00  0.00     0.127 C 
ATOM     69  C   UNL A   1      33.481  22.958  24.302  1.00  0.00     0.127 C 
ATOM     70  C   UNL A   1      32.719  20.720  24.745  1.00  0.00     0.155 C 
ATOM     71  C   UNL A   1      32.016  22.604  23.948  1.00  0.00     0.155 C 
ATOM     72  C   UNL A   1      32.346  20.433  23.328  1.00  0.00     0.004 C 
ATOM     73  O   UNL A   1      31.711  21.720  25.057  1.00  0.00    -0.365 OA
ATOM     74  C   UNL A   1      31.892  21.593  22.838  1.00  0.00     0.004 C 
BRANCH  69  75
ATOM     75  C   UNL A   1      34.187  23.595  23.106  1.00  0.00     0.233 C 
ATOM     76  O   UNL A   1      34.955  22.962  22.375  1.00  0.00    -0.274 OA
ATOM     77  N   UNL A   1      33.887  24.858  22.699  1.00  0.00    -0.302 N 
ATOM     78  H   UNL A   1      34.144  25.093  21.777  1.00  0.00     0.172 HD
BRANCH  77  79
ATOM     79  C   UNL A   1      33.274  25.830  23.419  1.00  0.00     0.189 A 
ATOM     80  N   UNL A   1      33.797  26.647  24.289  1.00  0.00    -0.220 NA
ATOM     81  S   UNL A   1      31.617  26.033  23.065  1.00  0.00    -0.105 S 
ATOM     82  C   UNL A   1      32.798  27.459  24.795  1.00  0.00     0.084 A 
ATOM     83  C   UNL A   1      31.532  27.239  24.284  1.00  0.00     0.097 A 
BRANCH  82  84
ATOM     84  C   UNL A   1      33.084  28.506  25.753  1.00  0.00     0.001 A 
ATOM     85  C   UNL A   1      34.281  28.462  26.481  1.00  0.00     0.013 A 
ATOM     86  C   UNL A   1      32.185  29.561  25.954  1.00  0.00     0.013 A 
ATOM     87  C   UNL A   1      34.586  29.481  27.386  1.00  0.00     0.040 A 
ATOM     88  C   UNL A   1      32.485  30.569  26.871  1.00  0.00     0.040 A 
ATOM     89  C   UNL A   1      33.684  30.521  27.575  1.00  0.00     0.123 A 
ATOM     90  F   UNL A   1      33.973  31.488  28.454  1.00  0.00    -0.207 F 
ENDBRANCH  82  84
ENDBRANCH  77  79
ENDBRANCH  69  75
ENDBRANCH  65  68
ENDBRANCH  63  64
ENDBRANCH   1  63
TORSDOF 13
ENDMDL
MODEL 3
REMARK VINA RESULT:     -12.9      5.643     10.124
REMARK SMILES O=C(NCCCNC(=O)[C@@H]1[C@@H](C(=O)Nc2nc(-c3ccc(F)cc3)cs2)[C@H]2C=C[C@@H]1O2)c1ccc(-c2c3nc(c(-c4c(F)cccc4F)c4ccc([nH]4)c(-c4c(F)cccc4F)c4nc(c(-c5c(F)cccc5F)c5ccc2[nH]5)C=C4)C=C3)cc1
REMARK SMILES IDX 5 1 4 2 3 3 1 4 2 5 32 7 33 8 85 9 34 10 84 11 35 12 36 13
REMARK SMILES IDX 37 14 78 15 38 16 83 17 77 18 79 19 39 20 82 21 76 22 75 23
REMARK SMILES IDX 40 25 66 26 49 27 65 28 50 29 53 30 64 31 80 32 51 33 52 34
REMARK SMILES IDX 63 36 81 37 54 38 41 39 42 40 47 41 43 42 44 43 46 44 48 45
REMARK SMILES IDX 45 46 67 47 68 48 73 49 69 50 70 51 72 52 74 53 71 54 55 55
REMARK SMILES IDX 56 56 61 57 57 58 58 59 60 60 62 61 59 62 6 63 7 64 8 65
REMARK SMILES IDX 9 67 10 68 11 69 30 70 27 71 29 72 31 73 28 74 12 75 13 76
REMARK SMILES IDX 14 77 15 79 16 80 26 81 17 82 25 83 18 84 19 85 24 86 20 87
REMARK SMILES IDX 23 88 21 89 22 90
REMARK H PARENT 3 6 79 24 53 35 7 66 14 78
REMARK Flexibility Score: inf
ROOT
ATOM      1  C   UNL A   1      37.295  23.418  25.236  1.00  0.00     0.042 C 
ENDROOT
BRANCH   1   2
ATOM      2  C   UNL A   1      38.160  24.088  26.294  1.00  0.00     0.118 C 
BRANCH   2   3
ATOM      3  N   UNL A   1      39.581  24.080  25.977  1.00  0.00    -0.352 N 
ATOM      4  O   UNL A   1      41.721  24.770  25.900  1.00  0.00    -0.269 OA
ATOM      5  C   UNL A   1      40.609  24.880  26.412  1.00  0.00     0.251 C 
ATOM      6  H   UNL A   1      39.852  23.380  25.340  1.00  0.00     0.163 HD
BRANCH   5   7
ATOM      7  C   UNL A   1      40.386  25.901  27.458  1.00  0.00     0.039 A 
ATOM      8  C   UNL A   1      41.005  27.149  27.398  1.00  0.00     0.014 A 
ATOM      9  C   UNL A   1      39.520  25.607  28.518  1.00  0.00     0.014 A 
ATOM     10  C   UNL A   1      40.919  28.016  28.479  1.00  0.00     0.010 A 
ATOM     11  C   UNL A   1      39.346  26.529  29.555  1.00  0.00     0.010 A 
ATOM     12  C   UNL A   1      40.084  27.721  29.569  1.00  0.00    -0.014 A 
BRANCH  12  13
ATOM     13  C   UNL A   1      39.977  28.692  30.688  1.00  0.00     0.031 A 
ATOM     14  C   UNL A   1      40.906  28.626  31.868  1.00  0.00     0.074 A 
ATOM     15  C   UNL A   1      39.060  29.678  30.610  1.00  0.00     0.049 A 
ATOM     16  N   UNL A   1      40.971  29.415  32.911  1.00  0.00    -0.248 NA
ATOM     17  C   UNL A   1      41.887  27.530  31.887  1.00  0.00     0.031 C 
ATOM     18  C   UNL A   1      38.101  29.847  29.517  1.00  0.00     0.029 A 
ATOM     19  N   UNL A   1      38.805  30.735  31.444  1.00  0.00    -0.354 N 
ATOM     20  C   UNL A   1      41.979  28.902  33.717  1.00  0.00     0.074 A 
ATOM     21  C   UNL A   1      42.483  27.716  33.057  1.00  0.00     0.031 C 
ATOM     22  C   UNL A   1      37.407  30.977  29.713  1.00  0.00     0.029 A 
ATOM     23  C   UNL A   1      37.824  31.575  30.975  1.00  0.00     0.049 A 
ATOM     24  H   UNL A   1      39.277  30.879  32.295  1.00  0.00     0.167 HD
ATOM     25  C   UNL A   1      42.450  29.383  34.893  1.00  0.00     0.037 A 
ATOM     26  C   UNL A   1      37.309  32.701  31.502  1.00  0.00     0.037 A 
ATOM     27  C   UNL A   1      41.958  30.573  35.539  1.00  0.00     0.049 A 
ATOM     28  C   UNL A   1      37.833  33.203  32.814  1.00  0.00     0.074 A 
ATOM     29  C   UNL A   1      42.381  31.147  36.725  1.00  0.00     0.029 A 
ATOM     30  N   UNL A   1      40.934  31.372  35.052  1.00  0.00    -0.354 N 
ATOM     31  N   UNL A   1      38.789  32.708  33.561  1.00  0.00    -0.248 NA
ATOM     32  C   UNL A   1      37.204  34.413  33.360  1.00  0.00     0.031 C 
ATOM     33  C   UNL A   1      41.588  32.271  36.976  1.00  0.00     0.029 A 
ATOM     34  C   UNL A   1      40.703  32.426  35.921  1.00  0.00     0.049 A 
ATOM     35  H   UNL A   1      40.444  31.214  34.213  1.00  0.00     0.167 HD
ATOM     36  C   UNL A   1      38.887  33.550  34.659  1.00  0.00     0.074 A 
ATOM     37  C   UNL A   1      37.901  34.597  34.473  1.00  0.00     0.031 C 
ATOM     38  C   UNL A   1      39.719  33.461  35.724  1.00  0.00     0.037 A 
BRANCH  25  39
ATOM     39  C   UNL A   1      43.549  28.614  35.569  1.00  0.00     0.057 A 
ATOM     40  C   UNL A   1      44.892  28.875  35.269  1.00  0.00     0.134 A 
ATOM     41  C   UNL A   1      43.280  27.585  36.479  1.00  0.00     0.134 A 
ATOM     42  F   UNL A   1      45.221  29.842  34.399  1.00  0.00    -0.206 F 
ATOM     43  C   UNL A   1      45.927  28.137  35.845  1.00  0.00     0.040 A 
ATOM     44  C   UNL A   1      44.307  26.855  37.081  1.00  0.00     0.040 A 
ATOM     45  F   UNL A   1      42.015  27.292  36.820  1.00  0.00    -0.206 F 
ATOM     46  C   UNL A   1      45.636  27.126  36.759  1.00  0.00     0.006 A 
ENDBRANCH  25  39
BRANCH  26  47
ATOM     47  C   UNL A   1      36.253  33.428  30.759  1.00  0.00     0.057 A 
ATOM     48  C   UNL A   1      34.914  33.386  31.168  1.00  0.00     0.134 A 
ATOM     49  C   UNL A   1      36.548  34.121  29.580  1.00  0.00     0.134 A 
ATOM     50  F   UNL A   1      34.567  32.727  32.284  1.00  0.00    -0.206 F 
ATOM     51  C   UNL A   1      33.902  33.981  30.415  1.00  0.00     0.040 A 
ATOM     52  C   UNL A   1      35.549  34.741  28.830  1.00  0.00     0.040 A 
ATOM     53  F   UNL A   1      37.813  34.205  29.146  1.00  0.00    -0.206 F 
ATOM     54  C   UNL A   1      34.219  34.661  29.241  1.00  0.00     0.006 A 
ENDBRANCH  26  47
BRANCH  38  55
ATOM     55  C   UNL A   1      39.621  34.534  36.767  1.00  0.00     0.057 A 
ATOM     56  C   UNL A   1      40.306  35.745  36.608  1.00  0.00     0.134 A 
ATOM     57  C   UNL A   1      38.903  34.345  37.953  1.00  0.00     0.134 A 
ATOM     58  F   UNL A   1      41.018  35.984  35.497  1.00  0.00    -0.206 F 
ATOM     59  C   UNL A   1      40.289  36.727  37.599  1.00  0.00     0.040 A 
ATOM     60  C   UNL A   1      38.860  35.330  38.942  1.00  0.00     0.040 A 
ATOM     61  F   UNL A   1      38.216  33.211  38.160  1.00  0.00    -0.206 F 
ATOM     62  C   UNL A   1      39.562  36.522  38.770  1.00  0.00     0.006 A 
ENDBRANCH  38  55
ENDBRANCH  12  13
ENDBRANCH   5   7
ENDBRANCH   2   3
ENDBRANCH   1   2
BRANCH   1  63
ATOM     63  C   UNL A   1      36.885  21.996  25.577  1.00  0.00     0.117 C 
BRANCH  63  64
ATOM     64  N   UNL A   1      35.767  21.928  26.504  1.00  0.00    -0.356 N 
ATOM     65  C   UNL A   1      34.442  21.695  26.248  1.00  0.00     0.227 C 
ATOM     66  H   UNL A   1      35.995  22.073  27.450  1.00  0.00     0.163 HD
ATOM     67  O   UNL A   1      33.712  21.439  27.205  1.00  0.00    -0.275 OA
BRANCH  65  68
ATOM     68  C   UNL A   1      33.973  21.716  24.805  1.00  0.00     0.127 C 
ATOM     69  C   UNL A   1      33.481  23.105  24.304  1.00  0.00     0.127 C 
ATOM     70  C   UNL A   1      32.667  20.893  24.778  1.00  0.00     0.155 C 
ATOM     71  C   UNL A   1      32.007  22.782  23.960  1.00  0.00     0.155 C 
ATOM     72  C   UNL A   1      32.281  20.597  23.366  1.00  0.00     0.004 C 
ATOM     73  O   UNL A   1      31.685  21.920  25.082  1.00  0.00    -0.365 OA
ATOM     74  C   UNL A   1      31.853  21.761  22.864  1.00  0.00     0.004 C 
BRANCH  69  75
ATOM     75  C   UNL A   1      34.197  23.711  23.098  1.00  0.00     0.233 C 
ATOM     76  O   UNL A   1      34.958  23.053  22.380  1.00  0.00    -0.274 OA
ATOM     77  N   UNL A   1      33.915  24.969  22.666  1.00  0.00    -0.302 N 
ATOM     78  H   UNL A   1      34.176  25.183  21.741  1.00  0.00     0.172 HD
BRANCH  77  79
ATOM     79  C   UNL A   1      33.314  25.963  23.367  1.00  0.00     0.189 A 
ATOM     80  N   UNL A   1      33.827  26.735  24.282  1.00  0.00    -0.220 NA
ATOM     81  S   UNL A   1      31.695  26.265  22.917  1.00  0.00    -0.105 S 
ATOM     82  C   UNL A   1      32.845  27.594  24.743  1.00  0.00     0.084 A 
ATOM     83  C   UNL A   1      31.603  27.454  24.152  1.00  0.00     0.097 A 
BRANCH  82  84
ATOM     84  C   UNL A   1      33.130  28.607  25.737  1.00  0.00     0.001 A 
ATOM     85  C   UNL A   1      34.345  28.563  26.435  1.00  0.00     0.013 A 
ATOM     86  C   UNL A   1      32.211  29.631  26.001  1.00  0.00     0.013 A 
ATOM     87  C   UNL A   1      34.648  29.551  27.373  1.00  0.00     0.040 A 
ATOM     88  C   UNL A   1      32.510  30.608  26.952  1.00  0.00     0.040 A 
ATOM     89  C   UNL A   1      33.726  30.561  27.626  1.00  0.00     0.123 A 
ATOM     90  F   UNL A   1      34.014  31.498  28.538  1.00  0.00    -0.207 F 
ENDBRANCH  82  84
ENDBRANCH  77  79
ENDBRANCH  69  75
ENDBRANCH  65  68
ENDBRANCH  63  64
ENDBRANCH   1  63
TORSDOF 13
ENDMDL
