MODEL 1
REMARK VINA RESULT:     -12.9      0.000      0.000
REMARK SMILES C[C@@H](C(=O)NCCCNC(=O)c1ccc(-c2c3nc(c(-c4c(F)cccc4F)c4ccc([nH]4)c(-c4c(F)cccc4F)c4nc(c(-c5c(F)cccc5F)c5ccc2[nH]5)C=C4)C=C3)cc1)c1ccc(C[C@H]2CCCC2=O)cc1-c1ccc(F)cc1
REMARK SMILES IDX 6 1 5 2 3 3 4 4 2 6 1 7 66 8 67 9 78 10 68 11 77 12 69 13
REMARK SMILES IDX 79 14 80 15 85 16 81 17 84 18 82 19 83 20 70 21 71 22 72 23
REMARK SMILES IDX 75 24 73 25 74 26 76 27 7 28 8 29 9 30 10 31 11 33 12 34
REMARK SMILES IDX 13 35 65 36 14 37 64 38 15 39 16 40 17 41 58 42 18 43 63 44
REMARK SMILES IDX 57 45 59 46 19 47 62 48 56 49 55 50 20 52 46 53 29 54 45 55
REMARK SMILES IDX 30 56 33 57 44 58 60 59 31 60 32 61 43 63 61 64 34 65 21 66
REMARK SMILES IDX 22 67 27 68 23 69 24 70 26 71 28 72 25 73 47 74 48 75 53 76
REMARK SMILES IDX 49 77 50 78 52 79 54 80 51 81 35 82 36 83 41 84 37 85 38 86
REMARK SMILES IDX 40 87 42 88 39 89
REMARK H PARENT 5 5 9 32 59 51 33 62
REMARK Flexibility Score: inf
ROOT
ATOM      1  C   UNL A   1      31.093  31.188  25.427  1.00  0.00     0.117 C 
ENDROOT
BRANCH   1   2
ATOM      2  N   UNL A   1      32.302  30.391  25.461  1.00  0.00    -0.356 N 
ATOM      3  C   UNL A   1      32.445  29.036  25.501  1.00  0.00     0.227 C 
ATOM      4  O   UNL A   1      33.425  28.599  24.892  1.00  0.00    -0.274 OA
ATOM      5  H   UNL A   1      33.142  30.902  25.454  1.00  0.00     0.163 HD
BRANCH   3   6
ATOM      6  C   UNL A   1      31.389  28.119  26.140  1.00  0.00     0.106 C 
ATOM      7  C   UNL A   1      31.520  27.803  27.635  1.00  0.00     0.023 C 
BRANCH   6   8
ATOM      8  C   UNL A   1      31.179  26.776  25.415  1.00  0.00    -0.028 A 
ATOM      9  C   UNL A   1      31.724  25.645  26.066  1.00  0.00     0.005 A 
ATOM     10  C   UNL A   1      30.567  26.598  24.144  1.00  0.00    -0.014 A 
ATOM     11  C   UNL A   1      31.690  24.378  25.491  1.00  0.00     0.004 A 
ATOM     12  C   UNL A   1      30.579  25.304  23.571  1.00  0.00     0.012 A 
ATOM     13  C   UNL A   1      31.146  24.198  24.221  1.00  0.00    -0.047 A 
BRANCH  10  14
ATOM     14  C   UNL A   1      29.833  27.649  23.410  1.00  0.00    -0.018 A 
ATOM     15  C   UNL A   1      28.427  27.703  23.506  1.00  0.00     0.012 A 
ATOM     16  C   UNL A   1      30.474  28.613  22.616  1.00  0.00     0.012 A 
ATOM     17  C   UNL A   1      27.693  28.721  22.892  1.00  0.00     0.040 A 
ATOM     18  C   UNL A   1      29.743  29.643  22.014  1.00  0.00     0.040 A 
ATOM     19  C   UNL A   1      28.364  29.693  22.166  1.00  0.00     0.123 A 
ATOM     20  F   UNL A   1      27.672  30.691  21.602  1.00  0.00    -0.207 F 
ENDBRANCH  10  14
BRANCH  13  21
ATOM     21  C   UNL A   1      31.161  22.837  23.568  1.00  0.00     0.047 C 
BRANCH  21  22
ATOM     22  C   UNL A   1      32.467  22.428  22.876  1.00  0.00     0.060 C 
ATOM     23  C   UNL A   1      33.269  23.557  22.221  1.00  0.00     0.012 C 
ATOM     24  C   UNL A   1      33.479  21.839  23.833  1.00  0.00     0.136 C 
ATOM     25  C   UNL A   1      34.345  23.952  23.225  1.00  0.00     0.009 C 
ATOM     26  C   UNL A   1      34.740  22.658  23.921  1.00  0.00     0.076 C 
ATOM     27  O   UNL A   1      33.305  20.797  24.456  1.00  0.00    -0.299 OA
ENDBRANCH  21  22
ENDBRANCH  13  21
ENDBRANCH   6   8
ENDBRANCH   3   6
ENDBRANCH   1   2
BRANCH   1  28
ATOM     28  C   UNL A   1      31.035  32.241  26.528  1.00  0.00     0.042 C 
BRANCH  28  29
ATOM     29  C   UNL A   1      32.396  32.719  27.029  1.00  0.00     0.118 C 
BRANCH  29  30
ATOM     30  N   UNL A   1      32.365  34.077  27.551  1.00  0.00    -0.352 N 
ATOM     31  C   UNL A   1      33.118  34.686  28.521  1.00  0.00     0.251 C 
ATOM     32  H   UNL A   1      31.689  34.659  27.137  1.00  0.00     0.163 HD
ATOM     33  O   UNL A   1      32.794  35.806  28.916  1.00  0.00    -0.269 OA
BRANCH  31  34
ATOM     34  C   UNL A   1      34.297  34.019  29.117  1.00  0.00     0.039 A 
ATOM     35  C   UNL A   1      34.083  33.023  30.077  1.00  0.00     0.014 A 
ATOM     36  C   UNL A   1      35.602  34.396  28.790  1.00  0.00     0.014 A 
ATOM     37  C   UNL A   1      35.171  32.370  30.660  1.00  0.00     0.010 A 
ATOM     38  C   UNL A   1      36.685  33.693  29.315  1.00  0.00     0.010 A 
ATOM     39  C   UNL A   1      36.482  32.676  30.260  1.00  0.00    -0.014 A 
BRANCH  39  40
ATOM     40  C   UNL A   1      37.641  31.939  30.824  1.00  0.00     0.031 A 
ATOM     41  C   UNL A   1      38.129  32.232  32.216  1.00  0.00     0.074 A 
ATOM     42  C   UNL A   1      38.286  31.033  30.064  1.00  0.00     0.049 A 
ATOM     43  N   UNL A   1      39.144  31.716  32.863  1.00  0.00    -0.248 NA
ATOM     44  C   UNL A   1      37.395  33.259  32.973  1.00  0.00     0.031 C 
ATOM     45  C   UNL A   1      37.948  30.696  28.679  1.00  0.00     0.029 A 
ATOM     46  N   UNL A   1      39.366  30.234  30.346  1.00  0.00    -0.354 N 
ATOM     47  C   UNL A   1      39.176  32.358  34.094  1.00  0.00     0.074 A 
ATOM     48  C   UNL A   1      38.113  33.341  34.085  1.00  0.00     0.031 C 
ATOM     49  C   UNL A   1      38.787  29.744  28.241  1.00  0.00     0.029 A 
ATOM     50  C   UNL A   1      39.739  29.425  29.301  1.00  0.00     0.049 A 
ATOM     51  H   UNL A   1      39.829  30.241  31.214  1.00  0.00     0.167 HD
ATOM     52  C   UNL A   1      39.999  32.135  35.147  1.00  0.00     0.037 A 
ATOM     53  C   UNL A   1      40.737  28.526  29.206  1.00  0.00     0.037 A 
ATOM     54  C   UNL A   1      41.042  31.143  35.166  1.00  0.00     0.049 A 
ATOM     55  C   UNL A   1      41.625  28.282  30.393  1.00  0.00     0.074 A 
ATOM     56  C   UNL A   1      41.899  30.810  36.202  1.00  0.00     0.029 A 
ATOM     57  N   UNL A   1      41.369  30.322  34.098  1.00  0.00    -0.354 N 
ATOM     58  N   UNL A   1      41.604  28.857  31.572  1.00  0.00    -0.248 NA
ATOM     59  C   UNL A   1      42.668  27.258  30.242  1.00  0.00     0.031 C 
ATOM     60  C   UNL A   1      42.765  29.808  35.749  1.00  0.00     0.029 A 
ATOM     61  C   UNL A   1      42.421  29.490  34.445  1.00  0.00     0.049 A 
ATOM     62  H   UNL A   1      40.920  30.328  33.222  1.00  0.00     0.167 HD
ATOM     63  C   UNL A   1      42.613  28.250  32.308  1.00  0.00     0.074 A 
ATOM     64  C   UNL A   1      43.214  27.250  31.449  1.00  0.00     0.031 C 
ATOM     65  C   UNL A   1      43.007  28.499  33.580  1.00  0.00     0.037 A 
BRANCH  52  66
ATOM     66  C   UNL A   1      39.792  32.975  36.373  1.00  0.00     0.057 A 
ATOM     67  C   UNL A   1      40.501  34.168  36.574  1.00  0.00     0.134 A 
ATOM     68  C   UNL A   1      38.857  32.607  37.348  1.00  0.00     0.134 A 
ATOM     69  F   UNL A   1      41.419  34.571  35.683  1.00  0.00    -0.206 F 
ATOM     70  C   UNL A   1      40.305  34.950  37.713  1.00  0.00     0.040 A 
ATOM     71  C   UNL A   1      38.635  33.395  38.480  1.00  0.00     0.040 A 
ATOM     72  F   UNL A   1      38.141  31.481  37.216  1.00  0.00    -0.206 F 
ATOM     73  C   UNL A   1      39.365  34.567  38.667  1.00  0.00     0.006 A 
ENDBRANCH  52  66
BRANCH  53  74
ATOM     74  C   UNL A   1      40.931  27.765  27.947  1.00  0.00     0.057 A 
ATOM     75  C   UNL A   1      40.328  26.516  27.758  1.00  0.00     0.134 A 
ATOM     76  C   UNL A   1      41.722  28.266  26.906  1.00  0.00     0.134 A 
ATOM     77  F   UNL A   1      39.573  25.978  28.727  1.00  0.00    -0.206 F 
ATOM     78  C   UNL A   1      40.520  25.781  26.587  1.00  0.00     0.040 A 
ATOM     79  C   UNL A   1      41.904  27.552  25.721  1.00  0.00     0.040 A 
ATOM     80  F   UNL A   1      42.317  29.461  27.023  1.00  0.00    -0.206 F 
ATOM     81  C   UNL A   1      41.307  26.303  25.561  1.00  0.00     0.006 A 
ENDBRANCH  53  74
BRANCH  65  82
ATOM     82  C   UNL A   1      44.123  27.659  34.125  1.00  0.00     0.057 A 
ATOM     83  C   UNL A   1      45.458  28.081  34.072  1.00  0.00     0.134 A 
ATOM     84  C   UNL A   1      43.858  26.425  34.730  1.00  0.00     0.134 A 
ATOM     85  F   UNL A   1      45.779  29.248  33.492  1.00  0.00    -0.206 F 
ATOM     86  C   UNL A   1      46.492  27.294  34.581  1.00  0.00     0.040 A 
ATOM     87  C   UNL A   1      44.880  25.639  35.264  1.00  0.00     0.040 A 
ATOM     88  F   UNL A   1      42.600  25.965  34.819  1.00  0.00    -0.206 F 
ATOM     89  C   UNL A   1      46.203  26.071  35.183  1.00  0.00     0.006 A 
ENDBRANCH  65  82
ENDBRANCH  39  40
ENDBRANCH  31  34
ENDBRANCH  29  30
ENDBRANCH  28  29
ENDBRANCH   1  28
TORSDOF 14
ENDMDL
MODEL 2
REMARK VINA RESULT:     -12.8      0.354      6.046
REMARK SMILES C[C@@H](C(=O)NCCCNC(=O)c1ccc(-c2c3nc(c(-c4c(F)cccc4F)c4ccc([nH]4)c(-c4c(F)cccc4F)c4nc(c(-c5c(F)cccc5F)c5ccc2[nH]5)C=C4)C=C3)cc1)c1ccc(C[C@H]2CCCC2=O)cc1-c1ccc(F)cc1
REMARK SMILES IDX 6 1 5 2 3 3 4 4 2 6 1 7 66 8 67 9 78 10 68 11 77 12 69 13
REMARK SMILES IDX 79 14 80 15 85 16 81 17 84 18 82 19 83 20 70 21 71 22 72 23
REMARK SMILES IDX 75 24 73 25 74 26 76 27 7 28 8 29 9 30 10 31 11 33 12 34
REMARK SMILES IDX 13 35 65 36 14 37 64 38 15 39 16 40 17 41 58 42 18 43 63 44
REMARK SMILES IDX 57 45 59 46 19 47 62 48 56 49 55 50 20 52 46 53 29 54 45 55
REMARK SMILES IDX 30 56 33 57 44 58 60 59 31 60 32 61 43 63 61 64 34 65 21 66
REMARK SMILES IDX 22 67 27 68 23 69 24 70 26 71 28 72 25 73 47 74 48 75 53 76
REMARK SMILES IDX 49 77 50 78 52 79 54 80 51 81 35 82 36 83 41 84 37 85 38 86
REMARK SMILES IDX 40 87 42 88 39 89
REMARK H PARENT 5 5 9 32 59 51 33 62
REMARK Flexibility Score: inf
ROOT
ATOM      1  C   UNL A   1      31.029  31.219  25.437  1.00  0.00     0.117 C 
ENDROOT
BRANCH   1   2
ATOM      2  N   UNL A   1      32.253  30.444  25.435  1.00  0.00    -0.356 N 
ATOM      3  C   UNL A   1      32.421  29.092  25.469  1.00  0.00     0.227 C 
ATOM      4  O   UNL A   1      33.392  28.673  24.831  1.00  0.00    -0.274 OA
ATOM      5  H   UNL A   1      33.084  30.970  25.406  1.00  0.00     0.163 HD
BRANCH   3   6
ATOM      6  C   UNL A   1      31.401  28.155  26.134  1.00  0.00     0.106 C 
ATOM      7  C   UNL A   1      31.586  27.827  27.621  1.00  0.00     0.023 C 
BRANCH   6   8
ATOM      8  C   UNL A   1      31.184  26.815  25.405  1.00  0.00    -0.028 A 
ATOM      9  C   UNL A   1      31.720  25.679  26.053  1.00  0.00     0.005 A 
ATOM     10  C   UNL A   1      30.574  26.644  24.132  1.00  0.00    -0.014 A 
ATOM     11  C   UNL A   1      31.680  24.414  25.473  1.00  0.00     0.004 A 
ATOM     12  C   UNL A   1      30.580  25.352  23.554  1.00  0.00     0.012 A 
ATOM     13  C   UNL A   1      31.138  24.241  24.202  1.00  0.00    -0.047 A 
BRANCH  10  14
ATOM     14  C   UNL A   1      29.848  27.703  23.400  1.00  0.00    -0.018 A 
ATOM     15  C   UNL A   1      28.442  27.770  23.499  1.00  0.00     0.012 A 
ATOM     16  C   UNL A   1      30.495  28.660  22.603  1.00  0.00     0.012 A 
ATOM     17  C   UNL A   1      27.717  28.795  22.888  1.00  0.00     0.040 A 
ATOM     18  C   UNL A   1      29.773  29.697  22.003  1.00  0.00     0.040 A 
ATOM     19  C   UNL A   1      28.394  29.760  22.159  1.00  0.00     0.123 A 
ATOM     20  F   UNL A   1      27.711  30.765  21.596  1.00  0.00    -0.207 F 
ENDBRANCH  10  14
BRANCH  13  21
ATOM     21  C   UNL A   1      31.146  22.882  23.544  1.00  0.00     0.047 C 
BRANCH  21  22
ATOM     22  C   UNL A   1      32.442  22.479  22.829  1.00  0.00     0.060 C 
ATOM     23  C   UNL A   1      33.251  23.618  22.202  1.00  0.00     0.012 C 
ATOM     24  C   UNL A   1      33.454  21.849  23.759  1.00  0.00     0.136 C 
ATOM     25  C   UNL A   1      34.340  23.970  23.208  1.00  0.00     0.009 C 
ATOM     26  C   UNL A   1      34.726  22.651  23.861  1.00  0.00     0.076 C 
ATOM     27  O   UNL A   1      33.273  20.791  24.351  1.00  0.00    -0.299 OA
ENDBRANCH  21  22
ENDBRANCH  13  21
ENDBRANCH   6   8
ENDBRANCH   3   6
ENDBRANCH   1   2
BRANCH   1  28
ATOM     28  C   UNL A   1      31.024  32.334  26.476  1.00  0.00     0.042 C 
BRANCH  28  29
ATOM     29  C   UNL A   1      32.385  32.632  27.102  1.00  0.00     0.118 C 
BRANCH  29  30
ATOM     30  N   UNL A   1      32.525  34.017  27.529  1.00  0.00    -0.352 N 
ATOM     31  C   UNL A   1      33.369  34.597  28.438  1.00  0.00     0.251 C 
ATOM     32  H   UNL A   1      31.907  34.644  27.088  1.00  0.00     0.163 HD
ATOM     33  O   UNL A   1      33.187  35.772  28.760  1.00  0.00    -0.269 OA
BRANCH  31  34
ATOM     34  C   UNL A   1      34.481  33.840  29.054  1.00  0.00     0.039 A 
ATOM     35  C   UNL A   1      35.793  34.217  28.749  1.00  0.00     0.014 A 
ATOM     36  C   UNL A   1      34.253  32.735  29.879  1.00  0.00     0.014 A 
ATOM     37  C   UNL A   1      36.868  33.528  29.314  1.00  0.00     0.010 A 
ATOM     38  C   UNL A   1      35.323  32.096  30.502  1.00  0.00     0.010 A 
ATOM     39  C   UNL A   1      36.642  32.481  30.222  1.00  0.00    -0.014 A 
BRANCH  39  40
ATOM     40  C   UNL A   1      37.779  31.787  30.881  1.00  0.00     0.031 A 
ATOM     41  C   UNL A   1      38.542  30.713  30.155  1.00  0.00     0.074 A 
ATOM     42  C   UNL A   1      38.097  32.093  32.153  1.00  0.00     0.049 A 
ATOM     43  N   UNL A   1      39.537  29.975  30.580  1.00  0.00    -0.248 NA
ATOM     44  C   UNL A   1      38.115  30.409  28.780  1.00  0.00     0.031 C 
ATOM     45  C   UNL A   1      37.400  33.076  32.986  1.00  0.00     0.029 A 
ATOM     46  N   UNL A   1      39.083  31.603  32.971  1.00  0.00    -0.354 N 
ATOM     47  C   UNL A   1      39.848  29.119  29.532  1.00  0.00     0.074 A 
ATOM     48  C   UNL A   1      38.902  29.388  28.471  1.00  0.00     0.031 C 
ATOM     49  C   UNL A   1      37.995  33.134  34.188  1.00  0.00     0.029 A 
ATOM     50  C   UNL A   1      39.095  32.174  34.221  1.00  0.00     0.049 A 
ATOM     51  H   UNL A   1      39.722  30.910  32.691  1.00  0.00     0.167 HD
ATOM     52  C   UNL A   1      40.847  28.206  29.449  1.00  0.00     0.037 A 
ATOM     53  C   UNL A   1      39.900  31.949  35.276  1.00  0.00     0.037 A 
ATOM     54  C   UNL A   1      41.803  27.951  30.495  1.00  0.00     0.049 A 
ATOM     55  C   UNL A   1      41.012  30.945  35.155  1.00  0.00     0.074 A 
ATOM     56  C   UNL A   1      42.878  27.079  30.489  1.00  0.00     0.029 A 
ATOM     57  N   UNL A   1      41.800  28.572  31.734  1.00  0.00    -0.354 N 
ATOM     58  N   UNL A   1      41.330  30.185  34.134  1.00  0.00    -0.248 NA
ATOM     59  C   UNL A   1      41.884  30.777  36.325  1.00  0.00     0.031 C 
ATOM     60  C   UNL A   1      43.507  27.151  31.737  1.00  0.00     0.029 A 
ATOM     61  C   UNL A   1      42.847  28.095  32.505  1.00  0.00     0.049 A 
ATOM     62  H   UNL A   1      41.149  29.251  32.024  1.00  0.00     0.167 HD
ATOM     63  C   UNL A   1      42.449  29.466  34.532  1.00  0.00     0.074 A 
ATOM     64  C   UNL A   1      42.765  29.894  35.879  1.00  0.00     0.031 C 
ATOM     65  C   UNL A   1      43.150  28.533  33.844  1.00  0.00     0.037 A 
BRANCH  52  66
ATOM     66  C   UNL A   1      40.960  27.423  28.174  1.00  0.00     0.057 A 
ATOM     67  C   UNL A   1      40.286  26.207  27.996  1.00  0.00     0.134 A 
ATOM     68  C   UNL A   1      41.725  27.900  27.102  1.00  0.00     0.134 A 
ATOM     69  F   UNL A   1      39.545  25.689  28.988  1.00  0.00    -0.206 F 
ATOM     70  C   UNL A   1      40.389  25.482  26.808  1.00  0.00     0.040 A 
ATOM     71  C   UNL A   1      41.816  27.195  25.900  1.00  0.00     0.040 A 
ATOM     72  F   UNL A   1      42.392  29.060  27.203  1.00  0.00    -0.206 F 
ATOM     73  C   UNL A   1      41.151  25.979  25.754  1.00  0.00     0.006 A 
ENDBRANCH  52  66
BRANCH  53  74
ATOM     74  C   UNL A   1      39.703  32.712  36.533  1.00  0.00     0.057 A 
ATOM     75  C   UNL A   1      38.730  32.331  37.465  1.00  0.00     0.134 A 
ATOM     76  C   UNL A   1      40.478  33.839  36.833  1.00  0.00     0.134 A 
ATOM     77  F   UNL A   1      37.946  31.270  37.224  1.00  0.00    -0.206 F 
ATOM     78  C   UNL A   1      38.522  33.053  38.641  1.00  0.00     0.040 A 
ATOM     79  C   UNL A   1      40.296  34.557  38.015  1.00  0.00     0.040 A 
ATOM     80  F   UNL A   1      41.432  34.249  35.984  1.00  0.00    -0.206 F 
ATOM     81  C   UNL A   1      39.310  34.167  38.921  1.00  0.00     0.006 A 
ENDBRANCH  53  74
BRANCH  65  82
ATOM     82  C   UNL A   1      44.342  27.934  34.528  1.00  0.00     0.057 A 
ATOM     83  C   UNL A   1      45.614  28.513  34.436  1.00  0.00     0.134 A 
ATOM     84  C   UNL A   1      44.212  26.778  35.308  1.00  0.00     0.134 A 
ATOM     85  F   UNL A   1      45.807  29.614  33.693  1.00  0.00    -0.206 F 
ATOM     86  C   UNL A   1      46.719  27.950  35.075  1.00  0.00     0.040 A 
ATOM     87  C   UNL A   1      45.305  26.218  35.970  1.00  0.00     0.040 A 
ATOM     88  F   UNL A   1      43.019  26.177  35.442  1.00  0.00    -0.206 F 
ATOM     89  C   UNL A   1      46.565  26.802  35.849  1.00  0.00     0.006 A 
ENDBRANCH  65  82
ENDBRANCH  39  40
ENDBRANCH  31  34
ENDBRANCH  29  30
ENDBRANCH  28  29
ENDBRANCH   1  28
TORSDOF 14
ENDMDL
MODEL 3
REMARK VINA RESULT:     -12.7      4.986     10.221
REMARK SMILES C[C@@H](C(=O)NCCCNC(=O)c1ccc(-c2c3nc(c(-c4c(F)cccc4F)c4ccc([nH]4)c(-c4c(F)cccc4F)c4nc(c(-c5c(F)cccc5F)c5ccc2[nH]5)C=C4)C=C3)cc1)c1ccc(C[C@H]2CCCC2=O)cc1-c1ccc(F)cc1
REMARK SMILES IDX 6 1 5 2 3 3 4 4 2 6 1 7 66 8 67 9 78 10 68 11 77 12 69 13
REMARK SMILES IDX 79 14 80 15 85 16 81 17 84 18 82 19 83 20 70 21 71 22 72 23
REMARK SMILES IDX 75 24 73 25 74 26 76 27 7 28 8 29 9 30 10 31 11 33 12 34
REMARK SMILES IDX 13 35 65 36 14 37 64 38 15 39 16 40 17 41 58 42 18 43 63 44
REMARK SMILES IDX 57 45 59 46 19 47 62 48 56 49 55 50 20 52 46 53 29 54 45 55
REMARK SMILES IDX 30 56 33 57 44 58 60 59 31 60 32 61 43 63 61 64 34 65 21 66
REMARK SMILES IDX 22 67 27 68 23 69 24 70 26 71 28 72 25 73 47 74 48 75 53 76
REMARK SMILES IDX 49 77 50 78 52 79 54 80 51 81 35 82 36 83 41 84 37 85 38 86
REMARK SMILES IDX 40 87 42 88 39 89
REMARK H PARENT 5 5 9 32 59 51 33 62
REMARK Flexibility Score: inf
ROOT
ATOM      1  C   UNL A   1      36.616  19.679  25.001  1.00  0.00     0.117 C 
ENDROOT
BRANCH   1   2
ATOM      2  N   UNL A   1      36.512  20.951  25.686  1.00  0.00    -0.356 N 
ATOM      3  C   UNL A   1      35.796  22.060  25.347  1.00  0.00     0.227 C 
ATOM      4  O   UNL A   1      35.344  22.699  26.301  1.00  0.00    -0.274 OA
ATOM      5  H   UNL A   1      37.033  21.025  26.516  1.00  0.00     0.163 HD
BRANCH   3   6
ATOM      6  C   UNL A   1      35.464  22.407  23.887  1.00  0.00     0.106 C 
ATOM      7  C   UNL A   1      36.442  23.304  23.118  1.00  0.00     0.023 C 
BRANCH   6   8
ATOM      8  C   UNL A   1      34.055  22.991  23.667  1.00  0.00    -0.028 A 
ATOM      9  C   UNL A   1      34.014  24.366  23.342  1.00  0.00     0.005 A 
ATOM     10  C   UNL A   1      32.825  22.297  23.836  1.00  0.00    -0.014 A 
ATOM     11  C   UNL A   1      32.811  25.053  23.201  1.00  0.00     0.004 A 
ATOM     12  C   UNL A   1      31.621  23.031  23.720  1.00  0.00     0.012 A 
ATOM     13  C   UNL A   1      31.600  24.400  23.420  1.00  0.00    -0.047 A 
BRANCH  10  14
ATOM     14  C   UNL A   1      32.705  20.838  24.036  1.00  0.00    -0.018 A 
ATOM     15  C   UNL A   1      32.400  20.014  22.931  1.00  0.00     0.012 A 
ATOM     16  C   UNL A   1      32.887  20.222  25.283  1.00  0.00     0.012 A 
ATOM     17  C   UNL A   1      32.349  18.624  23.052  1.00  0.00     0.040 A 
ATOM     18  C   UNL A   1      32.852  18.828  25.404  1.00  0.00     0.040 A 
ATOM     19  C   UNL A   1      32.594  18.043  24.287  1.00  0.00     0.123 A 
ATOM     20  F   UNL A   1      32.579  16.709  24.406  1.00  0.00    -0.207 F 
ENDBRANCH  10  14
BRANCH  13  21
ATOM     21  C   UNL A   1      30.296  25.155  23.328  1.00  0.00     0.047 C 
BRANCH  21  22
ATOM     22  C   UNL A   1      29.894  25.975  24.560  1.00  0.00     0.060 C 
ATOM     23  C   UNL A   1      30.262  25.377  25.921  1.00  0.00     0.012 C 
ATOM     24  C   UNL A   1      30.577  27.324  24.616  1.00  0.00     0.136 C 
ATOM     25  C   UNL A   1      31.562  26.048  26.344  1.00  0.00     0.009 C 
ATOM     26  C   UNL A   1      31.467  27.474  25.821  1.00  0.00     0.076 C 
ATOM     27  O   UNL A   1      30.410  28.209  23.784  1.00  0.00    -0.299 OA
ENDBRANCH  21  22
ENDBRANCH  13  21
ENDBRANCH   6   8
ENDBRANCH   3   6
ENDBRANCH   1   2
BRANCH   1  28
ATOM     28  C   UNL A   1      38.055  19.271  24.704  1.00  0.00     0.042 C 
BRANCH  28  29
ATOM     29  C   UNL A   1      39.075  19.714  25.751  1.00  0.00     0.118 C 
BRANCH  29  30
ATOM     30  N   UNL A   1      40.247  18.854  25.803  1.00  0.00    -0.352 N 
ATOM     31  C   UNL A   1      41.571  19.147  26.000  1.00  0.00     0.251 C 
ATOM     32  H   UNL A   1      40.057  17.896  25.676  1.00  0.00     0.163 HD
ATOM     33  O   UNL A   1      42.412  18.263  25.832  1.00  0.00    -0.269 OA
BRANCH  31  34
ATOM     34  C   UNL A   1      42.013  20.505  26.389  1.00  0.00     0.039 A 
ATOM     35  C   UNL A   1      42.295  21.428  25.376  1.00  0.00     0.014 A 
ATOM     36  C   UNL A   1      42.207  20.863  27.725  1.00  0.00     0.014 A 
ATOM     37  C   UNL A   1      42.711  22.720  25.705  1.00  0.00     0.010 A 
ATOM     38  C   UNL A   1      42.550  22.174  28.055  1.00  0.00     0.010 A 
ATOM     39  C   UNL A   1      42.811  23.114  27.048  1.00  0.00    -0.014 A 
BRANCH  39  40
ATOM     40  C   UNL A   1      43.188  24.506  27.406  1.00  0.00     0.031 A 
ATOM     41  C   UNL A   1      44.624  24.947  27.351  1.00  0.00     0.074 A 
ATOM     42  C   UNL A   1      42.238  25.364  27.827  1.00  0.00     0.049 A 
ATOM     43  N   UNL A   1      45.145  26.109  27.660  1.00  0.00    -0.248 NA
ATOM     44  C   UNL A   1      45.610  23.945  26.916  1.00  0.00     0.031 C 
ATOM     45  C   UNL A   1      40.816  25.044  27.978  1.00  0.00     0.029 A 
ATOM     46  N   UNL A   1      42.326  26.678  28.210  1.00  0.00    -0.354 N 
ATOM     47  C   UNL A   1      46.514  25.974  27.465  1.00  0.00     0.074 A 
ATOM     48  C   UNL A   1      46.751  24.604  27.065  1.00  0.00     0.031 C 
ATOM     49  C   UNL A   1      40.163  26.138  28.399  1.00  0.00     0.029 A 
ATOM     50  C   UNL A   1      41.120  27.226  28.575  1.00  0.00     0.049 A 
ATOM     51  H   UNL A   1      43.171  27.181  28.224  1.00  0.00     0.167 HD
ATOM     52  C   UNL A   1      47.484  26.912  27.585  1.00  0.00     0.037 A 
ATOM     53  C   UNL A   1      40.818  28.466  29.004  1.00  0.00     0.037 A 
ATOM     54  C   UNL A   1      47.249  28.281  27.962  1.00  0.00     0.049 A 
ATOM     55  C   UNL A   1      41.909  29.495  29.112  1.00  0.00     0.074 A 
ATOM     56  C   UNL A   1      48.161  29.318  28.067  1.00  0.00     0.029 A 
ATOM     57  N   UNL A   1      46.009  28.805  28.294  1.00  0.00    -0.354 N 
ATOM     58  N   UNL A   1      43.191  29.367  28.866  1.00  0.00    -0.248 NA
ATOM     59  C   UNL A   1      41.510  30.841  29.544  1.00  0.00     0.031 C 
ATOM     60  C   UNL A   1      47.476  30.462  28.492  1.00  0.00     0.029 A 
ATOM     61  C   UNL A   1      46.133  30.147  28.614  1.00  0.00     0.049 A 
ATOM     62  H   UNL A   1      45.165  28.299  28.301  1.00  0.00     0.167 HD
ATOM     63  C   UNL A   1      43.747  30.619  29.092  1.00  0.00     0.074 A 
ATOM     64  C   UNL A   1      42.660  31.496  29.477  1.00  0.00     0.031 C 
ATOM     65  C   UNL A   1      45.041  31.008  28.993  1.00  0.00     0.037 A 
BRANCH  52  66
ATOM     66  C   UNL A   1      48.894  26.486  27.291  1.00  0.00     0.057 A 
ATOM     67  C   UNL A   1      49.730  25.975  28.293  1.00  0.00     0.134 A 
ATOM     68  C   UNL A   1      49.411  26.559  25.993  1.00  0.00     0.134 A 
ATOM     69  F   UNL A   1      49.299  25.889  29.561  1.00  0.00    -0.206 F 
ATOM     70  C   UNL A   1      51.039  25.576  28.018  1.00  0.00     0.040 A 
ATOM     71  C   UNL A   1      50.711  26.140  25.700  1.00  0.00     0.040 A 
ATOM     72  F   UNL A   1      48.663  27.034  24.985  1.00  0.00    -0.206 F 
ATOM     73  C   UNL A   1      51.530  25.652  26.717  1.00  0.00     0.006 A 
ENDBRANCH  52  66
BRANCH  53  74
ATOM     74  C   UNL A   1      39.415  28.814  29.337  1.00  0.00     0.057 A 
ATOM     75  C   UNL A   1      38.916  28.640  30.634  1.00  0.00     0.134 A 
ATOM     76  C   UNL A   1      38.540  29.323  28.371  1.00  0.00     0.134 A 
ATOM     77  F   UNL A   1      39.703  28.140  31.597  1.00  0.00    -0.206 F 
ATOM     78  C   UNL A   1      37.592  28.944  30.954  1.00  0.00     0.040 A 
ATOM     79  C   UNL A   1      37.221  29.652  28.682  1.00  0.00     0.040 A 
ATOM     80  F   UNL A   1      38.962  29.520  27.113  1.00  0.00    -0.206 F 
ATOM     81  C   UNL A   1      36.741  29.457  29.976  1.00  0.00     0.006 A 
ENDBRANCH  53  74
BRANCH  65  82
ATOM     82  C   UNL A   1      45.345  32.447  29.279  1.00  0.00     0.057 A 
ATOM     83  C   UNL A   1      45.714  32.884  30.557  1.00  0.00     0.134 A 
ATOM     84  C   UNL A   1      45.292  33.405  28.258  1.00  0.00     0.134 A 
ATOM     85  F   UNL A   1      45.770  32.018  31.581  1.00  0.00    -0.206 F 
ATOM     86  C   UNL A   1      45.995  34.226  30.817  1.00  0.00     0.040 A 
ATOM     87  C   UNL A   1      45.593  34.745  28.499  1.00  0.00     0.040 A 
ATOM     88  F   UNL A   1      44.952  33.051  27.009  1.00  0.00    -0.206 F 
ATOM     89  C   UNL A   1      45.940  35.160  29.784  1.00  0.00     0.006 A 
ENDBRANCH  65  82
ENDBRANCH  39  40
ENDBRANCH  31  34
ENDBRANCH  29  30
ENDBRANCH  28  29
ENDBRANCH   1  28
TORSDOF 14
ENDMDL
