MODEL 1
REMARK VINA RESULT:     -13.3      0.000      0.000
REMARK SMILES COc1cc(Cl)c(C)cc1N1C(=O)C[C@H](Nc2cc(C(=O)NCCCNC(=O)c3ccc(-c4c5nc(c(-c6c(F)cccc6F)c6ccc([nH]6)c(-c6c(F)cccc6F)c6nc(c(-c7c(F)cccc7F)c7ccc4[nH]7)C=C6)C=C5)cc3)ccc2C)C1=O
REMARK SMILES IDX 23 1 22 2 20 3 21 4 19 6 17 7 18 8 85 9 84 10 86 11 83 12
REMARK SMILES IDX 16 13 15 15 11 16 12 17 87 18 13 19 14 20 88 21 10 22 3 23
REMARK SMILES IDX 4 24 5 25 9 26 6 27 7 28 8 29 2 30 1 31 24 32 25 33 26 34
REMARK SMILES IDX 27 35 28 37 29 38 30 39 82 40 31 41 81 42 32 43 33 44 34 45
REMARK SMILES IDX 75 46 35 47 80 48 74 49 76 50 36 51 79 52 73 53 72 54 37 56
REMARK SMILES IDX 63 57 46 58 62 59 47 60 50 61 61 62 77 63 48 64 49 65 60 67
REMARK SMILES IDX 78 68 51 69 38 70 39 71 44 72 40 73 41 74 43 75 45 76 42 77
REMARK SMILES IDX 64 78 65 79 70 80 66 81 67 82 69 83 71 84 68 85 52 86 53 87
REMARK SMILES IDX 58 88 54 89 55 90 57 91 59 92 56 93
REMARK H PARENT 22 5 16 14 26 36 76 55 50 66
REMARK Flexibility Score: inf
ROOT
ATOM      1  C   UNL A   1      33.684  29.006  27.149  1.00  0.00     0.118 C 
ENDROOT
BRANCH   1   2
ATOM      2  N   UNL A   1      34.140  28.878  25.763  1.00  0.00    -0.352 N 
ATOM      3  C   UNL A   1      33.510  28.524  24.585  1.00  0.00     0.251 C 
ATOM      4  O   UNL A   1      34.187  28.480  23.558  1.00  0.00    -0.269 OA
ATOM      5  H   UNL A   1      35.093  29.089  25.646  1.00  0.00     0.163 HD
BRANCH   3   6
ATOM      6  C   UNL A   1      32.079  28.121  24.520  1.00  0.00     0.041 A 
ATOM      7  C   UNL A   1      30.381  26.440  24.925  1.00  0.00     0.038 A 
ATOM      8  C   UNL A   1      31.569  27.074  25.278  1.00  0.00     0.039 A 
ATOM      9  C   UNL A   1      29.520  27.097  24.031  1.00  0.00    -0.028 A 
ATOM     10  C   UNL A   1      29.927  28.303  23.437  1.00  0.00     0.006 A 
ATOM     11  C   UNL A   1      28.119  26.606  23.777  1.00  0.00     0.046 C 
ATOM     12  C   UNL A   1      31.224  28.782  23.634  1.00  0.00     0.014 A 
BRANCH   7  13
ATOM     13  N   UNL A   1      30.087  25.165  25.372  1.00  0.00    -0.373 N 
ATOM     14  H   UNL A   1      29.395  25.078  26.068  1.00  0.00     0.161 HD
BRANCH  13  15
ATOM     15  C   UNL A   1      30.715  23.939  24.897  1.00  0.00     0.179 C 
ATOM     16  N   UNL A   1      32.973  23.361  24.657  1.00  0.00    -0.245 N 
ATOM     17  C   UNL A   1      32.563  23.727  23.399  1.00  0.00     0.236 C 
ATOM     18  C   UNL A   1      32.007  23.562  25.614  1.00  0.00     0.256 C 
ATOM     19  O   UNL A   1      33.195  23.684  22.362  1.00  0.00    -0.274 OA
ATOM     20  C   UNL A   1      31.136  24.167  23.458  1.00  0.00     0.136 C 
ATOM     21  O   UNL A   1      32.135  23.476  26.830  1.00  0.00    -0.272 OA
BRANCH  16  22
ATOM     22  C   UNL A   1      34.237  22.778  24.894  1.00  0.00     0.094 A 
ATOM     23  C   UNL A   1      34.466  21.407  24.699  1.00  0.00     0.144 A 
ATOM     24  C   UNL A   1      35.745  20.874  24.884  1.00  0.00     0.069 A 
ATOM     25  C   UNL A   1      36.806  21.701  25.264  1.00  0.00     0.047 A 
ATOM     26  C   UNL A   1      35.315  23.599  25.266  1.00  0.00     0.035 A 
ATOM     27  Cl  UNL A   1      38.370  20.988  25.439  1.00  0.00    -0.084 Cl
ATOM     28  C   UNL A   1      36.600  23.070  25.482  1.00  0.00    -0.030 A 
ATOM     29  C   UNL A   1      37.703  23.981  25.945  1.00  0.00     0.046 C 
BRANCH  23  30
ATOM     30  O   UNL A   1      33.485  20.530  24.312  1.00  0.00    -0.495 OA
ATOM     31  C   UNL A   1      32.942  19.800  25.412  1.00  0.00     0.278 C 
ENDBRANCH  23  30
ENDBRANCH  16  22
ENDBRANCH  13  15
ENDBRANCH   7  13
ENDBRANCH   3   6
ENDBRANCH   1   2
BRANCH   1  32
ATOM     32  C   UNL A   1      33.204  30.393  27.527  1.00  0.00     0.042 C 
BRANCH  32  33
ATOM     33  C   UNL A   1      34.290  31.439  27.383  1.00  0.00     0.118 C 
BRANCH  33  34
ATOM     34  N   UNL A   1      34.836  31.973  28.639  1.00  0.00    -0.352 N 
ATOM     35  C   UNL A   1      35.817  31.430  29.466  1.00  0.00     0.251 C 
ATOM     36  H   UNL A   1      34.456  32.832  28.936  1.00  0.00     0.163 HD
ATOM     37  O   UNL A   1      36.244  32.059  30.429  1.00  0.00    -0.269 OA
BRANCH  35  38
ATOM     38  C   UNL A   1      36.462  30.148  29.078  1.00  0.00     0.039 A 
ATOM     39  C   UNL A   1      36.732  29.245  30.110  1.00  0.00     0.014 A 
ATOM     40  C   UNL A   1      37.199  30.116  27.906  1.00  0.00     0.014 A 
ATOM     41  C   UNL A   1      37.978  28.635  30.144  1.00  0.00     0.010 A 
ATOM     42  C   UNL A   1      38.494  29.669  28.011  1.00  0.00     0.010 A 
ATOM     43  C   UNL A   1      38.900  28.998  29.167  1.00  0.00    -0.014 A 
BRANCH  43  44
ATOM     44  C   UNL A   1      40.310  28.677  29.231  1.00  0.00     0.031 A 
ATOM     45  C   UNL A   1      40.704  27.372  28.684  1.00  0.00     0.074 A 
ATOM     46  C   UNL A   1      41.206  29.559  29.725  1.00  0.00     0.049 A 
ATOM     47  N   UNL A   1      41.676  26.663  29.127  1.00  0.00    -0.248 NA
ATOM     48  C   UNL A   1      39.942  26.715  27.629  1.00  0.00     0.031 C 
ATOM     49  C   UNL A   1      42.662  29.477  29.682  1.00  0.00     0.029 A 
ATOM     50  N   UNL A   1      40.949  30.663  30.539  1.00  0.00    -0.354 N 
ATOM     51  C   UNL A   1      41.860  25.623  28.241  1.00  0.00     0.074 A 
ATOM     52  C   UNL A   1      40.684  25.629  27.410  1.00  0.00     0.031 C 
ATOM     53  C   UNL A   1      43.174  30.290  30.625  1.00  0.00     0.029 A 
ATOM     54  C   UNL A   1      42.065  30.834  31.388  1.00  0.00     0.049 A 
ATOM     55  H   UNL A   1      40.139  31.223  30.524  1.00  0.00     0.167 HD
ATOM     56  C   UNL A   1      43.071  24.999  28.218  1.00  0.00     0.037 A 
ATOM     57  C   UNL A   1      41.923  30.744  32.746  1.00  0.00     0.037 A 
ATOM     58  C   UNL A   1      43.924  25.544  29.282  1.00  0.00     0.049 A 
ATOM     59  C   UNL A   1      42.586  29.508  33.302  1.00  0.00     0.074 A 
ATOM     60  C   UNL A   1      44.877  26.551  29.266  1.00  0.00     0.029 A 
ATOM     61  N   UNL A   1      43.567  25.363  30.618  1.00  0.00    -0.354 N 
ATOM     62  N   UNL A   1      42.942  28.488  32.569  1.00  0.00    -0.248 NA
ATOM     63  C   UNL A   1      42.906  29.326  34.713  1.00  0.00     0.031 C 
ATOM     64  C   UNL A   1      45.021  27.036  30.592  1.00  0.00     0.029 A 
ATOM     65  C   UNL A   1      44.189  26.304  31.422  1.00  0.00     0.049 A 
ATOM     66  H   UNL A   1      42.959  24.662  30.944  1.00  0.00     0.167 HD
ATOM     67  C   UNL A   1      43.513  27.532  33.363  1.00  0.00     0.074 A 
ATOM     68  C   UNL A   1      43.487  28.115  34.694  1.00  0.00     0.031 C 
ATOM     69  C   UNL A   1      43.961  26.341  32.863  1.00  0.00     0.037 A 
BRANCH  56  70
ATOM     70  C   UNL A   1      43.591  24.187  27.046  1.00  0.00     0.057 A 
ATOM     71  C   UNL A   1      44.205  24.833  25.955  1.00  0.00     0.134 A 
ATOM     72  C   UNL A   1      43.470  22.794  26.883  1.00  0.00     0.134 A 
ATOM     73  F   UNL A   1      44.489  26.142  25.981  1.00  0.00    -0.206 F 
ATOM     74  C   UNL A   1      44.563  24.172  24.771  1.00  0.00     0.040 A 
ATOM     75  C   UNL A   1      43.782  22.124  25.689  1.00  0.00     0.040 A 
ATOM     76  F   UNL A   1      43.104  21.988  27.883  1.00  0.00    -0.206 F 
ATOM     77  C   UNL A   1      44.323  22.817  24.620  1.00  0.00     0.006 A 
ENDBRANCH  56  70
BRANCH  57  78
ATOM     78  C   UNL A   1      40.626  31.326  33.202  1.00  0.00     0.057 A 
ATOM     79  C   UNL A   1      39.650  30.394  33.607  1.00  0.00     0.134 A 
ATOM     80  C   UNL A   1      40.589  32.589  33.794  1.00  0.00     0.134 A 
ATOM     81  F   UNL A   1      39.577  29.194  33.009  1.00  0.00    -0.206 F 
ATOM     82  C   UNL A   1      38.897  30.594  34.763  1.00  0.00     0.040 A 
ATOM     83  C   UNL A   1      39.793  32.818  34.919  1.00  0.00     0.040 A 
ATOM     84  F   UNL A   1      41.429  33.557  33.401  1.00  0.00    -0.206 F 
ATOM     85  C   UNL A   1      39.021  31.789  35.461  1.00  0.00     0.006 A 
ENDBRANCH  57  78
BRANCH  69  86
ATOM     86  C   UNL A   1      44.355  25.155  33.708  1.00  0.00     0.057 A 
ATOM     87  C   UNL A   1      43.490  24.497  34.594  1.00  0.00     0.134 A 
ATOM     88  C   UNL A   1      45.627  24.558  33.565  1.00  0.00     0.134 A 
ATOM     89  F   UNL A   1      42.200  24.842  34.707  1.00  0.00    -0.206 F 
ATOM     90  C   UNL A   1      43.895  23.408  35.373  1.00  0.00     0.040 A 
ATOM     91  C   UNL A   1      46.018  23.425  34.281  1.00  0.00     0.040 A 
ATOM     92  F   UNL A   1      46.543  25.033  32.708  1.00  0.00    -0.206 F 
ATOM     93  C   UNL A   1      45.163  22.865  35.216  1.00  0.00     0.006 A 
ENDBRANCH  69  86
ENDBRANCH  43  44
ENDBRANCH  35  38
ENDBRANCH  33  34
ENDBRANCH  32  33
ENDBRANCH   1  32
TORSDOF 14
ENDMDL
MODEL 2
REMARK VINA RESULT:     -13.3      1.213      1.637
REMARK SMILES COc1cc(Cl)c(C)cc1N1C(=O)C[C@H](Nc2cc(C(=O)NCCCNC(=O)c3ccc(-c4c5nc(c(-c6c(F)cccc6F)c6ccc([nH]6)c(-c6c(F)cccc6F)c6nc(c(-c7c(F)cccc7F)c7ccc4[nH]7)C=C6)C=C5)cc3)ccc2C)C1=O
REMARK SMILES IDX 23 1 22 2 20 3 21 4 19 6 17 7 18 8 85 9 84 10 86 11 83 12
REMARK SMILES IDX 16 13 15 15 11 16 12 17 87 18 13 19 14 20 88 21 10 22 3 23
REMARK SMILES IDX 4 24 5 25 9 26 6 27 7 28 8 29 2 30 1 31 24 32 25 33 26 34
REMARK SMILES IDX 27 35 28 37 29 38 30 39 82 40 31 41 81 42 32 43 33 44 34 45
REMARK SMILES IDX 75 46 35 47 80 48 74 49 76 50 36 51 79 52 73 53 72 54 37 56
REMARK SMILES IDX 63 57 46 58 62 59 47 60 50 61 61 62 77 63 48 64 49 65 60 67
REMARK SMILES IDX 78 68 51 69 38 70 39 71 44 72 40 73 41 74 43 75 45 76 42 77
REMARK SMILES IDX 64 78 65 79 70 80 66 81 67 82 69 83 71 84 68 85 52 86 53 87
REMARK SMILES IDX 58 88 54 89 55 90 57 91 59 92 56 93
REMARK H PARENT 22 5 16 14 26 36 76 55 50 66
REMARK Flexibility Score: inf
ROOT
ATOM      1  C   UNL A   1      32.842  30.583  26.592  1.00  0.00     0.118 C 
ENDROOT
BRANCH   1   2
ATOM      2  N   UNL A   1      33.595  29.726  25.674  1.00  0.00    -0.352 N 
ATOM      3  C   UNL A   1      33.236  28.694  24.829  1.00  0.00     0.251 C 
ATOM      4  O   UNL A   1      34.127  28.134  24.188  1.00  0.00    -0.269 OA
ATOM      5  H   UNL A   1      34.557  29.927  25.655  1.00  0.00     0.163 HD
BRANCH   3   6
ATOM      6  C   UNL A   1      31.843  28.182  24.719  1.00  0.00     0.041 A 
ATOM      7  C   UNL A   1      30.252  26.402  25.137  1.00  0.00     0.038 A 
ATOM      8  C   UNL A   1      31.372  27.140  25.509  1.00  0.00     0.039 A 
ATOM      9  C   UNL A   1      29.393  26.946  24.168  1.00  0.00    -0.028 A 
ATOM     10  C   UNL A   1      29.742  28.147  23.527  1.00  0.00     0.006 A 
ATOM     11  C   UNL A   1      28.045  26.339  23.876  1.00  0.00     0.046 C 
ATOM     12  C   UNL A   1      30.989  28.730  23.758  1.00  0.00     0.014 A 
BRANCH   7  13
ATOM     13  N   UNL A   1      30.028  25.134  25.640  1.00  0.00    -0.373 N 
ATOM     14  H   UNL A   1      29.390  25.049  26.385  1.00  0.00     0.161 HD
BRANCH  13  15
ATOM     15  C   UNL A   1      30.658  23.912  25.157  1.00  0.00     0.179 C 
ATOM     16  N   UNL A   1      32.914  23.364  24.845  1.00  0.00    -0.245 N 
ATOM     17  C   UNL A   1      32.455  23.710  23.598  1.00  0.00     0.236 C 
ATOM     18  C   UNL A   1      31.978  23.561  25.832  1.00  0.00     0.256 C 
ATOM     19  O   UNL A   1      33.052  23.664  22.539  1.00  0.00    -0.274 OA
ATOM     20  C   UNL A   1      31.025  24.129  23.701  1.00  0.00     0.136 C 
ATOM     21  O   UNL A   1      32.150  23.492  27.044  1.00  0.00    -0.272 OA
BRANCH  16  22
ATOM     22  C   UNL A   1      34.194  22.802  25.044  1.00  0.00     0.094 A 
ATOM     23  C   UNL A   1      34.455  21.449  24.781  1.00  0.00     0.144 A 
ATOM     24  C   UNL A   1      35.748  20.939  24.931  1.00  0.00     0.069 A 
ATOM     25  C   UNL A   1      36.791  21.773  25.342  1.00  0.00     0.047 A 
ATOM     26  C   UNL A   1      35.255  23.631  25.446  1.00  0.00     0.035 A 
ATOM     27  Cl  UNL A   1      38.374  21.092  25.470  1.00  0.00    -0.084 Cl
ATOM     28  C   UNL A   1      36.555  23.125  25.627  1.00  0.00    -0.030 A 
ATOM     29  C   UNL A   1      37.639  24.040  26.125  1.00  0.00     0.046 C 
BRANCH  23  30
ATOM     30  O   UNL A   1      33.492  20.566  24.360  1.00  0.00    -0.495 OA
ATOM     31  C   UNL A   1      33.844  19.208  24.627  1.00  0.00     0.278 C 
ENDBRANCH  23  30
ENDBRANCH  16  22
ENDBRANCH  13  15
ENDBRANCH   7  13
ENDBRANCH   3   6
ENDBRANCH   1   2
BRANCH   1  32
ATOM     32  C   UNL A   1      33.665  31.170  27.722  1.00  0.00     0.042 C 
BRANCH  32  33
ATOM     33  C   UNL A   1      35.129  30.793  27.626  1.00  0.00     0.118 C 
BRANCH  33  34
ATOM     34  N   UNL A   1      36.018  31.418  28.616  1.00  0.00    -0.352 N 
ATOM     35  C   UNL A   1      37.165  30.899  29.213  1.00  0.00     0.251 C 
ATOM     36  H   UNL A   1      35.767  32.329  28.896  1.00  0.00     0.163 HD
ATOM     37  O   UNL A   1      37.862  31.595  29.943  1.00  0.00    -0.269 OA
BRANCH  35  38
ATOM     38  C   UNL A   1      37.628  29.541  28.826  1.00  0.00     0.039 A 
ATOM     39  C   UNL A   1      37.826  28.627  29.866  1.00  0.00     0.014 A 
ATOM     40  C   UNL A   1      38.307  29.398  27.627  1.00  0.00     0.014 A 
ATOM     41  C   UNL A   1      38.987  27.867  29.864  1.00  0.00     0.010 A 
ATOM     42  C   UNL A   1      39.539  28.794  27.692  1.00  0.00     0.010 A 
ATOM     43  C   UNL A   1      39.906  28.096  28.846  1.00  0.00    -0.014 A 
BRANCH  43  44
ATOM     44  C   UNL A   1      41.267  27.602  28.861  1.00  0.00     0.031 A 
ATOM     45  C   UNL A   1      41.462  26.221  28.401  1.00  0.00     0.074 A 
ATOM     46  C   UNL A   1      42.294  28.395  29.236  1.00  0.00     0.049 A 
ATOM     47  N   UNL A   1      42.364  25.427  28.848  1.00  0.00    -0.248 NA
ATOM     48  C   UNL A   1      40.560  25.592  27.443  1.00  0.00     0.031 C 
ATOM     49  C   UNL A   1      43.724  28.125  29.124  1.00  0.00     0.029 A 
ATOM     50  N   UNL A   1      42.227  29.580  29.971  1.00  0.00    -0.354 N 
ATOM     51  C   UNL A   1      42.363  24.310  28.040  1.00  0.00     0.074 A 
ATOM     52  C   UNL A   1      41.147  24.407  27.274  1.00  0.00     0.031 C 
ATOM     53  C   UNL A   1      44.390  28.932  29.970  1.00  0.00     0.029 A 
ATOM     54  C   UNL A   1      43.406  29.667  30.744  1.00  0.00     0.049 A 
ATOM     55  H   UNL A   1      41.493  30.236  29.953  1.00  0.00     0.167 HD
ATOM     56  C   UNL A   1      43.483  23.536  28.004  1.00  0.00     0.037 A 
ATOM     57  C   UNL A   1      43.338  29.696  32.111  1.00  0.00     0.037 A 
ATOM     58  C   UNL A   1      44.461  24.044  28.975  1.00  0.00     0.049 A 
ATOM     59  C   UNL A   1      43.876  28.429  32.728  1.00  0.00     0.074 A 
ATOM     60  C   UNL A   1      45.529  24.916  28.829  1.00  0.00     0.029 A 
ATOM     61  N   UNL A   1      44.168  24.008  30.337  1.00  0.00    -0.354 N 
ATOM     62  N   UNL A   1      44.056  27.321  32.063  1.00  0.00    -0.248 NA
ATOM     63  C   UNL A   1      44.257  28.311  34.131  1.00  0.00     0.031 C 
ATOM     64  C   UNL A   1      45.813  25.474  30.102  1.00  0.00     0.029 A 
ATOM     65  C   UNL A   1      44.950  24.917  31.031  1.00  0.00     0.049 A 
ATOM     66  H   UNL A   1      43.498  23.416  30.750  1.00  0.00     0.167 HD
ATOM     67  C   UNL A   1      44.553  26.360  32.900  1.00  0.00     0.074 A 
ATOM     68  C   UNL A   1      44.681  27.037  34.179  1.00  0.00     0.031 C 
ATOM     69  C   UNL A   1      44.818  25.088  32.474  1.00  0.00     0.037 A 
BRANCH  56  70
ATOM     70  C   UNL A   1      43.825  22.581  26.875  1.00  0.00     0.057 A 
ATOM     71  C   UNL A   1      43.054  21.420  26.672  1.00  0.00     0.134 A 
ATOM     72  C   UNL A   1      44.921  22.692  25.998  1.00  0.00     0.134 A 
ATOM     73  F   UNL A   1      41.920  21.201  27.351  1.00  0.00    -0.206 F 
ATOM     74  C   UNL A   1      43.401  20.414  25.758  1.00  0.00     0.040 A 
ATOM     75  C   UNL A   1      45.307  21.676  25.109  1.00  0.00     0.040 A 
ATOM     76  F   UNL A   1      45.644  23.810  25.898  1.00  0.00    -0.206 F 
ATOM     77  C   UNL A   1      44.550  20.523  24.994  1.00  0.00     0.006 A 
ENDBRANCH  56  70
BRANCH  57  78
ATOM     78  C   UNL A   1      42.153  30.471  32.585  1.00  0.00     0.057 A 
ATOM     79  C   UNL A   1      41.090  29.702  33.098  1.00  0.00     0.134 A 
ATOM     80  C   UNL A   1      42.312  31.762  33.091  1.00  0.00     0.134 A 
ATOM     81  F   UNL A   1      40.829  28.489  32.586  1.00  0.00    -0.206 F 
ATOM     82  C   UNL A   1      40.433  30.071  34.271  1.00  0.00     0.040 A 
ATOM     83  C   UNL A   1      41.615  32.162  34.233  1.00  0.00     0.040 A 
ATOM     84  F   UNL A   1      43.247  32.584  32.595  1.00  0.00    -0.206 F 
ATOM     85  C   UNL A   1      40.747  31.280  34.880  1.00  0.00     0.006 A 
ENDBRANCH  57  78
BRANCH  69  86
ATOM     86  C   UNL A   1      45.113  23.926  33.389  1.00  0.00     0.057 A 
ATOM     87  C   UNL A   1      44.216  22.880  33.649  1.00  0.00     0.134 A 
ATOM     88  C   UNL A   1      46.392  23.769  33.966  1.00  0.00     0.134 A 
ATOM     89  F   UNL A   1      43.027  22.802  33.035  1.00  0.00    -0.206 F 
ATOM     90  C   UNL A   1      44.519  21.826  34.516  1.00  0.00     0.040 A 
ATOM     91  C   UNL A   1      46.733  22.681  34.773  1.00  0.00     0.040 A 
ATOM     92  F   UNL A   1      47.380  24.653  33.758  1.00  0.00    -0.206 F 
ATOM     93  C   UNL A   1      45.783  21.721  35.080  1.00  0.00     0.006 A 
ENDBRANCH  69  86
ENDBRANCH  43  44
ENDBRANCH  35  38
ENDBRANCH  33  34
ENDBRANCH  32  33
ENDBRANCH   1  32
TORSDOF 14
ENDMDL
MODEL 3
REMARK VINA RESULT:     -13.2      1.574      2.555
REMARK SMILES COc1cc(Cl)c(C)cc1N1C(=O)C[C@H](Nc2cc(C(=O)NCCCNC(=O)c3ccc(-c4c5nc(c(-c6c(F)cccc6F)c6ccc([nH]6)c(-c6c(F)cccc6F)c6nc(c(-c7c(F)cccc7F)c7ccc4[nH]7)C=C6)C=C5)cc3)ccc2C)C1=O
REMARK SMILES IDX 23 1 22 2 20 3 21 4 19 6 17 7 18 8 85 9 84 10 86 11 83 12
REMARK SMILES IDX 16 13 15 15 11 16 12 17 87 18 13 19 14 20 88 21 10 22 3 23
REMARK SMILES IDX 4 24 5 25 9 26 6 27 7 28 8 29 2 30 1 31 24 32 25 33 26 34
REMARK SMILES IDX 27 35 28 37 29 38 30 39 82 40 31 41 81 42 32 43 33 44 34 45
REMARK SMILES IDX 75 46 35 47 80 48 74 49 76 50 36 51 79 52 73 53 72 54 37 56
REMARK SMILES IDX 63 57 46 58 62 59 47 60 50 61 61 62 77 63 48 64 49 65 60 67
REMARK SMILES IDX 78 68 51 69 38 70 39 71 44 72 40 73 41 74 43 75 45 76 42 77
REMARK SMILES IDX 64 78 65 79 70 80 66 81 67 82 69 83 71 84 68 85 52 86 53 87
REMARK SMILES IDX 58 88 54 89 55 90 57 91 59 92 56 93
REMARK H PARENT 22 5 16 14 26 36 76 55 50 66
REMARK Flexibility Score: inf
ROOT
ATOM      1  C   UNL A   1      33.106  30.410  26.940  1.00  0.00     0.118 C 
ENDROOT
BRANCH   1   2
ATOM      2  N   UNL A   1      33.788  29.820  25.786  1.00  0.00    -0.352 N 
ATOM      3  C   UNL A   1      33.376  28.990  24.762  1.00  0.00     0.251 C 
ATOM      4  O   UNL A   1      34.214  28.633  23.933  1.00  0.00    -0.269 OA
ATOM      5  H   UNL A   1      34.738  30.067  25.728  1.00  0.00     0.163 HD
BRANCH   3   6
ATOM      6  C   UNL A   1      31.993  28.449  24.662  1.00  0.00     0.041 A 
ATOM      7  C   UNL A   1      30.490  26.559  24.863  1.00  0.00     0.038 A 
ATOM      8  C   UNL A   1      31.615  27.263  25.280  1.00  0.00     0.039 A 
ATOM      9  C   UNL A   1      29.541  27.233  24.075  1.00  0.00    -0.028 A 
ATOM     10  C   UNL A   1      29.805  28.543  23.642  1.00  0.00     0.006 A 
ATOM     11  C   UNL A   1      28.192  26.633  23.777  1.00  0.00     0.046 C 
ATOM     12  C   UNL A   1      31.051  29.126  23.883  1.00  0.00     0.014 A 
BRANCH   7  13
ATOM     13  N   UNL A   1      30.341  25.212  25.140  1.00  0.00    -0.373 N 
ATOM     14  H   UNL A   1      30.075  24.965  26.054  1.00  0.00     0.161 HD
BRANCH  13  15
ATOM     15  C   UNL A   1      30.545  24.128  24.187  1.00  0.00     0.179 C 
ATOM     16  N   UNL A   1      32.223  22.498  24.049  1.00  0.00    -0.245 N 
ATOM     17  C   UNL A   1      32.587  23.464  23.143  1.00  0.00     0.236 C 
ATOM     18  C   UNL A   1      31.117  22.848  24.786  1.00  0.00     0.256 C 
ATOM     19  O   UNL A   1      33.525  23.450  22.369  1.00  0.00    -0.274 OA
ATOM     20  C   UNL A   1      31.598  24.582  23.194  1.00  0.00     0.136 C 
ATOM     21  O   UNL A   1      30.660  22.266  25.763  1.00  0.00    -0.272 OA
BRANCH  16  22
ATOM     22  C   UNL A   1      32.894  21.260  24.137  1.00  0.00     0.094 A 
ATOM     23  C   UNL A   1      34.041  21.097  24.929  1.00  0.00     0.144 A 
ATOM     24  C   UNL A   1      34.647  19.842  25.043  1.00  0.00     0.069 A 
ATOM     25  C   UNL A   1      34.115  18.740  24.369  1.00  0.00     0.047 A 
ATOM     26  C   UNL A   1      32.365  20.140  23.475  1.00  0.00     0.035 A 
ATOM     27  Cl  UNL A   1      34.887  17.208  24.582  1.00  0.00    -0.084 Cl
ATOM     28  C   UNL A   1      32.980  18.878  23.558  1.00  0.00    -0.030 A 
ATOM     29  C   UNL A   1      32.412  17.727  22.774  1.00  0.00     0.046 C 
BRANCH  23  30
ATOM     30  O   UNL A   1      34.618  22.124  25.634  1.00  0.00    -0.495 OA
ATOM     31  C   UNL A   1      36.028  22.204  25.423  1.00  0.00     0.278 C 
ENDBRANCH  23  30
ENDBRANCH  16  22
ENDBRANCH  13  15
ENDBRANCH   7  13
ENDBRANCH   3   6
ENDBRANCH   1   2
BRANCH   1  32
ATOM     32  C   UNL A   1      33.930  31.427  27.705  1.00  0.00     0.042 C 
BRANCH  32  33
ATOM     33  C   UNL A   1      35.414  31.132  27.642  1.00  0.00     0.118 C 
BRANCH  33  34
ATOM     34  N   UNL A   1      36.209  31.594  28.789  1.00  0.00    -0.352 N 
ATOM     35  C   UNL A   1      37.174  30.904  29.520  1.00  0.00     0.251 C 
ATOM     36  H   UNL A   1      36.034  32.519  29.082  1.00  0.00     0.163 HD
ATOM     37  O   UNL A   1      37.830  31.472  30.386  1.00  0.00    -0.269 OA
BRANCH  35  38
ATOM     38  C   UNL A   1      37.517  29.512  29.128  1.00  0.00     0.039 A 
ATOM     39  C   UNL A   1      37.744  28.606  30.169  1.00  0.00     0.014 A 
ATOM     40  C   UNL A   1      38.083  29.305  27.881  1.00  0.00     0.014 A 
ATOM     41  C   UNL A   1      38.851  27.773  30.089  1.00  0.00     0.010 A 
ATOM     42  C   UNL A   1      39.277  28.624  27.858  1.00  0.00     0.010 A 
ATOM     43  C   UNL A   1      39.694  27.925  28.993  1.00  0.00    -0.014 A 
BRANCH  43  44
ATOM     44  C   UNL A   1      41.018  27.345  28.908  1.00  0.00     0.031 A 
ATOM     45  C   UNL A   1      41.081  25.919  28.564  1.00  0.00     0.074 A 
ATOM     46  C   UNL A   1      42.124  28.098  29.092  1.00  0.00     0.049 A 
ATOM     47  N   UNL A   1      41.983  25.110  28.984  1.00  0.00    -0.248 NA
ATOM     48  C   UNL A   1      40.042  25.268  27.773  1.00  0.00     0.031 C 
ATOM     49  C   UNL A   1      43.514  27.725  28.852  1.00  0.00     0.029 A 
ATOM     50  N   UNL A   1      42.208  29.346  29.714  1.00  0.00    -0.354 N 
ATOM     51  C   UNL A   1      41.826  23.928  28.291  1.00  0.00     0.074 A 
ATOM     52  C   UNL A   1      40.538  24.037  27.655  1.00  0.00     0.031 C 
ATOM     53  C   UNL A   1      44.317  28.557  29.540  1.00  0.00     0.029 A 
ATOM     54  C   UNL A   1      43.470  29.422  30.343  1.00  0.00     0.049 A 
ATOM     55  H   UNL A   1      41.514  30.044  29.713  1.00  0.00     0.167 HD
ATOM     56  C   UNL A   1      42.890  23.081  28.208  1.00  0.00     0.037 A 
ATOM     57  C   UNL A   1      43.561  29.576  31.700  1.00  0.00     0.037 A 
ATOM     58  C   UNL A   1      43.999  23.606  29.014  1.00  0.00     0.049 A 
ATOM     59  C   UNL A   1      44.093  28.336  32.373  1.00  0.00     0.074 A 
ATOM     60  C   UNL A   1      45.091  24.389  28.671  1.00  0.00     0.029 A 
ATOM     61  N   UNL A   1      43.862  23.711  30.398  1.00  0.00    -0.354 N 
ATOM     62  N   UNL A   1      44.134  27.163  31.801  1.00  0.00    -0.248 NA
ATOM     63  C   UNL A   1      44.625  28.318  33.731  1.00  0.00     0.031 C 
ATOM     64  C   UNL A   1      45.549  25.038  29.846  1.00  0.00     0.029 A 
ATOM     65  C   UNL A   1      44.768  24.624  30.912  1.00  0.00     0.049 A 
ATOM     66  H   UNL A   1      43.212  23.204  30.935  1.00  0.00     0.167 HD
ATOM     67  C   UNL A   1      44.668  26.250  32.667  1.00  0.00     0.074 A 
ATOM     68  C   UNL A   1      44.979  27.027  33.854  1.00  0.00     0.031 C 
ATOM     69  C   UNL A   1      44.811  24.931  32.338  1.00  0.00     0.037 A 
BRANCH  56  70
ATOM     70  C   UNL A   1      43.047  22.009  27.145  1.00  0.00     0.057 A 
ATOM     71  C   UNL A   1      42.239  20.856  27.178  1.00  0.00     0.134 A 
ATOM     72  C   UNL A   1      44.000  22.001  26.109  1.00  0.00     0.134 A 
ATOM     73  F   UNL A   1      41.216  20.737  28.036  1.00  0.00    -0.206 F 
ATOM     74  C   UNL A   1      42.432  19.754  26.331  1.00  0.00     0.040 A 
ATOM     75  C   UNL A   1      44.236  20.892  25.282  1.00  0.00     0.040 A 
ATOM     76  F   UNL A   1      44.714  23.083  25.790  1.00  0.00    -0.206 F 
ATOM     77  C   UNL A   1      43.456  19.754  25.398  1.00  0.00     0.006 A 
ENDBRANCH  56  70
BRANCH  57  78
ATOM     78  C   UNL A   1      42.483  30.467  32.224  1.00  0.00     0.057 A 
ATOM     79  C   UNL A   1      41.433  29.817  32.902  1.00  0.00     0.134 A 
ATOM     80  C   UNL A   1      42.775  31.778  32.601  1.00  0.00     0.134 A 
ATOM     81  F   UNL A   1      41.045  28.589  32.523  1.00  0.00    -0.206 F 
ATOM     82  C   UNL A   1      40.928  30.321  34.100  1.00  0.00     0.040 A 
ATOM     83  C   UNL A   1      42.228  32.314  33.770  1.00  0.00     0.040 A 
ATOM     84  F   UNL A   1      43.702  32.492  31.946  1.00  0.00    -0.206 F 
ATOM     85  C   UNL A   1      41.380  31.548  34.571  1.00  0.00     0.006 A 
ENDBRANCH  57  78
BRANCH  69  86
ATOM     86  C   UNL A   1      45.143  23.837  33.323  1.00  0.00     0.057 A 
ATOM     87  C   UNL A   1      46.407  23.658  33.905  1.00  0.00     0.134 A 
ATOM     88  C   UNL A   1      44.137  22.974  33.808  1.00  0.00     0.134 A 
ATOM     89  F   UNL A   1      47.417  24.508  33.673  1.00  0.00    -0.206 F 
ATOM     90  C   UNL A   1      46.682  22.622  34.803  1.00  0.00     0.040 A 
ATOM     91  C   UNL A   1      44.382  21.984  34.763  1.00  0.00     0.040 A 
ATOM     92  F   UNL A   1      42.864  23.063  33.397  1.00  0.00    -0.206 F 
ATOM     93  C   UNL A   1      45.667  21.781  35.239  1.00  0.00     0.006 A 
ENDBRANCH  69  86
ENDBRANCH  43  44
ENDBRANCH  35  38
ENDBRANCH  33  34
ENDBRANCH  32  33
ENDBRANCH   1  32
TORSDOF 14
ENDMDL
