MODEL 1
REMARK VINA RESULT:     -11.2      0.000      0.000
REMARK SMILES Cn1cc(SCC[C@H]2CCC[C@]2([NH2+]C2CC2)C(=O)NCCCNC(=O)c2ccc(-c3c4nc(c(-c5c(F)cccc5F)c5ccc([nH]5)c(-c5c(F)cccc5F)c5nc(c(-c6c(F)cccc6F)c6ccc3[nH]6)C=C5)C=C4)cc2)cn1
REMARK SMILES IDX 20 1 19 2 17 3 18 4 12 6 8 7 9 8 10 9 11 10 7 11 6 12 5 13
REMARK SMILES IDX 4 14 1 15 2 16 3 17 81 18 80 19 13 20 14 23 15 24 16 25
REMARK SMILES IDX 21 26 22 27 23 28 24 29 25 31 26 32 27 33 79 34 28 35 78 36
REMARK SMILES IDX 29 37 30 38 31 39 72 40 32 41 77 42 71 43 73 44 33 45 76 46
REMARK SMILES IDX 70 47 69 48 34 50 60 51 43 52 59 53 44 54 47 55 58 56 74 57
REMARK SMILES IDX 45 58 46 59 57 61 75 62 48 63 35 64 36 65 41 66 37 67 38 68
REMARK SMILES IDX 40 69 42 70 39 71 61 72 62 73 67 74 63 75 64 76 66 77 68 78
REMARK SMILES IDX 65 79 49 80 50 81 55 82 51 83 52 84 54 85 56 86 53 87
REMARK H PARENT 19 5 13 21 13 22 23 30 73 49 47 60
REMARK Flexibility Score: inf
ROOT
ATOM      1  C   UNL A   1      36.716  20.599  24.978  1.00  0.00     0.118 C 
ENDROOT
BRANCH   1   2
ATOM      2  N   UNL A   1      36.982  21.752  24.131  1.00  0.00    -0.351 N 
ATOM      3  C   UNL A   1      36.215  22.862  23.883  1.00  0.00     0.281 C 
ATOM      4  O   UNL A   1      36.680  23.700  23.102  1.00  0.00    -0.268 OA
ATOM      5  H   UNL A   1      37.847  21.732  23.663  1.00  0.00     0.163 HD
BRANCH   3   6
ATOM      6  C   UNL A   1      34.769  23.000  24.490  1.00  0.00     0.178 C 
ATOM      7  C   UNL A   1      33.853  22.190  23.490  1.00  0.00     0.061 C 
ATOM      8  C   UNL A   1      33.685  23.236  22.386  1.00  0.00     0.011 C 
ATOM      9  C   UNL A   1      33.596  24.596  23.012  1.00  0.00     0.008 C 
ATOM     10  C   UNL A   1      34.178  24.429  24.390  1.00  0.00     0.079 C 
BRANCH   7  11
ATOM     11  C   UNL A   1      32.505  21.613  23.955  1.00  0.00     0.022 C 
BRANCH  11  12
ATOM     12  C   UNL A   1      32.514  20.182  24.574  1.00  0.00     0.075 C 
BRANCH  12  13
ATOM     13  S   UNL A   1      32.391  18.676  23.543  1.00  0.00    -0.123 SA
BRANCH  13  14
ATOM     14  C   UNL A   1      33.457  17.423  24.120  1.00  0.00     0.045 A 
ATOM     15  C   UNL A   1      36.214  15.979  25.823  1.00  0.00     0.173 C 
ATOM     16  N   UNL A   1      35.053  16.209  24.989  1.00  0.00    -0.275 N 
ATOM     17  C   UNL A   1      34.827  17.274  24.151  1.00  0.00     0.123 A 
ATOM     18  N   UNL A   1      33.963  15.439  25.146  1.00  0.00    -0.181 NA
ATOM     19  C   UNL A   1      32.992  16.179  24.602  1.00  0.00     0.150 A 
ENDBRANCH  13  14
ENDBRANCH  12  13
ENDBRANCH  11  12
ENDBRANCH   7  11
BRANCH   6  20
ATOM     20  N   UNL A   1      34.810  22.637  25.922  1.00  0.00    -0.331 N 
ATOM     21  H   UNL A   1      35.756  22.827  26.253  1.00  0.00     0.347 HD
ATOM     22  H   UNL A   1      34.512  21.662  25.939  1.00  0.00     0.347 HD
BRANCH  20  23
ATOM     23  C   UNL A   1      33.873  23.315  26.864  1.00  0.00     0.183 C 
ATOM     24  C   UNL A   1      32.376  23.150  26.932  1.00  0.00     0.071 C 
ATOM     25  C   UNL A   1      33.236  22.546  27.998  1.00  0.00     0.071 C 
ENDBRANCH  20  23
ENDBRANCH   6  20
ENDBRANCH   3   6
ENDBRANCH   1   2
BRANCH   1  26
ATOM     26  C   UNL A   1      37.879  19.610  25.010  1.00  0.00     0.042 C 
BRANCH  26  27
ATOM     27  C   UNL A   1      39.113  20.096  25.762  1.00  0.00     0.118 C 
BRANCH  27  28
ATOM     28  N   UNL A   1      40.167  19.092  25.837  1.00  0.00    -0.352 N 
ATOM     29  C   UNL A   1      41.507  19.234  26.086  1.00  0.00     0.251 C 
ATOM     30  H   UNL A   1      39.870  18.166  25.685  1.00  0.00     0.163 HD
ATOM     31  O   UNL A   1      42.258  18.264  25.940  1.00  0.00    -0.269 OA
BRANCH  29  32
ATOM     32  C   UNL A   1      42.075  20.534  26.503  1.00  0.00     0.039 A 
ATOM     33  C   UNL A   1      42.600  21.385  25.525  1.00  0.00     0.014 A 
ATOM     34  C   UNL A   1      42.119  20.912  27.847  1.00  0.00     0.014 A 
ATOM     35  C   UNL A   1      43.097  22.640  25.885  1.00  0.00     0.010 A 
ATOM     36  C   UNL A   1      42.544  22.194  28.197  1.00  0.00     0.010 A 
ATOM     37  C   UNL A   1      43.034  23.073  27.220  1.00  0.00    -0.014 A 
BRANCH  37  38
ATOM     38  C   UNL A   1      43.451  24.447  27.603  1.00  0.00     0.031 A 
ATOM     39  C   UNL A   1      42.426  25.483  27.973  1.00  0.00     0.074 A 
ATOM     40  C   UNL A   1      44.756  24.781  27.553  1.00  0.00     0.049 A 
ATOM     41  N   UNL A   1      42.597  26.748  28.268  1.00  0.00    -0.248 NA
ATOM     42  C   UNL A   1      41.021  25.048  27.993  1.00  0.00     0.031 C 
ATOM     43  C   UNL A   1      45.846  23.882  27.167  1.00  0.00     0.029 A 
ATOM     44  N   UNL A   1      45.387  25.971  27.817  1.00  0.00    -0.354 N 
ATOM     45  C   UNL A   1      41.326  27.260  28.495  1.00  0.00     0.074 A 
ATOM     46  C   UNL A   1      40.389  26.183  28.258  1.00  0.00     0.031 C 
ATOM     47  C   UNL A   1      47.010  24.545  27.237  1.00  0.00     0.029 A 
ATOM     48  C   UNL A   1      46.749  25.926  27.631  1.00  0.00     0.049 A 
ATOM     49  H   UNL A   1      44.911  26.780  28.111  1.00  0.00     0.167 HD
ATOM     50  C   UNL A   1      40.973  28.508  28.886  1.00  0.00     0.037 A 
ATOM     51  C   UNL A   1      47.681  26.890  27.750  1.00  0.00     0.037 A 
ATOM     52  C   UNL A   1      41.908  29.575  29.136  1.00  0.00     0.049 A 
ATOM     53  C   UNL A   1      47.260  28.272  28.165  1.00  0.00     0.074 A 
ATOM     54  C   UNL A   1      41.651  30.857  29.589  1.00  0.00     0.029 A 
ATOM     55  N   UNL A   1      43.279  29.485  28.947  1.00  0.00    -0.354 N 
ATOM     56  N   UNL A   1      46.061  28.722  28.446  1.00  0.00    -0.248 NA
ATOM     57  C   UNL A   1      48.323  29.280  28.285  1.00  0.00     0.031 C 
ATOM     58  C   UNL A   1      42.860  31.559  29.625  1.00  0.00     0.029 A 
ATOM     59  C   UNL A   1      43.878  30.698  29.250  1.00  0.00     0.049 A 
ATOM     60  H   UNL A   1      43.756  28.681  28.641  1.00  0.00     0.167 HD
ATOM     61  C   UNL A   1      46.229  30.054  28.805  1.00  0.00     0.074 A 
ATOM     62  C   UNL A   1      47.648  30.334  28.721  1.00  0.00     0.031 C 
ATOM     63  C   UNL A   1      45.292  30.962  29.171  1.00  0.00     0.037 A 
BRANCH  50  64
ATOM     64  C   UNL A   1      39.509  28.792  29.069  1.00  0.00     0.057 A 
ATOM     65  C   UNL A   1      38.879  28.656  30.313  1.00  0.00     0.134 A 
ATOM     66  C   UNL A   1      38.730  29.255  28.000  1.00  0.00     0.134 A 
ATOM     67  F   UNL A   1      39.565  28.209  31.376  1.00  0.00    -0.206 F 
ATOM     68  C   UNL A   1      37.524  28.945  30.483  1.00  0.00     0.040 A 
ATOM     69  C   UNL A   1      37.381  29.575  28.164  1.00  0.00     0.040 A 
ATOM     70  F   UNL A   1      39.270  29.418  26.783  1.00  0.00    -0.206 F 
ATOM     71  C   UNL A   1      36.773  29.414  29.407  1.00  0.00     0.006 A 
ENDBRANCH  50  64
BRANCH  51  72
ATOM     72  C   UNL A   1      49.110  26.583  27.483  1.00  0.00     0.057 A 
ATOM     73  C   UNL A   1      49.636  26.664  26.188  1.00  0.00     0.134 A 
ATOM     74  C   UNL A   1      49.978  26.189  28.507  1.00  0.00     0.134 A 
ATOM     75  F   UNL A   1      48.850  27.018  25.161  1.00  0.00    -0.206 F 
ATOM     76  C   UNL A   1      50.967  26.341  25.918  1.00  0.00     0.040 A 
ATOM     77  C   UNL A   1      51.318  25.890  28.256  1.00  0.00     0.040 A 
ATOM     78  F   UNL A   1      49.538  26.098  29.772  1.00  0.00    -0.206 F 
ATOM     79  C   UNL A   1      51.814  25.957  26.956  1.00  0.00     0.006 A 
ENDBRANCH  51  72
BRANCH  63  80
ATOM     80  C   UNL A   1      45.774  32.332  29.553  1.00  0.00     0.057 A 
ATOM     81  C   UNL A   1      45.853  33.376  28.623  1.00  0.00     0.134 A 
ATOM     82  C   UNL A   1      46.129  32.618  30.878  1.00  0.00     0.134 A 
ATOM     83  F   UNL A   1      45.541  33.166  27.335  1.00  0.00    -0.206 F 
ATOM     84  C   UNL A   1      46.292  34.650  28.992  1.00  0.00     0.040 A 
ATOM     85  C   UNL A   1      46.540  33.894  31.264  1.00  0.00     0.040 A 
ATOM     86  F   UNL A   1      46.067  31.666  31.820  1.00  0.00    -0.206 F 
ATOM     87  C   UNL A   1      46.630  34.913  30.318  1.00  0.00     0.006 A 
ENDBRANCH  63  80
ENDBRANCH  37  38
ENDBRANCH  29  32
ENDBRANCH  27  28
ENDBRANCH  26  27
ENDBRANCH   1  26
TORSDOF 16
ENDMDL
MODEL 2
REMARK VINA RESULT:     -11.2      3.610      8.217
REMARK SMILES Cn1cc(SCC[C@H]2CCC[C@]2([NH2+]C2CC2)C(=O)NCCCNC(=O)c2ccc(-c3c4nc(c(-c5c(F)cccc5F)c5ccc([nH]5)c(-c5c(F)cccc5F)c5nc(c(-c6c(F)cccc6F)c6ccc3[nH]6)C=C5)C=C4)cc2)cn1
REMARK SMILES IDX 20 1 19 2 17 3 18 4 12 6 8 7 9 8 10 9 11 10 7 11 6 12 5 13
REMARK SMILES IDX 4 14 1 15 2 16 3 17 81 18 80 19 13 20 14 23 15 24 16 25
REMARK SMILES IDX 21 26 22 27 23 28 24 29 25 31 26 32 27 33 79 34 28 35 78 36
REMARK SMILES IDX 29 37 30 38 31 39 72 40 32 41 77 42 71 43 73 44 33 45 76 46
REMARK SMILES IDX 70 47 69 48 34 50 60 51 43 52 59 53 44 54 47 55 58 56 74 57
REMARK SMILES IDX 45 58 46 59 57 61 75 62 48 63 35 64 36 65 41 66 37 67 38 68
REMARK SMILES IDX 40 69 42 70 39 71 61 72 62 73 67 74 63 75 64 76 66 77 68 78
REMARK SMILES IDX 65 79 49 80 50 81 55 82 51 83 52 84 54 85 56 86 53 87
REMARK H PARENT 19 5 13 21 13 22 23 30 73 49 47 60
REMARK Flexibility Score: inf
ROOT
ATOM      1  C   UNL A   1      31.762  27.146  26.399  1.00  0.00     0.118 C 
ENDROOT
BRANCH   1   2
ATOM      2  N   UNL A   1      31.404  25.814  26.863  1.00  0.00    -0.351 N 
ATOM      3  C   UNL A   1      31.762  24.582  26.374  1.00  0.00     0.281 C 
ATOM      4  O   UNL A   1      31.302  23.594  26.957  1.00  0.00    -0.268 OA
ATOM      5  H   UNL A   1      30.813  25.792  27.649  1.00  0.00     0.163 HD
BRANCH   3   6
ATOM      6  C   UNL A   1      32.633  24.450  25.070  1.00  0.00     0.178 C 
ATOM      7  C   UNL A   1      31.880  25.348  24.011  1.00  0.00     0.061 C 
ATOM      8  C   UNL A   1      30.775  24.378  23.587  1.00  0.00     0.011 C 
ATOM      9  C   UNL A   1      31.330  22.985  23.566  1.00  0.00     0.008 C 
ATOM     10  C   UNL A   1      32.574  23.048  24.412  1.00  0.00     0.079 C 
BRANCH   7  11
ATOM     11  C   UNL A   1      32.632  25.935  22.804  1.00  0.00     0.022 C 
BRANCH  11  12
ATOM     12  C   UNL A   1      33.295  27.334  22.986  1.00  0.00     0.075 C 
BRANCH  12  13
ATOM     13  S   UNL A   1      32.367  28.772  23.636  1.00  0.00    -0.123 SA
BRANCH  13  14
ATOM     14  C   UNL A   1      30.742  28.814  23.007  1.00  0.00     0.045 A 
ATOM     15  C   UNL A   1      27.195  28.842  23.063  1.00  0.00     0.173 C 
ATOM     16  N   UNL A   1      28.584  28.790  22.660  1.00  0.00    -0.275 N 
ATOM     17  C   UNL A   1      29.600  28.086  23.260  1.00  0.00     0.123 A 
ATOM     18  N   UNL A   1      29.035  29.644  21.725  1.00  0.00    -0.181 NA
ATOM     19  C   UNL A   1      30.355  29.647  21.932  1.00  0.00     0.150 A 
ENDBRANCH  13  14
ENDBRANCH  12  13
ENDBRANCH  11  12
ENDBRANCH   7  11
BRANCH   6  20
ATOM     20  N   UNL A   1      34.048  24.722  25.404  1.00  0.00    -0.331 N 
ATOM     21  H   UNL A   1      34.068  25.061  26.366  1.00  0.00     0.347 HD
ATOM     22  H   UNL A   1      34.350  25.378  24.685  1.00  0.00     0.347 HD
BRANCH  20  23
ATOM     23  C   UNL A   1      35.036  23.609  25.312  1.00  0.00     0.183 C 
ATOM     24  C   UNL A   1      36.186  23.493  24.344  1.00  0.00     0.071 C 
ATOM     25  C   UNL A   1      36.459  23.805  25.782  1.00  0.00     0.071 C 
ENDBRANCH  20  23
ENDBRANCH   6  20
ENDBRANCH   3   6
ENDBRANCH   1   2
BRANCH   1  26
ATOM     26  C   UNL A   1      32.228  28.058  27.531  1.00  0.00     0.042 C 
BRANCH  26  27
ATOM     27  C   UNL A   1      33.595  28.697  27.319  1.00  0.00     0.118 C 
BRANCH  27  28
ATOM     28  N   UNL A   1      33.639  30.098  27.719  1.00  0.00    -0.352 N 
ATOM     29  C   UNL A   1      34.638  30.814  28.325  1.00  0.00     0.251 C 
ATOM     30  H   UNL A   1      32.821  30.611  27.523  1.00  0.00     0.163 HD
ATOM     31  O   UNL A   1      34.405  31.958  28.729  1.00  0.00    -0.269 OA
BRANCH  29  32
ATOM     32  C   UNL A   1      35.983  30.234  28.526  1.00  0.00     0.039 A 
ATOM     33  C   UNL A   1      36.885  30.239  27.457  1.00  0.00     0.014 A 
ATOM     34  C   UNL A   1      36.356  29.663  29.745  1.00  0.00     0.014 A 
ATOM     35  C   UNL A   1      38.179  29.743  27.633  1.00  0.00     0.010 A 
ATOM     36  C   UNL A   1      37.670  29.239  29.943  1.00  0.00     0.010 A 
ATOM     37  C   UNL A   1      38.597  29.278  28.891  1.00  0.00    -0.014 A 
BRANCH  37  38
ATOM     38  C   UNL A   1      40.002  28.854  29.127  1.00  0.00     0.031 A 
ATOM     39  C   UNL A   1      40.991  29.800  29.749  1.00  0.00     0.074 A 
ATOM     40  C   UNL A   1      40.403  27.635  28.717  1.00  0.00     0.049 A 
ATOM     41  N   UNL A   1      42.272  29.630  29.970  1.00  0.00    -0.248 NA
ATOM     42  C   UNL A   1      40.482  31.118  30.160  1.00  0.00     0.031 C 
ATOM     43  C   UNL A   1      39.553  26.640  28.060  1.00  0.00     0.029 A 
ATOM     44  N   UNL A   1      41.632  27.027  28.782  1.00  0.00    -0.354 N 
ATOM     45  C   UNL A   1      42.721  30.820  30.529  1.00  0.00     0.074 A 
ATOM     46  C   UNL A   1      41.589  31.719  30.572  1.00  0.00     0.031 C 
ATOM     47  C   UNL A   1      40.278  25.543  27.799  1.00  0.00     0.029 A 
ATOM     48  C   UNL A   1      41.654  25.768  28.231  1.00  0.00     0.049 A 
ATOM     49  H   UNL A   1      42.423  27.453  29.185  1.00  0.00     0.167 HD
ATOM     50  C   UNL A   1      43.959  31.126  30.985  1.00  0.00     0.037 A 
ATOM     51  C   UNL A   1      42.670  24.897  28.077  1.00  0.00     0.037 A 
ATOM     52  C   UNL A   1      45.082  30.223  30.955  1.00  0.00     0.049 A 
ATOM     53  C   UNL A   1      44.040  25.271  28.572  1.00  0.00     0.074 A 
ATOM     54  C   UNL A   1      46.361  30.422  31.444  1.00  0.00     0.029 A 
ATOM     55  N   UNL A   1      45.060  28.953  30.399  1.00  0.00    -0.354 N 
ATOM     56  N   UNL A   1      44.433  26.372  29.165  1.00  0.00    -0.248 NA
ATOM     57  C   UNL A   1      45.106  24.277  28.384  1.00  0.00     0.031 C 
ATOM     58  C   UNL A   1      47.128  29.293  31.138  1.00  0.00     0.029 A 
ATOM     59  C   UNL A   1      46.312  28.367  30.510  1.00  0.00     0.049 A 
ATOM     60  H   UNL A   1      44.274  28.530  29.985  1.00  0.00     0.167 HD
ATOM     61  C   UNL A   1      45.781  26.192  29.446  1.00  0.00     0.074 A 
ATOM     62  C   UNL A   1      46.134  24.870  28.973  1.00  0.00     0.031 C 
ATOM     63  C   UNL A   1      46.648  27.046  30.043  1.00  0.00     0.037 A 
BRANCH  50  64
ATOM     64  C   UNL A   1      44.171  32.498  31.558  1.00  0.00     0.057 A 
ATOM     65  C   UNL A   1      44.525  33.589  30.754  1.00  0.00     0.134 A 
ATOM     66  C   UNL A   1      43.970  32.743  32.923  1.00  0.00     0.134 A 
ATOM     67  F   UNL A   1      44.741  33.423  29.440  1.00  0.00    -0.206 F 
ATOM     68  C   UNL A   1      44.697  34.867  31.288  1.00  0.00     0.040 A 
ATOM     69  C   UNL A   1      44.111  34.022  33.464  1.00  0.00     0.040 A 
ATOM     70  F   UNL A   1      43.621  31.747  33.750  1.00  0.00    -0.206 F 
ATOM     71  C   UNL A   1      44.481  35.088  32.647  1.00  0.00     0.006 A 
ENDBRANCH  50  64
BRANCH  51  72
ATOM     72  C   UNL A   1      42.432  23.580  27.433  1.00  0.00     0.057 A 
ATOM     73  C   UNL A   1      42.091  22.456  28.194  1.00  0.00     0.134 A 
ATOM     74  C   UNL A   1      42.553  23.409  26.049  1.00  0.00     0.134 A 
ATOM     75  F   UNL A   1      41.978  22.552  29.526  1.00  0.00    -0.206 F 
ATOM     76  C   UNL A   1      41.902  21.204  27.606  1.00  0.00     0.040 A 
ATOM     77  C   UNL A   1      42.339  22.169  25.445  1.00  0.00     0.040 A 
ATOM     78  F   UNL A   1      42.870  24.448  25.262  1.00  0.00    -0.206 F 
ATOM     79  C   UNL A   1      42.022  21.059  26.225  1.00  0.00     0.006 A 
ENDBRANCH  51  72
BRANCH  63  80
ATOM     80  C   UNL A   1      48.053  26.561  30.259  1.00  0.00     0.057 A 
ATOM     81  C   UNL A   1      48.429  25.864  31.415  1.00  0.00     0.134 A 
ATOM     82  C   UNL A   1      49.034  26.765  29.280  1.00  0.00     0.134 A 
ATOM     83  F   UNL A   1      47.541  25.647  32.397  1.00  0.00    -0.206 F 
ATOM     84  C   UNL A   1      49.736  25.409  31.599  1.00  0.00     0.040 A 
ATOM     85  C   UNL A   1      50.336  26.289  29.440  1.00  0.00     0.040 A 
ATOM     86  F   UNL A   1      48.739  27.417  28.145  1.00  0.00    -0.206 F 
ATOM     87  C   UNL A   1      50.692  25.615  30.606  1.00  0.00     0.006 A 
ENDBRANCH  63  80
ENDBRANCH  37  38
ENDBRANCH  29  32
ENDBRANCH  27  28
ENDBRANCH  26  27
ENDBRANCH   1  26
TORSDOF 16
ENDMDL
MODEL 3
REMARK VINA RESULT:     -11.2      2.836      7.116
REMARK SMILES Cn1cc(SCC[C@H]2CCC[C@]2([NH2+]C2CC2)C(=O)NCCCNC(=O)c2ccc(-c3c4nc(c(-c5c(F)cccc5F)c5ccc([nH]5)c(-c5c(F)cccc5F)c5nc(c(-c6c(F)cccc6F)c6ccc3[nH]6)C=C5)C=C4)cc2)cn1
REMARK SMILES IDX 20 1 19 2 17 3 18 4 12 6 8 7 9 8 10 9 11 10 7 11 6 12 5 13
REMARK SMILES IDX 4 14 1 15 2 16 3 17 81 18 80 19 13 20 14 23 15 24 16 25
REMARK SMILES IDX 21 26 22 27 23 28 24 29 25 31 26 32 27 33 79 34 28 35 78 36
REMARK SMILES IDX 29 37 30 38 31 39 72 40 32 41 77 42 71 43 73 44 33 45 76 46
REMARK SMILES IDX 70 47 69 48 34 50 60 51 43 52 59 53 44 54 47 55 58 56 74 57
REMARK SMILES IDX 45 58 46 59 57 61 75 62 48 63 35 64 36 65 41 66 37 67 38 68
REMARK SMILES IDX 40 69 42 70 39 71 61 72 62 73 67 74 63 75 64 76 66 77 68 78
REMARK SMILES IDX 65 79 49 80 50 81 55 82 51 83 52 84 54 85 56 86 53 87
REMARK H PARENT 19 5 13 21 13 22 23 30 73 49 47 60
REMARK Flexibility Score: inf
ROOT
ATOM      1  C   UNL A   1      32.096  27.798  25.396  1.00  0.00     0.118 C 
ENDROOT
BRANCH   1   2
ATOM      2  N   UNL A   1      31.688  26.751  26.322  1.00  0.00    -0.351 N 
ATOM      3  C   UNL A   1      31.891  25.395  26.267  1.00  0.00     0.281 C 
ATOM      4  O   UNL A   1      31.422  24.722  27.192  1.00  0.00    -0.268 OA
ATOM      5  H   UNL A   1      31.188  27.065  27.109  1.00  0.00     0.163 HD
BRANCH   3   6
ATOM      6  C   UNL A   1      32.599  24.731  25.028  1.00  0.00     0.178 C 
ATOM      7  C   UNL A   1      32.532  23.182  25.331  1.00  0.00     0.061 C 
ATOM      8  C   UNL A   1      33.710  23.056  26.299  1.00  0.00     0.011 C 
ATOM      9  C   UNL A   1      34.802  23.987  25.863  1.00  0.00     0.008 C 
ATOM     10  C   UNL A   1      34.125  24.986  24.963  1.00  0.00     0.079 C 
BRANCH   7  11
ATOM     11  C   UNL A   1      32.607  22.156  24.188  1.00  0.00     0.022 C 
BRANCH  11  12
ATOM     12  C   UNL A   1      32.304  20.668  24.541  1.00  0.00     0.075 C 
BRANCH  12  13
ATOM     13  S   UNL A   1      32.401  19.333  23.292  1.00  0.00    -0.123 SA
BRANCH  13  14
ATOM     14  C   UNL A   1      32.926  17.832  24.007  1.00  0.00     0.045 A 
ATOM     15  C   UNL A   1      32.646  14.648  25.544  1.00  0.00     0.173 C 
ATOM     16  N   UNL A   1      33.135  15.897  25.001  1.00  0.00    -0.275 N 
ATOM     17  C   UNL A   1      32.578  17.144  25.149  1.00  0.00     0.123 A 
ATOM     18  N   UNL A   1      34.123  15.882  24.091  1.00  0.00    -0.181 NA
ATOM     19  C   UNL A   1      34.001  17.071  23.494  1.00  0.00     0.150 A 
ENDBRANCH  13  14
ENDBRANCH  12  13
ENDBRANCH  11  12
ENDBRANCH   7  11
BRANCH   6  20
ATOM     20  N   UNL A   1      32.006  25.272  23.786  1.00  0.00    -0.331 N 
ATOM     21  H   UNL A   1      31.650  26.202  24.005  1.00  0.00     0.347 HD
ATOM     22  H   UNL A   1      31.314  24.573  23.518  1.00  0.00     0.347 HD
BRANCH  20  23
ATOM     23  C   UNL A   1      32.868  25.407  22.577  1.00  0.00     0.183 C 
ATOM     24  C   UNL A   1      32.425  25.773  21.183  1.00  0.00     0.071 C 
ATOM     25  C   UNL A   1      33.180  26.771  22.005  1.00  0.00     0.071 C 
ENDBRANCH  20  23
ENDBRANCH   6  20
ENDBRANCH   3   6
ENDBRANCH   1   2
BRANCH   1  26
ATOM     26  C   UNL A   1      33.447  28.409  25.757  1.00  0.00     0.042 C 
BRANCH  26  27
ATOM     27  C   UNL A   1      33.701  28.567  27.252  1.00  0.00     0.118 C 
BRANCH  27  28
ATOM     28  N   UNL A   1      33.720  29.959  27.684  1.00  0.00    -0.352 N 
ATOM     29  C   UNL A   1      34.706  30.677  28.309  1.00  0.00     0.251 C 
ATOM     30  H   UNL A   1      32.895  30.463  27.498  1.00  0.00     0.163 HD
ATOM     31  O   UNL A   1      34.453  31.808  28.739  1.00  0.00    -0.269 OA
BRANCH  29  32
ATOM     32  C   UNL A   1      36.060  30.114  28.500  1.00  0.00     0.039 A 
ATOM     33  C   UNL A   1      36.977  30.196  27.448  1.00  0.00     0.014 A 
ATOM     34  C   UNL A   1      36.426  29.486  29.693  1.00  0.00     0.014 A 
ATOM     35  C   UNL A   1      38.279  29.718  27.618  1.00  0.00     0.010 A 
ATOM     36  C   UNL A   1      37.746  29.078  29.889  1.00  0.00     0.010 A 
ATOM     37  C   UNL A   1      38.687  29.193  28.856  1.00  0.00    -0.014 A 
BRANCH  37  38
ATOM     38  C   UNL A   1      40.097  28.786  29.091  1.00  0.00     0.031 A 
ATOM     39  C   UNL A   1      41.077  29.745  29.710  1.00  0.00     0.074 A 
ATOM     40  C   UNL A   1      40.512  27.570  28.684  1.00  0.00     0.049 A 
ATOM     41  N   UNL A   1      42.360  29.590  29.929  1.00  0.00    -0.248 NA
ATOM     42  C   UNL A   1      40.553  31.057  30.118  1.00  0.00     0.031 C 
ATOM     43  C   UNL A   1      39.673  26.565  28.029  1.00  0.00     0.029 A 
ATOM     44  N   UNL A   1      41.749  26.977  28.748  1.00  0.00    -0.354 N 
ATOM     45  C   UNL A   1      42.796  30.786  30.486  1.00  0.00     0.074 A 
ATOM     46  C   UNL A   1      41.654  31.673  30.528  1.00  0.00     0.031 C 
ATOM     47  C   UNL A   1      40.411  25.475  27.771  1.00  0.00     0.029 A 
ATOM     48  C   UNL A   1      41.784  25.717  28.200  1.00  0.00     0.049 A 
ATOM     49  H   UNL A   1      42.535  27.412  29.149  1.00  0.00     0.167 HD
ATOM     50  C   UNL A   1      44.031  31.107  30.939  1.00  0.00     0.037 A 
ATOM     51  C   UNL A   1      42.810  24.858  28.047  1.00  0.00     0.037 A 
ATOM     52  C   UNL A   1      45.164  30.217  30.910  1.00  0.00     0.049 A 
ATOM     53  C   UNL A   1      44.175  25.248  28.540  1.00  0.00     0.074 A 
ATOM     54  C   UNL A   1      46.441  30.432  31.398  1.00  0.00     0.029 A 
ATOM     55  N   UNL A   1      45.156  28.945  30.357  1.00  0.00    -0.354 N 
ATOM     56  N   UNL A   1      44.557  26.355  29.130  1.00  0.00    -0.248 NA
ATOM     57  C   UNL A   1      45.253  24.266  28.353  1.00  0.00     0.031 C 
ATOM     58  C   UNL A   1      47.220  29.310  31.094  1.00  0.00     0.029 A 
ATOM     59  C   UNL A   1      46.414  28.374  30.469  1.00  0.00     0.049 A 
ATOM     60  H   UNL A   1      44.374  28.512  29.945  1.00  0.00     0.167 HD
ATOM     61  C   UNL A   1      45.907  26.191  29.410  1.00  0.00     0.074 A 
ATOM     62  C   UNL A   1      46.275  24.871  28.940  1.00  0.00     0.031 C 
ATOM     63  C   UNL A   1      46.765  27.055  30.005  1.00  0.00     0.037 A 
BRANCH  50  64
ATOM     64  C   UNL A   1      44.227  32.483  31.509  1.00  0.00     0.057 A 
ATOM     65  C   UNL A   1      44.599  33.569  30.707  1.00  0.00     0.134 A 
ATOM     66  C   UNL A   1      43.994  32.736  32.868  1.00  0.00     0.134 A 
ATOM     67  F   UNL A   1      44.847  33.396  29.400  1.00  0.00    -0.206 F 
ATOM     68  C   UNL A   1      44.757  34.851  31.238  1.00  0.00     0.040 A 
ATOM     69  C   UNL A   1      44.121  34.018  33.404  1.00  0.00     0.040 A 
ATOM     70  F   UNL A   1      43.626  31.744  33.692  1.00  0.00    -0.206 F 
ATOM     71  C   UNL A   1      44.509  35.079  32.590  1.00  0.00     0.006 A 
ENDBRANCH  50  64
BRANCH  51  72
ATOM     72  C   UNL A   1      42.586  23.536  27.406  1.00  0.00     0.057 A 
ATOM     73  C   UNL A   1      42.235  22.415  28.168  1.00  0.00     0.134 A 
ATOM     74  C   UNL A   1      42.731  23.358  26.026  1.00  0.00     0.134 A 
ATOM     75  F   UNL A   1      42.099  22.518  29.497  1.00  0.00    -0.206 F 
ATOM     76  C   UNL A   1      42.059  21.160  27.583  1.00  0.00     0.040 A 
ATOM     77  C   UNL A   1      42.531  22.114  25.425  1.00  0.00     0.040 A 
ATOM     78  F   UNL A   1      43.059  24.394  25.239  1.00  0.00    -0.206 F 
ATOM     79  C   UNL A   1      42.203  21.008  26.205  1.00  0.00     0.006 A 
ENDBRANCH  51  72
BRANCH  63  80
ATOM     80  C   UNL A   1      48.176  26.587  30.220  1.00  0.00     0.057 A 
ATOM     81  C   UNL A   1      49.194  26.848  29.295  1.00  0.00     0.134 A 
ATOM     82  C   UNL A   1      48.525  25.897  31.389  1.00  0.00     0.134 A 
ATOM     83  F   UNL A   1      48.925  27.492  28.150  1.00  0.00    -0.206 F 
ATOM     84  C   UNL A   1      50.504  26.416  29.513  1.00  0.00     0.040 A 
ATOM     85  C   UNL A   1      49.837  25.487  31.631  1.00  0.00     0.040 A 
ATOM     86  F   UNL A   1      47.600  25.622  32.320  1.00  0.00    -0.206 F 
ATOM     87  C   UNL A   1      50.829  25.740  30.687  1.00  0.00     0.006 A 
ENDBRANCH  63  80
ENDBRANCH  37  38
ENDBRANCH  29  32
ENDBRANCH  27  28
ENDBRANCH  26  27
ENDBRANCH   1  26
TORSDOF 16
ENDMDL
