MODEL 1
REMARK VINA RESULT:     -12.4      0.000      0.000
REMARK SMILES COc1ccc(-c2ncn(CC(=O)NCCCNC(=O)c3ccc(-c4c5nc(c(-c6c(F)cccc6F)c6ccc([nH]6)c(-c6c(F)cccc6F)c6nc(c(-c7c(F)cccc7F)c7ccc4[nH]7)C=C6)C=C5)cc3)c2-c2ccc(OC)cc2)cc1
REMARK SMILES IDX 15 1 14 2 12 3 13 4 11 6 10 7 7 8 8 9 75 10 9 11 6 12 3 13
REMARK SMILES IDX 4 14 85 15 5 16 84 17 2 18 1 19 76 20 77 21 83 22 78 23
REMARK SMILES IDX 82 24 79 25 80 26 81 27 16 28 17 29 18 30 19 31 20 33 21 34
REMARK SMILES IDX 22 35 74 36 23 37 73 38 24 39 25 40 26 41 67 42 27 43 72 44
REMARK SMILES IDX 66 45 68 46 28 47 71 48 65 49 64 50 29 52 55 53 38 54 54 55
REMARK SMILES IDX 39 56 42 57 53 58 69 59 40 60 41 61 52 63 70 64 43 65 30 66
REMARK SMILES IDX 31 67 36 68 32 69 33 70 35 71 37 72 34 73 56 74 57 75 62 76
REMARK SMILES IDX 58 77 59 78 61 79 63 80 60 81 44 82 45 83 50 84 46 85 47 86
REMARK SMILES IDX 49 87 51 88 48 89
REMARK H PARENT 14 5 18 32 68 51 42 62
REMARK Flexibility Score: inf
ROOT
ATOM      1  C   UNL A   1      31.884  27.936  26.213  1.00  0.00     0.117 C 
ENDROOT
BRANCH   1   2
ATOM      2  N   UNL A   1      31.728  28.359  24.830  1.00  0.00    -0.354 N 
ATOM      3  C   UNL A   1      32.182  27.758  23.690  1.00  0.00     0.239 C 
ATOM      4  O   UNL A   1      31.747  28.170  22.612  1.00  0.00    -0.273 OA
ATOM      5  H   UNL A   1      31.225  29.195  24.697  1.00  0.00     0.163 HD
BRANCH   3   6
ATOM      6  C   UNL A   1      33.138  26.586  23.757  1.00  0.00     0.223 C 
BRANCH   6   7
ATOM      7  N   UNL A   1      32.483  25.290  23.751  1.00  0.00    -0.321 N 
ATOM      8  C   UNL A   1      31.990  23.169  23.836  1.00  0.00     0.096 A 
ATOM      9  N   UNL A   1      30.887  23.803  23.322  1.00  0.00    -0.236 NA
ATOM     10  C   UNL A   1      33.018  24.066  24.099  1.00  0.00     0.076 A 
ATOM     11  C   UNL A   1      31.222  25.068  23.260  1.00  0.00     0.201 A 
BRANCH   8  12
ATOM     12  C   UNL A   1      32.115  21.729  23.932  1.00  0.00     0.003 A 
ATOM     13  C   UNL A   1      32.718  19.003  24.045  1.00  0.00     0.118 A 
ATOM     14  C   UNL A   1      32.596  19.737  25.223  1.00  0.00     0.047 A 
ATOM     15  C   UNL A   1      32.463  19.608  22.814  1.00  0.00     0.047 A 
ATOM     16  C   UNL A   1      32.305  21.102  25.169  1.00  0.00     0.014 A 
ATOM     17  C   UNL A   1      32.157  20.969  22.759  1.00  0.00     0.014 A 
BRANCH  13  18
ATOM     18  O   UNL A   1      33.046  17.681  24.182  1.00  0.00    -0.497 OA
ATOM     19  C   UNL A   1      32.528  17.097  25.376  1.00  0.00     0.278 C 
ENDBRANCH  13  18
ENDBRANCH   8  12
BRANCH  10  20
ATOM     20  C   UNL A   1      34.408  23.817  24.474  1.00  0.00     0.001 A 
ATOM     21  C   UNL A   1      34.849  23.949  25.791  1.00  0.00     0.014 A 
ATOM     22  C   UNL A   1      35.311  23.385  23.497  1.00  0.00     0.014 A 
ATOM     23  C   UNL A   1      36.188  23.702  26.111  1.00  0.00     0.047 A 
ATOM     24  C   UNL A   1      36.642  23.109  23.823  1.00  0.00     0.047 A 
ATOM     25  C   UNL A   1      37.088  23.275  25.132  1.00  0.00     0.118 A 
BRANCH  25  26
ATOM     26  O   UNL A   1      38.363  23.058  25.577  1.00  0.00    -0.497 OA
ATOM     27  C   UNL A   1      38.732  21.702  25.799  1.00  0.00     0.278 C 
ENDBRANCH  25  26
ENDBRANCH  10  20
ENDBRANCH   6   7
ENDBRANCH   3   6
ENDBRANCH   1   2
BRANCH   1  28
ATOM     28  C   UNL A   1      32.045  29.090  27.205  1.00  0.00     0.042 C 
BRANCH  28  29
ATOM     29  C   UNL A   1      33.498  29.442  27.451  1.00  0.00     0.118 C 
BRANCH  29  30
ATOM     30  N   UNL A   1      33.748  30.889  27.546  1.00  0.00    -0.352 N 
ATOM     31  C   UNL A   1      34.849  31.553  28.076  1.00  0.00     0.251 C 
ATOM     32  H   UNL A   1      33.038  31.466  27.183  1.00  0.00     0.163 HD
ATOM     33  O   UNL A   1      34.805  32.741  28.338  1.00  0.00    -0.269 OA
BRANCH  31  34
ATOM     34  C   UNL A   1      36.084  30.779  28.297  1.00  0.00     0.039 A 
ATOM     35  C   UNL A   1      36.327  29.523  27.731  1.00  0.00     0.014 A 
ATOM     36  C   UNL A   1      37.046  31.395  29.078  1.00  0.00     0.014 A 
ATOM     37  C   UNL A   1      37.568  28.926  27.957  1.00  0.00     0.010 A 
ATOM     38  C   UNL A   1      38.333  30.988  28.984  1.00  0.00     0.010 A 
ATOM     39  C   UNL A   1      38.556  29.678  28.600  1.00  0.00    -0.014 A 
BRANCH  39  40
ATOM     40  C   UNL A   1      39.886  29.202  28.923  1.00  0.00     0.031 A 
ATOM     41  C   UNL A   1      40.101  28.950  30.366  1.00  0.00     0.074 A 
ATOM     42  C   UNL A   1      40.669  28.693  27.941  1.00  0.00     0.049 A 
ATOM     43  N   UNL A   1      40.890  29.585  31.164  1.00  0.00    -0.248 NA
ATOM     44  C   UNL A   1      39.200  28.005  31.050  1.00  0.00     0.031 C 
ATOM     45  C   UNL A   1      40.375  28.572  26.502  1.00  0.00     0.029 A 
ATOM     46  N   UNL A   1      41.852  28.033  28.052  1.00  0.00    -0.354 N 
ATOM     47  C   UNL A   1      40.756  28.959  32.401  1.00  0.00     0.074 A 
ATOM     48  C   UNL A   1      39.543  28.196  32.325  1.00  0.00     0.031 C 
ATOM     49  C   UNL A   1      41.228  27.693  25.932  1.00  0.00     0.029 A 
ATOM     50  C   UNL A   1      42.216  27.305  26.917  1.00  0.00     0.049 A 
ATOM     51  H   UNL A   1      42.406  28.065  28.864  1.00  0.00     0.167 HD
ATOM     52  C   UNL A   1      41.805  28.897  33.269  1.00  0.00     0.037 A 
ATOM     53  C   UNL A   1      43.237  26.411  26.849  1.00  0.00     0.037 A 
ATOM     54  C   UNL A   1      42.861  29.787  32.844  1.00  0.00     0.049 A 
ATOM     55  C   UNL A   1      44.128  26.695  28.008  1.00  0.00     0.074 A 
ATOM     56  C   UNL A   1      42.951  31.148  32.623  1.00  0.00     0.029 A 
ATOM     57  N   UNL A   1      43.926  29.225  32.178  1.00  0.00    -0.354 N 
ATOM     58  N   UNL A   1      44.818  27.799  28.126  1.00  0.00    -0.248 NA
ATOM     59  C   UNL A   1      43.832  26.008  29.259  1.00  0.00     0.031 C 
ATOM     60  C   UNL A   1      43.748  31.273  31.447  1.00  0.00     0.029 A 
ATOM     61  C   UNL A   1      44.180  29.998  31.075  1.00  0.00     0.049 A 
ATOM     62  H   UNL A   1      44.416  28.414  32.444  1.00  0.00     0.167 HD
ATOM     63  C   UNL A   1      44.673  28.169  29.458  1.00  0.00     0.074 A 
ATOM     64  C   UNL A   1      44.105  26.994  30.121  1.00  0.00     0.031 C 
ATOM     65  C   UNL A   1      44.721  29.480  29.839  1.00  0.00     0.037 A 
BRANCH  52  66
ATOM     66  C   UNL A   1      42.077  27.767  34.240  1.00  0.00     0.057 A 
ATOM     67  C   UNL A   1      41.745  27.961  35.595  1.00  0.00     0.134 A 
ATOM     68  C   UNL A   1      42.898  26.649  33.989  1.00  0.00     0.134 A 
ATOM     69  F   UNL A   1      40.943  28.969  35.973  1.00  0.00    -0.206 F 
ATOM     70  C   UNL A   1      42.293  27.189  36.626  1.00  0.00     0.040 A 
ATOM     71  C   UNL A   1      43.411  25.841  35.008  1.00  0.00     0.040 A 
ATOM     72  F   UNL A   1      43.331  26.319  32.769  1.00  0.00    -0.206 F 
ATOM     73  C   UNL A   1      43.146  26.135  36.334  1.00  0.00     0.006 A 
ENDBRANCH  52  66
BRANCH  53  74
ATOM     74  C   UNL A   1      43.317  25.163  26.050  1.00  0.00     0.057 A 
ATOM     75  C   UNL A   1      44.395  24.902  25.193  1.00  0.00     0.134 A 
ATOM     76  C   UNL A   1      42.461  24.074  26.301  1.00  0.00     0.134 A 
ATOM     77  F   UNL A   1      45.296  25.858  24.923  1.00  0.00    -0.206 F 
ATOM     78  C   UNL A   1      44.615  23.635  24.628  1.00  0.00     0.040 A 
ATOM     79  C   UNL A   1      42.664  22.807  25.742  1.00  0.00     0.040 A 
ATOM     80  F   UNL A   1      41.441  24.183  27.167  1.00  0.00    -0.206 F 
ATOM     81  C   UNL A   1      43.752  22.579  24.911  1.00  0.00     0.006 A 
ENDBRANCH  53  74
BRANCH  65  82
ATOM     82  C   UNL A   1      45.138  30.511  28.823  1.00  0.00     0.057 A 
ATOM     83  C   UNL A   1      46.471  30.767  28.465  1.00  0.00     0.134 A 
ATOM     84  C   UNL A   1      44.151  31.100  28.028  1.00  0.00     0.134 A 
ATOM     85  F   UNL A   1      47.485  30.173  29.100  1.00  0.00    -0.206 F 
ATOM     86  C   UNL A   1      46.805  31.587  27.382  1.00  0.00     0.040 A 
ATOM     87  C   UNL A   1      44.468  31.894  26.925  1.00  0.00     0.040 A 
ATOM     88  F   UNL A   1      42.853  30.852  28.271  1.00  0.00    -0.206 F 
ATOM     89  C   UNL A   1      45.799  32.145  26.601  1.00  0.00     0.006 A 
ENDBRANCH  65  82
ENDBRANCH  39  40
ENDBRANCH  31  34
ENDBRANCH  29  30
ENDBRANCH  28  29
ENDBRANCH   1  28
TORSDOF 15
ENDMDL
MODEL 2
REMARK VINA RESULT:     -12.2      2.545      7.907
REMARK SMILES COc1ccc(-c2ncn(CC(=O)NCCCNC(=O)c3ccc(-c4c5nc(c(-c6c(F)cccc6F)c6ccc([nH]6)c(-c6c(F)cccc6F)c6nc(c(-c7c(F)cccc7F)c7ccc4[nH]7)C=C6)C=C5)cc3)c2-c2ccc(OC)cc2)cc1
REMARK SMILES IDX 15 1 14 2 12 3 13 4 11 6 10 7 7 8 8 9 75 10 9 11 6 12 3 13
REMARK SMILES IDX 4 14 85 15 5 16 84 17 2 18 1 19 76 20 77 21 83 22 78 23
REMARK SMILES IDX 82 24 79 25 80 26 81 27 16 28 17 29 18 30 19 31 20 33 21 34
REMARK SMILES IDX 22 35 74 36 23 37 73 38 24 39 25 40 26 41 67 42 27 43 72 44
REMARK SMILES IDX 66 45 68 46 28 47 71 48 65 49 64 50 29 52 55 53 38 54 54 55
REMARK SMILES IDX 39 56 42 57 53 58 69 59 40 60 41 61 52 63 70 64 43 65 30 66
REMARK SMILES IDX 31 67 36 68 32 69 33 70 35 71 37 72 34 73 56 74 57 75 62 76
REMARK SMILES IDX 58 77 59 78 61 79 63 80 60 81 44 82 45 83 50 84 46 85 47 86
REMARK SMILES IDX 49 87 51 88 48 89
REMARK H PARENT 14 5 18 32 68 51 42 62
REMARK Flexibility Score: inf
ROOT
ATOM      1  C   UNL A   1      35.365  21.559  25.229  1.00  0.00     0.117 C 
ENDROOT
BRANCH   1   2
ATOM      2  N   UNL A   1      35.191  22.242  23.957  1.00  0.00    -0.354 N 
ATOM      3  C   UNL A   1      34.386  23.304  23.653  1.00  0.00     0.239 C 
ATOM      4  O   UNL A   1      34.560  23.864  22.569  1.00  0.00    -0.273 OA
ATOM      5  H   UNL A   1      35.729  21.891  23.210  1.00  0.00     0.163 HD
BRANCH   3   6
ATOM      6  C   UNL A   1      33.360  23.809  24.645  1.00  0.00     0.223 C 
BRANCH   6   7
ATOM      7  N   UNL A   1      32.230  24.485  24.031  1.00  0.00    -0.321 N 
ATOM      8  C   UNL A   1      30.666  25.885  23.446  1.00  0.00     0.096 A 
ATOM      9  N   UNL A   1      30.338  24.679  22.881  1.00  0.00    -0.236 NA
ATOM     10  C   UNL A   1      31.836  25.798  24.192  1.00  0.00     0.076 A 
ATOM     11  C   UNL A   1      31.280  23.855  23.270  1.00  0.00     0.201 A 
BRANCH   8  12
ATOM     12  C   UNL A   1      29.808  27.051  23.402  1.00  0.00     0.003 A 
ATOM     13  C   UNL A   1      28.105  29.221  22.957  1.00  0.00     0.118 A 
ATOM     14  C   UNL A   1      27.611  28.058  23.546  1.00  0.00     0.047 A 
ATOM     15  C   UNL A   1      29.463  29.332  22.661  1.00  0.00     0.047 A 
ATOM     16  C   UNL A   1      28.458  26.969  23.760  1.00  0.00     0.014 A 
ATOM     17  C   UNL A   1      30.315  28.249  22.888  1.00  0.00     0.014 A 
BRANCH  13  18
ATOM     18  O   UNL A   1      27.202  30.227  22.743  1.00  0.00    -0.497 OA
ATOM     19  C   UNL A   1      27.458  31.386  23.534  1.00  0.00     0.278 C 
ENDBRANCH  13  18
ENDBRANCH   8  12
BRANCH  10  20
ATOM     20  C   UNL A   1      32.447  26.769  25.095  1.00  0.00     0.001 A 
ATOM     21  C   UNL A   1      33.593  27.482  24.743  1.00  0.00     0.014 A 
ATOM     22  C   UNL A   1      31.839  27.030  26.328  1.00  0.00     0.014 A 
ATOM     23  C   UNL A   1      34.148  28.404  25.635  1.00  0.00     0.047 A 
ATOM     24  C   UNL A   1      32.378  27.973  27.208  1.00  0.00     0.047 A 
ATOM     25  C   UNL A   1      33.542  28.659  26.867  1.00  0.00     0.118 A 
BRANCH  25  26
ATOM     26  O   UNL A   1      34.179  29.588  27.642  1.00  0.00    -0.497 OA
ATOM     27  C   UNL A   1      35.600  29.518  27.672  1.00  0.00     0.278 C 
ENDBRANCH  25  26
ENDBRANCH  10  20
ENDBRANCH   6   7
ENDBRANCH   3   6
ENDBRANCH   1   2
BRANCH   1  28
ATOM     28  C   UNL A   1      36.162  22.357  26.263  1.00  0.00     0.042 C 
BRANCH  28  29
ATOM     29  C   UNL A   1      37.490  22.844  25.721  1.00  0.00     0.118 C 
BRANCH  29  30
ATOM     30  N   UNL A   1      38.629  21.989  26.091  1.00  0.00    -0.352 N 
ATOM     31  C   UNL A   1      39.883  22.360  26.561  1.00  0.00     0.251 C 
ATOM     32  H   UNL A   1      38.481  21.020  25.994  1.00  0.00     0.163 HD
ATOM     33  O   UNL A   1      40.814  21.575  26.567  1.00  0.00    -0.269 OA
BRANCH  31  34
ATOM     34  C   UNL A   1      40.053  23.732  27.073  1.00  0.00     0.039 A 
ATOM     35  C   UNL A   1      39.089  24.737  26.941  1.00  0.00     0.014 A 
ATOM     36  C   UNL A   1      41.233  23.977  27.754  1.00  0.00     0.014 A 
ATOM     37  C   UNL A   1      39.339  25.975  27.534  1.00  0.00     0.010 A 
ATOM     38  C   UNL A   1      41.296  25.023  28.610  1.00  0.00     0.010 A 
ATOM     39  C   UNL A   1      40.463  26.097  28.359  1.00  0.00    -0.014 A 
BRANCH  39  40
ATOM     40  C   UNL A   1      40.871  27.313  29.033  1.00  0.00     0.031 A 
ATOM     41  C   UNL A   1      42.014  28.001  28.393  1.00  0.00     0.074 A 
ATOM     42  C   UNL A   1      40.023  27.907  29.908  1.00  0.00     0.049 A 
ATOM     43  N   UNL A   1      43.201  28.163  28.873  1.00  0.00    -0.248 NA
ATOM     44  C   UNL A   1      41.889  28.394  26.979  1.00  0.00     0.031 C 
ATOM     45  C   UNL A   1      38.683  27.466  30.333  1.00  0.00     0.029 A 
ATOM     46  N   UNL A   1      40.126  29.128  30.497  1.00  0.00    -0.354 N 
ATOM     47  C   UNL A   1      43.899  28.889  27.912  1.00  0.00     0.074 A 
ATOM     48  C   UNL A   1      43.139  28.768  26.701  1.00  0.00     0.031 C 
ATOM     49  C   UNL A   1      38.022  28.493  30.909  1.00  0.00     0.029 A 
ATOM     50  C   UNL A   1      38.932  29.613  31.034  1.00  0.00     0.049 A 
ATOM     51  H   UNL A   1      40.973  29.628  30.542  1.00  0.00     0.167 HD
ATOM     52  C   UNL A   1      44.882  29.761  28.273  1.00  0.00     0.037 A 
ATOM     53  C   UNL A   1      38.730  30.877  31.489  1.00  0.00     0.037 A 
ATOM     54  C   UNL A   1      45.241  29.565  29.659  1.00  0.00     0.049 A 
ATOM     55  C   UNL A   1      40.078  31.464  31.728  1.00  0.00     0.074 A 
ATOM     56  C   UNL A   1      45.730  28.500  30.392  1.00  0.00     0.029 A 
ATOM     57  N   UNL A   1      44.710  30.443  30.575  1.00  0.00    -0.354 N 
ATOM     58  N   UNL A   1      40.892  31.030  32.654  1.00  0.00    -0.248 NA
ATOM     59  C   UNL A   1      40.714  32.148  30.609  1.00  0.00     0.031 C 
ATOM     60  C   UNL A   1      45.026  28.560  31.631  1.00  0.00     0.029 A 
ATOM     61  C   UNL A   1      44.227  29.705  31.625  1.00  0.00     0.049 A 
ATOM     62  H   UNL A   1      44.681  31.423  30.492  1.00  0.00     0.167 HD
ATOM     63  C   UNL A   1      42.140  30.998  32.045  1.00  0.00     0.074 A 
ATOM     64  C   UNL A   1      41.979  31.756  30.803  1.00  0.00     0.031 C 
ATOM     65  C   UNL A   1      43.097  30.103  32.433  1.00  0.00     0.037 A 
BRANCH  52  66
ATOM     66  C   UNL A   1      45.230  31.044  27.548  1.00  0.00     0.057 A 
ATOM     67  C   UNL A   1      46.522  31.169  27.001  1.00  0.00     0.134 A 
ATOM     68  C   UNL A   1      44.499  32.247  27.615  1.00  0.00     0.134 A 
ATOM     69  F   UNL A   1      47.315  30.097  26.849  1.00  0.00    -0.206 F 
ATOM     70  C   UNL A   1      47.088  32.407  26.674  1.00  0.00     0.040 A 
ATOM     71  C   UNL A   1      45.037  33.483  27.243  1.00  0.00     0.040 A 
ATOM     72  F   UNL A   1      43.266  32.327  28.122  1.00  0.00    -0.206 F 
ATOM     73  C   UNL A   1      46.350  33.573  26.813  1.00  0.00     0.006 A 
ENDBRANCH  52  66
BRANCH  53  74
ATOM     74  C   UNL A   1      37.490  31.691  31.429  1.00  0.00     0.057 A 
ATOM     75  C   UNL A   1      36.965  32.151  30.213  1.00  0.00     0.134 A 
ATOM     76  C   UNL A   1      36.645  31.825  32.548  1.00  0.00     0.134 A 
ATOM     77  F   UNL A   1      37.669  32.029  29.079  1.00  0.00    -0.206 F 
ATOM     78  C   UNL A   1      35.676  32.699  30.113  1.00  0.00     0.040 A 
ATOM     79  C   UNL A   1      35.360  32.373  32.463  1.00  0.00     0.040 A 
ATOM     80  F   UNL A   1      37.008  31.348  33.748  1.00  0.00    -0.206 F 
ATOM     81  C   UNL A   1      34.865  32.802  31.240  1.00  0.00     0.006 A 
ENDBRANCH  53  74
BRANCH  65  82
ATOM     82  C   UNL A   1      42.854  29.280  33.670  1.00  0.00     0.057 A 
ATOM     83  C   UNL A   1      43.030  29.758  34.979  1.00  0.00     0.134 A 
ATOM     84  C   UNL A   1      42.212  28.046  33.535  1.00  0.00     0.134 A 
ATOM     85  F   UNL A   1      43.543  30.970  35.210  1.00  0.00    -0.206 F 
ATOM     86  C   UNL A   1      42.607  29.033  36.097  1.00  0.00     0.040 A 
ATOM     87  C   UNL A   1      41.756  27.326  34.640  1.00  0.00     0.040 A 
ATOM     88  F   UNL A   1      41.953  27.552  32.313  1.00  0.00    -0.206 F 
ATOM     89  C   UNL A   1      41.958  27.815  35.928  1.00  0.00     0.006 A 
ENDBRANCH  65  82
ENDBRANCH  39  40
ENDBRANCH  31  34
ENDBRANCH  29  30
ENDBRANCH  28  29
ENDBRANCH   1  28
TORSDOF 15
ENDMDL
MODEL 3
REMARK VINA RESULT:     -11.9      2.357      7.873
REMARK SMILES COc1ccc(-c2ncn(CC(=O)NCCCNC(=O)c3ccc(-c4c5nc(c(-c6c(F)cccc6F)c6ccc([nH]6)c(-c6c(F)cccc6F)c6nc(c(-c7c(F)cccc7F)c7ccc4[nH]7)C=C6)C=C5)cc3)c2-c2ccc(OC)cc2)cc1
REMARK SMILES IDX 15 1 14 2 12 3 13 4 11 6 10 7 7 8 8 9 75 10 9 11 6 12 3 13
REMARK SMILES IDX 4 14 85 15 5 16 84 17 2 18 1 19 76 20 77 21 83 22 78 23
REMARK SMILES IDX 82 24 79 25 80 26 81 27 16 28 17 29 18 30 19 31 20 33 21 34
REMARK SMILES IDX 22 35 74 36 23 37 73 38 24 39 25 40 26 41 67 42 27 43 72 44
REMARK SMILES IDX 66 45 68 46 28 47 71 48 65 49 64 50 29 52 55 53 38 54 54 55
REMARK SMILES IDX 39 56 42 57 53 58 69 59 40 60 41 61 52 63 70 64 43 65 30 66
REMARK SMILES IDX 31 67 36 68 32 69 33 70 35 71 37 72 34 73 56 74 57 75 62 76
REMARK SMILES IDX 58 77 59 78 61 79 63 80 60 81 44 82 45 83 50 84 46 85 47 86
REMARK SMILES IDX 49 87 51 88 48 89
REMARK H PARENT 14 5 18 32 68 51 42 62
REMARK Flexibility Score: inf
ROOT
ATOM      1  C   UNL A   1      35.300  21.407  24.852  1.00  0.00     0.117 C 
ENDROOT
BRANCH   1   2
ATOM      2  N   UNL A   1      34.421  20.381  25.392  1.00  0.00    -0.354 N 
ATOM      3  C   UNL A   1      33.066  20.260  25.275  1.00  0.00     0.239 C 
ATOM      4  O   UNL A   1      32.552  19.195  25.625  1.00  0.00    -0.273 OA
ATOM      5  H   UNL A   1      34.866  19.676  25.916  1.00  0.00     0.163 HD
BRANCH   3   6
ATOM      6  C   UNL A   1      32.235  21.375  24.677  1.00  0.00     0.223 C 
BRANCH   6   7
ATOM      7  N   UNL A   1      32.179  22.574  25.496  1.00  0.00    -0.321 N 
ATOM      8  C   UNL A   1      32.213  24.611  26.269  1.00  0.00     0.096 A 
ATOM      9  N   UNL A   1      32.198  23.782  27.362  1.00  0.00    -0.236 NA
ATOM     10  C   UNL A   1      32.222  23.889  25.081  1.00  0.00     0.076 A 
ATOM     11  C   UNL A   1      32.203  22.568  26.867  1.00  0.00     0.201 A 
BRANCH   8  12
ATOM     12  C   UNL A   1      32.367  26.048  26.355  1.00  0.00     0.003 A 
ATOM     13  C   UNL A   1      32.713  28.770  26.885  1.00  0.00     0.118 A 
ATOM     14  C   UNL A   1      33.774  28.019  26.382  1.00  0.00     0.047 A 
ATOM     15  C   UNL A   1      31.458  28.183  27.050  1.00  0.00     0.047 A 
ATOM     16  C   UNL A   1      33.607  26.656  26.126  1.00  0.00     0.014 A 
ATOM     17  C   UNL A   1      31.284  26.825  26.781  1.00  0.00     0.014 A 
BRANCH  13  18
ATOM     18  O   UNL A   1      32.970  30.088  27.149  1.00  0.00    -0.497 OA
ATOM     19  C   UNL A   1      34.354  30.356  27.367  1.00  0.00     0.278 C 
ENDBRANCH  13  18
ENDBRANCH   8  12
BRANCH  10  20
ATOM     20  C   UNL A   1      32.416  24.345  23.708  1.00  0.00     0.001 A 
ATOM     21  C   UNL A   1      31.669  25.392  23.167  1.00  0.00     0.014 A 
ATOM     22  C   UNL A   1      33.413  23.751  22.927  1.00  0.00     0.014 A 
ATOM     23  C   UNL A   1      31.885  25.800  21.847  1.00  0.00     0.047 A 
ATOM     24  C   UNL A   1      33.649  24.179  21.617  1.00  0.00     0.047 A 
ATOM     25  C   UNL A   1      32.877  25.202  21.069  1.00  0.00     0.118 A 
BRANCH  25  26
ATOM     26  O   UNL A   1      32.993  25.699  19.800  1.00  0.00    -0.497 OA
ATOM     27  C   UNL A   1      31.961  25.343  18.886  1.00  0.00     0.278 C 
ENDBRANCH  25  26
ENDBRANCH  10  20
ENDBRANCH   6   7
ENDBRANCH   3   6
ENDBRANCH   1   2
BRANCH   1  28
ATOM     28  C   UNL A   1      35.941  22.303  25.915  1.00  0.00     0.042 C 
BRANCH  28  29
ATOM     29  C   UNL A   1      37.344  22.734  25.538  1.00  0.00     0.118 C 
BRANCH  29  30
ATOM     30  N   UNL A   1      38.392  21.824  26.024  1.00  0.00    -0.352 N 
ATOM     31  C   UNL A   1      39.625  22.132  26.587  1.00  0.00     0.251 C 
ATOM     32  H   UNL A   1      38.192  20.863  25.940  1.00  0.00     0.163 HD
ATOM     33  O   UNL A   1      40.501  21.293  26.690  1.00  0.00    -0.269 OA
BRANCH  31  34
ATOM     34  C   UNL A   1      39.839  23.507  27.075  1.00  0.00     0.039 A 
ATOM     35  C   UNL A   1      38.886  24.525  26.975  1.00  0.00     0.014 A 
ATOM     36  C   UNL A   1      41.051  23.740  27.701  1.00  0.00     0.014 A 
ATOM     37  C   UNL A   1      39.182  25.766  27.543  1.00  0.00     0.010 A 
ATOM     38  C   UNL A   1      41.169  24.794  28.542  1.00  0.00     0.010 A 
ATOM     39  C   UNL A   1      40.342  25.878  28.315  1.00  0.00    -0.014 A 
BRANCH  39  40
ATOM     40  C   UNL A   1      40.799  27.095  28.958  1.00  0.00     0.031 A 
ATOM     41  C   UNL A   1      41.977  27.712  28.309  1.00  0.00     0.074 A 
ATOM     42  C   UNL A   1      39.972  27.751  29.807  1.00  0.00     0.049 A 
ATOM     43  N   UNL A   1      43.166  27.835  28.795  1.00  0.00    -0.248 NA
ATOM     44  C   UNL A   1      41.880  28.068  26.882  1.00  0.00     0.031 C 
ATOM     45  C   UNL A   1      38.610  27.382  30.232  1.00  0.00     0.029 A 
ATOM     46  N   UNL A   1      40.124  28.983  30.361  1.00  0.00    -0.354 N 
ATOM     47  C   UNL A   1      43.903  28.501  27.819  1.00  0.00     0.074 A 
ATOM     48  C   UNL A   1      43.148  28.377  26.605  1.00  0.00     0.031 C 
ATOM     49  C   UNL A   1      37.991  28.455  30.772  1.00  0.00     0.029 A 
ATOM     50  C   UNL A   1      38.948  29.537  30.872  1.00  0.00     0.049 A 
ATOM     51  H   UNL A   1      40.992  29.446  30.399  1.00  0.00     0.167 HD
ATOM     52  C   UNL A   1      44.921  29.338  28.163  1.00  0.00     0.037 A 
ATOM     53  C   UNL A   1      38.799  30.821  31.288  1.00  0.00     0.037 A 
ATOM     54  C   UNL A   1      45.260  29.168  29.558  1.00  0.00     0.049 A 
ATOM     55  C   UNL A   1      40.170  31.354  31.522  1.00  0.00     0.074 A 
ATOM     56  C   UNL A   1      45.695  28.105  30.326  1.00  0.00     0.029 A 
ATOM     57  N   UNL A   1      44.761  30.095  30.443  1.00  0.00    -0.354 N 
ATOM     58  N   UNL A   1      40.957  30.913  32.469  1.00  0.00    -0.248 NA
ATOM     59  C   UNL A   1      40.845  31.976  30.390  1.00  0.00     0.031 C 
ATOM     60  C   UNL A   1      44.984  28.232  31.557  1.00  0.00     0.029 A 
ATOM     61  C   UNL A   1      44.238  29.411  31.509  1.00  0.00     0.049 A 
ATOM     62  H   UNL A   1      44.776  31.073  30.331  1.00  0.00     0.167 HD
ATOM     63  C   UNL A   1      42.207  30.808  31.872  1.00  0.00     0.074 A 
ATOM     64  C   UNL A   1      42.089  31.535  30.607  1.00  0.00     0.031 C 
ATOM     65  C   UNL A   1      43.120  29.883  32.295  1.00  0.00     0.037 A 
BRANCH  52  66
ATOM     66  C   UNL A   1      45.331  30.583  27.404  1.00  0.00     0.057 A 
ATOM     67  C   UNL A   1      46.676  30.702  27.001  1.00  0.00     0.134 A 
ATOM     68  C   UNL A   1      44.581  31.772  27.312  1.00  0.00     0.134 A 
ATOM     69  F   UNL A   1      47.497  29.640  27.008  1.00  0.00    -0.206 F 
ATOM     70  C   UNL A   1      47.258  31.930  26.665  1.00  0.00     0.040 A 
ATOM     71  C   UNL A   1      45.140  32.994  26.929  1.00  0.00     0.040 A 
ATOM     72  F   UNL A   1      43.296  31.855  27.669  1.00  0.00    -0.206 F 
ATOM     73  C   UNL A   1      46.492  33.086  26.646  1.00  0.00     0.006 A 
ENDBRANCH  52  66
BRANCH  53  74
ATOM     74  C   UNL A   1      37.598  31.687  31.193  1.00  0.00     0.057 A 
ATOM     75  C   UNL A   1      37.155  32.206  29.968  1.00  0.00     0.134 A 
ATOM     76  C   UNL A   1      36.702  31.821  32.271  1.00  0.00     0.134 A 
ATOM     77  F   UNL A   1      37.911  32.091  28.868  1.00  0.00    -0.206 F 
ATOM     78  C   UNL A   1      35.895  32.810  29.821  1.00  0.00     0.040 A 
ATOM     79  C   UNL A   1      35.446  32.425  32.140  1.00  0.00     0.040 A 
ATOM     80  F   UNL A   1      36.983  31.293  33.472  1.00  0.00    -0.206 F 
ATOM     81  C   UNL A   1      35.032  32.912  30.908  1.00  0.00     0.006 A 
ENDBRANCH  53  74
BRANCH  65  82
ATOM     82  C   UNL A   1      42.831  29.109  33.554  1.00  0.00     0.057 A 
ATOM     83  C   UNL A   1      42.187  27.861  33.579  1.00  0.00     0.134 A 
ATOM     84  C   UNL A   1      43.419  29.535  34.747  1.00  0.00     0.134 A 
ATOM     85  F   UNL A   1      41.679  27.321  32.467  1.00  0.00    -0.206 F 
ATOM     86  C   UNL A   1      42.113  27.087  34.741  1.00  0.00     0.040 A 
ATOM     87  C   UNL A   1      43.382  28.758  35.907  1.00  0.00     0.040 A 
ATOM     88  F   UNL A   1      44.106  30.688  34.786  1.00  0.00    -0.206 F 
ATOM     89  C   UNL A   1      42.723  27.531  35.909  1.00  0.00     0.006 A 
ENDBRANCH  65  82
ENDBRANCH  39  40
ENDBRANCH  31  34
ENDBRANCH  29  30
ENDBRANCH  28  29
ENDBRANCH   1  28
TORSDOF 15
ENDMDL
