MODEL 1
REMARK VINA RESULT:     -12.8      0.000      0.000
REMARK SMILES Cc1cccc2c1N=CN1C2=[NH+]NC(=O)[C@@H]1CC(=O)NCCCNC(=O)c1ccc(-c2c3nc(c(-c4c(F)cccc4F)c4ccc([nH]4)c(-c4c(F)cccc4F)c4nc(c(-c5c(F)cccc5F)c5ccc2[nH]5)C=C4)C=C3)cc1
REMARK SMILES IDX 22 1 21 2 20 3 18 4 19 5 17 7 16 8 1 9 2 10 3 11 7 12 4 13
REMARK SMILES IDX 6 14 8 15 5 16 11 17 9 18 10 19 12 20 13 21 14 23 15 25
REMARK SMILES IDX 23 26 24 27 25 28 26 30 27 31 28 32 80 33 29 34 79 35 30 36
REMARK SMILES IDX 31 37 32 38 73 39 33 40 78 41 72 42 74 43 34 44 77 45 71 46
REMARK SMILES IDX 70 47 35 49 61 50 44 51 60 52 45 53 48 54 59 55 75 56 46 57
REMARK SMILES IDX 47 58 58 60 76 61 49 62 36 63 37 64 42 65 38 66 39 67 41 68
REMARK SMILES IDX 43 69 40 70 62 71 63 72 68 73 64 74 65 75 67 76 69 77 66 78
REMARK SMILES IDX 50 79 51 80 56 81 52 82 53 83 55 84 57 85 54 86
REMARK H PARENT 20 6 12 22 13 24 24 29 74 48 48 59
REMARK Flexibility Score: inf
ROOT
ATOM      1  C   UNL A   1      33.312  31.518  26.612  1.00  0.00     0.042 C 
ENDROOT
BRANCH   1   2
ATOM      2  C   UNL A   1      33.676  30.149  27.158  1.00  0.00     0.117 C 
BRANCH   2   3
ATOM      3  N   UNL A   1      32.508  29.436  27.638  1.00  0.00    -0.356 N 
ATOM      4  C   UNL A   1      32.081  28.165  27.415  1.00  0.00     0.224 C 
ATOM      5  O   UNL A   1      31.116  27.775  28.072  1.00  0.00    -0.275 OA
ATOM      6  H   UNL A   1      31.924  29.963  28.230  1.00  0.00     0.163 HD
BRANCH   4   7
ATOM      7  C   UNL A   1      32.825  27.223  26.485  1.00  0.00     0.160 C 
BRANCH   7   8
ATOM      8  C   UNL A   1      32.040  26.452  25.408  1.00  0.00     0.284 C 
ATOM      9  C   UNL A   1      29.174  31.651  23.184  1.00  0.00     0.047 C 
ATOM     10  C   UNL A   1      28.726  30.217  23.145  1.00  0.00    -0.024 A 
ATOM     11  C   UNL A   1      27.349  29.952  23.164  1.00  0.00     0.006 A 
ATOM     12  C   UNL A   1      29.633  29.151  23.293  1.00  0.00     0.085 A 
ATOM     13  C   UNL A   1      26.881  28.648  23.301  1.00  0.00     0.001 A 
ATOM     14  C   UNL A   1      29.117  27.847  23.451  1.00  0.00     0.092 A 
ATOM     15  N   UNL A   1      31.018  29.420  23.430  1.00  0.00    -0.215 NA
ATOM     16  C   UNL A   1      27.752  27.584  23.402  1.00  0.00     0.019 A 
ATOM     17  C   UNL A   1      29.996  26.839  24.105  1.00  0.00     0.309 C 
ATOM     18  C   UNL A   1      31.717  28.502  24.017  1.00  0.00     0.317 C 
ATOM     19  N   UNL A   1      31.239  27.308  24.509  1.00  0.00    -0.203 N 
ATOM     20  N   UNL A   1      29.483  25.674  24.363  1.00  0.00    -0.169 N 
ATOM     21  N   UNL A   1      30.140  24.886  25.238  1.00  0.00    -0.193 N 
ATOM     22  H   UNL A   1      28.647  25.378  23.937  1.00  0.00     0.340 HD
ATOM     23  C   UNL A   1      31.226  25.282  25.977  1.00  0.00     0.300 C 
ATOM     24  H   UNL A   1      29.818  23.963  25.356  1.00  0.00     0.216 HD
ATOM     25  O   UNL A   1      31.557  24.631  26.962  1.00  0.00    -0.267 OA
ENDBRANCH   7   8
ENDBRANCH   4   7
ENDBRANCH   2   3
ENDBRANCH   1   2
BRANCH   1  26
ATOM     26  C   UNL A   1      32.071  32.159  27.210  1.00  0.00     0.118 C 
BRANCH  26  27
ATOM     27  N   UNL A   1      32.236  33.591  27.392  1.00  0.00    -0.352 N 
ATOM     28  C   UNL A   1      33.068  34.301  28.222  1.00  0.00     0.251 C 
ATOM     29  H   UNL A   1      31.655  34.147  26.824  1.00  0.00     0.163 HD
ATOM     30  O   UNL A   1      32.847  35.505  28.381  1.00  0.00    -0.269 OA
BRANCH  28  31
ATOM     31  C   UNL A   1      34.217  33.683  28.936  1.00  0.00     0.039 A 
ATOM     32  C   UNL A   1      35.511  33.905  28.440  1.00  0.00     0.014 A 
ATOM     33  C   UNL A   1      34.050  32.801  30.005  1.00  0.00     0.014 A 
ATOM     34  C   UNL A   1      36.626  33.289  29.028  1.00  0.00     0.010 A 
ATOM     35  C   UNL A   1      35.163  32.233  30.635  1.00  0.00     0.010 A 
ATOM     36  C   UNL A   1      36.459  32.450  30.135  1.00  0.00    -0.014 A 
BRANCH  36  37
ATOM     37  C   UNL A   1      37.582  31.643  30.688  1.00  0.00     0.031 A 
ATOM     38  C   UNL A   1      38.099  31.996  32.055  1.00  0.00     0.074 A 
ATOM     39  C   UNL A   1      38.174  30.658  29.986  1.00  0.00     0.049 A 
ATOM     40  N   UNL A   1      39.107  31.487  32.715  1.00  0.00    -0.248 NA
ATOM     41  C   UNL A   1      37.372  33.051  32.782  1.00  0.00     0.031 C 
ATOM     42  C   UNL A   1      37.727  30.135  28.703  1.00  0.00     0.029 A 
ATOM     43  N   UNL A   1      39.314  29.936  30.245  1.00  0.00    -0.354 N 
ATOM     44  C   UNL A   1      39.106  32.128  33.946  1.00  0.00     0.074 A 
ATOM     45  C   UNL A   1      38.060  33.126  33.910  1.00  0.00     0.031 C 
ATOM     46  C   UNL A   1      38.635  29.271  28.222  1.00  0.00     0.029 A 
ATOM     47  C   UNL A   1      39.697  29.119  29.206  1.00  0.00     0.049 A 
ATOM     48  H   UNL A   1      39.809  29.997  31.094  1.00  0.00     0.167 HD
ATOM     49  C   UNL A   1      39.878  31.877  35.029  1.00  0.00     0.037 A 
ATOM     50  C   UNL A   1      40.767  28.316  29.071  1.00  0.00     0.037 A 
ATOM     51  C   UNL A   1      40.936  30.904  35.056  1.00  0.00     0.049 A 
ATOM     52  C   UNL A   1      41.702  28.156  30.236  1.00  0.00     0.074 A 
ATOM     53  C   UNL A   1      41.777  30.571  36.102  1.00  0.00     0.029 A 
ATOM     54  N   UNL A   1      41.307  30.117  33.975  1.00  0.00    -0.354 N 
ATOM     55  N   UNL A   1      41.646  28.715  31.420  1.00  0.00    -0.248 NA
ATOM     56  C   UNL A   1      42.820  27.219  30.063  1.00  0.00     0.031 C 
ATOM     57  C   UNL A   1      42.690  29.618  35.639  1.00  0.00     0.029 A 
ATOM     58  C   UNL A   1      42.386  29.321  34.321  1.00  0.00     0.049 A 
ATOM     59  H   UNL A   1      40.870  30.125  33.094  1.00  0.00     0.167 HD
ATOM     60  C   UNL A   1      42.681  28.153  32.152  1.00  0.00     0.074 A 
ATOM     61  C   UNL A   1      43.353  27.214  31.276  1.00  0.00     0.031 C 
ATOM     62  C   UNL A   1      43.033  28.382  33.441  1.00  0.00     0.037 A 
BRANCH  49  63
ATOM     63  C   UNL A   1      39.588  32.674  36.265  1.00  0.00     0.057 A 
ATOM     64  C   UNL A   1      40.276  33.862  36.534  1.00  0.00     0.134 A 
ATOM     65  C   UNL A   1      38.611  32.267  37.186  1.00  0.00     0.134 A 
ATOM     66  F   UNL A   1      41.222  34.308  35.695  1.00  0.00    -0.206 F 
ATOM     67  C   UNL A   1      39.999  34.620  37.673  1.00  0.00     0.040 A 
ATOM     68  C   UNL A   1      38.306  33.031  38.312  1.00  0.00     0.040 A 
ATOM     69  F   UNL A   1      37.903  31.147  36.975  1.00  0.00    -0.206 F 
ATOM     70  C   UNL A   1      39.005  34.210  38.560  1.00  0.00     0.006 A 
ENDBRANCH  49  63
BRANCH  50  71
ATOM     71  C   UNL A   1      40.983  27.544  27.820  1.00  0.00     0.057 A 
ATOM     72  C   UNL A   1      41.725  28.070  26.756  1.00  0.00     0.134 A 
ATOM     73  C   UNL A   1      40.490  26.241  27.680  1.00  0.00     0.134 A 
ATOM     74  F   UNL A   1      42.217  29.316  26.823  1.00  0.00    -0.206 F 
ATOM     75  C   UNL A   1      41.983  27.323  25.604  1.00  0.00     0.040 A 
ATOM     76  C   UNL A   1      40.758  25.475  26.545  1.00  0.00     0.040 A 
ATOM     77  F   UNL A   1      39.783  25.679  28.671  1.00  0.00    -0.206 F 
ATOM     78  C   UNL A   1      41.509  26.016  25.503  1.00  0.00     0.006 A 
ENDBRANCH  50  71
BRANCH  62  79
ATOM     79  C   UNL A   1      44.163  27.567  33.995  1.00  0.00     0.057 A 
ATOM     80  C   UNL A   1      43.910  26.344  34.630  1.00  0.00     0.134 A 
ATOM     81  C   UNL A   1      45.492  28.005  33.936  1.00  0.00     0.134 A 
ATOM     82  F   UNL A   1      42.657  25.872  34.726  1.00  0.00    -0.206 F 
ATOM     83  C   UNL A   1      44.937  25.590  35.195  1.00  0.00     0.040 A 
ATOM     84  C   UNL A   1      46.531  27.244  34.471  1.00  0.00     0.040 A 
ATOM     85  F   UNL A   1      45.802  29.158  33.324  1.00  0.00    -0.206 F 
ATOM     86  C   UNL A   1      46.254  26.037  35.110  1.00  0.00     0.006 A 
ENDBRANCH  62  79
ENDBRANCH  36  37
ENDBRANCH  28  31
ENDBRANCH  26  27
ENDBRANCH   1  26
TORSDOF 11
ENDMDL
MODEL 2
REMARK VINA RESULT:     -12.8      3.579      5.575
REMARK SMILES Cc1cccc2c1N=CN1C2=[NH+]NC(=O)[C@@H]1CC(=O)NCCCNC(=O)c1ccc(-c2c3nc(c(-c4c(F)cccc4F)c4ccc([nH]4)c(-c4c(F)cccc4F)c4nc(c(-c5c(F)cccc5F)c5ccc2[nH]5)C=C4)C=C3)cc1
REMARK SMILES IDX 22 1 21 2 20 3 18 4 19 5 17 7 16 8 1 9 2 10 3 11 7 12 4 13
REMARK SMILES IDX 6 14 8 15 5 16 11 17 9 18 10 19 12 20 13 21 14 23 15 25
REMARK SMILES IDX 23 26 24 27 25 28 26 30 27 31 28 32 80 33 29 34 79 35 30 36
REMARK SMILES IDX 31 37 32 38 73 39 33 40 78 41 72 42 74 43 34 44 77 45 71 46
REMARK SMILES IDX 70 47 35 49 61 50 44 51 60 52 45 53 48 54 59 55 75 56 46 57
REMARK SMILES IDX 47 58 58 60 76 61 49 62 36 63 37 64 42 65 38 66 39 67 41 68
REMARK SMILES IDX 43 69 40 70 62 71 63 72 68 73 64 74 65 75 67 76 69 77 66 78
REMARK SMILES IDX 50 79 51 80 56 81 52 82 53 83 55 84 57 85 54 86
REMARK H PARENT 20 6 12 22 13 24 24 29 74 48 48 59
REMARK Flexibility Score: inf
ROOT
ATOM      1  C   UNL A   1      32.706  29.740  25.426  1.00  0.00     0.042 C 
ENDROOT
BRANCH   1   2
ATOM      2  C   UNL A   1      33.153  29.299  24.043  1.00  0.00     0.117 C 
BRANCH   2   3
ATOM      3  N   UNL A   1      32.039  29.234  23.116  1.00  0.00    -0.356 N 
ATOM      4  C   UNL A   1      31.245  28.196  22.743  1.00  0.00     0.224 C 
ATOM      5  O   UNL A   1      30.273  28.461  22.034  1.00  0.00    -0.275 OA
ATOM      6  H   UNL A   1      31.820  30.090  22.683  1.00  0.00     0.163 HD
BRANCH   4   7
ATOM      7  C   UNL A   1      31.470  26.789  23.266  1.00  0.00     0.160 C 
BRANCH   7   8
ATOM      8  C   UNL A   1      31.259  26.498  24.762  1.00  0.00     0.284 C 
ATOM      9  C   UNL A   1      36.486  22.942  25.234  1.00  0.00     0.047 C 
ATOM     10  C   UNL A   1      35.225  22.908  26.052  1.00  0.00    -0.024 A 
ATOM     11  C   UNL A   1      34.824  21.682  26.602  1.00  0.00     0.006 A 
ATOM     12  C   UNL A   1      34.347  24.006  26.107  1.00  0.00     0.085 A 
ATOM     13  C   UNL A   1      33.584  21.555  27.220  1.00  0.00     0.001 A 
ATOM     14  C   UNL A   1      33.089  23.830  26.725  1.00  0.00     0.092 A 
ATOM     15  N   UNL A   1      34.673  25.203  25.423  1.00  0.00    -0.215 NA
ATOM     16  C   UNL A   1      32.726  22.630  27.327  1.00  0.00     0.019 A 
ATOM     17  C   UNL A   1      32.002  24.772  26.342  1.00  0.00     0.309 C 
ATOM     18  C   UNL A   1      33.675  25.969  25.115  1.00  0.00     0.317 C 
ATOM     19  N   UNL A   1      32.348  25.724  25.392  1.00  0.00    -0.203 N 
ATOM     20  N   UNL A   1      30.815  24.539  26.812  1.00  0.00    -0.169 N 
ATOM     21  N   UNL A   1      29.778  25.166  26.221  1.00  0.00    -0.193 N 
ATOM     22  H   UNL A   1      30.676  23.929  27.572  1.00  0.00     0.340 HD
ATOM     23  C   UNL A   1      29.874  25.914  25.075  1.00  0.00     0.300 C 
ATOM     24  H   UNL A   1      28.890  25.081  26.638  1.00  0.00     0.216 HD
ATOM     25  O   UNL A   1      28.861  26.175  24.434  1.00  0.00    -0.267 OA
ENDBRANCH   7   8
ENDBRANCH   4   7
ENDBRANCH   2   3
ENDBRANCH   1   2
BRANCH   1  26
ATOM     26  C   UNL A   1      33.716  29.537  26.542  1.00  0.00     0.118 C 
BRANCH  26  27
ATOM     27  N   UNL A   1      33.792  30.692  27.421  1.00  0.00    -0.352 N 
ATOM     28  C   UNL A   1      34.708  31.026  28.388  1.00  0.00     0.251 C 
ATOM     29  H   UNL A   1      33.065  31.345  27.302  1.00  0.00     0.163 HD
ATOM     30  O   UNL A   1      34.421  31.931  29.176  1.00  0.00    -0.269 OA
BRANCH  28  31
ATOM     31  C   UNL A   1      36.022  30.345  28.525  1.00  0.00     0.039 A 
ATOM     32  C   UNL A   1      36.353  29.771  29.763  1.00  0.00     0.014 A 
ATOM     33  C   UNL A   1      36.983  30.354  27.512  1.00  0.00     0.014 A 
ATOM     34  C   UNL A   1      37.607  29.180  29.973  1.00  0.00     0.010 A 
ATOM     35  C   UNL A   1      38.211  29.711  27.695  1.00  0.00     0.010 A 
ATOM     36  C   UNL A   1      38.546  29.142  28.936  1.00  0.00    -0.014 A 
BRANCH  36  37
ATOM     37  C   UNL A   1      39.944  28.680  29.156  1.00  0.00     0.031 A 
ATOM     38  C   UNL A   1      40.937  29.668  29.704  1.00  0.00     0.074 A 
ATOM     39  C   UNL A   1      40.352  27.438  28.831  1.00  0.00     0.049 A 
ATOM     40  N   UNL A   1      42.220  29.522  29.914  1.00  0.00    -0.248 NA
ATOM     41  C   UNL A   1      40.409  30.990  30.081  1.00  0.00     0.031 C 
ATOM     42  C   UNL A   1      39.496  26.345  28.390  1.00  0.00     0.029 A 
ATOM     43  N   UNL A   1      41.611  26.892  28.791  1.00  0.00    -0.354 N 
ATOM     44  C   UNL A   1      42.640  30.715  30.486  1.00  0.00     0.074 A 
ATOM     45  C   UNL A   1      41.501  31.606  30.506  1.00  0.00     0.031 C 
ATOM     46  C   UNL A   1      40.249  25.303  28.005  1.00  0.00     0.029 A 
ATOM     47  C   UNL A   1      41.647  25.628  28.248  1.00  0.00     0.049 A 
ATOM     48  H   UNL A   1      42.413  27.360  29.119  1.00  0.00     0.167 HD
ATOM     49  C   UNL A   1      43.855  31.025  30.993  1.00  0.00     0.037 A 
ATOM     50  C   UNL A   1      42.685  24.809  27.999  1.00  0.00     0.037 A 
ATOM     51  C   UNL A   1      44.995  30.149  30.949  1.00  0.00     0.049 A 
ATOM     52  C   UNL A   1      44.058  25.230  28.439  1.00  0.00     0.074 A 
ATOM     53  C   UNL A   1      46.271  30.366  31.434  1.00  0.00     0.029 A 
ATOM     54  N   UNL A   1      44.994  28.889  30.368  1.00  0.00    -0.354 N 
ATOM     55  N   UNL A   1      44.428  26.332  29.045  1.00  0.00    -0.248 NA
ATOM     56  C   UNL A   1      45.150  24.275  28.204  1.00  0.00     0.031 C 
ATOM     57  C   UNL A   1      47.057  29.258  31.103  1.00  0.00     0.029 A 
ATOM     58  C   UNL A   1      46.257  28.329  30.456  1.00  0.00     0.049 A 
ATOM     59  H   UNL A   1      44.213  28.458  29.954  1.00  0.00     0.167 HD
ATOM     60  C   UNL A   1      45.778  26.177  29.319  1.00  0.00     0.074 A 
ATOM     61  C   UNL A   1      46.164  24.878  28.806  1.00  0.00     0.031 C 
ATOM     62  C   UNL A   1      46.620  27.029  29.954  1.00  0.00     0.037 A 
BRANCH  49  63
ATOM     63  C   UNL A   1      43.995  32.370  31.639  1.00  0.00     0.057 A 
ATOM     64  C   UNL A   1      43.749  32.543  33.005  1.00  0.00     0.134 A 
ATOM     65  C   UNL A   1      44.388  33.499  30.903  1.00  0.00     0.134 A 
ATOM     66  F   UNL A   1      43.371  31.506  33.766  1.00  0.00    -0.206 F 
ATOM     67  C   UNL A   1      43.896  33.788  33.619  1.00  0.00     0.040 A 
ATOM     68  C   UNL A   1      44.564  34.742  31.511  1.00  0.00     0.040 A 
ATOM     69  F   UNL A   1      44.656  33.395  29.592  1.00  0.00    -0.206 F 
ATOM     70  C   UNL A   1      44.313  34.890  32.873  1.00  0.00     0.006 A 
ENDBRANCH  49  63
BRANCH  50  71
ATOM     71  C   UNL A   1      42.469  23.482  27.367  1.00  0.00     0.057 A 
ATOM     72  C   UNL A   1      42.592  23.303  25.985  1.00  0.00     0.134 A 
ATOM     73  C   UNL A   1      42.182  22.351  28.141  1.00  0.00     0.134 A 
ATOM     74  F   UNL A   1      42.857  24.348  25.187  1.00  0.00    -0.206 F 
ATOM     75  C   UNL A   1      42.453  22.044  25.396  1.00  0.00     0.040 A 
ATOM     76  C   UNL A   1      42.062  21.084  27.569  1.00  0.00     0.040 A 
ATOM     77  F   UNL A   1      42.065  22.458  29.473  1.00  0.00    -0.206 F 
ATOM     78  C   UNL A   1      42.199  20.927  26.191  1.00  0.00     0.006 A 
ENDBRANCH  50  71
BRANCH  62  79
ATOM     79  C   UNL A   1      48.027  26.561  30.174  1.00  0.00     0.057 A 
ATOM     80  C   UNL A   1      48.364  25.851  31.334  1.00  0.00     0.134 A 
ATOM     81  C   UNL A   1      49.054  26.842  29.264  1.00  0.00     0.134 A 
ATOM     82  F   UNL A   1      47.427  25.555  32.249  1.00  0.00    -0.206 F 
ATOM     83  C   UNL A   1      49.674  25.444  31.585  1.00  0.00     0.040 A 
ATOM     84  C   UNL A   1      50.362  26.415  29.491  1.00  0.00     0.040 A 
ATOM     85  F   UNL A   1      48.792  27.503  28.126  1.00  0.00    -0.206 F 
ATOM     86  C   UNL A   1      50.677  25.721  30.658  1.00  0.00     0.006 A 
ENDBRANCH  62  79
ENDBRANCH  36  37
ENDBRANCH  28  31
ENDBRANCH  26  27
ENDBRANCH   1  26
TORSDOF 11
ENDMDL
MODEL 3
REMARK VINA RESULT:     -12.7      5.548     10.503
REMARK SMILES Cc1cccc2c1N=CN1C2=[NH+]NC(=O)[C@@H]1CC(=O)NCCCNC(=O)c1ccc(-c2c3nc(c(-c4c(F)cccc4F)c4ccc([nH]4)c(-c4c(F)cccc4F)c4nc(c(-c5c(F)cccc5F)c5ccc2[nH]5)C=C4)C=C3)cc1
REMARK SMILES IDX 22 1 21 2 20 3 18 4 19 5 17 7 16 8 1 9 2 10 3 11 7 12 4 13
REMARK SMILES IDX 6 14 8 15 5 16 11 17 9 18 10 19 12 20 13 21 14 23 15 25
REMARK SMILES IDX 23 26 24 27 25 28 26 30 27 31 28 32 80 33 29 34 79 35 30 36
REMARK SMILES IDX 31 37 32 38 73 39 33 40 78 41 72 42 74 43 34 44 77 45 71 46
REMARK SMILES IDX 70 47 35 49 61 50 44 51 60 52 45 53 48 54 59 55 75 56 46 57
REMARK SMILES IDX 47 58 58 60 76 61 49 62 36 63 37 64 42 65 38 66 39 67 41 68
REMARK SMILES IDX 43 69 40 70 62 71 63 72 68 73 64 74 65 75 67 76 69 77 66 78
REMARK SMILES IDX 50 79 51 80 56 81 52 82 53 83 55 84 57 85 54 86
REMARK H PARENT 20 6 12 22 13 24 24 29 74 48 48 59
REMARK Flexibility Score: inf
ROOT
ATOM      1  C   UNL A   1      38.996  21.376  26.126  1.00  0.00     0.042 C 
ENDROOT
BRANCH   1   2
ATOM      2  C   UNL A   1      37.826  22.293  25.814  1.00  0.00     0.117 C 
BRANCH   2   3
ATOM      3  N   UNL A   1      37.544  22.335  24.392  1.00  0.00    -0.356 N 
ATOM      4  C   UNL A   1      36.575  22.981  23.691  1.00  0.00     0.224 C 
ATOM      5  O   UNL A   1      36.659  22.953  22.463  1.00  0.00    -0.275 OA
ATOM      6  H   UNL A   1      38.163  21.807  23.838  1.00  0.00     0.163 HD
BRANCH   4   7
ATOM      7  C   UNL A   1      35.499  23.799  24.382  1.00  0.00     0.160 C 
BRANCH   7   8
ATOM      8  C   UNL A   1      34.018  23.458  24.136  1.00  0.00     0.284 C 
ATOM      9  C   UNL A   1      34.885  17.234  24.973  1.00  0.00     0.047 C 
ATOM     10  C   UNL A   1      33.838  17.958  24.174  1.00  0.00    -0.024 A 
ATOM     11  C   UNL A   1      33.319  17.327  23.035  1.00  0.00     0.006 A 
ATOM     12  C   UNL A   1      33.521  19.308  24.418  1.00  0.00     0.085 A 
ATOM     13  C   UNL A   1      32.477  18.015  22.166  1.00  0.00     0.001 A 
ATOM     14  C   UNL A   1      32.680  19.976  23.500  1.00  0.00     0.092 A 
ATOM     15  N   UNL A   1      34.158  20.000  25.477  1.00  0.00    -0.215 NA
ATOM     16  C   UNL A   1      32.116  19.324  22.409  1.00  0.00     0.019 A 
ATOM     17  C   UNL A   1      32.762  21.461  23.457  1.00  0.00     0.309 C 
ATOM     18  C   UNL A   1      34.199  21.290  25.365  1.00  0.00     0.317 C 
ATOM     19  N   UNL A   1      33.682  22.031  24.325  1.00  0.00    -0.203 N 
ATOM     20  N   UNL A   1      32.084  22.071  22.532  1.00  0.00    -0.169 N 
ATOM     21  N   UNL A   1      32.405  23.355  22.271  1.00  0.00    -0.193 N 
ATOM     22  H   UNL A   1      31.363  21.615  22.042  1.00  0.00     0.340 HD
ATOM     23  C   UNL A   1      33.483  24.011  22.808  1.00  0.00     0.300 C 
ATOM     24  H   UNL A   1      31.827  23.856  21.651  1.00  0.00     0.216 HD
ATOM     25  O   UNL A   1      33.886  25.044  22.285  1.00  0.00    -0.267 OA
ENDBRANCH   7   8
ENDBRANCH   4   7
ENDBRANCH   2   3
ENDBRANCH   1   2
BRANCH   1  26
ATOM     26  C   UNL A   1      39.033  20.066  25.359  1.00  0.00     0.118 C 
BRANCH  26  27
ATOM     27  N   UNL A   1      40.111  19.203  25.811  1.00  0.00    -0.352 N 
ATOM     28  C   UNL A   1      41.407  19.493  26.160  1.00  0.00     0.251 C 
ATOM     29  H   UNL A   1      39.872  18.251  25.881  1.00  0.00     0.163 HD
ATOM     30  O   UNL A   1      42.206  18.559  26.268  1.00  0.00    -0.269 OA
BRANCH  28  31
ATOM     31  C   UNL A   1      41.885  20.879  26.409  1.00  0.00     0.039 A 
ATOM     32  C   UNL A   1      41.900  21.354  27.730  1.00  0.00     0.014 A 
ATOM     33  C   UNL A   1      42.211  21.759  25.375  1.00  0.00     0.014 A 
ATOM     34  C   UNL A   1      42.272  22.676  28.018  1.00  0.00     0.010 A 
ATOM     35  C   UNL A   1      42.642  23.058  25.661  1.00  0.00     0.010 A 
ATOM     36  C   UNL A   1      42.651  23.538  26.983  1.00  0.00    -0.014 A 
BRANCH  36  37
ATOM     37  C   UNL A   1      42.890  24.989  27.215  1.00  0.00     0.031 A 
ATOM     38  C   UNL A   1      44.268  25.529  26.949  1.00  0.00     0.074 A 
ATOM     39  C   UNL A   1      41.937  25.807  27.700  1.00  0.00     0.049 A 
ATOM     40  N   UNL A   1      44.735  26.736  27.141  1.00  0.00    -0.248 NA
ATOM     41  C   UNL A   1      45.244  24.588  26.374  1.00  0.00     0.031 C 
ATOM     42  C   UNL A   1      40.538  25.461  27.910  1.00  0.00     0.029 A 
ATOM     43  N   UNL A   1      42.012  27.106  28.141  1.00  0.00    -0.354 N 
ATOM     44  C   UNL A   1      46.041  26.707  26.672  1.00  0.00     0.074 A 
ATOM     45  C   UNL A   1      46.324  25.347  26.271  1.00  0.00     0.031 C 
ATOM     46  C   UNL A   1      39.911  26.462  28.547  1.00  0.00     0.029 A 
ATOM     47  C   UNL A   1      40.851  27.559  28.723  1.00  0.00     0.049 A 
ATOM     48  H   UNL A   1      42.821  27.660  28.049  1.00  0.00     0.167 HD
ATOM     49  C   UNL A   1      46.913  27.734  26.541  1.00  0.00     0.037 A 
ATOM     50  C   UNL A   1      40.564  28.736  29.307  1.00  0.00     0.037 A 
ATOM     51  C   UNL A   1      46.641  29.081  26.963  1.00  0.00     0.049 A 
ATOM     52  C   UNL A   1      41.598  29.825  29.283  1.00  0.00     0.074 A 
ATOM     53  C   UNL A   1      47.456  30.195  26.875  1.00  0.00     0.029 A 
ATOM     54  N   UNL A   1      45.463  29.491  27.570  1.00  0.00    -0.354 N 
ATOM     55  N   UNL A   1      42.804  29.806  28.770  1.00  0.00    -0.248 NA
ATOM     56  C   UNL A   1      41.216  31.114  29.877  1.00  0.00     0.031 C 
ATOM     57  C   UNL A   1      46.790  31.269  27.475  1.00  0.00     0.029 A 
ATOM     58  C   UNL A   1      45.542  30.836  27.890  1.00  0.00     0.049 A 
ATOM     59  H   UNL A   1      44.688  28.912  27.748  1.00  0.00     0.167 HD
ATOM     60  C   UNL A   1      43.300  31.092  28.922  1.00  0.00     0.074 A 
ATOM     61  C   UNL A   1      42.268  31.865  29.583  1.00  0.00     0.031 C 
ATOM     62  C   UNL A   1      44.499  31.592  28.534  1.00  0.00     0.037 A 
BRANCH  49  63
ATOM     63  C   UNL A   1      48.236  27.420  25.909  1.00  0.00     0.057 A 
ATOM     64  C   UNL A   1      49.342  27.069  26.690  1.00  0.00     0.134 A 
ATOM     65  C   UNL A   1      48.409  27.453  24.517  1.00  0.00     0.134 A 
ATOM     66  F   UNL A   1      49.245  27.018  28.027  1.00  0.00    -0.206 F 
ATOM     67  C   UNL A   1      50.572  26.757  26.109  1.00  0.00     0.040 A 
ATOM     68  C   UNL A   1      49.625  27.115  23.924  1.00  0.00     0.040 A 
ATOM     69  F   UNL A   1      47.381  27.764  23.712  1.00  0.00    -0.206 F 
ATOM     70  C   UNL A   1      50.714  26.770  24.723  1.00  0.00     0.006 A 
ENDBRANCH  49  63
BRANCH  50  71
ATOM     71  C   UNL A   1      39.225  28.982  29.901  1.00  0.00     0.057 A 
ATOM     72  C   UNL A   1      38.968  28.729  31.254  1.00  0.00     0.134 A 
ATOM     73  C   UNL A   1      38.183  29.521  29.138  1.00  0.00     0.134 A 
ATOM     74  F   UNL A   1      39.921  28.204  32.038  1.00  0.00    -0.206 F 
ATOM     75  C   UNL A   1      37.728  29.019  31.829  1.00  0.00     0.040 A 
ATOM     76  C   UNL A   1      36.946  29.835  29.704  1.00  0.00     0.040 A 
ATOM     77  F   UNL A   1      38.373  29.796  27.839  1.00  0.00    -0.206 F 
ATOM     78  C   UNL A   1      36.717  29.585  31.055  1.00  0.00     0.006 A 
ENDBRANCH  50  71
BRANCH  62  79
ATOM     79  C   UNL A   1      44.736  33.054  28.768  1.00  0.00     0.057 A 
ATOM     80  C   UNL A   1      44.373  33.995  27.795  1.00  0.00     0.134 A 
ATOM     81  C   UNL A   1      45.356  33.528  29.931  1.00  0.00     0.134 A 
ATOM     82  F   UNL A   1      43.781  33.604  26.656  1.00  0.00    -0.206 F 
ATOM     83  C   UNL A   1      44.624  35.355  27.968  1.00  0.00     0.040 A 
ATOM     84  C   UNL A   1      45.586  34.890  30.127  1.00  0.00     0.040 A 
ATOM     85  F   UNL A   1      45.711  32.680  30.907  1.00  0.00    -0.206 F 
ATOM     86  C   UNL A   1      45.227  35.807  29.140  1.00  0.00     0.006 A 
ENDBRANCH  62  79
ENDBRANCH  36  37
ENDBRANCH  28  31
ENDBRANCH  26  27
ENDBRANCH   1  26
TORSDOF 11
ENDMDL
