MODEL 1
REMARK VINA RESULT:     -11.3      0.000      0.000
REMARK SMILES CC(C)[NH2+][C@@]1(C(=O)NCCCNC(=O)c2ccc(-c3c4nc(c(-c5c(F)cccc5F)c5ccc([nH]5)c(-c5c(F)cccc5F)c5nc(c(-c6c(F)cccc6F)c6ccc3[nH]6)C=C5)C=C4)cc2)CC[C@@H](Sc2cccc(Br)c2)C1
REMARK SMILES IDX 10 1 9 2 8 3 6 4 7 5 5 7 69 8 80 9 70 10 71 11 4 12 2 15
REMARK SMILES IDX 1 16 3 17 72 18 73 19 74 20 79 21 75 22 77 23 76 24 78 25
REMARK SMILES IDX 11 26 12 27 13 28 14 30 15 31 16 32 68 33 17 34 67 35 18 36
REMARK SMILES IDX 19 37 20 38 61 39 21 40 66 41 60 42 62 43 22 44 65 45 59 46
REMARK SMILES IDX 58 47 23 49 49 50 32 51 48 52 33 53 36 54 47 55 63 56 34 57
REMARK SMILES IDX 35 58 46 60 64 61 37 62 24 63 25 64 30 65 26 66 27 67 29 68
REMARK SMILES IDX 31 69 28 70 50 71 51 72 56 73 52 74 53 75 55 76 57 77 54 78
REMARK SMILES IDX 38 79 39 80 44 81 40 82 41 83 43 84 45 85 42 86
REMARK H PARENT 8 6 4 13 4 14 12 29 62 48 36 59
REMARK Flexibility Score: inf
ROOT
ATOM      1  C   UNL A   1      37.778  19.581  24.997  1.00  0.00     0.042 C 
ENDROOT
BRANCH   1   2
ATOM      2  C   UNL A   1      36.571  20.507  24.904  1.00  0.00     0.118 C 
BRANCH   2   3
ATOM      3  N   UNL A   1      36.853  21.653  24.068  1.00  0.00    -0.351 N 
ATOM      4  C   UNL A   1      36.108  22.694  23.618  1.00  0.00     0.281 C 
ATOM      5  O   UNL A   1      36.676  23.379  22.752  1.00  0.00    -0.268 OA
ATOM      6  H   UNL A   1      37.787  21.684  23.758  1.00  0.00     0.163 HD
BRANCH   4   7
ATOM      7  C   UNL A   1      34.615  23.020  24.063  1.00  0.00     0.176 C 
ATOM      8  C   UNL A   1      33.584  22.095  23.393  1.00  0.00     0.080 C 
ATOM      9  C   UNL A   1      34.266  24.468  23.634  1.00  0.00     0.094 C 
ATOM     10  C   UNL A   1      32.632  22.981  22.586  1.00  0.00     0.022 C 
ATOM     11  C   UNL A   1      33.301  24.345  22.456  1.00  0.00     0.058 C 
BRANCH   7  12
ATOM     12  N   UNL A   1      34.661  22.868  25.535  1.00  0.00    -0.332 N 
ATOM     13  H   UNL A   1      35.410  22.200  25.717  1.00  0.00     0.347 HD
ATOM     14  H   UNL A   1      34.732  23.844  25.820  1.00  0.00     0.347 HD
BRANCH  12  15
ATOM     15  C   UNL A   1      33.545  22.434  26.360  1.00  0.00     0.176 C 
ATOM     16  C   UNL A   1      34.118  21.780  27.623  1.00  0.00     0.075 C 
ATOM     17  C   UNL A   1      32.593  23.542  26.774  1.00  0.00     0.075 C 
ENDBRANCH  12  15
ENDBRANCH   7  12
BRANCH  11  18
ATOM     18  S   UNL A   1      32.225  25.815  22.174  1.00  0.00    -0.122 SA
BRANCH  18  19
ATOM     19  C   UNL A   1      31.739  26.307  23.816  1.00  0.00     0.009 A 
ATOM     20  C   UNL A   1      30.582  25.772  24.398  1.00  0.00     0.015 A 
ATOM     21  C   UNL A   1      32.483  27.255  24.522  1.00  0.00     0.030 A 
ATOM     22  C   UNL A   1      30.223  26.110  25.705  1.00  0.00     0.002 A 
ATOM     23  C   UNL A   1      32.118  27.592  25.828  1.00  0.00     0.019 A 
ATOM     24  C   UNL A   1      31.001  27.012  26.428  1.00  0.00     0.016 A 
ATOM     25  Br  UNL A   1      33.173  28.816  26.810  1.00  0.00    -0.051 Br
ENDBRANCH  18  19
ENDBRANCH  11  18
ENDBRANCH   4   7
ENDBRANCH   2   3
ENDBRANCH   1   2
BRANCH   1  26
ATOM     26  C   UNL A   1      38.951  20.211  25.734  1.00  0.00     0.118 C 
BRANCH  26  27
ATOM     27  N   UNL A   1      40.079  19.293  25.831  1.00  0.00    -0.352 N 
ATOM     28  C   UNL A   1      41.409  19.542  26.058  1.00  0.00     0.251 C 
ATOM     29  H   UNL A   1      39.850  18.343  25.716  1.00  0.00     0.163 HD
ATOM     30  O   UNL A   1      42.235  18.662  25.834  1.00  0.00    -0.269 OA
BRANCH  28  31
ATOM     31  C   UNL A   1      41.853  20.856  26.568  1.00  0.00     0.039 A 
ATOM     32  C   UNL A   1      42.244  21.841  25.656  1.00  0.00     0.014 A 
ATOM     33  C   UNL A   1      41.931  21.105  27.940  1.00  0.00     0.014 A 
ATOM     34  C   UNL A   1      42.662  23.089  26.121  1.00  0.00     0.010 A 
ATOM     35  C   UNL A   1      42.255  22.376  28.399  1.00  0.00     0.010 A 
ATOM     36  C   UNL A   1      42.641  23.377  27.494  1.00  0.00    -0.014 A 
BRANCH  36  37
ATOM     37  C   UNL A   1      43.040  24.708  28.014  1.00  0.00     0.031 A 
ATOM     38  C   UNL A   1      41.992  25.750  28.290  1.00  0.00     0.074 A 
ATOM     39  C   UNL A   1      44.345  24.998  28.166  1.00  0.00     0.049 A 
ATOM     40  N   UNL A   1      42.142  26.998  28.660  1.00  0.00    -0.248 NA
ATOM     41  C   UNL A   1      40.589  25.351  28.092  1.00  0.00     0.031 C 
ATOM     42  C   UNL A   1      45.456  24.087  27.880  1.00  0.00     0.029 A 
ATOM     43  N   UNL A   1      44.960  26.149  28.588  1.00  0.00    -0.354 N 
ATOM     44  C   UNL A   1      40.860  27.531  28.716  1.00  0.00     0.074 A 
ATOM     45  C   UNL A   1      39.949  26.492  28.288  1.00  0.00     0.031 C 
ATOM     46  C   UNL A   1      46.615  24.705  28.159  1.00  0.00     0.029 A 
ATOM     47  C   UNL A   1      46.332  26.066  28.604  1.00  0.00     0.049 A 
ATOM     48  H   UNL A   1      44.466  26.958  28.854  1.00  0.00     0.167 HD
ATOM     49  C   UNL A   1      40.475  28.767  29.113  1.00  0.00     0.037 A 
ATOM     50  C   UNL A   1      47.256  26.986  28.935  1.00  0.00     0.037 A 
ATOM     51  C   UNL A   1      41.384  29.784  29.571  1.00  0.00     0.049 A 
ATOM     52  C   UNL A   1      46.803  28.349  29.379  1.00  0.00     0.074 A 
ATOM     53  C   UNL A   1      41.093  31.045  30.058  1.00  0.00     0.029 A 
ATOM     54  N   UNL A   1      42.765  29.653  29.596  1.00  0.00    -0.354 N 
ATOM     55  N   UNL A   1      45.584  28.819  29.492  1.00  0.00    -0.248 NA
ATOM     56  C   UNL A   1      47.853  29.308  29.746  1.00  0.00     0.031 C 
ATOM     57  C   UNL A   1      42.301  31.693  30.341  1.00  0.00     0.029 A 
ATOM     58  C   UNL A   1      43.341  30.818  30.073  1.00  0.00     0.049 A 
ATOM     59  H   UNL A   1      43.262  28.849  29.317  1.00  0.00     0.167 HD
ATOM     60  C   UNL A   1      45.719  30.116  29.967  1.00  0.00     0.074 A 
ATOM     61  C   UNL A   1      47.139  30.353  30.136  1.00  0.00     0.031 C 
ATOM     62  C   UNL A   1      44.756  31.031  30.238  1.00  0.00     0.037 A 
BRANCH  49  63
ATOM     63  C   UNL A   1      39.007  29.080  29.077  1.00  0.00     0.057 A 
ATOM     64  C   UNL A   1      38.204  28.996  30.222  1.00  0.00     0.134 A 
ATOM     65  C   UNL A   1      38.392  29.496  27.889  1.00  0.00     0.134 A 
ATOM     66  F   UNL A   1      38.727  28.592  31.391  1.00  0.00    -0.206 F 
ATOM     67  C   UNL A   1      36.839  29.284  30.182  1.00  0.00     0.040 A 
ATOM     68  C   UNL A   1      37.034  29.815  27.842  1.00  0.00     0.040 A 
ATOM     69  F   UNL A   1      39.102  29.603  26.756  1.00  0.00    -0.206 F 
ATOM     70  C   UNL A   1      36.251  29.702  28.989  1.00  0.00     0.006 A 
ENDBRANCH  49  63
BRANCH  50  71
ATOM     71  C   UNL A   1      48.699  26.643  28.884  1.00  0.00     0.057 A 
ATOM     72  C   UNL A   1      49.449  26.853  27.721  1.00  0.00     0.134 A 
ATOM     73  C   UNL A   1      49.363  26.098  29.990  1.00  0.00     0.134 A 
ATOM     74  F   UNL A   1      48.865  27.356  26.624  1.00  0.00    -0.206 F 
ATOM     75  C   UNL A   1      50.802  26.516  27.652  1.00  0.00     0.040 A 
ATOM     76  C   UNL A   1      50.721  25.778  29.943  1.00  0.00     0.040 A 
ATOM     77  F   UNL A   1      48.703  25.881  31.137  1.00  0.00    -0.206 F 
ATOM     78  C   UNL A   1      51.442  25.981  28.768  1.00  0.00     0.006 A 
ENDBRANCH  50  71
BRANCH  62  79
ATOM     79  C   UNL A   1      45.205  32.359  30.774  1.00  0.00     0.057 A 
ATOM     80  C   UNL A   1      45.375  32.583  32.145  1.00  0.00     0.134 A 
ATOM     81  C   UNL A   1      45.508  33.412  29.901  1.00  0.00     0.134 A 
ATOM     82  F   UNL A   1      45.089  31.618  33.032  1.00  0.00    -0.206 F 
ATOM     83  C   UNL A   1      45.810  33.816  32.633  1.00  0.00     0.040 A 
ATOM     84  C   UNL A   1      45.969  34.641  30.375  1.00  0.00     0.040 A 
ATOM     85  F   UNL A   1      45.375  33.259  28.575  1.00  0.00    -0.206 F 
ATOM     86  C   UNL A   1      46.115  34.846  31.745  1.00  0.00     0.006 A 
ENDBRANCH  62  79
ENDBRANCH  36  37
ENDBRANCH  28  31
ENDBRANCH  26  27
ENDBRANCH   1  26
TORSDOF 14
ENDMDL
MODEL 2
REMARK VINA RESULT:     -11.2      4.291      9.117
REMARK SMILES CC(C)[NH2+][C@@]1(C(=O)NCCCNC(=O)c2ccc(-c3c4nc(c(-c5c(F)cccc5F)c5ccc([nH]5)c(-c5c(F)cccc5F)c5nc(c(-c6c(F)cccc6F)c6ccc3[nH]6)C=C5)C=C4)cc2)CC[C@@H](Sc2cccc(Br)c2)C1
REMARK SMILES IDX 10 1 9 2 8 3 6 4 7 5 5 7 69 8 80 9 70 10 71 11 4 12 2 15
REMARK SMILES IDX 1 16 3 17 72 18 73 19 74 20 79 21 75 22 77 23 76 24 78 25
REMARK SMILES IDX 11 26 12 27 13 28 14 30 15 31 16 32 68 33 17 34 67 35 18 36
REMARK SMILES IDX 19 37 20 38 61 39 21 40 66 41 60 42 62 43 22 44 65 45 59 46
REMARK SMILES IDX 58 47 23 49 49 50 32 51 48 52 33 53 36 54 47 55 63 56 34 57
REMARK SMILES IDX 35 58 46 60 64 61 37 62 24 63 25 64 30 65 26 66 27 67 29 68
REMARK SMILES IDX 31 69 28 70 50 71 51 72 56 73 52 74 53 75 55 76 57 77 54 78
REMARK SMILES IDX 38 79 39 80 44 81 40 82 41 83 43 84 45 85 42 86
REMARK H PARENT 8 6 4 13 4 14 12 29 62 48 36 59
REMARK Flexibility Score: inf
ROOT
ATOM      1  C   UNL A   1      31.280  31.944  26.299  1.00  0.00     0.042 C 
ENDROOT
BRANCH   1   2
ATOM      2  C   UNL A   1      31.397  30.511  25.793  1.00  0.00     0.118 C 
BRANCH   2   3
ATOM      3  N   UNL A   1      31.557  29.580  26.888  1.00  0.00    -0.351 N 
ATOM      4  C   UNL A   1      31.674  28.231  26.965  1.00  0.00     0.281 C 
ATOM      5  O   UNL A   1      31.600  27.786  28.122  1.00  0.00    -0.268 OA
ATOM      6  H   UNL A   1      31.587  30.021  27.768  1.00  0.00     0.163 HD
BRANCH   4   7
ATOM      7  C   UNL A   1      31.821  27.246  25.722  1.00  0.00     0.176 C 
ATOM      8  C   UNL A   1      30.502  27.071  24.949  1.00  0.00     0.080 C 
ATOM      9  C   UNL A   1      32.230  25.843  26.238  1.00  0.00     0.094 C 
ATOM     10  C   UNL A   1      30.139  25.585  24.997  1.00  0.00     0.022 C 
ATOM     11  C   UNL A   1      30.995  24.955  26.090  1.00  0.00     0.058 C 
BRANCH   7  12
ATOM     12  N   UNL A   1      32.888  27.879  24.914  1.00  0.00    -0.332 N 
ATOM     13  H   UNL A   1      32.849  28.872  25.143  1.00  0.00     0.347 HD
ATOM     14  H   UNL A   1      33.685  27.299  25.175  1.00  0.00     0.347 HD
BRANCH  12  15
ATOM     15  C   UNL A   1      32.979  27.816  23.465  1.00  0.00     0.176 C 
ATOM     16  C   UNL A   1      33.835  28.998  22.995  1.00  0.00     0.075 C 
ATOM     17  C   UNL A   1      33.581  26.532  22.922  1.00  0.00     0.075 C 
ENDBRANCH  12  15
ENDBRANCH   7  12
BRANCH  11  18
ATOM     18  S   UNL A   1      31.343  23.148  25.986  1.00  0.00    -0.122 SA
BRANCH  18  19
ATOM     19  C   UNL A   1      32.748  23.048  24.895  1.00  0.00     0.009 A 
ATOM     20  C   UNL A   1      32.560  22.941  23.511  1.00  0.00     0.015 A 
ATOM     21  C   UNL A   1      34.047  23.037  25.410  1.00  0.00     0.030 A 
ATOM     22  C   UNL A   1      33.655  22.918  22.645  1.00  0.00     0.002 A 
ATOM     23  C   UNL A   1      35.139  23.010  24.540  1.00  0.00     0.019 A 
ATOM     24  C   UNL A   1      34.949  22.967  23.159  1.00  0.00     0.016 A 
ATOM     25  Br  UNL A   1      36.896  23.077  25.237  1.00  0.00    -0.051 Br
ENDBRANCH  18  19
ENDBRANCH  11  18
ENDBRANCH   4   7
ENDBRANCH   2   3
ENDBRANCH   1   2
BRANCH   1  26
ATOM     26  C   UNL A   1      32.486  32.384  27.116  1.00  0.00     0.118 C 
BRANCH  26  27
ATOM     27  N   UNL A   1      32.371  33.775  27.537  1.00  0.00    -0.352 N 
ATOM     28  C   UNL A   1      33.084  34.480  28.474  1.00  0.00     0.251 C 
ATOM     29  H   UNL A   1      31.671  34.290  27.076  1.00  0.00     0.163 HD
ATOM     30  O   UNL A   1      32.655  35.559  28.871  1.00  0.00    -0.269 OA
BRANCH  28  31
ATOM     31  C   UNL A   1      34.358  33.953  29.004  1.00  0.00     0.039 A 
ATOM     32  C   UNL A   1      34.330  33.105  30.117  1.00  0.00     0.014 A 
ATOM     33  C   UNL A   1      35.580  34.328  28.443  1.00  0.00     0.014 A 
ATOM     34  C   UNL A   1      35.525  32.595  30.628  1.00  0.00     0.010 A 
ATOM     35  C   UNL A   1      36.759  33.745  28.891  1.00  0.00     0.010 A 
ATOM     36  C   UNL A   1      36.746  32.886  30.000  1.00  0.00    -0.014 A 
BRANCH  36  37
ATOM     37  C   UNL A   1      38.026  32.324  30.497  1.00  0.00     0.031 A 
ATOM     38  C   UNL A   1      38.568  31.053  29.904  1.00  0.00     0.074 A 
ATOM     39  C   UNL A   1      38.658  32.919  31.525  1.00  0.00     0.049 A 
ATOM     40  N   UNL A   1      39.618  30.355  30.259  1.00  0.00    -0.248 NA
ATOM     41  C   UNL A   1      37.811  30.466  28.786  1.00  0.00     0.031 C 
ATOM     42  C   UNL A   1      38.202  34.127  32.218  1.00  0.00     0.029 A 
ATOM     43  N   UNL A   1      39.816  32.579  32.178  1.00  0.00    -0.354 N 
ATOM     44  C   UNL A   1      39.632  29.244  29.425  1.00  0.00     0.074 A 
ATOM     45  C   UNL A   1      38.457  29.328  28.586  1.00  0.00     0.031 C 
ATOM     46  C   UNL A   1      39.084  34.441  33.180  1.00  0.00     0.029 A 
ATOM     47  C   UNL A   1      40.144  33.438  33.200  1.00  0.00     0.049 A 
ATOM     48  H   UNL A   1      40.360  31.795  31.938  1.00  0.00     0.167 HD
ATOM     49  C   UNL A   1      40.555  28.256  29.348  1.00  0.00     0.037 A 
ATOM     50  C   UNL A   1      41.178  33.414  34.059  1.00  0.00     0.037 A 
ATOM     51  C   UNL A   1      41.740  28.198  30.162  1.00  0.00     0.049 A 
ATOM     52  C   UNL A   1      42.194  32.310  33.949  1.00  0.00     0.074 A 
ATOM     53  C   UNL A   1      42.772  27.278  30.118  1.00  0.00     0.029 A 
ATOM     54  N   UNL A   1      42.049  29.100  31.169  1.00  0.00    -0.354 N 
ATOM     55  N   UNL A   1      42.231  31.302  33.112  1.00  0.00    -0.248 NA
ATOM     56  C   UNL A   1      43.312  32.343  34.900  1.00  0.00     0.031 C 
ATOM     57  C   UNL A   1      43.686  27.600  31.127  1.00  0.00     0.029 A 
ATOM     58  C   UNL A   1      43.246  28.747  31.768  1.00  0.00     0.049 A 
ATOM     59  H   UNL A   1      41.498  29.877  31.421  1.00  0.00     0.167 HD
ATOM     60  C   UNL A   1      43.387  30.597  33.416  1.00  0.00     0.074 A 
ATOM     61  C   UNL A   1      44.032  31.302  34.506  1.00  0.00     0.031 C 
ATOM     62  C   UNL A   1      43.873  29.466  32.847  1.00  0.00     0.037 A 
BRANCH  49  63
ATOM     63  C   UNL A   1      40.320  27.166  28.342  1.00  0.00     0.057 A 
ATOM     64  C   UNL A   1      40.897  27.200  27.066  1.00  0.00     0.134 A 
ATOM     65  C   UNL A   1      39.529  26.055  28.662  1.00  0.00     0.134 A 
ATOM     66  F   UNL A   1      41.655  28.242  26.691  1.00  0.00    -0.206 F 
ATOM     67  C   UNL A   1      40.672  26.186  26.134  1.00  0.00     0.040 A 
ATOM     68  C   UNL A   1      39.320  25.021  27.748  1.00  0.00     0.040 A 
ATOM     69  F   UNL A   1      38.950  25.955  29.868  1.00  0.00    -0.206 F 
ATOM     70  C   UNL A   1      39.886  25.088  26.477  1.00  0.00     0.006 A 
ENDBRANCH  49  63
BRANCH  50  71
ATOM     71  C   UNL A   1      41.322  34.480  35.081  1.00  0.00     0.057 A 
ATOM     72  C   UNL A   1      40.755  34.341  36.353  1.00  0.00     0.134 A 
ATOM     73  C   UNL A   1      42.026  35.661  34.815  1.00  0.00     0.134 A 
ATOM     74  F   UNL A   1      40.054  33.240  36.662  1.00  0.00    -0.206 F 
ATOM     75  C   UNL A   1      40.864  35.344  37.317  1.00  0.00     0.040 A 
ATOM     76  C   UNL A   1      42.164  36.663  35.777  1.00  0.00     0.040 A 
ATOM     77  F   UNL A   1      42.602  35.851  33.619  1.00  0.00    -0.206 F 
ATOM     78  C   UNL A   1      41.575  36.508  37.031  1.00  0.00     0.006 A 
ENDBRANCH  50  71
BRANCH  62  79
ATOM     79  C   UNL A   1      45.177  28.942  33.373  1.00  0.00     0.057 A 
ATOM     80  C   UNL A   1      45.231  27.997  34.405  1.00  0.00     0.134 A 
ATOM     81  C   UNL A   1      46.390  29.361  32.813  1.00  0.00     0.134 A 
ATOM     82  F   UNL A   1      44.104  27.566  34.991  1.00  0.00    -0.206 F 
ATOM     83  C   UNL A   1      46.447  27.503  34.876  1.00  0.00     0.040 A 
ATOM     84  C   UNL A   1      47.612  28.855  33.257  1.00  0.00     0.040 A 
ATOM     85  F   UNL A   1      46.406  30.258  31.815  1.00  0.00    -0.206 F 
ATOM     86  C   UNL A   1      47.642  27.927  34.296  1.00  0.00     0.006 A 
ENDBRANCH  62  79
ENDBRANCH  36  37
ENDBRANCH  28  31
ENDBRANCH  26  27
ENDBRANCH   1  26
TORSDOF 14
ENDMDL
MODEL 3
REMARK VINA RESULT:     -11.0      1.144      2.152
REMARK SMILES CC(C)[NH2+][C@@]1(C(=O)NCCCNC(=O)c2ccc(-c3c4nc(c(-c5c(F)cccc5F)c5ccc([nH]5)c(-c5c(F)cccc5F)c5nc(c(-c6c(F)cccc6F)c6ccc3[nH]6)C=C5)C=C4)cc2)CC[C@@H](Sc2cccc(Br)c2)C1
REMARK SMILES IDX 10 1 9 2 8 3 6 4 7 5 5 7 69 8 80 9 70 10 71 11 4 12 2 15
REMARK SMILES IDX 1 16 3 17 72 18 73 19 74 20 79 21 75 22 77 23 76 24 78 25
REMARK SMILES IDX 11 26 12 27 13 28 14 30 15 31 16 32 68 33 17 34 67 35 18 36
REMARK SMILES IDX 19 37 20 38 61 39 21 40 66 41 60 42 62 43 22 44 65 45 59 46
REMARK SMILES IDX 58 47 23 49 49 50 32 51 48 52 33 53 36 54 47 55 63 56 34 57
REMARK SMILES IDX 35 58 46 60 64 61 37 62 24 63 25 64 30 65 26 66 27 67 29 68
REMARK SMILES IDX 31 69 28 70 50 71 51 72 56 73 52 74 53 75 55 76 57 77 54 78
REMARK SMILES IDX 38 79 39 80 44 81 40 82 41 83 43 84 45 85 42 86
REMARK H PARENT 8 6 4 13 4 14 12 29 62 48 36 59
REMARK Flexibility Score: inf
ROOT
ATOM      1  C   UNL A   1      37.516  19.467  25.006  1.00  0.00     0.042 C 
ENDROOT
BRANCH   1   2
ATOM      2  C   UNL A   1      36.339  20.436  24.993  1.00  0.00     0.118 C 
BRANCH   2   3
ATOM      3  N   UNL A   1      36.645  21.620  24.221  1.00  0.00    -0.351 N 
ATOM      4  C   UNL A   1      35.905  22.664  23.770  1.00  0.00     0.281 C 
ATOM      5  O   UNL A   1      36.506  23.394  22.966  1.00  0.00    -0.268 OA
ATOM      6  H   UNL A   1      37.594  21.682  23.967  1.00  0.00     0.163 HD
BRANCH   4   7
ATOM      7  C   UNL A   1      34.382  22.943  24.141  1.00  0.00     0.176 C 
ATOM      8  C   UNL A   1      33.425  21.909  23.522  1.00  0.00     0.080 C 
ATOM      9  C   UNL A   1      33.973  24.328  23.578  1.00  0.00     0.094 C 
ATOM     10  C   UNL A   1      32.456  22.670  22.613  1.00  0.00     0.022 C 
ATOM     11  C   UNL A   1      33.057  24.053  22.387  1.00  0.00     0.058 C 
BRANCH   7  12
ATOM     12  N   UNL A   1      34.384  22.918  25.621  1.00  0.00    -0.332 N 
ATOM     13  H   UNL A   1      35.228  22.408  25.883  1.00  0.00     0.347 HD
ATOM     14  H   UNL A   1      34.275  23.912  25.823  1.00  0.00     0.347 HD
BRANCH  12  15
ATOM     15  C   UNL A   1      33.323  22.363  26.444  1.00  0.00     0.176 C 
ATOM     16  C   UNL A   1      33.964  21.753  27.695  1.00  0.00     0.075 C 
ATOM     17  C   UNL A   1      32.266  23.364  26.877  1.00  0.00     0.075 C 
ENDBRANCH  12  15
ENDBRANCH   7  12
BRANCH  11  18
ATOM     18  S   UNL A   1      31.915  25.433  21.947  1.00  0.00    -0.122 SA
BRANCH  18  19
ATOM     19  C   UNL A   1      32.513  26.804  22.914  1.00  0.00     0.009 A 
ATOM     20  C   UNL A   1      33.488  27.664  22.390  1.00  0.00     0.015 A 
ATOM     21  C   UNL A   1      32.046  27.014  24.214  1.00  0.00     0.030 A 
ATOM     22  C   UNL A   1      33.922  28.773  23.119  1.00  0.00     0.002 A 
ATOM     23  C   UNL A   1      32.486  28.122  24.940  1.00  0.00     0.019 A 
ATOM     24  C   UNL A   1      33.410  29.011  24.392  1.00  0.00     0.016 A 
ATOM     25  Br  UNL A   1      31.790  28.448  26.669  1.00  0.00    -0.051 Br
ENDBRANCH  18  19
ENDBRANCH  11  18
ENDBRANCH   4   7
ENDBRANCH   2   3
ENDBRANCH   1   2
BRANCH   1  26
ATOM     26  C   UNL A   1      38.814  20.118  25.459  1.00  0.00     0.118 C 
BRANCH  26  27
ATOM     27  N   UNL A   1      39.828  19.123  25.786  1.00  0.00    -0.352 N 
ATOM     28  C   UNL A   1      41.159  19.277  26.085  1.00  0.00     0.251 C 
ATOM     29  H   UNL A   1      39.507  18.193  25.796  1.00  0.00     0.163 HD
ATOM     30  O   UNL A   1      41.898  18.298  26.064  1.00  0.00    -0.269 OA
BRANCH  28  31
ATOM     31  C   UNL A   1      41.705  20.605  26.429  1.00  0.00     0.039 A 
ATOM     32  C   UNL A   1      42.032  21.492  25.397  1.00  0.00     0.014 A 
ATOM     33  C   UNL A   1      41.941  20.964  27.757  1.00  0.00     0.014 A 
ATOM     34  C   UNL A   1      42.545  22.753  25.705  1.00  0.00     0.010 A 
ATOM     35  C   UNL A   1      42.360  22.252  28.067  1.00  0.00     0.010 A 
ATOM     36  C   UNL A   1      42.684  23.155  27.043  1.00  0.00    -0.014 A 
BRANCH  36  37
ATOM     37  C   UNL A   1      43.187  24.504  27.399  1.00  0.00     0.031 A 
ATOM     38  C   UNL A   1      42.226  25.569  27.851  1.00  0.00     0.074 A 
ATOM     39  C   UNL A   1      44.494  24.788  27.247  1.00  0.00     0.049 A 
ATOM     40  N   UNL A   1      42.453  26.830  28.120  1.00  0.00    -0.248 NA
ATOM     41  C   UNL A   1      40.814  25.174  27.985  1.00  0.00     0.031 C 
ATOM     42  C   UNL A   1      45.514  23.853  26.766  1.00  0.00     0.029 A 
ATOM     43  N   UNL A   1      45.187  25.950  27.469  1.00  0.00    -0.354 N 
ATOM     44  C   UNL A   1      41.215  27.378  28.431  1.00  0.00     0.074 A 
ATOM     45  C   UNL A   1      40.233  26.330  28.264  1.00  0.00     0.031 C 
ATOM     46  C   UNL A   1      46.706  24.472  26.754  1.00  0.00     0.029 A 
ATOM     47  C   UNL A   1      46.528  25.854  27.187  1.00  0.00     0.049 A 
ATOM     48  H   UNL A   1      44.763  26.776  27.799  1.00  0.00     0.167 HD
ATOM     49  C   UNL A   1      40.927  28.635  28.846  1.00  0.00     0.037 A 
ATOM     50  C   UNL A   1      47.502  26.779  27.262  1.00  0.00     0.037 A 
ATOM     51  C   UNL A   1      41.914  29.662  29.044  1.00  0.00     0.049 A 
ATOM     52  C   UNL A   1      47.158  28.166  27.732  1.00  0.00     0.074 A 
ATOM     53  C   UNL A   1      41.737  30.947  29.524  1.00  0.00     0.029 A 
ATOM     54  N   UNL A   1      43.267  29.518  28.771  1.00  0.00    -0.354 N 
ATOM     55  N   UNL A   1      45.994  28.652  28.088  1.00  0.00    -0.248 NA
ATOM     56  C   UNL A   1      48.263  29.129  27.813  1.00  0.00     0.031 C 
ATOM     57  C   UNL A   1      42.978  31.595  29.504  1.00  0.00     0.029 A 
ATOM     58  C   UNL A   1      43.934  30.698  29.054  1.00  0.00     0.049 A 
ATOM     59  H   UNL A   1      43.690  28.698  28.427  1.00  0.00     0.167 HD
ATOM     60  C   UNL A   1      46.230  29.968  28.461  1.00  0.00     0.074 A 
ATOM     61  C   UNL A   1      47.652  30.199  28.302  1.00  0.00     0.031 C 
ATOM     62  C   UNL A   1      45.350  30.904  28.894  1.00  0.00     0.037 A 
BRANCH  49  63
ATOM     63  C   UNL A   1      39.487  28.961  29.119  1.00  0.00     0.057 A 
ATOM     64  C   UNL A   1      38.637  29.453  28.120  1.00  0.00     0.134 A 
ATOM     65  C   UNL A   1      38.935  28.756  30.390  1.00  0.00     0.134 A 
ATOM     66  F   UNL A   1      39.105  29.684  26.883  1.00  0.00    -0.206 F 
ATOM     67  C   UNL A   1      37.300  29.758  28.380  1.00  0.00     0.040 A 
ATOM     68  C   UNL A   1      37.592  29.030  30.656  1.00  0.00     0.040 A 
ATOM     69  F   UNL A   1      39.689  28.282  31.393  1.00  0.00    -0.206 F 
ATOM     70  C   UNL A   1      36.772  29.540  29.652  1.00  0.00     0.006 A 
ENDBRANCH  49  63
BRANCH  50  71
ATOM     71  C   UNL A   1      48.899  26.419  26.912  1.00  0.00     0.057 A 
ATOM     72  C   UNL A   1      49.762  25.869  27.866  1.00  0.00     0.134 A 
ATOM     73  C   UNL A   1      49.405  26.614  25.621  1.00  0.00     0.134 A 
ATOM     74  F   UNL A   1      49.340  25.675  29.124  1.00  0.00    -0.206 F 
ATOM     75  C   UNL A   1      51.084  25.545  27.557  1.00  0.00     0.040 A 
ATOM     76  C   UNL A   1      50.717  26.272  25.291  1.00  0.00     0.040 A 
ATOM     77  F   UNL A   1      48.625  27.128  24.658  1.00  0.00    -0.206 F 
ATOM     78  C   UNL A   1      51.563  25.742  26.263  1.00  0.00     0.006 A 
ENDBRANCH  50  71
BRANCH  62  79
ATOM     79  C   UNL A   1      45.906  32.250  29.255  1.00  0.00     0.057 A 
ATOM     80  C   UNL A   1      45.967  33.297  28.328  1.00  0.00     0.134 A 
ATOM     81  C   UNL A   1      46.350  32.511  30.558  1.00  0.00     0.134 A 
ATOM     82  F   UNL A   1      45.570  33.107  27.060  1.00  0.00    -0.206 F 
ATOM     83  C   UNL A   1      46.471  34.550  28.677  1.00  0.00     0.040 A 
ATOM     84  C   UNL A   1      46.831  33.768  30.927  1.00  0.00     0.040 A 
ATOM     85  F   UNL A   1      46.309  31.552  31.496  1.00  0.00    -0.206 F 
ATOM     86  C   UNL A   1      46.897  34.790  29.983  1.00  0.00     0.006 A 
ENDBRANCH  62  79
ENDBRANCH  36  37
ENDBRANCH  28  31
ENDBRANCH  26  27
ENDBRANCH   1  26
TORSDOF 14
ENDMDL
