MODEL 1
REMARK VINA RESULT:     -11.8      0.000      0.000
REMARK SMILES CC(C)(Oc1ccc(Cl)cc1)C(=O)N1CCC[C@H](C(=O)NCCCNC(=O)c2ccc(-c3c4nc(c(-c5c(F)cccc5F)c5ccc([nH]5)c(-c5c(F)cccc5F)c5nc(c(-c6c(F)cccc6F)c6ccc3[nH]6)C=C5)C=C4)cc2)C1
REMARK SMILES IDX 22 1 21 2 19 3 20 4 18 6 14 7 15 8 82 9 16 10 17 11 12 12
REMARK SMILES IDX 13 13 2 14 1 15 3 16 4 17 5 18 6 19 11 20 7 21 10 22 8 23
REMARK SMILES IDX 9 24 23 25 24 26 25 27 26 28 27 30 28 31 29 32 81 33 30 34
REMARK SMILES IDX 80 35 31 36 32 37 33 38 74 39 34 40 79 41 73 42 75 43 35 44
REMARK SMILES IDX 78 45 72 46 71 47 36 49 62 50 45 51 61 52 46 53 49 54 60 55
REMARK SMILES IDX 76 56 47 57 48 58 59 60 77 61 50 62 37 63 38 64 43 65 39 66
REMARK SMILES IDX 40 67 42 68 44 69 41 70 63 71 64 72 69 73 65 74 66 75 68 76
REMARK SMILES IDX 70 77 67 78 51 79 52 80 57 81 53 82 54 83 56 84 58 85 55 86
REMARK H PARENT 21 5 25 29 75 48 49 59
REMARK Flexibility Score: inf
ROOT
ATOM      1  C   UNL A   1      37.079  20.926  24.801  1.00  0.00     0.117 C 
ENDROOT
BRANCH   1   2
ATOM      2  N   UNL A   1      36.259  21.195  25.957  1.00  0.00    -0.356 N 
ATOM      3  C   UNL A   1      34.944  21.522  26.039  1.00  0.00     0.224 C 
ATOM      4  O   UNL A   1      34.450  21.518  27.173  1.00  0.00    -0.275 OA
ATOM      5  H   UNL A   1      36.726  21.130  26.822  1.00  0.00     0.163 HD
BRANCH   3   6
ATOM      6  C   UNL A   1      34.076  21.947  24.843  1.00  0.00     0.098 C 
ATOM      7  N   UNL A   1      32.440  23.849  25.164  1.00  0.00    -0.338 N 
ATOM      8  C   UNL A   1      31.336  22.988  24.737  1.00  0.00     0.119 C 
ATOM      9  C   UNL A   1      33.775  23.453  24.711  1.00  0.00     0.133 C 
ATOM     10  C   UNL A   1      31.551  21.529  25.105  1.00  0.00     0.022 C 
ATOM     11  C   UNL A   1      32.889  21.008  24.602  1.00  0.00     0.017 C 
BRANCH   7  12
ATOM     12  C   UNL A   1      32.174  24.849  26.100  1.00  0.00     0.266 C 
ATOM     13  O   UNL A   1      31.750  24.519  27.216  1.00  0.00    -0.270 OA
BRANCH  12  14
ATOM     14  C   UNL A   1      32.223  26.372  25.690  1.00  0.00     0.181 C 
ATOM     15  C   UNL A   1      33.620  26.901  26.084  1.00  0.00     0.067 C 
ATOM     16  C   UNL A   1      31.142  27.017  26.581  1.00  0.00     0.067 C 
BRANCH  14  17
ATOM     17  O   UNL A   1      32.018  26.601  24.283  1.00  0.00    -0.478 OA
BRANCH  17  18
ATOM     18  C   UNL A   1      30.979  27.424  23.937  1.00  0.00     0.121 A 
ATOM     19  C   UNL A   1      31.139  28.805  23.816  1.00  0.00     0.048 A 
ATOM     20  C   UNL A   1      29.746  26.841  23.638  1.00  0.00     0.048 A 
ATOM     21  C   UNL A   1      30.040  29.616  23.517  1.00  0.00     0.024 A 
ATOM     22  C   UNL A   1      28.650  27.648  23.319  1.00  0.00     0.024 A 
ATOM     23  C   UNL A   1      28.797  29.035  23.283  1.00  0.00     0.041 A 
ATOM     24  Cl  UNL A   1      27.439  30.032  22.937  1.00  0.00    -0.084 Cl
ENDBRANCH  17  18
ENDBRANCH  14  17
ENDBRANCH  12  14
ENDBRANCH   7  12
ENDBRANCH   3   6
ENDBRANCH   1   2
BRANCH   1  25
ATOM     25  C   UNL A   1      38.074  19.795  24.987  1.00  0.00     0.042 C 
BRANCH  25  26
ATOM     26  C   UNL A   1      39.125  20.090  26.041  1.00  0.00     0.118 C 
BRANCH  26  27
ATOM     27  N   UNL A   1      40.296  19.222  25.939  1.00  0.00    -0.352 N 
ATOM     28  C   UNL A   1      41.634  19.483  26.130  1.00  0.00     0.251 C 
ATOM     29  H   UNL A   1      40.093  18.292  25.690  1.00  0.00     0.163 HD
ATOM     30  O   UNL A   1      42.462  18.620  25.881  1.00  0.00    -0.269 OA
BRANCH  28  31
ATOM     31  C   UNL A   1      42.077  20.813  26.605  1.00  0.00     0.039 A 
ATOM     32  C   UNL A   1      42.454  21.776  25.664  1.00  0.00     0.014 A 
ATOM     33  C   UNL A   1      42.119  21.118  27.965  1.00  0.00     0.014 A 
ATOM     34  C   UNL A   1      42.787  23.065  26.086  1.00  0.00     0.010 A 
ATOM     35  C   UNL A   1      42.334  22.427  28.375  1.00  0.00     0.010 A 
ATOM     36  C   UNL A   1      42.681  23.414  27.441  1.00  0.00    -0.014 A 
BRANCH  36  37
ATOM     37  C   UNL A   1      42.956  24.793  27.922  1.00  0.00     0.031 A 
ATOM     38  C   UNL A   1      44.366  25.188  28.274  1.00  0.00     0.074 A 
ATOM     39  C   UNL A   1      41.940  25.656  28.115  1.00  0.00     0.049 A 
ATOM     40  N   UNL A   1      44.802  26.285  28.839  1.00  0.00    -0.248 NA
ATOM     41  C   UNL A   1      45.422  24.203  27.983  1.00  0.00     0.031 C 
ATOM     42  C   UNL A   1      40.525  25.379  27.855  1.00  0.00     0.029 A 
ATOM     43  N   UNL A   1      41.941  26.944  28.591  1.00  0.00    -0.354 N 
ATOM     44  C   UNL A   1      46.172  26.111  28.988  1.00  0.00     0.074 A 
ATOM     45  C   UNL A   1      46.487  24.780  28.518  1.00  0.00     0.031 C 
ATOM     46  C   UNL A   1      39.801  26.472  28.146  1.00  0.00     0.029 A 
ATOM     47  C   UNL A   1      40.690  27.510  28.656  1.00  0.00     0.049 A 
ATOM     48  H   UNL A   1      42.761  27.417  28.860  1.00  0.00     0.167 HD
ATOM     49  C   UNL A   1      47.094  26.993  29.441  1.00  0.00     0.037 A 
ATOM     50  C   UNL A   1      40.307  28.726  29.088  1.00  0.00     0.037 A 
ATOM     51  C   UNL A   1      46.785  28.329  29.870  1.00  0.00     0.049 A 
ATOM     52  C   UNL A   1      41.351  29.683  29.596  1.00  0.00     0.074 A 
ATOM     53  C   UNL A   1      47.650  29.314  30.317  1.00  0.00     0.029 A 
ATOM     54  N   UNL A   1      45.510  28.874  29.890  1.00  0.00    -0.354 N 
ATOM     55  N   UNL A   1      42.648  29.518  29.694  1.00  0.00    -0.248 NA
ATOM     56  C   UNL A   1      40.878  30.997  30.052  1.00  0.00     0.031 C 
ATOM     57  C   UNL A   1      46.893  30.447  30.632  1.00  0.00     0.029 A 
ATOM     58  C   UNL A   1      45.565  30.180  30.345  1.00  0.00     0.049 A 
ATOM     59  H   UNL A   1      44.690  28.401  29.621  1.00  0.00     0.167 HD
ATOM     60  C   UNL A   1      43.148  30.715  30.188  1.00  0.00     0.074 A 
ATOM     61  C   UNL A   1      42.016  31.603  30.358  1.00  0.00     0.031 C 
ATOM     62  C   UNL A   1      44.427  31.052  30.480  1.00  0.00     0.037 A 
BRANCH  49  63
ATOM     63  C   UNL A   1      48.526  26.546  29.464  1.00  0.00     0.057 A 
ATOM     64  C   UNL A   1      49.388  26.797  28.388  1.00  0.00     0.134 A 
ATOM     65  C   UNL A   1      49.059  25.890  30.579  1.00  0.00     0.134 A 
ATOM     66  F   UNL A   1      48.935  27.407  27.282  1.00  0.00    -0.206 F 
ATOM     67  C   UNL A   1      50.724  26.393  28.411  1.00  0.00     0.040 A 
ATOM     68  C   UNL A   1      50.400  25.504  30.626  1.00  0.00     0.040 A 
ATOM     69  F   UNL A   1      48.290  25.622  31.646  1.00  0.00    -0.206 F 
ATOM     70  C   UNL A   1      51.235  25.751  29.537  1.00  0.00     0.006 A 
ENDBRANCH  49  63
BRANCH  50  71
ATOM     71  C   UNL A   1      38.877  29.126  29.048  1.00  0.00     0.057 A 
ATOM     72  C   UNL A   1      38.065  29.009  30.184  1.00  0.00     0.134 A 
ATOM     73  C   UNL A   1      38.277  29.594  27.874  1.00  0.00     0.134 A 
ATOM     74  F   UNL A   1      38.577  28.548  31.334  1.00  0.00    -0.206 F 
ATOM     75  C   UNL A   1      36.703  29.311  30.144  1.00  0.00     0.040 A 
ATOM     76  C   UNL A   1      36.921  29.926  27.827  1.00  0.00     0.040 A 
ATOM     77  F   UNL A   1      39.000  29.737  26.754  1.00  0.00    -0.206 F 
ATOM     78  C   UNL A   1      36.128  29.773  28.963  1.00  0.00     0.006 A 
ENDBRANCH  50  71
BRANCH  62  79
ATOM     79  C   UNL A   1      44.675  32.449  30.963  1.00  0.00     0.057 A 
ATOM     80  C   UNL A   1      44.696  32.766  32.325  1.00  0.00     0.134 A 
ATOM     81  C   UNL A   1      44.941  33.478  30.051  1.00  0.00     0.134 A 
ATOM     82  F   UNL A   1      44.436  31.826  33.247  1.00  0.00    -0.206 F 
ATOM     83  C   UNL A   1      44.951  34.066  32.766  1.00  0.00     0.040 A 
ATOM     84  C   UNL A   1      45.222  34.775  30.479  1.00  0.00     0.040 A 
ATOM     85  F   UNL A   1      44.945  33.236  28.731  1.00  0.00    -0.206 F 
ATOM     86  C   UNL A   1      45.223  35.073  31.840  1.00  0.00     0.006 A 
ENDBRANCH  62  79
ENDBRANCH  36  37
ENDBRANCH  28  31
ENDBRANCH  26  27
ENDBRANCH  25  26
ENDBRANCH   1  25
TORSDOF 14
ENDMDL
MODEL 2
REMARK VINA RESULT:     -11.8      4.097      9.409
REMARK SMILES CC(C)(Oc1ccc(Cl)cc1)C(=O)N1CCC[C@H](C(=O)NCCCNC(=O)c2ccc(-c3c4nc(c(-c5c(F)cccc5F)c5ccc([nH]5)c(-c5c(F)cccc5F)c5nc(c(-c6c(F)cccc6F)c6ccc3[nH]6)C=C5)C=C4)cc2)C1
REMARK SMILES IDX 22 1 21 2 19 3 20 4 18 6 14 7 15 8 82 9 16 10 17 11 12 12
REMARK SMILES IDX 13 13 2 14 1 15 3 16 4 17 5 18 6 19 11 20 7 21 10 22 8 23
REMARK SMILES IDX 9 24 23 25 24 26 25 27 26 28 27 30 28 31 29 32 81 33 30 34
REMARK SMILES IDX 80 35 31 36 32 37 33 38 74 39 34 40 79 41 73 42 75 43 35 44
REMARK SMILES IDX 78 45 72 46 71 47 36 49 62 50 45 51 61 52 46 53 49 54 60 55
REMARK SMILES IDX 76 56 47 57 48 58 59 60 77 61 50 62 37 63 38 64 43 65 39 66
REMARK SMILES IDX 40 67 42 68 44 69 41 70 63 71 64 72 69 73 65 74 66 75 68 76
REMARK SMILES IDX 70 77 67 78 51 79 52 80 57 81 53 82 54 83 56 84 58 85 55 86
REMARK H PARENT 21 5 25 29 75 48 49 59
REMARK Flexibility Score: inf
ROOT
ATOM      1  C   UNL A   1      31.500  30.565  26.487  1.00  0.00     0.117 C 
ENDROOT
BRANCH   1   2
ATOM      2  N   UNL A   1      32.523  30.155  25.556  1.00  0.00    -0.356 N 
ATOM      3  C   UNL A   1      32.566  29.087  24.717  1.00  0.00     0.224 C 
ATOM      4  O   UNL A   1      33.487  29.077  23.893  1.00  0.00    -0.275 OA
ATOM      5  H   UNL A   1      33.313  30.741  25.522  1.00  0.00     0.163 HD
BRANCH   3   6
ATOM      6  C   UNL A   1      31.597  27.894  24.777  1.00  0.00     0.098 C 
ATOM      7  N   UNL A   1      32.368  25.676  23.840  1.00  0.00    -0.338 N 
ATOM      8  C   UNL A   1      31.216  25.641  22.938  1.00  0.00     0.119 C 
ATOM      9  C   UNL A   1      32.225  26.510  25.034  1.00  0.00     0.133 C 
ATOM     10  C   UNL A   1      30.769  27.027  22.502  1.00  0.00     0.022 C 
ATOM     11  C   UNL A   1      30.519  27.944  23.689  1.00  0.00     0.017 C 
BRANCH   7  12
ATOM     12  C   UNL A   1      33.557  25.079  23.416  1.00  0.00     0.266 C 
ATOM     13  O   UNL A   1      34.019  25.397  22.311  1.00  0.00    -0.270 OA
BRANCH  12  14
ATOM     14  C   UNL A   1      34.195  23.886  24.227  1.00  0.00     0.181 C 
ATOM     15  C   UNL A   1      35.157  24.509  25.264  1.00  0.00     0.067 C 
ATOM     16  C   UNL A   1      34.995  23.114  23.159  1.00  0.00     0.067 C 
BRANCH  14  17
ATOM     17  O   UNL A   1      33.229  23.072  24.920  1.00  0.00    -0.478 OA
BRANCH  17  18
ATOM     18  C   UNL A   1      33.195  21.742  24.591  1.00  0.00     0.121 A 
ATOM     19  C   UNL A   1      33.965  20.794  25.267  1.00  0.00     0.048 A 
ATOM     20  C   UNL A   1      32.312  21.331  23.591  1.00  0.00     0.048 A 
ATOM     21  C   UNL A   1      33.944  19.456  24.863  1.00  0.00     0.024 A 
ATOM     22  C   UNL A   1      32.275  19.990  23.198  1.00  0.00     0.024 A 
ATOM     23  C   UNL A   1      33.109  19.061  23.822  1.00  0.00     0.041 A 
ATOM     24  Cl  UNL A   1      33.100  17.420  23.310  1.00  0.00    -0.084 Cl
ENDBRANCH  17  18
ENDBRANCH  14  17
ENDBRANCH  12  14
ENDBRANCH   7  12
ENDBRANCH   3   6
ENDBRANCH   1   2
BRANCH   1  25
ATOM     25  C   UNL A   1      31.346  32.069  26.626  1.00  0.00     0.042 C 
BRANCH  25  26
ATOM     26  C   UNL A   1      32.633  32.768  27.025  1.00  0.00     0.118 C 
BRANCH  26  27
ATOM     27  N   UNL A   1      32.409  34.093  27.599  1.00  0.00    -0.352 N 
ATOM     28  C   UNL A   1      33.078  34.771  28.591  1.00  0.00     0.251 C 
ATOM     29  H   UNL A   1      31.650  34.582  27.209  1.00  0.00     0.163 HD
ATOM     30  O   UNL A   1      32.644  35.842  28.993  1.00  0.00    -0.269 OA
BRANCH  28  31
ATOM     31  C   UNL A   1      34.300  34.198  29.199  1.00  0.00     0.039 A 
ATOM     32  C   UNL A   1      34.179  33.412  30.348  1.00  0.00     0.014 A 
ATOM     33  C   UNL A   1      35.558  34.426  28.642  1.00  0.00     0.014 A 
ATOM     34  C   UNL A   1      35.308  32.786  30.883  1.00  0.00     0.010 A 
ATOM     35  C   UNL A   1      36.657  33.713  29.102  1.00  0.00     0.010 A 
ATOM     36  C   UNL A   1      36.548  32.893  30.234  1.00  0.00    -0.014 A 
BRANCH  36  37
ATOM     37  C   UNL A   1      37.757  32.186  30.729  1.00  0.00     0.031 A 
ATOM     38  C   UNL A   1      38.529  32.759  31.888  1.00  0.00     0.074 A 
ATOM     39  C   UNL A   1      38.203  31.084  30.094  1.00  0.00     0.049 A 
ATOM     40  N   UNL A   1      39.680  32.383  32.384  1.00  0.00    -0.248 NA
ATOM     41  C   UNL A   1      37.945  33.935  32.556  1.00  0.00     0.031 C 
ATOM     42  C   UNL A   1      37.570  30.456  28.932  1.00  0.00     0.029 A 
ATOM     43  N   UNL A   1      39.306  30.302  30.332  1.00  0.00    -0.354 N 
ATOM     44  C   UNL A   1      39.963  33.284  33.402  1.00  0.00     0.074 A 
ATOM     45  C   UNL A   1      38.900  34.265  33.411  1.00  0.00     0.031 C 
ATOM     46  C   UNL A   1      38.278  29.371  28.577  1.00  0.00     0.029 A 
ATOM     47  C   UNL A   1      39.437  29.252  29.455  1.00  0.00     0.049 A 
ATOM     48  H   UNL A   1      39.942  30.477  31.061  1.00  0.00     0.167 HD
ATOM     49  C   UNL A   1      40.995  33.277  34.278  1.00  0.00     0.037 A 
ATOM     50  C   UNL A   1      40.392  28.307  29.366  1.00  0.00     0.037 A 
ATOM     51  C   UNL A   1      42.029  32.279  34.294  1.00  0.00     0.049 A 
ATOM     52  C   UNL A   1      41.534  28.329  30.346  1.00  0.00     0.074 A 
ATOM     53  C   UNL A   1      43.103  32.162  35.159  1.00  0.00     0.029 A 
ATOM     54  N   UNL A   1      42.108  31.214  33.409  1.00  0.00    -0.354 N 
ATOM     55  N   UNL A   1      41.767  29.165  31.328  1.00  0.00    -0.248 NA
ATOM     56  C   UNL A   1      42.546  27.272  30.205  1.00  0.00     0.031 C 
ATOM     57  C   UNL A   1      43.847  31.039  34.781  1.00  0.00     0.029 A 
ATOM     58  C   UNL A   1      43.214  30.438  33.705  1.00  0.00     0.049 A 
ATOM     59  H   UNL A   1      41.472  31.038  32.679  1.00  0.00     0.167 HD
ATOM     60  C   UNL A   1      42.928  28.717  31.942  1.00  0.00     0.074 A 
ATOM     61  C   UNL A   1      43.347  27.527  31.230  1.00  0.00     0.031 C 
ATOM     62  C   UNL A   1      43.595  29.243  32.998  1.00  0.00     0.037 A 
BRANCH  49  63
ATOM     63  C   UNL A   1      41.035  34.367  35.308  1.00  0.00     0.057 A 
ATOM     64  C   UNL A   1      40.361  34.242  36.531  1.00  0.00     0.134 A 
ATOM     65  C   UNL A   1      41.779  35.534  35.096  1.00  0.00     0.134 A 
ATOM     66  F   UNL A   1      39.618  33.156  36.790  1.00  0.00    -0.206 F 
ATOM     67  C   UNL A   1      40.407  35.249  37.497  1.00  0.00     0.040 A 
ATOM     68  C   UNL A   1      41.854  36.536  36.064  1.00  0.00     0.040 A 
ATOM     69  F   UNL A   1      42.452  35.715  33.949  1.00  0.00    -0.206 F 
ATOM     70  C   UNL A   1      41.161  36.398  37.267  1.00  0.00     0.006 A 
ENDBRANCH  49  63
BRANCH  50  71
ATOM     71  C   UNL A   1      40.312  27.247  28.328  1.00  0.00     0.057 A 
ATOM     72  C   UNL A   1      40.948  27.403  27.089  1.00  0.00     0.134 A 
ATOM     73  C   UNL A   1      39.572  26.077  28.528  1.00  0.00     0.134 A 
ATOM     74  F   UNL A   1      41.656  28.512  26.830  1.00  0.00    -0.206 F 
ATOM     75  C   UNL A   1      40.823  26.452  26.077  1.00  0.00     0.040 A 
ATOM     76  C   UNL A   1      39.461  25.103  27.533  1.00  0.00     0.040 A 
ATOM     77  F   UNL A   1      38.946  25.862  29.694  1.00  0.00    -0.206 F 
ATOM     78  C   UNL A   1      40.078  25.295  26.298  1.00  0.00     0.006 A 
ENDBRANCH  50  71
BRANCH  62  79
ATOM     79  C   UNL A   1      44.811  28.509  33.476  1.00  0.00     0.057 A 
ATOM     80  C   UNL A   1      46.093  28.825  33.012  1.00  0.00     0.134 A 
ATOM     81  C   UNL A   1      44.698  27.504  34.446  1.00  0.00     0.134 A 
ATOM     82  F   UNL A   1      46.264  29.768  32.074  1.00  0.00    -0.206 F 
ATOM     83  C   UNL A   1      47.222  28.151  33.481  1.00  0.00     0.040 A 
ATOM     84  C   UNL A   1      45.821  26.842  34.940  1.00  0.00     0.040 A 
ATOM     85  F   UNL A   1      43.498  27.162  34.937  1.00  0.00    -0.206 F 
ATOM     86  C   UNL A   1      47.087  27.161  34.454  1.00  0.00     0.006 A 
ENDBRANCH  62  79
ENDBRANCH  36  37
ENDBRANCH  28  31
ENDBRANCH  26  27
ENDBRANCH  25  26
ENDBRANCH   1  25
TORSDOF 14
ENDMDL
MODEL 3
REMARK VINA RESULT:     -11.8      4.522      9.373
REMARK SMILES CC(C)(Oc1ccc(Cl)cc1)C(=O)N1CCC[C@H](C(=O)NCCCNC(=O)c2ccc(-c3c4nc(c(-c5c(F)cccc5F)c5ccc([nH]5)c(-c5c(F)cccc5F)c5nc(c(-c6c(F)cccc6F)c6ccc3[nH]6)C=C5)C=C4)cc2)C1
REMARK SMILES IDX 22 1 21 2 19 3 20 4 18 6 14 7 15 8 82 9 16 10 17 11 12 12
REMARK SMILES IDX 13 13 2 14 1 15 3 16 4 17 5 18 6 19 11 20 7 21 10 22 8 23
REMARK SMILES IDX 9 24 23 25 24 26 25 27 26 28 27 30 28 31 29 32 81 33 30 34
REMARK SMILES IDX 80 35 31 36 32 37 33 38 74 39 34 40 79 41 73 42 75 43 35 44
REMARK SMILES IDX 78 45 72 46 71 47 36 49 62 50 45 51 61 52 46 53 49 54 60 55
REMARK SMILES IDX 76 56 47 57 48 58 59 60 77 61 50 62 37 63 38 64 43 65 39 66
REMARK SMILES IDX 40 67 42 68 44 69 41 70 63 71 64 72 69 73 65 74 66 75 68 76
REMARK SMILES IDX 70 77 67 78 51 79 52 80 57 81 53 82 54 83 56 84 58 85 55 86
REMARK H PARENT 21 5 25 29 75 48 49 59
REMARK Flexibility Score: inf
ROOT
ATOM      1  C   UNL A   1      31.647  30.523  26.417  1.00  0.00     0.117 C 
ENDROOT
BRANCH   1   2
ATOM      2  N   UNL A   1      32.554  30.119  25.371  1.00  0.00    -0.356 N 
ATOM      3  C   UNL A   1      32.532  29.024  24.568  1.00  0.00     0.224 C 
ATOM      4  O   UNL A   1      33.335  29.019  23.628  1.00  0.00    -0.275 OA
ATOM      5  H   UNL A   1      33.306  30.735  25.213  1.00  0.00     0.163 HD
BRANCH   3   6
ATOM      6  C   UNL A   1      31.633  27.797  24.794  1.00  0.00     0.098 C 
ATOM      7  N   UNL A   1      32.446  25.548  23.972  1.00  0.00    -0.338 N 
ATOM      8  C   UNL A   1      31.233  25.388  23.169  1.00  0.00     0.119 C 
ATOM      9  C   UNL A   1      32.348  26.468  25.107  1.00  0.00     0.133 C 
ATOM     10  C   UNL A   1      30.684  26.713  22.663  1.00  0.00     0.022 C 
ATOM     11  C   UNL A   1      30.476  27.710  23.793  1.00  0.00     0.017 C 
BRANCH   7  12
ATOM     12  C   UNL A   1      33.629  24.973  23.505  1.00  0.00     0.266 C 
ATOM     13  O   UNL A   1      34.069  25.336  22.405  1.00  0.00    -0.270 OA
BRANCH  12  14
ATOM     14  C   UNL A   1      34.286  23.753  24.257  1.00  0.00     0.181 C 
ATOM     15  C   UNL A   1      35.270  24.339  25.294  1.00  0.00     0.067 C 
ATOM     16  C   UNL A   1      35.063  23.022  23.143  1.00  0.00     0.067 C 
BRANCH  14  17
ATOM     17  O   UNL A   1      33.337  22.911  24.940  1.00  0.00    -0.478 OA
BRANCH  17  18
ATOM     18  C   UNL A   1      33.357  21.578  24.626  1.00  0.00     0.121 A 
ATOM     19  C   UNL A   1      34.310  20.708  25.158  1.00  0.00     0.048 A 
ATOM     20  C   UNL A   1      32.350  21.080  23.798  1.00  0.00     0.048 A 
ATOM     21  C   UNL A   1      34.331  19.366  24.768  1.00  0.00     0.024 A 
ATOM     22  C   UNL A   1      32.357  19.733  23.421  1.00  0.00     0.024 A 
ATOM     23  C   UNL A   1      33.362  18.887  23.891  1.00  0.00     0.041 A 
ATOM     24  Cl  UNL A   1      33.400  17.241  23.393  1.00  0.00    -0.084 Cl
ENDBRANCH  17  18
ENDBRANCH  14  17
ENDBRANCH  12  14
ENDBRANCH   7  12
ENDBRANCH   3   6
ENDBRANCH   1   2
BRANCH   1  25
ATOM     25  C   UNL A   1      31.488  32.025  26.565  1.00  0.00     0.042 C 
BRANCH  25  26
ATOM     26  C   UNL A   1      32.655  32.683  27.278  1.00  0.00     0.118 C 
BRANCH  26  27
ATOM     27  N   UNL A   1      32.382  34.065  27.665  1.00  0.00    -0.352 N 
ATOM     28  C   UNL A   1      33.008  34.889  28.572  1.00  0.00     0.251 C 
ATOM     29  H   UNL A   1      31.620  34.476  27.198  1.00  0.00     0.163 HD
ATOM     30  O   UNL A   1      32.536  35.990  28.818  1.00  0.00    -0.269 OA
BRANCH  28  31
ATOM     31  C   UNL A   1      34.230  34.439  29.275  1.00  0.00     0.039 A 
ATOM     32  C   UNL A   1      34.105  33.832  30.528  1.00  0.00     0.014 A 
ATOM     33  C   UNL A   1      35.493  34.607  28.707  1.00  0.00     0.014 A 
ATOM     34  C   UNL A   1      35.236  33.317  31.165  1.00  0.00     0.010 A 
ATOM     35  C   UNL A   1      36.597  33.993  29.283  1.00  0.00     0.010 A 
ATOM     36  C   UNL A   1      36.485  33.349  30.524  1.00  0.00    -0.014 A 
BRANCH  36  37
ATOM     37  C   UNL A   1      37.698  32.750  31.136  1.00  0.00     0.031 A 
ATOM     38  C   UNL A   1      38.331  31.541  30.498  1.00  0.00     0.074 A 
ATOM     39  C   UNL A   1      38.182  33.239  32.295  1.00  0.00     0.049 A 
ATOM     40  N   UNL A   1      39.302  30.784  30.941  1.00  0.00    -0.248 NA
ATOM     41  C   UNL A   1      37.772  31.104  29.207  1.00  0.00     0.031 C 
ATOM     42  C   UNL A   1      37.633  34.378  33.035  1.00  0.00     0.029 A 
ATOM     43  N   UNL A   1      39.243  32.828  33.063  1.00  0.00    -0.354 N 
ATOM     44  C   UNL A   1      39.454  29.777  29.996  1.00  0.00     0.074 A 
ATOM     45  C   UNL A   1      38.433  29.978  28.992  1.00  0.00     0.031 C 
ATOM     46  C   UNL A   1      38.378  34.591  34.132  1.00  0.00     0.029 A 
ATOM     47  C   UNL A   1      39.427  33.580  34.199  1.00  0.00     0.049 A 
ATOM     48  H   UNL A   1      39.818  32.067  32.822  1.00  0.00     0.167 HD
ATOM     49  C   UNL A   1      40.383  28.794  29.948  1.00  0.00     0.037 A 
ATOM     50  C   UNL A   1      40.333  33.458  35.186  1.00  0.00     0.037 A 
ATOM     51  C   UNL A   1      41.421  28.620  30.926  1.00  0.00     0.049 A 
ATOM     52  C   UNL A   1      41.348  32.349  35.111  1.00  0.00     0.074 A 
ATOM     53  C   UNL A   1      42.432  27.674  30.953  1.00  0.00     0.029 A 
ATOM     54  N   UNL A   1      41.591  29.422  32.044  1.00  0.00    -0.354 N 
ATOM     55  N   UNL A   1      41.503  31.428  34.191  1.00  0.00    -0.248 NA
ATOM     56  C   UNL A   1      42.317  32.265  36.214  1.00  0.00     0.031 C 
ATOM     57  C   UNL A   1      43.199  27.889  32.102  1.00  0.00     0.029 A 
ATOM     58  C   UNL A   1      42.688  28.991  32.769  1.00  0.00     0.049 A 
ATOM     59  H   UNL A   1      41.016  30.184  32.285  1.00  0.00     0.167 HD
ATOM     60  C   UNL A   1      42.603  30.679  34.585  1.00  0.00     0.074 A 
ATOM     61  C   UNL A   1      43.087  31.260  35.820  1.00  0.00     0.031 C 
ATOM     62  C   UNL A   1      43.165  29.603  33.983  1.00  0.00     0.037 A 
BRANCH  49  63
ATOM     63  C   UNL A   1      40.331  27.851  28.781  1.00  0.00     0.057 A 
ATOM     64  C   UNL A   1      41.038  28.112  27.599  1.00  0.00     0.134 A 
ATOM     65  C   UNL A   1      39.601  26.659  28.848  1.00  0.00     0.134 A 
ATOM     66  F   UNL A   1      41.744  29.245  27.465  1.00  0.00    -0.206 F 
ATOM     67  C   UNL A   1      41.002  27.231  26.517  1.00  0.00     0.040 A 
ATOM     68  C   UNL A   1      39.579  25.758  27.783  1.00  0.00     0.040 A 
ATOM     69  F   UNL A   1      38.906  26.346  29.952  1.00  0.00    -0.206 F 
ATOM     70  C   UNL A   1      40.276  26.046  26.610  1.00  0.00     0.006 A 
ENDBRANCH  49  63
BRANCH  50  71
ATOM     71  C   UNL A   1      40.346  34.413  36.323  1.00  0.00     0.057 A 
ATOM     72  C   UNL A   1      39.581  34.175  37.472  1.00  0.00     0.134 A 
ATOM     73  C   UNL A   1      41.084  35.601  36.277  1.00  0.00     0.134 A 
ATOM     74  F   UNL A   1      38.837  33.063  37.567  1.00  0.00    -0.206 F 
ATOM     75  C   UNL A   1      39.524  35.096  38.518  1.00  0.00     0.040 A 
ATOM     76  C   UNL A   1      41.058  36.520  37.329  1.00  0.00     0.040 A 
ATOM     77  F   UNL A   1      41.844  35.886  35.210  1.00  0.00    -0.206 F 
ATOM     78  C   UNL A   1      40.266  36.273  38.449  1.00  0.00     0.006 A 
ENDBRANCH  50  71
BRANCH  62  79
ATOM     79  C   UNL A   1      44.388  29.019  34.621  1.00  0.00     0.057 A 
ATOM     80  C   UNL A   1      44.309  27.983  35.558  1.00  0.00     0.134 A 
ATOM     81  C   UNL A   1      45.663  29.472  34.258  1.00  0.00     0.134 A 
ATOM     82  F   UNL A   1      43.115  27.515  35.956  1.00  0.00    -0.206 F 
ATOM     83  C   UNL A   1      45.455  27.430  36.130  1.00  0.00     0.040 A 
ATOM     84  C   UNL A   1      46.817  28.911  34.804  1.00  0.00     0.040 A 
ATOM     85  F   UNL A   1      45.806  30.457  33.358  1.00  0.00    -0.206 F 
ATOM     86  C   UNL A   1      46.715  27.891  35.747  1.00  0.00     0.006 A 
ENDBRANCH  62  79
ENDBRANCH  36  37
ENDBRANCH  28  31
ENDBRANCH  26  27
ENDBRANCH  25  26
ENDBRANCH   1  25
TORSDOF 14
ENDMDL
