MODEL 1
REMARK VINA RESULT:     -12.7      0.000      0.000
REMARK SMILES Cc1cc2n(n1)[C@H](C(F)(F)F)CCN2C(=O)c1cnn([C@@H](C)C(=O)NCCCNC(=O)c2ccc(-c3c4nc(c(-c5c(F)cccc5F)c5ccc([nH]5)c(-c5c(F)cccc5F)c5nc(c(-c6c(F)cccc6F)c6ccc3[nH]6)C=C5)C=C4)cc2)c1
REMARK SMILES IDX 26 1 25 2 23 3 24 4 21 6 22 7 20 8 17 9 18 10 86 11 19 12
REMARK SMILES IDX 15 13 16 14 14 15 1 16 2 17 3 18 6 19 4 20 5 21 7 22 13 23
REMARK SMILES IDX 12 24 8 25 9 26 10 27 11 28 27 29 28 30 29 31 30 32 31 34
REMARK SMILES IDX 32 35 33 36 85 37 34 38 84 39 35 40 36 41 37 42 78 43 38 44
REMARK SMILES IDX 83 45 77 46 79 47 39 48 82 49 76 50 75 51 40 53 66 54 49 55
REMARK SMILES IDX 65 56 50 57 53 58 64 59 80 60 51 61 52 62 63 64 81 65 54 66
REMARK SMILES IDX 41 67 42 68 47 69 43 70 44 71 46 72 48 73 45 74 67 75 68 76
REMARK SMILES IDX 73 77 69 78 70 79 72 80 74 81 71 82 55 83 56 84 61 85 57 86
REMARK SMILES IDX 58 87 60 88 62 89 59 90
REMARK H PARENT 25 5 29 33 79 52 53 63
REMARK Flexibility Score: inf
ROOT
ATOM      1  C   UNL A   1      33.257  29.745  25.951  1.00  0.00     0.117 C 
ENDROOT
BRANCH   1   2
ATOM      2  N   UNL A   1      32.084  29.935  25.106  1.00  0.00    -0.354 N 
ATOM      3  C   UNL A   1      31.172  29.054  24.607  1.00  0.00     0.244 C 
ATOM      4  O   UNL A   1      30.317  29.526  23.846  1.00  0.00    -0.273 OA
ATOM      5  H   UNL A   1      31.921  30.871  24.849  1.00  0.00     0.163 HD
BRANCH   3   6
ATOM      6  C   UNL A   1      31.136  27.560  24.934  1.00  0.00     0.193 C 
ATOM      7  C   UNL A   1      31.265  27.211  26.412  1.00  0.00     0.044 C 
BRANCH   6   8
ATOM      8  N   UNL A   1      32.006  26.787  24.057  1.00  0.00    -0.260 N 
ATOM      9  C   UNL A   1      32.961  25.150  22.917  1.00  0.00     0.078 A 
ATOM     10  C   UNL A   1      33.298  26.425  22.431  1.00  0.00     0.149 A 
ATOM     11  C   UNL A   1      32.080  25.423  23.951  1.00  0.00     0.123 A 
ATOM     12  N   UNL A   1      32.877  27.397  23.235  1.00  0.00    -0.180 NA
BRANCH   9  13
ATOM     13  C   UNL A   1      33.308  23.850  22.413  1.00  0.00     0.262 C 
ATOM     14  O   UNL A   1      33.623  23.653  21.239  1.00  0.00    -0.269 OA
BRANCH  13  15
ATOM     15  N   UNL A   1      33.205  22.758  23.375  1.00  0.00    -0.293 N 
ATOM     16  C   UNL A   1      37.853  21.734  25.005  1.00  0.00     0.069 C 
ATOM     17  C   UNL A   1      36.387  21.801  24.791  1.00  0.00     0.062 A 
ATOM     18  C   UNL A   1      35.673  22.701  23.958  1.00  0.00     0.072 A 
ATOM     19  N   UNL A   1      35.567  20.933  25.395  1.00  0.00    -0.176 NA
ATOM     20  C   UNL A   1      34.362  22.290  24.019  1.00  0.00     0.134 A 
ATOM     21  N   UNL A   1      34.368  21.225  24.882  1.00  0.00    -0.237 N 
ATOM     22  C   UNL A   1      33.191  20.465  25.247  1.00  0.00     0.216 C 
ATOM     23  C   UNL A   1      31.978  21.930  23.540  1.00  0.00     0.130 C 
ATOM     24  C   UNL A   1      31.933  21.282  24.926  1.00  0.00     0.059 C 
BRANCH  22  25
ATOM     25  C   UNL A   1      33.193  19.128  24.538  1.00  0.00     0.410 C 
ATOM     26  F   UNL A   1      32.161  18.372  24.988  1.00  0.00    -0.169 F 
ATOM     27  F   UNL A   1      33.012  19.276  23.205  1.00  0.00    -0.169 F 
ATOM     28  F   UNL A   1      34.318  18.418  24.733  1.00  0.00    -0.169 F 
ENDBRANCH  22  25
ENDBRANCH  13  15
ENDBRANCH   9  13
ENDBRANCH   6   8
ENDBRANCH   3   6
ENDBRANCH   1   2
BRANCH   1  29
ATOM     29  C   UNL A   1      33.150  30.454  27.305  1.00  0.00     0.042 C 
BRANCH  29  30
ATOM     30  C   UNL A   1      34.167  31.560  27.500  1.00  0.00     0.118 C 
BRANCH  30  31
ATOM     31  N   UNL A   1      34.130  32.148  28.833  1.00  0.00    -0.352 N 
ATOM     32  C   UNL A   1      35.016  31.927  29.868  1.00  0.00     0.251 C 
ATOM     33  H   UNL A   1      33.390  32.771  29.016  1.00  0.00     0.163 HD
ATOM     34  O   UNL A   1      34.728  32.236  31.018  1.00  0.00    -0.269 OA
BRANCH  32  35
ATOM     35  C   UNL A   1      36.293  31.258  29.565  1.00  0.00     0.039 A 
ATOM     36  C   UNL A   1      37.480  31.992  29.541  1.00  0.00     0.014 A 
ATOM     37  C   UNL A   1      36.312  29.874  29.410  1.00  0.00     0.014 A 
ATOM     38  C   UNL A   1      38.694  31.312  29.467  1.00  0.00     0.010 A 
ATOM     39  C   UNL A   1      37.516  29.200  29.469  1.00  0.00     0.010 A 
ATOM     40  C   UNL A   1      38.720  29.907  29.471  1.00  0.00    -0.014 A 
BRANCH  40  41
ATOM     41  C   UNL A   1      40.007  29.203  29.562  1.00  0.00     0.031 A 
ATOM     42  C   UNL A   1      40.577  28.995  30.932  1.00  0.00     0.074 A 
ATOM     43  C   UNL A   1      40.614  28.567  28.537  1.00  0.00     0.049 A 
ATOM     44  N   UNL A   1      41.713  29.410  31.396  1.00  0.00    -0.248 NA
ATOM     45  C   UNL A   1      39.774  28.249  31.912  1.00  0.00     0.031 C 
ATOM     46  C   UNL A   1      40.122  28.338  27.174  1.00  0.00     0.029 A 
ATOM     47  N   UNL A   1      41.794  27.881  28.551  1.00  0.00    -0.354 N 
ATOM     48  C   UNL A   1      41.850  28.855  32.668  1.00  0.00     0.074 A 
ATOM     49  C   UNL A   1      40.587  28.227  32.970  1.00  0.00     0.031 C 
ATOM     50  C   UNL A   1      40.871  27.386  26.580  1.00  0.00     0.029 A 
ATOM     51  C   UNL A   1      41.996  27.078  27.442  1.00  0.00     0.049 A 
ATOM     52  H   UNL A   1      42.445  27.951  29.287  1.00  0.00     0.167 HD
ATOM     53  C   UNL A   1      43.046  28.810  33.320  1.00  0.00     0.037 A 
ATOM     54  C   UNL A   1      43.008  26.208  27.232  1.00  0.00     0.037 A 
ATOM     55  C   UNL A   1      44.008  29.713  32.748  1.00  0.00     0.049 A 
ATOM     56  C   UNL A   1      44.132  26.592  28.114  1.00  0.00     0.074 A 
ATOM     57  C   UNL A   1      44.060  31.075  32.523  1.00  0.00     0.029 A 
ATOM     58  N   UNL A   1      45.041  29.188  32.013  1.00  0.00    -0.354 N 
ATOM     59  N   UNL A   1      44.852  27.667  27.962  1.00  0.00    -0.248 NA
ATOM     60  C   UNL A   1      44.244  25.944  29.411  1.00  0.00     0.031 C 
ATOM     61  C   UNL A   1      44.767  31.219  31.291  1.00  0.00     0.029 A 
ATOM     62  C   UNL A   1      45.121  29.937  30.869  1.00  0.00     0.049 A 
ATOM     63  H   UNL A   1      45.612  28.425  32.260  1.00  0.00     0.167 HD
ATOM     64  C   UNL A   1      45.168  28.064  29.251  1.00  0.00     0.074 A 
ATOM     65  C   UNL A   1      44.886  26.901  30.084  1.00  0.00     0.031 C 
ATOM     66  C   UNL A   1      45.361  29.381  29.558  1.00  0.00     0.037 A 
BRANCH  53  67
ATOM     67  C   UNL A   1      43.457  27.738  34.300  1.00  0.00     0.057 A 
ATOM     68  C   UNL A   1      43.816  28.088  35.616  1.00  0.00     0.134 A 
ATOM     69  C   UNL A   1      43.784  26.422  33.921  1.00  0.00     0.134 A 
ATOM     70  F   UNL A   1      43.582  29.322  36.088  1.00  0.00    -0.206 F 
ATOM     71  C   UNL A   1      44.499  27.213  36.470  1.00  0.00     0.040 A 
ATOM     72  C   UNL A   1      44.422  25.522  34.782  1.00  0.00     0.040 A 
ATOM     73  F   UNL A   1      43.591  25.973  32.673  1.00  0.00    -0.206 F 
ATOM     74  C   UNL A   1      44.807  25.924  36.052  1.00  0.00     0.006 A 
ENDBRANCH  53  67
BRANCH  54  75
ATOM     75  C   UNL A   1      43.002  24.965  26.439  1.00  0.00     0.057 A 
ATOM     76  C   UNL A   1      43.779  24.832  25.282  1.00  0.00     0.134 A 
ATOM     77  C   UNL A   1      42.421  23.784  26.937  1.00  0.00     0.134 A 
ATOM     78  F   UNL A   1      44.404  25.895  24.756  1.00  0.00    -0.206 F 
ATOM     79  C   UNL A   1      43.985  23.592  24.666  1.00  0.00     0.040 A 
ATOM     80  C   UNL A   1      42.609  22.543  26.326  1.00  0.00     0.040 A 
ATOM     81  F   UNL A   1      41.720  23.787  28.082  1.00  0.00    -0.206 F 
ATOM     82  C   UNL A   1      43.406  22.441  25.192  1.00  0.00     0.006 A 
ENDBRANCH  54  75
BRANCH  66  83
ATOM     83  C   UNL A   1      45.539  30.354  28.428  1.00  0.00     0.057 A 
ATOM     84  C   UNL A   1      44.478  30.955  27.735  1.00  0.00     0.134 A 
ATOM     85  C   UNL A   1      46.828  30.806  28.123  1.00  0.00     0.134 A 
ATOM     86  F   UNL A   1      43.203  30.670  28.034  1.00  0.00    -0.206 F 
ATOM     87  C   UNL A   1      44.694  31.918  26.745  1.00  0.00     0.040 A 
ATOM     88  C   UNL A   1      47.056  31.792  27.161  1.00  0.00     0.040 A 
ATOM     89  F   UNL A   1      47.889  30.324  28.789  1.00  0.00    -0.206 F 
ATOM     90  C   UNL A   1      45.988  32.343  26.458  1.00  0.00     0.006 A 
ENDBRANCH  66  83
ENDBRANCH  40  41
ENDBRANCH  32  35
ENDBRANCH  30  31
ENDBRANCH  29  30
ENDBRANCH   1  29
TORSDOF 14
ENDMDL
MODEL 2
REMARK VINA RESULT:     -12.7      0.954      1.237
REMARK SMILES Cc1cc2n(n1)[C@H](C(F)(F)F)CCN2C(=O)c1cnn([C@@H](C)C(=O)NCCCNC(=O)c2ccc(-c3c4nc(c(-c5c(F)cccc5F)c5ccc([nH]5)c(-c5c(F)cccc5F)c5nc(c(-c6c(F)cccc6F)c6ccc3[nH]6)C=C5)C=C4)cc2)c1
REMARK SMILES IDX 26 1 25 2 23 3 24 4 21 6 22 7 20 8 17 9 18 10 86 11 19 12
REMARK SMILES IDX 15 13 16 14 14 15 1 16 2 17 3 18 6 19 4 20 5 21 7 22 13 23
REMARK SMILES IDX 12 24 8 25 9 26 10 27 11 28 27 29 28 30 29 31 30 32 31 34
REMARK SMILES IDX 32 35 33 36 85 37 34 38 84 39 35 40 36 41 37 42 78 43 38 44
REMARK SMILES IDX 83 45 77 46 79 47 39 48 82 49 76 50 75 51 40 53 66 54 49 55
REMARK SMILES IDX 65 56 50 57 53 58 64 59 80 60 51 61 52 62 63 64 81 65 54 66
REMARK SMILES IDX 41 67 42 68 47 69 43 70 44 71 46 72 48 73 45 74 67 75 68 76
REMARK SMILES IDX 73 77 69 78 70 79 72 80 74 81 71 82 55 83 56 84 61 85 57 86
REMARK SMILES IDX 58 87 60 88 62 89 59 90
REMARK H PARENT 25 5 29 33 79 52 53 63
REMARK Flexibility Score: inf
ROOT
ATOM      1  C   UNL A   1      32.904  30.326  27.255  1.00  0.00     0.117 C 
ENDROOT
BRANCH   1   2
ATOM      2  N   UNL A   1      32.144  29.112  27.527  1.00  0.00    -0.354 N 
ATOM      3  C   UNL A   1      31.703  28.115  26.709  1.00  0.00     0.244 C 
ATOM      4  O   UNL A   1      31.008  27.240  27.242  1.00  0.00    -0.273 OA
ATOM      5  H   UNL A   1      31.907  28.990  28.474  1.00  0.00     0.163 HD
BRANCH   3   6
ATOM      6  C   UNL A   1      32.018  28.009  25.217  1.00  0.00     0.193 C 
ATOM      7  C   UNL A   1      30.854  28.307  24.279  1.00  0.00     0.044 C 
BRANCH   6   8
ATOM      8  N   UNL A   1      32.749  26.788  24.897  1.00  0.00    -0.260 N 
ATOM      9  C   UNL A   1      33.423  24.897  23.969  1.00  0.00     0.078 A 
ATOM     10  C   UNL A   1      34.407  25.493  24.778  1.00  0.00     0.149 A 
ATOM     11  C   UNL A   1      32.369  25.794  24.035  1.00  0.00     0.123 A 
ATOM     12  N   UNL A   1      33.930  26.518  25.478  1.00  0.00    -0.180 NA
BRANCH   9  13
ATOM     13  C   UNL A   1      33.494  23.722  23.146  1.00  0.00     0.262 C 
ATOM     14  O   UNL A   1      33.617  23.772  21.922  1.00  0.00    -0.269 OA
BRANCH  13  15
ATOM     15  N   UNL A   1      33.349  22.454  23.853  1.00  0.00    -0.293 N 
ATOM     16  C   UNL A   1      37.971  20.796  24.948  1.00  0.00     0.069 C 
ATOM     17  C   UNL A   1      36.507  21.004  24.839  1.00  0.00     0.062 A 
ATOM     18  C   UNL A   1      35.828  22.109  24.264  1.00  0.00     0.072 A 
ATOM     19  N   UNL A   1      35.649  20.079  25.288  1.00  0.00    -0.176 NA
ATOM     20  C   UNL A   1      34.493  21.781  24.311  1.00  0.00     0.134 A 
ATOM     21  N   UNL A   1      34.455  20.554  24.920  1.00  0.00    -0.237 N 
ATOM     22  C   UNL A   1      33.240  19.810  25.180  1.00  0.00     0.216 C 
ATOM     23  C   UNL A   1      32.071  21.692  23.905  1.00  0.00     0.130 C 
ATOM     24  C   UNL A   1      32.036  20.758  25.118  1.00  0.00     0.059 C 
BRANCH  22  25
ATOM     25  C   UNL A   1      33.110  18.666  24.199  1.00  0.00     0.410 C 
ATOM     26  F   UNL A   1      33.096  19.151  22.933  1.00  0.00    -0.169 F 
ATOM     27  F   UNL A   1      34.165  17.823  24.280  1.00  0.00    -0.169 F 
ATOM     28  F   UNL A   1      31.984  17.948  24.359  1.00  0.00    -0.169 F 
ENDBRANCH  22  25
ENDBRANCH  13  15
ENDBRANCH   9  13
ENDBRANCH   6   8
ENDBRANCH   3   6
ENDBRANCH   1   2
BRANCH   1  29
ATOM     29  C   UNL A   1      34.419  30.133  27.374  1.00  0.00     0.042 C 
BRANCH  29  30
ATOM     30  C   UNL A   1      35.180  31.414  27.648  1.00  0.00     0.118 C 
BRANCH  30  31
ATOM     31  N   UNL A   1      34.667  32.154  28.794  1.00  0.00    -0.352 N 
ATOM     32  C   UNL A   1      35.084  32.056  30.105  1.00  0.00     0.251 C 
ATOM     33  H   UNL A   1      33.943  32.795  28.612  1.00  0.00     0.163 HD
ATOM     34  O   UNL A   1      34.397  32.498  31.018  1.00  0.00    -0.269 OA
BRANCH  32  35
ATOM     35  C   UNL A   1      36.350  31.356  30.387  1.00  0.00     0.039 A 
ATOM     36  C   UNL A   1      36.350  29.985  30.646  1.00  0.00     0.014 A 
ATOM     37  C   UNL A   1      37.548  32.058  30.285  1.00  0.00     0.014 A 
ATOM     38  C   UNL A   1      37.566  29.306  30.696  1.00  0.00     0.010 A 
ATOM     39  C   UNL A   1      38.738  31.363  30.204  1.00  0.00     0.010 A 
ATOM     40  C   UNL A   1      38.768  29.986  30.436  1.00  0.00    -0.014 A 
BRANCH  40  41
ATOM     41  C   UNL A   1      40.023  29.230  30.325  1.00  0.00     0.031 A 
ATOM     42  C   UNL A   1      40.787  28.983  31.590  1.00  0.00     0.074 A 
ATOM     43  C   UNL A   1      40.437  28.580  29.216  1.00  0.00     0.049 A 
ATOM     44  N   UNL A   1      41.997  29.346  31.876  1.00  0.00    -0.248 NA
ATOM     45  C   UNL A   1      40.113  28.260  32.678  1.00  0.00     0.031 C 
ATOM     46  C   UNL A   1      39.734  28.387  27.943  1.00  0.00     0.029 A 
ATOM     47  N   UNL A   1      41.576  27.846  29.046  1.00  0.00    -0.354 N 
ATOM     48  C   UNL A   1      42.304  28.772  33.109  1.00  0.00     0.074 A 
ATOM     49  C   UNL A   1      41.077  28.193  33.599  1.00  0.00     0.031 C 
ATOM     50  C   UNL A   1      40.341  27.412  27.237  1.00  0.00     0.029 A 
ATOM     51  C   UNL A   1      41.571  27.048  27.915  1.00  0.00     0.049 A 
ATOM     52  H   UNL A   1      42.334  27.881  29.672  1.00  0.00     0.167 HD
ATOM     53  C   UNL A   1      43.583  28.670  33.569  1.00  0.00     0.037 A 
ATOM     54  C   UNL A   1      42.502  26.140  27.547  1.00  0.00     0.037 A 
ATOM     55  C   UNL A   1      44.483  29.539  32.860  1.00  0.00     0.049 A 
ATOM     56  C   UNL A   1      43.763  26.467  28.248  1.00  0.00     0.074 A 
ATOM     57  C   UNL A   1      44.557  30.901  32.636  1.00  0.00     0.029 A 
ATOM     58  N   UNL A   1      45.368  28.981  31.973  1.00  0.00    -0.354 N 
ATOM     59  N   UNL A   1      44.496  27.513  27.992  1.00  0.00    -0.248 NA
ATOM     60  C   UNL A   1      44.045  25.801  29.509  1.00  0.00     0.031 C 
ATOM     61  C   UNL A   1      45.072  31.029  31.311  1.00  0.00     0.029 A 
ATOM     62  C   UNL A   1      45.303  29.738  30.834  1.00  0.00     0.049 A 
ATOM     63  H   UNL A   1      45.937  28.192  32.125  1.00  0.00     0.167 HD
ATOM     64  C   UNL A   1      45.022  27.883  29.219  1.00  0.00     0.074 A 
ATOM     65  C   UNL A   1      44.822  26.723  30.080  1.00  0.00     0.031 C 
ATOM     66  C   UNL A   1      45.315  29.187  29.499  1.00  0.00     0.037 A 
BRANCH  53  67
ATOM     67  C   UNL A   1      44.093  27.571  34.469  1.00  0.00     0.057 A 
ATOM     68  C   UNL A   1      44.728  27.895  35.684  1.00  0.00     0.134 A 
ATOM     69  C   UNL A   1      44.239  26.232  34.057  1.00  0.00     0.134 A 
ATOM     70  F   UNL A   1      44.685  29.145  36.171  1.00  0.00    -0.206 F 
ATOM     71  C   UNL A   1      45.495  26.970  36.404  1.00  0.00     0.040 A 
ATOM     72  C   UNL A   1      44.962  25.287  34.794  1.00  0.00     0.040 A 
ATOM     73  F   UNL A   1      43.773  25.798  32.878  1.00  0.00    -0.206 F 
ATOM     74  C   UNL A   1      45.616  25.660  35.957  1.00  0.00     0.006 A 
ENDBRANCH  53  67
BRANCH  54  75
ATOM     75  C   UNL A   1      42.321  24.906  26.759  1.00  0.00     0.057 A 
ATOM     76  C   UNL A   1      43.090  24.650  25.617  1.00  0.00     0.134 A 
ATOM     77  C   UNL A   1      41.559  23.831  27.251  1.00  0.00     0.134 A 
ATOM     78  F   UNL A   1      43.878  25.602  25.100  1.00  0.00    -0.206 F 
ATOM     79  C   UNL A   1      43.116  23.389  25.010  1.00  0.00     0.040 A 
ATOM     80  C   UNL A   1      41.567  22.571  26.648  1.00  0.00     0.040 A 
ATOM     81  F   UNL A   1      40.846  23.948  28.382  1.00  0.00    -0.206 F 
ATOM     82  C   UNL A   1      42.360  22.342  25.530  1.00  0.00     0.006 A 
ENDBRANCH  54  75
BRANCH  66  83
ATOM     83  C   UNL A   1      45.359  30.165  28.359  1.00  0.00     0.057 A 
ATOM     84  C   UNL A   1      44.236  30.844  27.865  1.00  0.00     0.134 A 
ATOM     85  C   UNL A   1      46.602  30.536  27.836  1.00  0.00     0.134 A 
ATOM     86  F   UNL A   1      43.016  30.638  28.380  1.00  0.00    -0.206 F 
ATOM     87  C   UNL A   1      44.341  31.807  26.857  1.00  0.00     0.040 A 
ATOM     88  C   UNL A   1      46.725  31.521  26.853  1.00  0.00     0.040 A 
ATOM     89  F   UNL A   1      47.729  29.976  28.305  1.00  0.00    -0.206 F 
ATOM     90  C   UNL A   1      45.590  32.151  26.350  1.00  0.00     0.006 A 
ENDBRANCH  66  83
ENDBRANCH  40  41
ENDBRANCH  32  35
ENDBRANCH  30  31
ENDBRANCH  29  30
ENDBRANCH   1  29
TORSDOF 14
ENDMDL
MODEL 3
REMARK VINA RESULT:     -12.7      1.808      5.856
REMARK SMILES Cc1cc2n(n1)[C@H](C(F)(F)F)CCN2C(=O)c1cnn([C@@H](C)C(=O)NCCCNC(=O)c2ccc(-c3c4nc(c(-c5c(F)cccc5F)c5ccc([nH]5)c(-c5c(F)cccc5F)c5nc(c(-c6c(F)cccc6F)c6ccc3[nH]6)C=C5)C=C4)cc2)c1
REMARK SMILES IDX 26 1 25 2 23 3 24 4 21 6 22 7 20 8 17 9 18 10 86 11 19 12
REMARK SMILES IDX 15 13 16 14 14 15 1 16 2 17 3 18 6 19 4 20 5 21 7 22 13 23
REMARK SMILES IDX 12 24 8 25 9 26 10 27 11 28 27 29 28 30 29 31 30 32 31 34
REMARK SMILES IDX 32 35 33 36 85 37 34 38 84 39 35 40 36 41 37 42 78 43 38 44
REMARK SMILES IDX 83 45 77 46 79 47 39 48 82 49 76 50 75 51 40 53 66 54 49 55
REMARK SMILES IDX 65 56 50 57 53 58 64 59 80 60 51 61 52 62 63 64 81 65 54 66
REMARK SMILES IDX 41 67 42 68 47 69 43 70 44 71 46 72 48 73 45 74 67 75 68 76
REMARK SMILES IDX 73 77 69 78 70 79 72 80 74 81 71 82 55 83 56 84 61 85 57 86
REMARK SMILES IDX 58 87 60 88 62 89 59 90
REMARK H PARENT 25 5 29 33 79 52 53 63
REMARK Flexibility Score: inf
ROOT
ATOM      1  C   UNL A   1      32.510  29.709  27.183  1.00  0.00     0.117 C 
ENDROOT
BRANCH   1   2
ATOM      2  N   UNL A   1      31.985  28.352  27.268  1.00  0.00    -0.354 N 
ATOM      3  C   UNL A   1      31.562  27.479  26.310  1.00  0.00     0.244 C 
ATOM      4  O   UNL A   1      31.094  26.407  26.717  1.00  0.00    -0.273 OA
ATOM      5  H   UNL A   1      31.924  28.002  28.187  1.00  0.00     0.163 HD
BRANCH   3   6
ATOM      6  C   UNL A   1      31.644  27.734  24.805  1.00  0.00     0.193 C 
ATOM      7  C   UNL A   1      30.670  28.775  24.264  1.00  0.00     0.044 C 
BRANCH   6   8
ATOM      8  N   UNL A   1      31.680  26.492  24.041  1.00  0.00    -0.260 N 
ATOM      9  C   UNL A   1      32.316  24.595  23.100  1.00  0.00     0.078 A 
ATOM     10  C   UNL A   1      30.919  24.752  23.128  1.00  0.00     0.149 A 
ATOM     11  C   UNL A   1      32.779  25.730  23.746  1.00  0.00     0.123 A 
ATOM     12  N   UNL A   1      30.558  25.971  23.516  1.00  0.00    -0.180 NA
BRANCH   9  13
ATOM     13  C   UNL A   1      33.110  23.485  22.652  1.00  0.00     0.262 C 
ATOM     14  O   UNL A   1      33.651  23.456  21.546  1.00  0.00    -0.269 OA
BRANCH  13  15
ATOM     15  N   UNL A   1      33.187  22.358  23.574  1.00  0.00    -0.293 N 
ATOM     16  C   UNL A   1      37.852  22.254  25.454  1.00  0.00     0.069 C 
ATOM     17  C   UNL A   1      36.418  22.024  25.153  1.00  0.00     0.062 A 
ATOM     18  C   UNL A   1      35.577  22.789  24.304  1.00  0.00     0.072 A 
ATOM     19  N   UNL A   1      35.766  20.981  25.681  1.00  0.00    -0.176 NA
ATOM     20  C   UNL A   1      34.379  22.113  24.273  1.00  0.00     0.134 A 
ATOM     21  N   UNL A   1      34.562  21.038  25.104  1.00  0.00    -0.237 N 
ATOM     22  C   UNL A   1      33.553  20.037  25.375  1.00  0.00     0.216 C 
ATOM     23  C   UNL A   1      32.153  21.287  23.640  1.00  0.00     0.130 C 
ATOM     24  C   UNL A   1      32.170  20.588  25.002  1.00  0.00     0.059 C 
BRANCH  22  25
ATOM     25  C   UNL A   1      33.872  18.759  24.629  1.00  0.00     0.410 C 
ATOM     26  F   UNL A   1      33.403  17.695  25.327  1.00  0.00    -0.169 F 
ATOM     27  F   UNL A   1      33.265  18.729  23.421  1.00  0.00    -0.169 F 
ATOM     28  F   UNL A   1      35.189  18.561  24.443  1.00  0.00    -0.169 F 
ENDBRANCH  22  25
ENDBRANCH  13  15
ENDBRANCH   9  13
ENDBRANCH   6   8
ENDBRANCH   3   6
ENDBRANCH   1   2
BRANCH   1  29
ATOM     29  C   UNL A   1      33.934  29.775  26.621  1.00  0.00     0.042 C 
BRANCH  29  30
ATOM     30  C   UNL A   1      34.996  29.290  27.586  1.00  0.00     0.118 C 
BRANCH  30  31
ATOM     31  N   UNL A   1      35.199  30.186  28.717  1.00  0.00    -0.352 N 
ATOM     32  C   UNL A   1      36.279  30.218  29.574  1.00  0.00     0.251 C 
ATOM     33  H   UNL A   1      34.485  30.842  28.888  1.00  0.00     0.163 HD
ATOM     34  O   UNL A   1      36.212  30.802  30.648  1.00  0.00    -0.269 OA
BRANCH  32  35
ATOM     35  C   UNL A   1      37.498  29.484  29.191  1.00  0.00     0.039 A 
ATOM     36  C   UNL A   1      38.192  29.834  28.033  1.00  0.00     0.014 A 
ATOM     37  C   UNL A   1      38.003  28.514  30.054  1.00  0.00     0.014 A 
ATOM     38  C   UNL A   1      39.450  29.278  27.804  1.00  0.00     0.010 A 
ATOM     39  C   UNL A   1      39.299  28.068  29.892  1.00  0.00     0.010 A 
ATOM     40  C   UNL A   1      40.028  28.419  28.754  1.00  0.00    -0.014 A 
BRANCH  40  41
ATOM     41  C   UNL A   1      41.418  27.975  28.582  1.00  0.00     0.031 A 
ATOM     42  C   UNL A   1      41.640  26.691  27.842  1.00  0.00     0.074 A 
ATOM     43  C   UNL A   1      42.508  28.721  28.865  1.00  0.00     0.049 A 
ATOM     44  N   UNL A   1      42.220  25.614  28.267  1.00  0.00    -0.248 NA
ATOM     45  C   UNL A   1      41.134  26.588  26.465  1.00  0.00     0.031 C 
ATOM     46  C   UNL A   1      42.580  30.122  29.293  1.00  0.00     0.029 A 
ATOM     47  N   UNL A   1      43.822  28.384  28.714  1.00  0.00    -0.354 N 
ATOM     48  C   UNL A   1      42.299  24.748  27.177  1.00  0.00     0.074 A 
ATOM     49  C   UNL A   1      41.533  25.362  26.120  1.00  0.00     0.031 C 
ATOM     50  C   UNL A   1      43.842  30.575  29.140  1.00  0.00     0.029 A 
ATOM     51  C   UNL A   1      44.694  29.456  28.787  1.00  0.00     0.049 A 
ATOM     52  H   UNL A   1      44.123  27.458  28.568  1.00  0.00     0.167 HD
ATOM     53  C   UNL A   1      43.125  23.663  27.165  1.00  0.00     0.037 A 
ATOM     54  C   UNL A   1      46.028  29.446  28.567  1.00  0.00     0.037 A 
ATOM     55  C   UNL A   1      43.571  23.309  28.485  1.00  0.00     0.049 A 
ATOM     56  C   UNL A   1      46.508  28.057  28.731  1.00  0.00     0.074 A 
ATOM     57  C   UNL A   1      42.949  22.958  29.668  1.00  0.00     0.029 A 
ATOM     58  N   UNL A   1      44.872  23.575  28.829  1.00  0.00    -0.354 N 
ATOM     59  N   UNL A   1      46.560  27.426  29.870  1.00  0.00    -0.248 NA
ATOM     60  C   UNL A   1      46.610  27.217  27.547  1.00  0.00     0.031 C 
ATOM     61  C   UNL A   1      43.759  23.529  30.695  1.00  0.00     0.029 A 
ATOM     62  C   UNL A   1      44.832  24.162  30.066  1.00  0.00     0.049 A 
ATOM     63  H   UNL A   1      45.675  23.382  28.293  1.00  0.00     0.167 HD
ATOM     64  C   UNL A   1      46.275  26.107  29.555  1.00  0.00     0.074 A 
ATOM     65  C   UNL A   1      46.450  26.018  28.110  1.00  0.00     0.031 C 
ATOM     66  C   UNL A   1      45.656  25.284  30.451  1.00  0.00     0.037 A 
BRANCH  53  67
ATOM     67  C   UNL A   1      43.774  23.085  25.931  1.00  0.00     0.057 A 
ATOM     68  C   UNL A   1      43.725  21.697  25.696  1.00  0.00     0.134 A 
ATOM     69  C   UNL A   1      44.682  23.795  25.123  1.00  0.00     0.134 A 
ATOM     70  F   UNL A   1      42.919  20.904  26.420  1.00  0.00    -0.206 F 
ATOM     71  C   UNL A   1      44.556  21.059  24.766  1.00  0.00     0.040 A 
ATOM     72  C   UNL A   1      45.482  23.176  24.157  1.00  0.00     0.040 A 
ATOM     73  F   UNL A   1      44.909  25.105  25.295  1.00  0.00    -0.206 F 
ATOM     74  C   UNL A   1      45.442  21.800  23.994  1.00  0.00     0.006 A 
ENDBRANCH  53  67
BRANCH  54  75
ATOM     75  C   UNL A   1      46.883  30.534  28.058  1.00  0.00     0.057 A 
ATOM     76  C   UNL A   1      46.578  31.206  26.868  1.00  0.00     0.134 A 
ATOM     77  C   UNL A   1      47.887  31.109  28.858  1.00  0.00     0.134 A 
ATOM     78  F   UNL A   1      45.609  30.755  26.060  1.00  0.00    -0.206 F 
ATOM     79  C   UNL A   1      47.221  32.395  26.503  1.00  0.00     0.040 A 
ATOM     80  C   UNL A   1      48.544  32.289  28.501  1.00  0.00     0.040 A 
ATOM     81  F   UNL A   1      48.202  30.587  30.054  1.00  0.00    -0.206 F 
ATOM     82  C   UNL A   1      48.201  32.945  27.325  1.00  0.00     0.006 A 
ENDBRANCH  54  75
BRANCH  66  83
ATOM     83  C   UNL A   1      45.573  25.729  31.884  1.00  0.00     0.057 A 
ATOM     84  C   UNL A   1      46.606  25.565  32.817  1.00  0.00     0.134 A 
ATOM     85  C   UNL A   1      44.462  26.473  32.296  1.00  0.00     0.134 A 
ATOM     86  F   UNL A   1      47.756  24.964  32.482  1.00  0.00    -0.206 F 
ATOM     87  C   UNL A   1      46.513  26.070  34.117  1.00  0.00     0.040 A 
ATOM     88  C   UNL A   1      44.370  27.013  33.581  1.00  0.00     0.040 A 
ATOM     89  F   UNL A   1      43.460  26.726  31.438  1.00  0.00    -0.206 F 
ATOM     90  C   UNL A   1      45.393  26.801  34.502  1.00  0.00     0.006 A 
ENDBRANCH  66  83
ENDBRANCH  40  41
ENDBRANCH  32  35
ENDBRANCH  30  31
ENDBRANCH  29  30
ENDBRANCH   1  29
TORSDOF 14
ENDMDL
