MODEL 1
REMARK VINA RESULT:     -11.9      0.000      0.000
REMARK SMILES CC(C)c1ocnc1C(=O)N[C@H](CC(=O)NCCCNC(=O)c1ccc(-c2c3nc(c(-c4c(F)cccc4F)c4ccc([nH]4)c(-c4c(F)cccc4F)c4nc(c(-c5c(F)cccc5F)c5ccc2[nH]5)C=C4)C=C3)cc1)c1ccccc1Cl
REMARK SMILES IDX 17 1 16 2 14 3 15 4 13 6 12 7 11 8 9 9 10 10 8 12 4 13 5 14
REMARK SMILES IDX 6 15 7 16 2 17 1 18 3 19 77 20 78 21 82 22 79 23 81 24 83 25
REMARK SMILES IDX 80 26 18 27 19 28 20 29 21 30 22 32 23 33 24 34 76 35 25 36
REMARK SMILES IDX 75 37 26 38 27 39 28 40 69 41 29 42 74 43 68 44 70 45 30 46
REMARK SMILES IDX 73 47 67 48 66 49 31 51 57 52 40 53 56 54 41 55 44 56 55 57
REMARK SMILES IDX 71 58 42 59 43 60 54 62 72 63 45 64 32 65 33 66 38 67 34 68
REMARK SMILES IDX 35 69 37 70 39 71 36 72 58 73 59 74 64 75 60 76 61 77 63 78
REMARK SMILES IDX 65 79 62 80 46 81 47 82 52 83 48 84 49 85 51 86 53 87 50 88
REMARK H PARENT 16 5 11 11 20 31 70 50 44 61
REMARK Flexibility Score: inf
ROOT
ATOM      1  C   UNL A   1      31.505  30.762  26.143  1.00  0.00     0.117 C 
ENDROOT
BRANCH   1   2
ATOM      2  N   UNL A   1      32.788  30.245  26.573  1.00  0.00    -0.356 N 
ATOM      3  C   UNL A   1      33.110  29.078  27.185  1.00  0.00     0.222 C 
ATOM      4  O   UNL A   1      34.285  28.923  27.524  1.00  0.00    -0.275 OA
ATOM      5  H   UNL A   1      33.552  30.839  26.392  1.00  0.00     0.163 HD
BRANCH   3   6
ATOM      6  C   UNL A   1      32.079  27.994  27.397  1.00  0.00     0.129 C 
BRANCH   6   7
ATOM      7  C   UNL A   1      32.041  26.854  26.348  1.00  0.00     0.123 C 
BRANCH   7   8
ATOM      8  N   UNL A   1      31.482  25.638  26.952  1.00  0.00    -0.343 N 
ATOM      9  C   UNL A   1      31.740  24.294  26.778  1.00  0.00     0.274 C 
ATOM     10  O   UNL A   1      30.904  23.522  27.251  1.00  0.00    -0.267 OA
ATOM     11  H   UNL A   1      30.779  25.818  27.616  1.00  0.00     0.164 HD
BRANCH   9  12
ATOM     12  C   UNL A   1      32.955  23.833  26.103  1.00  0.00     0.170 A 
ATOM     13  C   UNL A   1      33.228  23.795  24.737  1.00  0.00     0.139 A 
ATOM     14  O   UNL A   1      34.472  23.222  24.589  1.00  0.00    -0.447 OA
ATOM     15  C   UNL A   1      34.880  22.945  25.845  1.00  0.00     0.309 A 
ATOM     16  N   UNL A   1      34.032  23.281  26.780  1.00  0.00    -0.211 NA
BRANCH  13  17
ATOM     17  C   UNL A   1      32.578  24.120  23.428  1.00  0.00     0.052 C 
ATOM     18  C   UNL A   1      33.263  23.575  22.184  1.00  0.00     0.016 C 
ATOM     19  C   UNL A   1      31.105  23.700  23.444  1.00  0.00     0.016 C 
ENDBRANCH  13  17
ENDBRANCH   9  12
ENDBRANCH   7   8
BRANCH   7  20
ATOM     20  C   UNL A   1      31.584  27.254  24.938  1.00  0.00    -0.006 A 
ATOM     21  C   UNL A   1      30.186  27.205  24.702  1.00  0.00     0.007 A 
ATOM     22  C   UNL A   1      32.367  27.702  23.858  1.00  0.00     0.046 A 
ATOM     23  C   UNL A   1      29.617  27.447  23.449  1.00  0.00     0.000 A 
ATOM     24  C   UNL A   1      31.797  27.903  22.585  1.00  0.00     0.021 A 
ATOM     25  Cl  UNL A   1      34.028  28.172  23.961  1.00  0.00    -0.084 Cl
ATOM     26  C   UNL A   1      30.431  27.759  22.376  1.00  0.00     0.002 A 
ENDBRANCH   7  20
ENDBRANCH   6   7
ENDBRANCH   3   6
ENDBRANCH   1   2
BRANCH   1  27
ATOM     27  C   UNL A   1      31.361  32.245  26.477  1.00  0.00     0.042 C 
BRANCH  27  28
ATOM     28  C   UNL A   1      32.536  32.840  27.250  1.00  0.00     0.118 C 
BRANCH  28  29
ATOM     29  N   UNL A   1      32.325  34.225  27.633  1.00  0.00    -0.352 N 
ATOM     30  C   UNL A   1      32.984  34.972  28.580  1.00  0.00     0.251 C 
ATOM     31  H   UNL A   1      31.609  34.696  27.146  1.00  0.00     0.163 HD
ATOM     32  O   UNL A   1      32.580  36.095  28.866  1.00  0.00    -0.269 OA
BRANCH  30  33
ATOM     33  C   UNL A   1      34.161  34.412  29.277  1.00  0.00     0.039 A 
ATOM     34  C   UNL A   1      33.966  33.742  30.488  1.00  0.00     0.014 A 
ATOM     35  C   UNL A   1      35.449  34.554  28.750  1.00  0.00     0.014 A 
ATOM     36  C   UNL A   1      35.055  33.165  31.144  1.00  0.00     0.010 A 
ATOM     37  C   UNL A   1      36.525  33.926  29.374  1.00  0.00     0.010 A 
ATOM     38  C   UNL A   1      36.339  33.230  30.578  1.00  0.00    -0.014 A 
BRANCH  38  39
ATOM     39  C   UNL A   1      37.497  32.582  31.241  1.00  0.00     0.031 A 
ATOM     40  C   UNL A   1      38.193  31.424  30.582  1.00  0.00     0.074 A 
ATOM     41  C   UNL A   1      37.888  32.999  32.460  1.00  0.00     0.049 A 
ATOM     42  N   UNL A   1      39.182  30.692  31.028  1.00  0.00    -0.248 NA
ATOM     43  C   UNL A   1      37.696  31.020  29.258  1.00  0.00     0.031 C 
ATOM     44  C   UNL A   1      37.266  34.082  33.224  1.00  0.00     0.029 A 
ATOM     45  N   UNL A   1      38.900  32.556  33.273  1.00  0.00    -0.354 N 
ATOM     46  C   UNL A   1      39.412  29.733  30.050  1.00  0.00     0.074 A 
ATOM     47  C   UNL A   1      38.432  29.949  29.007  1.00  0.00     0.031 C 
ATOM     48  C   UNL A   1      37.924  34.232  34.386  1.00  0.00     0.029 A 
ATOM     49  C   UNL A   1      38.993  33.242  34.460  1.00  0.00     0.049 A 
ATOM     50  H   UNL A   1      39.503  31.816  33.030  1.00  0.00     0.167 HD
ATOM     51  C   UNL A   1      40.367  28.772  30.014  1.00  0.00     0.037 A 
ATOM     52  C   UNL A   1      39.846  33.088  35.489  1.00  0.00     0.037 A 
ATOM     53  C   UNL A   1      41.361  28.577  31.035  1.00  0.00     0.049 A 
ATOM     54  C   UNL A   1      40.910  32.031  35.416  1.00  0.00     0.074 A 
ATOM     55  C   UNL A   1      42.403  27.667  31.063  1.00  0.00     0.029 A 
ATOM     56  N   UNL A   1      41.440  29.311  32.208  1.00  0.00    -0.354 N 
ATOM     57  N   UNL A   1      41.148  31.164  34.461  1.00  0.00    -0.248 NA
ATOM     58  C   UNL A   1      41.828  31.934  36.560  1.00  0.00     0.031 C 
ATOM     59  C   UNL A   1      43.097  27.833  32.266  1.00  0.00     0.029 A 
ATOM     60  C   UNL A   1      42.507  28.869  32.971  1.00  0.00     0.049 A 
ATOM     61  H   UNL A   1      40.827  30.041  32.461  1.00  0.00     0.167 HD
ATOM     62  C   UNL A   1      42.254  30.436  34.877  1.00  0.00     0.074 A 
ATOM     63  C   UNL A   1      42.647  30.968  36.165  1.00  0.00     0.031 C 
ATOM     64  C   UNL A   1      42.887  29.415  34.248  1.00  0.00     0.037 A 
BRANCH  51  65
ATOM     65  C   UNL A   1      40.381  27.863  28.821  1.00  0.00     0.057 A 
ATOM     66  C   UNL A   1      41.139  28.159  27.681  1.00  0.00     0.134 A 
ATOM     67  C   UNL A   1      39.647  26.671  28.819  1.00  0.00     0.134 A 
ATOM     68  F   UNL A   1      41.853  29.294  27.615  1.00  0.00    -0.206 F 
ATOM     69  C   UNL A   1      41.150  27.312  26.572  1.00  0.00     0.040 A 
ATOM     70  C   UNL A   1      39.667  25.805  27.725  1.00  0.00     0.040 A 
ATOM     71  F   UNL A   1      38.903  26.327  29.881  1.00  0.00    -0.206 F 
ATOM     72  C   UNL A   1      40.416  26.128  26.594  1.00  0.00     0.006 A 
ENDBRANCH  51  65
BRANCH  52  73
ATOM     73  C   UNL A   1      39.750  33.985  36.667  1.00  0.00     0.057 A 
ATOM     74  C   UNL A   1      39.013  33.611  37.796  1.00  0.00     0.134 A 
ATOM     75  C   UNL A   1      40.389  35.229  36.695  1.00  0.00     0.134 A 
ATOM     76  F   UNL A   1      38.364  32.436  37.818  1.00  0.00    -0.206 F 
ATOM     77  C   UNL A   1      38.904  34.447  38.907  1.00  0.00     0.040 A 
ATOM     78  C   UNL A   1      40.305  36.067  37.807  1.00  0.00     0.040 A 
ATOM     79  F   UNL A   1      41.116  35.641  35.645  1.00  0.00    -0.206 F 
ATOM     80  C   UNL A   1      39.555  35.678  38.916  1.00  0.00     0.006 A 
ENDBRANCH  52  73
BRANCH  64  81
ATOM     81  C   UNL A   1      44.084  28.830  34.933  1.00  0.00     0.057 A 
ATOM     82  C   UNL A   1      43.974  27.740  35.803  1.00  0.00     0.134 A 
ATOM     83  C   UNL A   1      45.364  29.342  34.690  1.00  0.00     0.134 A 
ATOM     84  F   UNL A   1      42.772  27.214  36.086  1.00  0.00    -0.206 F 
ATOM     85  C   UNL A   1      45.095  27.189  36.425  1.00  0.00     0.040 A 
ATOM     86  C   UNL A   1      46.495  28.788  35.290  1.00  0.00     0.040 A 
ATOM     87  F   UNL A   1      45.536  30.384  33.861  1.00  0.00    -0.206 F 
ATOM     88  C   UNL A   1      46.362  27.710  36.163  1.00  0.00     0.006 A 
ENDBRANCH  64  81
ENDBRANCH  38  39
ENDBRANCH  30  33
ENDBRANCH  28  29
ENDBRANCH  27  28
ENDBRANCH   1  27
TORSDOF 15
ENDMDL
MODEL 2
REMARK VINA RESULT:     -11.8      4.287      9.045
REMARK SMILES CC(C)c1ocnc1C(=O)N[C@H](CC(=O)NCCCNC(=O)c1ccc(-c2c3nc(c(-c4c(F)cccc4F)c4ccc([nH]4)c(-c4c(F)cccc4F)c4nc(c(-c5c(F)cccc5F)c5ccc2[nH]5)C=C4)C=C3)cc1)c1ccccc1Cl
REMARK SMILES IDX 17 1 16 2 14 3 15 4 13 6 12 7 11 8 9 9 10 10 8 12 4 13 5 14
REMARK SMILES IDX 6 15 7 16 2 17 1 18 3 19 77 20 78 21 82 22 79 23 81 24 83 25
REMARK SMILES IDX 80 26 18 27 19 28 20 29 21 30 22 32 23 33 24 34 76 35 25 36
REMARK SMILES IDX 75 37 26 38 27 39 28 40 69 41 29 42 74 43 68 44 70 45 30 46
REMARK SMILES IDX 73 47 67 48 66 49 31 51 57 52 40 53 56 54 41 55 44 56 55 57
REMARK SMILES IDX 71 58 42 59 43 60 54 62 72 63 45 64 32 65 33 66 38 67 34 68
REMARK SMILES IDX 35 69 37 70 39 71 36 72 58 73 59 74 64 75 60 76 61 77 63 78
REMARK SMILES IDX 65 79 62 80 46 81 47 82 52 83 48 84 49 85 51 86 53 87 50 88
REMARK H PARENT 16 5 11 11 20 31 70 50 44 61
REMARK Flexibility Score: inf
ROOT
ATOM      1  C   UNL A   1      36.383  20.478  24.992  1.00  0.00     0.117 C 
ENDROOT
BRANCH   1   2
ATOM      2  N   UNL A   1      36.604  21.764  25.622  1.00  0.00    -0.356 N 
ATOM      3  C   UNL A   1      36.346  23.020  25.180  1.00  0.00     0.222 C 
ATOM      4  O   UNL A   1      36.718  23.956  25.890  1.00  0.00    -0.275 OA
ATOM      5  H   UNL A   1      37.009  21.718  26.518  1.00  0.00     0.163 HD
BRANCH   3   6
ATOM      6  C   UNL A   1      35.592  23.258  23.893  1.00  0.00     0.129 C 
BRANCH   6   7
ATOM      7  C   UNL A   1      34.398  24.244  23.957  1.00  0.00     0.123 C 
BRANCH   7   8
ATOM      8  N   UNL A   1      34.170  24.840  22.635  1.00  0.00    -0.343 N 
ATOM      9  C   UNL A   1      33.475  25.953  22.208  1.00  0.00     0.274 C 
ATOM     10  O   UNL A   1      33.263  26.020  20.996  1.00  0.00    -0.267 OA
ATOM     11  H   UNL A   1      34.600  24.343  21.903  1.00  0.00     0.164 HD
BRANCH   9  12
ATOM     12  C   UNL A   1      33.055  26.995  23.148  1.00  0.00     0.170 A 
ATOM     13  C   UNL A   1      31.765  27.328  23.555  1.00  0.00     0.139 A 
ATOM     14  O   UNL A   1      31.874  28.415  24.396  1.00  0.00    -0.447 OA
ATOM     15  C   UNL A   1      33.196  28.680  24.452  1.00  0.00     0.309 A 
ATOM     16  N   UNL A   1      33.943  27.880  23.739  1.00  0.00    -0.211 NA
BRANCH  13  17
ATOM     17  C   UNL A   1      30.344  26.918  23.317  1.00  0.00     0.052 C 
ATOM     18  C   UNL A   1      29.762  25.911  24.298  1.00  0.00     0.016 C 
ATOM     19  C   UNL A   1      29.441  28.152  23.230  1.00  0.00     0.016 C 
ENDBRANCH  13  17
ENDBRANCH   9  12
ENDBRANCH   7   8
BRANCH   7  20
ATOM     20  C   UNL A   1      33.185  23.778  24.775  1.00  0.00    -0.006 A 
ATOM     21  C   UNL A   1      32.894  24.535  25.938  1.00  0.00     0.007 A 
ATOM     22  C   UNL A   1      32.299  22.719  24.502  1.00  0.00     0.046 A 
ATOM     23  C   UNL A   1      31.884  24.187  26.839  1.00  0.00     0.000 A 
ATOM     24  C   UNL A   1      31.310  22.343  25.432  1.00  0.00     0.021 A 
ATOM     25  Cl  UNL A   1      32.214  21.854  23.007  1.00  0.00    -0.084 Cl
ATOM     26  C   UNL A   1      31.115  23.062  26.605  1.00  0.00     0.002 A 
ENDBRANCH   7  20
ENDBRANCH   6   7
ENDBRANCH   3   6
ENDBRANCH   1   2
BRANCH   1  27
ATOM     27  C   UNL A   1      37.690  19.708  24.822  1.00  0.00     0.042 C 
BRANCH  27  28
ATOM     28  C   UNL A   1      38.833  20.190  25.713  1.00  0.00     0.118 C 
BRANCH  28  29
ATOM     29  N   UNL A   1      39.965  19.279  25.734  1.00  0.00    -0.352 N 
ATOM     30  C   UNL A   1      41.272  19.530  26.076  1.00  0.00     0.251 C 
ATOM     31  H   UNL A   1      39.767  18.352  25.467  1.00  0.00     0.163 HD
ATOM     32  O   UNL A   1      42.127  18.667  25.906  1.00  0.00    -0.269 OA
BRANCH  30  33
ATOM     33  C   UNL A   1      41.655  20.850  26.620  1.00  0.00     0.039 A 
ATOM     34  C   UNL A   1      42.123  21.828  25.738  1.00  0.00     0.014 A 
ATOM     35  C   UNL A   1      41.567  21.122  27.989  1.00  0.00     0.014 A 
ATOM     36  C   UNL A   1      42.448  23.097  26.219  1.00  0.00     0.010 A 
ATOM     37  C   UNL A   1      41.834  22.406  28.459  1.00  0.00     0.010 A 
ATOM     38  C   UNL A   1      42.282  23.403  27.580  1.00  0.00    -0.014 A 
BRANCH  38  39
ATOM     39  C   UNL A   1      42.580  24.761  28.097  1.00  0.00     0.031 A 
ATOM     40  C   UNL A   1      43.982  25.126  28.495  1.00  0.00     0.074 A 
ATOM     41  C   UNL A   1      41.580  25.648  28.261  1.00  0.00     0.049 A 
ATOM     42  N   UNL A   1      44.430  26.238  29.021  1.00  0.00    -0.248 NA
ATOM     43  C   UNL A   1      45.015  24.097  28.298  1.00  0.00     0.031 C 
ATOM     44  C   UNL A   1      40.170  25.400  27.955  1.00  0.00     0.029 A 
ATOM     45  N   UNL A   1      41.597  26.936  28.732  1.00  0.00    -0.354 N 
ATOM     46  C   UNL A   1      45.787  26.036  29.234  1.00  0.00     0.074 A 
ATOM     47  C   UNL A   1      46.083  24.680  28.821  1.00  0.00     0.031 C 
ATOM     48  C   UNL A   1      39.461  26.508  28.227  1.00  0.00     0.029 A 
ATOM     49  C   UNL A   1      40.359  27.532  28.750  1.00  0.00     0.049 A 
ATOM     50  H   UNL A   1      42.419  27.391  29.029  1.00  0.00     0.167 HD
ATOM     51  C   UNL A   1      46.709  26.906  29.711  1.00  0.00     0.037 A 
ATOM     52  C   UNL A   1      39.994  28.766  29.143  1.00  0.00     0.037 A 
ATOM     53  C   UNL A   1      46.423  28.263  30.092  1.00  0.00     0.049 A 
ATOM     54  C   UNL A   1      41.037  29.721  29.647  1.00  0.00     0.074 A 
ATOM     55  C   UNL A   1      47.298  29.239  30.535  1.00  0.00     0.029 A 
ATOM     56  N   UNL A   1      45.162  28.838  30.068  1.00  0.00    -0.354 N 
ATOM     57  N   UNL A   1      42.326  29.532  29.795  1.00  0.00    -0.248 NA
ATOM     58  C   UNL A   1      40.576  31.062  30.034  1.00  0.00     0.031 C 
ATOM     59  C   UNL A   1      46.562  30.398  30.805  1.00  0.00     0.029 A 
ATOM     60  C   UNL A   1      45.234  30.153  30.498  1.00  0.00     0.049 A 
ATOM     61  H   UNL A   1      44.336  28.380  29.787  1.00  0.00     0.167 HD
ATOM     62  C   UNL A   1      42.834  30.734  30.268  1.00  0.00     0.074 A 
ATOM     63  C   UNL A   1      41.716  31.650  30.374  1.00  0.00     0.031 C 
ATOM     64  C   UNL A   1      44.112  31.051  30.589  1.00  0.00     0.037 A 
BRANCH  51  65
ATOM     65  C   UNL A   1      48.119  26.412  29.839  1.00  0.00     0.057 A 
ATOM     66  C   UNL A   1      48.590  25.832  31.024  1.00  0.00     0.134 A 
ATOM     67  C   UNL A   1      49.009  26.497  28.761  1.00  0.00     0.134 A 
ATOM     68  F   UNL A   1      47.791  25.734  32.097  1.00  0.00    -0.206 F 
ATOM     69  C   UNL A   1      49.903  25.374  31.140  1.00  0.00     0.040 A 
ATOM     70  C   UNL A   1      50.318  26.023  28.858  1.00  0.00     0.040 A 
ATOM     71  F   UNL A   1      48.619  27.039  27.597  1.00  0.00    -0.206 F 
ATOM     72  C   UNL A   1      50.770  25.464  30.052  1.00  0.00     0.006 A 
ENDBRANCH  51  65
BRANCH  52  73
ATOM     73  C   UNL A   1      38.573  29.181  29.042  1.00  0.00     0.057 A 
ATOM     74  C   UNL A   1      38.045  29.647  27.832  1.00  0.00     0.134 A 
ATOM     75  C   UNL A   1      37.712  29.123  30.144  1.00  0.00     0.134 A 
ATOM     76  F   UNL A   1      38.829  29.741  26.747  1.00  0.00    -0.206 F 
ATOM     77  C   UNL A   1      36.714  30.051  27.724  1.00  0.00     0.040 A 
ATOM     78  C   UNL A   1      36.374  29.505  30.045  1.00  0.00     0.040 A 
ATOM     79  F   UNL A   1      38.159  28.680  31.329  1.00  0.00    -0.206 F 
ATOM     80  C   UNL A   1      35.873  29.976  28.832  1.00  0.00     0.006 A 
ENDBRANCH  52  73
BRANCH  64  81
ATOM     81  C   UNL A   1      44.371  32.451  31.056  1.00  0.00     0.057 A 
ATOM     82  C   UNL A   1      44.653  33.485  30.158  1.00  0.00     0.134 A 
ATOM     83  C   UNL A   1      44.302  32.772  32.418  1.00  0.00     0.134 A 
ATOM     84  F   UNL A   1      44.746  33.237  28.842  1.00  0.00    -0.206 F 
ATOM     85  C   UNL A   1      44.877  34.791  30.598  1.00  0.00     0.040 A 
ATOM     86  C   UNL A   1      44.504  34.077  32.868  1.00  0.00     0.040 A 
ATOM     87  F   UNL A   1      44.030  31.824  33.328  1.00  0.00    -0.206 F 
ATOM     88  C   UNL A   1      44.795  35.090  31.958  1.00  0.00     0.006 A 
ENDBRANCH  64  81
ENDBRANCH  38  39
ENDBRANCH  30  33
ENDBRANCH  28  29
ENDBRANCH  27  28
ENDBRANCH   1  27
TORSDOF 15
ENDMDL
MODEL 3
REMARK VINA RESULT:     -11.8      1.077      6.343
REMARK SMILES CC(C)c1ocnc1C(=O)N[C@H](CC(=O)NCCCNC(=O)c1ccc(-c2c3nc(c(-c4c(F)cccc4F)c4ccc([nH]4)c(-c4c(F)cccc4F)c4nc(c(-c5c(F)cccc5F)c5ccc2[nH]5)C=C4)C=C3)cc1)c1ccccc1Cl
REMARK SMILES IDX 17 1 16 2 14 3 15 4 13 6 12 7 11 8 9 9 10 10 8 12 4 13 5 14
REMARK SMILES IDX 6 15 7 16 2 17 1 18 3 19 77 20 78 21 82 22 79 23 81 24 83 25
REMARK SMILES IDX 80 26 18 27 19 28 20 29 21 30 22 32 23 33 24 34 76 35 25 36
REMARK SMILES IDX 75 37 26 38 27 39 28 40 69 41 29 42 74 43 68 44 70 45 30 46
REMARK SMILES IDX 73 47 67 48 66 49 31 51 57 52 40 53 56 54 41 55 44 56 55 57
REMARK SMILES IDX 71 58 42 59 43 60 54 62 72 63 45 64 32 65 33 66 38 67 34 68
REMARK SMILES IDX 35 69 37 70 39 71 36 72 58 73 59 74 64 75 60 76 61 77 63 78
REMARK SMILES IDX 65 79 62 80 46 81 47 82 52 83 48 84 49 85 51 86 53 87 50 88
REMARK H PARENT 16 5 11 11 20 31 70 50 44 61
REMARK Flexibility Score: inf
ROOT
ATOM      1  C   UNL A   1      31.410  30.687  26.074  1.00  0.00     0.117 C 
ENDROOT
BRANCH   1   2
ATOM      2  N   UNL A   1      32.666  30.084  26.471  1.00  0.00    -0.356 N 
ATOM      3  C   UNL A   1      32.938  28.844  26.950  1.00  0.00     0.222 C 
ATOM      4  O   UNL A   1      34.098  28.615  27.296  1.00  0.00    -0.275 OA
ATOM      5  H   UNL A   1      33.451  30.670  26.378  1.00  0.00     0.163 HD
BRANCH   3   6
ATOM      6  C   UNL A   1      31.871  27.777  27.011  1.00  0.00     0.129 C 
BRANCH   6   7
ATOM      7  C   UNL A   1      32.167  26.452  26.265  1.00  0.00     0.123 C 
BRANCH   7   8
ATOM      8  N   UNL A   1      31.431  25.348  26.894  1.00  0.00    -0.343 N 
ATOM      9  C   UNL A   1      31.558  23.975  26.837  1.00  0.00     0.274 C 
ATOM     10  O   UNL A   1      30.606  23.330  27.280  1.00  0.00    -0.267 OA
ATOM     11  H   UNL A   1      30.696  25.649  27.475  1.00  0.00     0.164 HD
BRANCH   9  12
ATOM     12  C   UNL A   1      32.771  23.344  26.312  1.00  0.00     0.170 A 
ATOM     13  C   UNL A   1      32.986  22.793  25.050  1.00  0.00     0.139 A 
ATOM     14  O   UNL A   1      34.259  22.263  25.052  1.00  0.00    -0.447 OA
ATOM     15  C   UNL A   1      34.738  22.513  26.289  1.00  0.00     0.309 A 
ATOM     16  N   UNL A   1      33.910  23.146  27.076  1.00  0.00    -0.211 NA
BRANCH  13  17
ATOM     17  C   UNL A   1      32.260  22.556  23.762  1.00  0.00     0.052 C 
ATOM     18  C   UNL A   1      30.933  23.280  23.595  1.00  0.00     0.016 C 
ATOM     19  C   UNL A   1      33.176  22.854  22.571  1.00  0.00     0.016 C 
ENDBRANCH  13  17
ENDBRANCH   9  12
ENDBRANCH   7   8
BRANCH   7  20
ATOM     20  C   UNL A   1      32.200  26.538  24.732  1.00  0.00    -0.006 A 
ATOM     21  C   UNL A   1      33.471  26.362  24.128  1.00  0.00     0.007 A 
ATOM     22  C   UNL A   1      31.126  26.729  23.843  1.00  0.00     0.046 A 
ATOM     23  C   UNL A   1      33.687  26.504  22.756  1.00  0.00     0.000 A 
ATOM     24  C   UNL A   1      31.351  26.915  22.465  1.00  0.00     0.021 A 
ATOM     25  Cl  UNL A   1      29.453  26.638  24.270  1.00  0.00    -0.084 Cl
ATOM     26  C   UNL A   1      32.628  26.821  21.924  1.00  0.00     0.002 A 
ENDBRANCH   7  20
ENDBRANCH   6   7
ENDBRANCH   3   6
ENDBRANCH   1   2
BRANCH   1  27
ATOM     27  C   UNL A   1      31.334  32.150  26.505  1.00  0.00     0.042 C 
BRANCH  27  28
ATOM     28  C   UNL A   1      32.613  32.695  27.137  1.00  0.00     0.118 C 
BRANCH  28  29
ATOM     29  N   UNL A   1      32.468  34.048  27.645  1.00  0.00    -0.352 N 
ATOM     30  C   UNL A   1      33.182  34.684  28.631  1.00  0.00     0.251 C 
ATOM     31  H   UNL A   1      31.759  34.586  27.222  1.00  0.00     0.163 HD
ATOM     32  O   UNL A   1      32.832  35.792  29.025  1.00  0.00    -0.269 OA
BRANCH  30  33
ATOM     33  C   UNL A   1      34.354  34.022  29.241  1.00  0.00     0.039 A 
ATOM     34  C   UNL A   1      34.139  33.027  30.199  1.00  0.00     0.014 A 
ATOM     35  C   UNL A   1      35.657  34.384  28.883  1.00  0.00     0.014 A 
ATOM     36  C   UNL A   1      35.227  32.354  30.757  1.00  0.00     0.010 A 
ATOM     37  C   UNL A   1      36.739  33.671  29.396  1.00  0.00     0.010 A 
ATOM     38  C   UNL A   1      36.535  32.653  30.340  1.00  0.00    -0.014 A 
BRANCH  38  39
ATOM     39  C   UNL A   1      37.698  31.915  30.891  1.00  0.00     0.031 A 
ATOM     40  C   UNL A   1      38.224  32.247  32.258  1.00  0.00     0.074 A 
ATOM     41  C   UNL A   1      38.315  30.984  30.138  1.00  0.00     0.049 A 
ATOM     42  N   UNL A   1      39.262  31.756  32.887  1.00  0.00    -0.248 NA
ATOM     43  C   UNL A   1      37.503  33.286  33.010  1.00  0.00     0.031 C 
ATOM     44  C   UNL A   1      37.929  30.603  28.778  1.00  0.00     0.029 A 
ATOM     45  N   UNL A   1      39.402  30.193  30.410  1.00  0.00    -0.354 N 
ATOM     46  C   UNL A   1      39.328  32.437  34.096  1.00  0.00     0.074 A 
ATOM     47  C   UNL A   1      38.252  33.405  34.095  1.00  0.00     0.031 C 
ATOM     48  C   UNL A   1      38.754  29.636  28.343  1.00  0.00     0.029 A 
ATOM     49  C   UNL A   1      39.741  29.350  29.380  1.00  0.00     0.049 A 
ATOM     50  H   UNL A   1      39.894  30.227  31.263  1.00  0.00     0.167 HD
ATOM     51  C   UNL A   1      40.194  32.258  35.122  1.00  0.00     0.037 A 
ATOM     52  C   UNL A   1      40.735  28.448  29.285  1.00  0.00     0.037 A 
ATOM     53  C   UNL A   1      41.243  31.274  35.136  1.00  0.00     0.049 A 
ATOM     54  C   UNL A   1      41.668  28.252  30.444  1.00  0.00     0.074 A 
ATOM     55  C   UNL A   1      42.137  30.979  36.151  1.00  0.00     0.029 A 
ATOM     56  N   UNL A   1      41.536  30.419  34.085  1.00  0.00    -0.354 N 
ATOM     57  N   UNL A   1      41.687  28.867  31.602  1.00  0.00    -0.248 NA
ATOM     58  C   UNL A   1      42.715  27.232  30.287  1.00  0.00     0.031 C 
ATOM     59  C   UNL A   1      42.987  29.962  35.704  1.00  0.00     0.029 A 
ATOM     60  C   UNL A   1      42.602  29.603  34.423  1.00  0.00     0.049 A 
ATOM     61  H   UNL A   1      41.056  30.396  33.224  1.00  0.00     0.167 HD
ATOM     62  C   UNL A   1      42.728  28.295  32.319  1.00  0.00     0.074 A 
ATOM     63  C   UNL A   1      43.312  27.276  31.472  1.00  0.00     0.031 C 
ATOM     64  C   UNL A   1      43.164  28.589  33.569  1.00  0.00     0.037 A 
BRANCH  51  65
ATOM     65  C   UNL A   1      40.032  33.145  36.319  1.00  0.00     0.057 A 
ATOM     66  C   UNL A   1      39.128  32.838  37.345  1.00  0.00     0.134 A 
ATOM     67  C   UNL A   1      40.800  34.307  36.461  1.00  0.00     0.134 A 
ATOM     68  F   UNL A   1      38.351  31.747  37.262  1.00  0.00    -0.206 F 
ATOM     69  C   UNL A   1      38.978  33.667  38.458  1.00  0.00     0.040 A 
ATOM     70  C   UNL A   1      40.675  35.132  37.579  1.00  0.00     0.040 A 
ATOM     71  F   UNL A   1      41.687  34.656  35.516  1.00  0.00    -0.206 F 
ATOM     72  C   UNL A   1      39.758  34.816  38.579  1.00  0.00     0.006 A 
ENDBRANCH  51  65
BRANCH  52  73
ATOM     73  C   UNL A   1      40.877  27.635  28.053  1.00  0.00     0.057 A 
ATOM     74  C   UNL A   1      41.637  28.096  26.971  1.00  0.00     0.134 A 
ATOM     75  C   UNL A   1      40.264  26.383  27.925  1.00  0.00     0.134 A 
ATOM     76  F   UNL A   1      42.234  29.296  27.030  1.00  0.00    -0.206 F 
ATOM     77  C   UNL A   1      41.771  27.347  25.801  1.00  0.00     0.040 A 
ATOM     78  C   UNL A   1      40.406  25.616  26.769  1.00  0.00     0.040 A 
ATOM     79  F   UNL A   1      39.527  25.885  28.930  1.00  0.00    -0.206 F 
ATOM     80  C   UNL A   1      41.158  26.101  25.700  1.00  0.00     0.006 A 
ENDBRANCH  52  73
BRANCH  64  81
ATOM     81  C   UNL A   1      44.307  27.779  34.100  1.00  0.00     0.057 A 
ATOM     82  C   UNL A   1      45.632  28.213  33.987  1.00  0.00     0.134 A 
ATOM     83  C   UNL A   1      44.073  26.568  34.764  1.00  0.00     0.134 A 
ATOM     84  F   UNL A   1      45.920  29.358  33.350  1.00  0.00    -0.206 F 
ATOM     85  C   UNL A   1      46.690  27.461  34.499  1.00  0.00     0.040 A 
ATOM     86  C   UNL A   1      45.121  25.817  35.298  1.00  0.00     0.040 A 
ATOM     87  F   UNL A   1      42.824  26.101  34.910  1.00  0.00    -0.206 F 
ATOM     88  C   UNL A   1      46.435  26.262  35.164  1.00  0.00     0.006 A 
ENDBRANCH  64  81
ENDBRANCH  38  39
ENDBRANCH  30  33
ENDBRANCH  28  29
ENDBRANCH  27  28
ENDBRANCH   1  27
TORSDOF 15
ENDMDL
