MODEL 1
REMARK VINA RESULT:     -11.4      0.000      0.000
REMARK SMILES COCC1CC[NH+]([C@@H]2CCC[C@@]([NH3+])(C(=O)NCCCNC(=O)c3ccc(-c4c5nc(c(-c6c(F)cccc6F)c6ccc([nH]6)c(-c6c(F)cccc6F)c6nc(c(-c7c(F)cccc7F)c7ccc4[nH]7)C=C6)C=C5)cc3)C2)CC1
REMARK SMILES IDX 17 1 16 2 14 3 15 4 12 6 8 7 9 8 77 9 10 10 11 11 7 12 4 13
REMARK SMILES IDX 5 14 79 15 6 16 78 17 3 19 2 20 1 21 13 22 18 26 19 27 20 28
REMARK SMILES IDX 21 29 22 31 23 32 24 33 76 34 25 35 75 36 26 37 27 38 28 39
REMARK SMILES IDX 69 40 29 41 74 42 68 43 70 44 30 45 73 46 67 47 66 48 31 50
REMARK SMILES IDX 57 51 40 52 56 53 41 54 44 55 55 56 71 57 42 58 43 59 54 61
REMARK SMILES IDX 72 62 45 63 32 64 33 65 38 66 34 67 35 68 37 69 39 70 36 71
REMARK SMILES IDX 58 72 59 73 64 74 60 75 61 76 63 77 65 78 62 79 46 80 47 81
REMARK SMILES IDX 52 82 48 83 49 84 51 85 53 86 50 87
REMARK H PARENT 16 5 7 18 13 23 13 24 13 25 20 30 70 49 44 60
REMARK Flexibility Score: inf
ROOT
ATOM      1  C   UNL A   1      31.460  30.867  25.941  1.00  0.00     0.118 C 
ENDROOT
BRANCH   1   2
ATOM      2  N   UNL A   1      32.592  30.186  26.540  1.00  0.00    -0.351 N 
ATOM      3  C   UNL A   1      33.328  29.121  26.110  1.00  0.00     0.281 C 
ATOM      4  O   UNL A   1      34.274  28.792  26.832  1.00  0.00    -0.268 OA
ATOM      5  H   UNL A   1      32.879  30.556  27.407  1.00  0.00     0.163 HD
BRANCH   3   6
ATOM      6  C   UNL A   1      33.011  28.379  24.768  1.00  0.00     0.179 C 
ATOM      7  C   UNL A   1      33.375  25.939  25.610  1.00  0.00     0.190 C 
ATOM      8  C   UNL A   1      31.844  25.730  25.530  1.00  0.00     0.065 C 
ATOM      9  C   UNL A   1      33.839  27.072  24.654  1.00  0.00     0.144 C 
ATOM     10  C   UNL A   1      31.062  27.029  25.653  1.00  0.00     0.013 C 
ATOM     11  C   UNL A   1      31.521  28.032  24.605  1.00  0.00     0.079 C 
BRANCH   7  12
ATOM     12  N   UNL A   1      34.169  24.689  25.418  1.00  0.00    -0.332 N 
ATOM     13  C   UNL A   1      34.321  21.770  24.954  1.00  0.00     0.026 C 
ATOM     14  C   UNL A   1      34.636  22.384  26.324  1.00  0.00     0.067 C 
ATOM     15  C   UNL A   1      34.785  22.772  23.899  1.00  0.00     0.067 C 
ATOM     16  C   UNL A   1      33.915  23.720  26.496  1.00  0.00     0.262 C 
ATOM     17  C   UNL A   1      34.063  24.111  24.074  1.00  0.00     0.262 C 
ATOM     18  H   UNL A   1      35.151  24.958  25.487  1.00  0.00     0.348 HD
BRANCH  13  19
ATOM     19  C   UNL A   1      34.903  20.349  24.844  1.00  0.00     0.163 C 
BRANCH  19  20
ATOM     20  O   UNL A   1      33.962  19.339  24.504  1.00  0.00    -0.384 OA
ATOM     21  C   UNL A   1      32.614  19.646  24.833  1.00  0.00     0.194 C 
ENDBRANCH  19  20
ENDBRANCH  13  19
ENDBRANCH   7  12
BRANCH   6  22
ATOM     22  N   UNL A   1      33.421  29.275  23.653  1.00  0.00    -0.345 N 
ATOM     23  H   UNL A   1      33.049  28.917  22.774  1.00  0.00     0.345 HD
ATOM     24  H   UNL A   1      34.440  29.309  23.601  1.00  0.00     0.345 HD
ATOM     25  H   UNL A   1      33.058  30.214  23.819  1.00  0.00     0.345 HD
ENDBRANCH   6  22
ENDBRANCH   3   6
ENDBRANCH   1   2
BRANCH   1  26
ATOM     26  C   UNL A   1      31.262  32.259  26.533  1.00  0.00     0.042 C 
BRANCH  26  27
ATOM     27  C   UNL A   1      32.490  32.809  27.249  1.00  0.00     0.118 C 
BRANCH  27  28
ATOM     28  N   UNL A   1      32.332  34.202  27.643  1.00  0.00    -0.352 N 
ATOM     29  C   UNL A   1      33.001  34.931  28.588  1.00  0.00     0.251 C 
ATOM     30  H   UNL A   1      31.634  34.695  27.154  1.00  0.00     0.163 HD
ATOM     31  O   UNL A   1      32.579  36.042  28.913  1.00  0.00    -0.269 OA
BRANCH  29  32
ATOM     32  C   UNL A   1      34.216  34.395  29.234  1.00  0.00     0.039 A 
ATOM     33  C   UNL A   1      34.097  33.767  30.478  1.00  0.00     0.014 A 
ATOM     34  C   UNL A   1      35.473  34.538  28.642  1.00  0.00     0.014 A 
ATOM     35  C   UNL A   1      35.228  33.232  31.097  1.00  0.00     0.010 A 
ATOM     36  C   UNL A   1      36.588  33.938  29.222  1.00  0.00     0.010 A 
ATOM     37  C   UNL A   1      36.477  33.286  30.459  1.00  0.00    -0.014 A 
BRANCH  37  38
ATOM     38  C   UNL A   1      37.682  32.673  31.074  1.00  0.00     0.031 A 
ATOM     39  C   UNL A   1      38.324  31.470  30.440  1.00  0.00     0.074 A 
ATOM     40  C   UNL A   1      38.158  33.161  32.235  1.00  0.00     0.049 A 
ATOM     41  N   UNL A   1      39.334  30.752  30.865  1.00  0.00    -0.248 NA
ATOM     42  C   UNL A   1      37.737  30.993  29.178  1.00  0.00     0.031 C 
ATOM     43  C   UNL A   1      37.595  34.295  32.971  1.00  0.00     0.029 A 
ATOM     44  N   UNL A   1      39.219  32.759  33.005  1.00  0.00    -0.354 N 
ATOM     45  C   UNL A   1      39.490  29.733  29.933  1.00  0.00     0.074 A 
ATOM     46  C   UNL A   1      38.441  29.894  28.949  1.00  0.00     0.031 C 
ATOM     47  C   UNL A   1      38.328  34.509  34.075  1.00  0.00     0.029 A 
ATOM     48  C   UNL A   1      39.389  33.509  34.144  1.00  0.00     0.049 A 
ATOM     49  H   UNL A   1      39.803  32.003  32.766  1.00  0.00     0.167 HD
ATOM     50  C   UNL A   1      40.435  28.763  29.890  1.00  0.00     0.037 A 
ATOM     51  C   UNL A   1      40.293  33.397  35.135  1.00  0.00     0.037 A 
ATOM     52  C   UNL A   1      41.494  28.623  30.854  1.00  0.00     0.049 A 
ATOM     53  C   UNL A   1      41.333  32.315  35.061  1.00  0.00     0.074 A 
ATOM     54  C   UNL A   1      42.535  27.712  30.865  1.00  0.00     0.029 A 
ATOM     55  N   UNL A   1      41.644  29.416  31.982  1.00  0.00    -0.354 N 
ATOM     56  N   UNL A   1      41.509  31.397  34.142  1.00  0.00    -0.248 NA
ATOM     57  C   UNL A   1      42.306  32.256  36.161  1.00  0.00     0.031 C 
ATOM     58  C   UNL A   1      43.295  27.929  32.019  1.00  0.00     0.029 A 
ATOM     59  C   UNL A   1      42.752  29.004  32.705  1.00  0.00     0.049 A 
ATOM     60  H   UNL A   1      41.052  30.162  32.231  1.00  0.00     0.167 HD
ATOM     61  C   UNL A   1      42.624  30.670  34.536  1.00  0.00     0.074 A 
ATOM     62  C   UNL A   1      43.092  31.263  35.772  1.00  0.00     0.031 C 
ATOM     63  C   UNL A   1      43.208  29.608  33.930  1.00  0.00     0.037 A 
BRANCH  50  64
ATOM     64  C   UNL A   1      40.367  27.782  28.756  1.00  0.00     0.057 A 
ATOM     65  C   UNL A   1      41.069  27.984  27.561  1.00  0.00     0.134 A 
ATOM     66  C   UNL A   1      39.615  26.606  28.872  1.00  0.00     0.134 A 
ATOM     67  F   UNL A   1      41.798  29.097  27.381  1.00  0.00    -0.206 F 
ATOM     68  C   UNL A   1      41.005  27.067  26.511  1.00  0.00     0.040 A 
ATOM     69  C   UNL A   1      39.565  25.668  27.839  1.00  0.00     0.040 A 
ATOM     70  F   UNL A   1      38.923  26.345  29.991  1.00  0.00    -0.206 F 
ATOM     71  C   UNL A   1      40.256  25.900  26.651  1.00  0.00     0.006 A 
ENDBRANCH  50  64
BRANCH  51  72
ATOM     72  C   UNL A   1      40.272  34.354  36.269  1.00  0.00     0.057 A 
ATOM     73  C   UNL A   1      39.621  34.035  37.467  1.00  0.00     0.134 A 
ATOM     74  C   UNL A   1      40.893  35.605  36.185  1.00  0.00     0.134 A 
ATOM     75  F   UNL A   1      38.992  32.858  37.600  1.00  0.00    -0.206 F 
ATOM     76  C   UNL A   1      39.572  34.933  38.533  1.00  0.00     0.040 A 
ATOM     77  C   UNL A   1      40.873  36.504  37.253  1.00  0.00     0.040 A 
ATOM     78  F   UNL A   1      41.540  35.965  35.067  1.00  0.00    -0.206 F 
ATOM     79  C   UNL A   1      40.205  36.171  38.429  1.00  0.00     0.006 A 
ENDBRANCH  51  72
BRANCH  63  80
ATOM     80  C   UNL A   1      44.437  29.042  34.575  1.00  0.00     0.057 A 
ATOM     81  C   UNL A   1      44.365  28.040  35.551  1.00  0.00     0.134 A 
ATOM     82  C   UNL A   1      45.711  29.479  34.187  1.00  0.00     0.134 A 
ATOM     83  F   UNL A   1      43.175  27.589  35.975  1.00  0.00    -0.206 F 
ATOM     84  C   UNL A   1      45.516  27.508  36.134  1.00  0.00     0.040 A 
ATOM     85  C   UNL A   1      46.869  28.937  34.745  1.00  0.00     0.040 A 
ATOM     86  F   UNL A   1      45.849  30.431  33.253  1.00  0.00    -0.206 F 
ATOM     87  C   UNL A   1      46.772  27.952  35.726  1.00  0.00     0.006 A 
ENDBRANCH  63  80
ENDBRANCH  37  38
ENDBRANCH  29  32
ENDBRANCH  27  28
ENDBRANCH  26  27
ENDBRANCH   1  26
TORSDOF 14
ENDMDL
MODEL 2
REMARK VINA RESULT:     -11.4      5.064     10.380
REMARK SMILES COCC1CC[NH+]([C@@H]2CCC[C@@]([NH3+])(C(=O)NCCCNC(=O)c3ccc(-c4c5nc(c(-c6c(F)cccc6F)c6ccc([nH]6)c(-c6c(F)cccc6F)c6nc(c(-c7c(F)cccc7F)c7ccc4[nH]7)C=C6)C=C5)cc3)C2)CC1
REMARK SMILES IDX 17 1 16 2 14 3 15 4 12 6 8 7 9 8 77 9 10 10 11 11 7 12 4 13
REMARK SMILES IDX 5 14 79 15 6 16 78 17 3 19 2 20 1 21 13 22 18 26 19 27 20 28
REMARK SMILES IDX 21 29 22 31 23 32 24 33 76 34 25 35 75 36 26 37 27 38 28 39
REMARK SMILES IDX 69 40 29 41 74 42 68 43 70 44 30 45 73 46 67 47 66 48 31 50
REMARK SMILES IDX 57 51 40 52 56 53 41 54 44 55 55 56 71 57 42 58 43 59 54 61
REMARK SMILES IDX 72 62 45 63 32 64 33 65 38 66 34 67 35 68 37 69 39 70 36 71
REMARK SMILES IDX 58 72 59 73 64 74 60 75 61 76 63 77 65 78 62 79 46 80 47 81
REMARK SMILES IDX 52 82 48 83 49 84 51 85 53 86 50 87
REMARK H PARENT 16 5 7 18 13 23 13 24 13 25 20 30 70 49 44 60
REMARK Flexibility Score: inf
ROOT
ATOM      1  C   UNL A   1      36.583  20.503  25.002  1.00  0.00     0.118 C 
ENDROOT
BRANCH   1   2
ATOM      2  N   UNL A   1      36.992  21.894  25.020  1.00  0.00    -0.351 N 
ATOM      3  C   UNL A   1      36.310  23.026  25.357  1.00  0.00     0.281 C 
ATOM      4  O   UNL A   1      36.953  24.078  25.312  1.00  0.00    -0.268 OA
ATOM      5  H   UNL A   1      37.925  22.049  24.742  1.00  0.00     0.163 HD
BRANCH   3   6
ATOM      6  C   UNL A   1      34.808  22.989  25.801  1.00  0.00     0.179 C 
ATOM      7  C   UNL A   1      33.924  24.882  24.242  1.00  0.00     0.190 C 
ATOM      8  C   UNL A   1      33.205  23.797  23.406  1.00  0.00     0.065 C 
ATOM      9  C   UNL A   1      34.170  24.400  25.698  1.00  0.00     0.144 C 
ATOM     10  C   UNL A   1      33.860  22.428  23.524  1.00  0.00     0.013 C 
ATOM     11  C   UNL A   1      33.958  22.004  24.982  1.00  0.00     0.079 C 
BRANCH   7  12
ATOM     12  N   UNL A   1      33.258  26.218  24.203  1.00  0.00    -0.332 N 
ATOM     13  C   UNL A   1      31.265  28.079  23.054  1.00  0.00     0.026 C 
ATOM     14  C   UNL A   1      32.766  28.235  22.773  1.00  0.00     0.067 C 
ATOM     15  C   UNL A   1      31.131  27.544  24.477  1.00  0.00     0.067 C 
ATOM     16  C   UNL A   1      33.483  26.892  22.914  1.00  0.00     0.262 C 
ATOM     17  C   UNL A   1      31.852  26.200  24.618  1.00  0.00     0.262 C 
ATOM     18  H   UNL A   1      33.713  26.787  24.918  1.00  0.00     0.348 HD
BRANCH  13  19
ATOM     19  C   UNL A   1      30.513  29.386  22.746  1.00  0.00     0.163 C 
BRANCH  19  20
ATOM     20  O   UNL A   1      29.637  29.326  21.626  1.00  0.00    -0.384 OA
ATOM     21  C   UNL A   1      28.410  30.021  21.793  1.00  0.00     0.194 C 
ENDBRANCH  19  20
ENDBRANCH  13  19
ENDBRANCH   7  12
BRANCH   6  22
ATOM     22  N   UNL A   1      34.775  22.580  27.232  1.00  0.00    -0.345 N 
ATOM     23  H   UNL A   1      34.517  21.596  27.298  1.00  0.00     0.345 HD
ATOM     24  H   UNL A   1      34.087  23.145  27.731  1.00  0.00     0.345 HD
ATOM     25  H   UNL A   1      35.696  22.719  27.647  1.00  0.00     0.345 HD
ENDBRANCH   6  22
ENDBRANCH   3   6
ENDBRANCH   1   2
BRANCH   1  26
ATOM     26  C   UNL A   1      37.783  19.562  24.975  1.00  0.00     0.042 C 
BRANCH  26  27
ATOM     27  C   UNL A   1      38.996  20.082  25.738  1.00  0.00     0.118 C 
BRANCH  27  28
ATOM     28  N   UNL A   1      40.050  19.084  25.862  1.00  0.00    -0.352 N 
ATOM     29  C   UNL A   1      41.395  19.244  26.058  1.00  0.00     0.251 C 
ATOM     30  H   UNL A   1      39.747  18.150  25.792  1.00  0.00     0.163 HD
ATOM     31  O   UNL A   1      42.148  18.277  25.932  1.00  0.00    -0.269 OA
BRANCH  29  32
ATOM     32  C   UNL A   1      41.956  20.565  26.406  1.00  0.00     0.039 A 
ATOM     33  C   UNL A   1      42.270  21.456  25.376  1.00  0.00     0.014 A 
ATOM     34  C   UNL A   1      42.206  20.917  27.735  1.00  0.00     0.014 A 
ATOM     35  C   UNL A   1      42.779  22.720  25.682  1.00  0.00     0.010 A 
ATOM     36  C   UNL A   1      42.642  22.203  28.043  1.00  0.00     0.010 A 
ATOM     37  C   UNL A   1      42.939  23.115  27.019  1.00  0.00    -0.014 A 
BRANCH  37  38
ATOM     38  C   UNL A   1      43.425  24.474  27.367  1.00  0.00     0.031 A 
ATOM     39  C   UNL A   1      42.455  25.530  27.820  1.00  0.00     0.074 A 
ATOM     40  C   UNL A   1      44.729  24.774  27.214  1.00  0.00     0.049 A 
ATOM     41  N   UNL A   1      42.676  26.791  28.097  1.00  0.00    -0.248 NA
ATOM     42  C   UNL A   1      41.047  25.124  27.952  1.00  0.00     0.031 C 
ATOM     43  C   UNL A   1      45.761  23.849  26.739  1.00  0.00     0.029 A 
ATOM     44  N   UNL A   1      45.408  25.945  27.433  1.00  0.00    -0.354 N 
ATOM     45  C   UNL A   1      41.436  27.329  28.418  1.00  0.00     0.074 A 
ATOM     46  C   UNL A   1      40.460  26.273  28.252  1.00  0.00     0.031 C 
ATOM     47  C   UNL A   1      46.944  24.483  26.722  1.00  0.00     0.029 A 
ATOM     48  C   UNL A   1      46.750  25.865  27.150  1.00  0.00     0.049 A 
ATOM     49  H   UNL A   1      44.975  26.766  27.762  1.00  0.00     0.167 HD
ATOM     50  C   UNL A   1      41.139  28.583  28.834  1.00  0.00     0.037 A 
ATOM     51  C   UNL A   1      47.714  26.802  27.220  1.00  0.00     0.037 A 
ATOM     52  C   UNL A   1      42.116  29.623  29.025  1.00  0.00     0.049 A 
ATOM     53  C   UNL A   1      47.360  28.186  27.687  1.00  0.00     0.074 A 
ATOM     54  C   UNL A   1      41.925  30.908  29.502  1.00  0.00     0.029 A 
ATOM     55  N   UNL A   1      43.468  29.496  28.748  1.00  0.00    -0.354 N 
ATOM     56  N   UNL A   1      46.194  28.664  28.049  1.00  0.00    -0.248 NA
ATOM     57  C   UNL A   1      48.457  29.160  27.763  1.00  0.00     0.031 C 
ATOM     58  C   UNL A   1      43.156  31.572  29.476  1.00  0.00     0.029 A 
ATOM     59  C   UNL A   1      44.121  30.686  29.026  1.00  0.00     0.049 A 
ATOM     60  H   UNL A   1      43.901  28.681  28.404  1.00  0.00     0.167 HD
ATOM     61  C   UNL A   1      46.420  29.983  28.420  1.00  0.00     0.074 A 
ATOM     62  C   UNL A   1      47.839  30.225  28.252  1.00  0.00     0.031 C 
ATOM     63  C   UNL A   1      45.534  30.909  28.860  1.00  0.00     0.037 A 
BRANCH  50  64
ATOM     64  C   UNL A   1      39.698  28.895  29.115  1.00  0.00     0.057 A 
ATOM     65  C   UNL A   1      38.822  29.316  28.106  1.00  0.00     0.134 A 
ATOM     66  C   UNL A   1      39.172  28.744  30.405  1.00  0.00     0.134 A 
ATOM     67  F   UNL A   1      39.266  29.493  26.852  1.00  0.00    -0.206 F 
ATOM     68  C   UNL A   1      37.482  29.601  28.373  1.00  0.00     0.040 A 
ATOM     69  C   UNL A   1      37.828  29.000  30.679  1.00  0.00     0.040 A 
ATOM     70  F   UNL A   1      39.953  28.338  31.417  1.00  0.00    -0.206 F 
ATOM     71  C   UNL A   1      36.980  29.437  29.663  1.00  0.00     0.006 A 
ENDBRANCH  50  64
BRANCH  51  72
ATOM     72  C   UNL A   1      49.112  26.456  26.863  1.00  0.00     0.057 A 
ATOM     73  C   UNL A   1      49.598  26.670  25.567  1.00  0.00     0.134 A 
ATOM     74  C   UNL A   1      49.992  25.903  27.799  1.00  0.00     0.134 A 
ATOM     75  F   UNL A   1      48.795  27.181  24.622  1.00  0.00    -0.206 F 
ATOM     76  C   UNL A   1      50.903  26.329  25.210  1.00  0.00     0.040 A 
ATOM     77  C   UNL A   1      51.308  25.578  27.463  1.00  0.00     0.040 A 
ATOM     78  F   UNL A   1      49.589  25.682  29.059  1.00  0.00    -0.206 F 
ATOM     79  C   UNL A   1      51.764  25.785  26.162  1.00  0.00     0.006 A 
ENDBRANCH  51  72
BRANCH  63  80
ATOM     80  C   UNL A   1      46.079  32.258  29.223  1.00  0.00     0.057 A 
ATOM     81  C   UNL A   1      46.524  32.551  30.518  1.00  0.00     0.134 A 
ATOM     82  C   UNL A   1      46.194  33.264  28.254  1.00  0.00     0.134 A 
ATOM     83  F   UNL A   1      46.428  31.635  31.494  1.00  0.00    -0.206 F 
ATOM     84  C   UNL A   1      47.044  33.805  30.842  1.00  0.00     0.040 A 
ATOM     85  C   UNL A   1      46.736  34.512  28.560  1.00  0.00     0.040 A 
ATOM     86  F   UNL A   1      45.793  33.044  26.993  1.00  0.00    -0.206 F 
ATOM     87  C   UNL A   1      47.158  34.787  29.860  1.00  0.00     0.006 A 
ENDBRANCH  63  80
ENDBRANCH  37  38
ENDBRANCH  29  32
ENDBRANCH  27  28
ENDBRANCH  26  27
ENDBRANCH   1  26
TORSDOF 14
ENDMDL
MODEL 3
REMARK VINA RESULT:     -11.3      0.865      6.274
REMARK SMILES COCC1CC[NH+]([C@@H]2CCC[C@@]([NH3+])(C(=O)NCCCNC(=O)c3ccc(-c4c5nc(c(-c6c(F)cccc6F)c6ccc([nH]6)c(-c6c(F)cccc6F)c6nc(c(-c7c(F)cccc7F)c7ccc4[nH]7)C=C6)C=C5)cc3)C2)CC1
REMARK SMILES IDX 17 1 16 2 14 3 15 4 12 6 8 7 9 8 77 9 10 10 11 11 7 12 4 13
REMARK SMILES IDX 5 14 79 15 6 16 78 17 3 19 2 20 1 21 13 22 18 26 19 27 20 28
REMARK SMILES IDX 21 29 22 31 23 32 24 33 76 34 25 35 75 36 26 37 27 38 28 39
REMARK SMILES IDX 69 40 29 41 74 42 68 43 70 44 30 45 73 46 67 47 66 48 31 50
REMARK SMILES IDX 57 51 40 52 56 53 41 54 44 55 55 56 71 57 42 58 43 59 54 61
REMARK SMILES IDX 72 62 45 63 32 64 33 65 38 66 34 67 35 68 37 69 39 70 36 71
REMARK SMILES IDX 58 72 59 73 64 74 60 75 61 76 63 77 65 78 62 79 46 80 47 81
REMARK SMILES IDX 52 82 48 83 49 84 51 85 53 86 50 87
REMARK H PARENT 16 5 7 18 13 23 13 24 13 25 20 30 70 49 44 60
REMARK Flexibility Score: inf
ROOT
ATOM      1  C   UNL A   1      31.396  30.838  26.214  1.00  0.00     0.118 C 
ENDROOT
BRANCH   1   2
ATOM      2  N   UNL A   1      32.587  30.195  26.739  1.00  0.00    -0.351 N 
ATOM      3  C   UNL A   1      33.346  29.175  26.248  1.00  0.00     0.281 C 
ATOM      4  O   UNL A   1      34.341  28.873  26.913  1.00  0.00    -0.268 OA
ATOM      5  H   UNL A   1      32.901  30.559  27.599  1.00  0.00     0.163 HD
BRANCH   3   6
ATOM      6  C   UNL A   1      32.993  28.449  24.906  1.00  0.00     0.179 C 
ATOM      7  C   UNL A   1      33.405  26.000  25.701  1.00  0.00     0.190 C 
ATOM      8  C   UNL A   1      31.874  25.779  25.666  1.00  0.00     0.065 C 
ATOM      9  C   UNL A   1      33.828  27.151  24.748  1.00  0.00     0.144 C 
ATOM     10  C   UNL A   1      31.084  27.070  25.831  1.00  0.00     0.013 C 
ATOM     11  C   UNL A   1      31.502  28.091  24.784  1.00  0.00     0.079 C 
BRANCH   7  12
ATOM     12  N   UNL A   1      34.202  24.760  25.467  1.00  0.00    -0.332 N 
ATOM     13  C   UNL A   1      34.366  21.840  25.016  1.00  0.00     0.026 C 
ATOM     14  C   UNL A   1      34.762  22.470  26.359  1.00  0.00     0.067 C 
ATOM     15  C   UNL A   1      34.746  22.839  23.926  1.00  0.00     0.067 C 
ATOM     16  C   UNL A   1      34.033  23.797  26.567  1.00  0.00     0.262 C 
ATOM     17  C   UNL A   1      34.018  24.169  24.137  1.00  0.00     0.262 C 
ATOM     18  H   UNL A   1      35.183  25.044  25.470  1.00  0.00     0.348 HD
BRANCH  13  19
ATOM     19  C   UNL A   1      34.962  20.427  24.879  1.00  0.00     0.163 C 
BRANCH  19  20
ATOM     20  O   UNL A   1      34.028  19.414  24.524  1.00  0.00    -0.384 OA
ATOM     21  C   UNL A   1      32.695  19.657  24.952  1.00  0.00     0.194 C 
ENDBRANCH  19  20
ENDBRANCH  13  19
ENDBRANCH   7  12
BRANCH   6  22
ATOM     22  N   UNL A   1      33.362  29.364  23.791  1.00  0.00    -0.345 N 
ATOM     23  H   UNL A   1      33.686  30.252  24.174  1.00  0.00     0.345 HD
ATOM     24  H   UNL A   1      32.545  29.527  23.201  1.00  0.00     0.345 HD
ATOM     25  H   UNL A   1      34.105  28.941  23.236  1.00  0.00     0.345 HD
ENDBRANCH   6  22
ENDBRANCH   3   6
ENDBRANCH   1   2
BRANCH   1  26
ATOM     26  C   UNL A   1      31.359  32.324  26.559  1.00  0.00     0.042 C 
BRANCH  26  27
ATOM     27  C   UNL A   1      32.687  32.877  27.065  1.00  0.00     0.118 C 
BRANCH  27  28
ATOM     28  N   UNL A   1      32.546  34.181  27.697  1.00  0.00    -0.352 N 
ATOM     29  C   UNL A   1      33.192  34.708  28.783  1.00  0.00     0.251 C 
ATOM     30  H   UNL A   1      31.882  34.776  27.278  1.00  0.00     0.163 HD
ATOM     31  O   UNL A   1      32.784  35.756  29.285  1.00  0.00    -0.269 OA
BRANCH  29  32
ATOM     32  C   UNL A   1      34.364  34.026  29.367  1.00  0.00     0.039 A 
ATOM     33  C   UNL A   1      34.156  33.033  30.329  1.00  0.00     0.014 A 
ATOM     34  C   UNL A   1      35.664  34.383  29.002  1.00  0.00     0.014 A 
ATOM     35  C   UNL A   1      35.247  32.359  30.879  1.00  0.00     0.010 A 
ATOM     36  C   UNL A   1      36.748  33.659  29.493  1.00  0.00     0.010 A 
ATOM     37  C   UNL A   1      36.550  32.645  30.442  1.00  0.00    -0.014 A 
BRANCH  37  38
ATOM     38  C   UNL A   1      37.720  31.900  30.972  1.00  0.00     0.031 A 
ATOM     39  C   UNL A   1      38.278  32.235  32.328  1.00  0.00     0.074 A 
ATOM     40  C   UNL A   1      38.318  30.967  30.207  1.00  0.00     0.049 A 
ATOM     41  N   UNL A   1      39.334  31.750  32.930  1.00  0.00    -0.248 NA
ATOM     42  C   UNL A   1      37.572  33.273  33.097  1.00  0.00     0.031 C 
ATOM     43  C   UNL A   1      37.900  30.585  28.857  1.00  0.00     0.029 A 
ATOM     44  N   UNL A   1      39.413  30.179  30.451  1.00  0.00    -0.354 N 
ATOM     45  C   UNL A   1      39.429  32.434  34.137  1.00  0.00     0.074 A 
ATOM     46  C   UNL A   1      38.354  33.402  34.159  1.00  0.00     0.031 C 
ATOM     47  C   UNL A   1      38.715  29.621  28.401  1.00  0.00     0.029 A 
ATOM     48  C   UNL A   1      39.733  29.342  29.409  1.00  0.00     0.049 A 
ATOM     49  H   UNL A   1      39.923  30.209  31.294  1.00  0.00     0.167 HD
ATOM     50  C   UNL A   1      40.316  32.256  35.143  1.00  0.00     0.037 A 
ATOM     51  C   UNL A   1      40.739  28.457  29.279  1.00  0.00     0.037 A 
ATOM     52  C   UNL A   1      41.367  31.271  35.131  1.00  0.00     0.049 A 
ATOM     53  C   UNL A   1      41.709  28.275  30.412  1.00  0.00     0.074 A 
ATOM     54  C   UNL A   1      42.279  30.971  36.126  1.00  0.00     0.029 A 
ATOM     55  N   UNL A   1      41.645  30.428  34.065  1.00  0.00    -0.354 N 
ATOM     56  N   UNL A   1      41.748  28.883  31.573  1.00  0.00    -0.248 NA
ATOM     57  C   UNL A   1      42.773  27.280  30.220  1.00  0.00     0.031 C 
ATOM     58  C   UNL A   1      43.135  29.972  35.649  1.00  0.00     0.029 A 
ATOM     59  C   UNL A   1      42.726  29.619  34.373  1.00  0.00     0.049 A 
ATOM     60  H   UNL A   1      41.147  30.407  33.216  1.00  0.00     0.167 HD
ATOM     61  C   UNL A   1      42.820  28.327  32.259  1.00  0.00     0.074 A 
ATOM     62  C   UNL A   1      43.396  27.323  31.388  1.00  0.00     0.031 C 
ATOM     63  C   UNL A   1      43.284  28.621  33.498  1.00  0.00     0.037 A 
BRANCH  50  64
ATOM     64  C   UNL A   1      40.183  33.142  36.347  1.00  0.00     0.057 A 
ATOM     65  C   UNL A   1      40.944  34.310  36.493  1.00  0.00     0.134 A 
ATOM     66  C   UNL A   1      39.261  32.843  37.358  1.00  0.00     0.134 A 
ATOM     67  F   UNL A   1      41.855  34.647  35.565  1.00  0.00    -0.206 F 
ATOM     68  C   UNL A   1      40.814  35.133  37.612  1.00  0.00     0.040 A 
ATOM     69  C   UNL A   1      39.103  33.673  38.469  1.00  0.00     0.040 A 
ATOM     70  F   UNL A   1      38.496  31.745  37.280  1.00  0.00    -0.206 F 
ATOM     71  C   UNL A   1      39.885  34.818  38.602  1.00  0.00     0.006 A 
ENDBRANCH  50  64
BRANCH  51  72
ATOM     72  C   UNL A   1      40.863  27.654  28.037  1.00  0.00     0.057 A 
ATOM     73  C   UNL A   1      40.222  26.416  27.913  1.00  0.00     0.134 A 
ATOM     74  C   UNL A   1      41.625  28.099  26.950  1.00  0.00     0.134 A 
ATOM     75  F   UNL A   1      39.493  25.929  28.928  1.00  0.00    -0.206 F 
ATOM     76  C   UNL A   1      40.348  25.640  26.761  1.00  0.00     0.040 A 
ATOM     77  C   UNL A   1      41.741  27.344  25.782  1.00  0.00     0.040 A 
ATOM     78  F   UNL A   1      42.256  29.280  27.005  1.00  0.00    -0.206 F 
ATOM     79  C   UNL A   1      41.106  26.106  25.688  1.00  0.00     0.006 A 
ENDBRANCH  51  72
BRANCH  63  80
ATOM     80  C   UNL A   1      44.451  27.823  33.998  1.00  0.00     0.057 A 
ATOM     81  C   UNL A   1      45.768  28.284  33.877  1.00  0.00     0.134 A 
ATOM     82  C   UNL A   1      44.250  26.596  34.644  1.00  0.00     0.134 A 
ATOM     83  F   UNL A   1      46.027  29.445  33.256  1.00  0.00    -0.206 F 
ATOM     84  C   UNL A   1      46.846  27.541  34.360  1.00  0.00     0.040 A 
ATOM     85  C   UNL A   1      45.318  25.857  35.154  1.00  0.00     0.040 A 
ATOM     86  F   UNL A   1      43.012  26.102  34.799  1.00  0.00    -0.206 F 
ATOM     87  C   UNL A   1      46.621  26.327  35.007  1.00  0.00     0.006 A 
ENDBRANCH  63  80
ENDBRANCH  37  38
ENDBRANCH  29  32
ENDBRANCH  27  28
ENDBRANCH  26  27
ENDBRANCH   1  26
TORSDOF 14
ENDMDL
