MODEL 1
REMARK VINA RESULT:     -12.7      0.000      0.000
REMARK SMILES C[NH+]1CCC2(CC1)OC[C@H](C(=O)NCCCNC(=O)c1ccc(-c3c4nc(c(-c5c(F)cccc5F)c5ccc([nH]5)c(-c5c(F)cccc5F)c5nc(c(-c6c(F)cccc6F)c6ccc3[nH]6)C=C5)C=C4)cc1)N2C(=O)c1cc(C(F)(F)F)cc(C(F)(F)F)c1
REMARK SMILES IDX 14 1 13 2 11 3 12 4 10 6 1 7 2 8 3 9 7 10 4 12 6 13 5 14
REMARK SMILES IDX 8 15 74 16 9 17 75 18 76 19 77 20 78 21 90 22 79 23 85 24
REMARK SMILES IDX 84 25 80 26 81 27 82 28 83 29 86 30 87 31 88 32 89 33 15 34
REMARK SMILES IDX 16 35 17 36 18 37 19 39 20 40 21 41 73 42 22 43 72 44 23 45
REMARK SMILES IDX 24 46 25 47 66 48 26 49 71 50 65 51 67 52 27 53 70 54 64 55
REMARK SMILES IDX 63 56 28 58 54 59 37 60 53 61 38 62 41 63 52 64 68 65 39 66
REMARK SMILES IDX 40 67 51 69 69 70 42 71 29 72 30 73 35 74 31 75 32 76 34 77
REMARK SMILES IDX 36 78 33 79 55 80 56 81 61 82 57 83 58 84 60 85 62 86 59 87
REMARK SMILES IDX 43 88 44 89 49 90 45 91 46 92 48 93 50 94 47 95
REMARK H PARENT 13 5 2 11 17 38 67 57 41 68
REMARK Flexibility Score: inf
ROOT
ATOM      1  C   UNL A   1      37.028  22.148  23.972  1.00  0.00     0.117 C 
ENDROOT
BRANCH   1   2
ATOM      2  N   UNL A   1      36.430  23.055  24.933  1.00  0.00    -0.354 N 
ATOM      3  C   UNL A   1      35.392  23.925  24.756  1.00  0.00     0.245 C 
ATOM      4  O   UNL A   1      35.272  24.828  25.588  1.00  0.00    -0.273 OA
ATOM      5  H   UNL A   1      36.825  23.040  25.835  1.00  0.00     0.163 HD
BRANCH   3   6
ATOM      6  C   UNL A   1      34.436  23.731  23.563  1.00  0.00     0.203 C 
ATOM      7  C   UNL A   1      28.915  25.108  26.451  1.00  0.00     0.332 C 
ATOM      8  N   UNL A   1      30.030  25.492  25.593  1.00  0.00    -0.337 N 
ATOM      9  C   UNL A   1      31.315  25.309  26.264  1.00  0.00     0.267 C 
ATOM     10  C   UNL A   1      29.900  24.997  24.221  1.00  0.00     0.267 C 
ATOM     11  H   UNL A   1      29.992  26.500  25.439  1.00  0.00     0.347 HD
ATOM     12  C   UNL A   1      32.065  24.059  25.885  1.00  0.00     0.120 C 
ATOM     13  C   UNL A   1      30.795  23.854  23.767  1.00  0.00     0.120 C 
ATOM     14  C   UNL A   1      32.194  23.855  24.372  1.00  0.00     0.155 C 
ATOM     15  O   UNL A   1      32.612  22.449  24.287  1.00  0.00    -0.352 OA
ATOM     16  N   UNL A   1      33.267  24.591  23.654  1.00  0.00    -0.295 N 
ATOM     17  C   UNL A   1      33.835  22.352  23.557  1.00  0.00     0.198 C 
BRANCH  16  18
ATOM     18  C   UNL A   1      33.423  25.844  23.065  1.00  0.00     0.256 C 
ATOM     19  O   UNL A   1      34.028  25.997  22.001  1.00  0.00    -0.269 OA
BRANCH  18  20
ATOM     20  C   UNL A   1      32.829  27.075  23.603  1.00  0.00     0.041 A 
ATOM     21  C   UNL A   1      31.719  27.650  22.972  1.00  0.00     0.027 A 
ATOM     22  C   UNL A   1      33.449  27.746  24.653  1.00  0.00     0.027 A 
ATOM     23  C   UNL A   1      31.141  28.826  23.486  1.00  0.00     0.057 A 
ATOM     24  C   UNL A   1      32.812  28.830  25.272  1.00  0.00     0.057 A 
ATOM     25  C   UNL A   1      31.667  29.376  24.668  1.00  0.00     0.026 A 
BRANCH  23  26
ATOM     26  C   UNL A   1      29.970  29.475  22.787  1.00  0.00     0.416 C 
ATOM     27  F   UNL A   1      30.331  30.078  21.622  1.00  0.00    -0.166 F 
ATOM     28  F   UNL A   1      28.996  28.582  22.464  1.00  0.00    -0.166 F 
ATOM     29  F   UNL A   1      29.361  30.438  23.533  1.00  0.00    -0.166 F 
ENDBRANCH  23  26
BRANCH  24  30
ATOM     30  C   UNL A   1      33.287  29.345  26.612  1.00  0.00     0.416 C 
ATOM     31  F   UNL A   1      32.258  29.626  27.456  1.00  0.00    -0.166 F 
ATOM     32  F   UNL A   1      34.066  28.437  27.267  1.00  0.00    -0.166 F 
ATOM     33  F   UNL A   1      34.029  30.484  26.532  1.00  0.00    -0.166 F 
ENDBRANCH  24  30
ENDBRANCH  18  20
ENDBRANCH  16  18
ENDBRANCH   3   6
ENDBRANCH   1   2
BRANCH   1  34
ATOM     34  C   UNL A   1      37.387  20.818  24.627  1.00  0.00     0.042 C 
BRANCH  34  35
ATOM     35  C   UNL A   1      38.425  20.938  25.743  1.00  0.00     0.118 C 
BRANCH  35  36
ATOM     36  N   UNL A   1      39.377  19.835  25.746  1.00  0.00    -0.352 N 
ATOM     37  C   UNL A   1      40.724  19.828  26.017  1.00  0.00     0.251 C 
ATOM     38  H   UNL A   1      38.995  18.956  25.519  1.00  0.00     0.163 HD
ATOM     39  O   UNL A   1      41.385  18.821  25.796  1.00  0.00    -0.269 OA
BRANCH  37  40
ATOM     40  C   UNL A   1      41.385  21.041  26.547  1.00  0.00     0.039 A 
ATOM     41  C   UNL A   1      41.969  21.936  25.645  1.00  0.00     0.014 A 
ATOM     42  C   UNL A   1      41.437  21.298  27.920  1.00  0.00     0.014 A 
ATOM     43  C   UNL A   1      42.522  23.130  26.112  1.00  0.00     0.010 A 
ATOM     44  C   UNL A   1      41.926  22.520  28.377  1.00  0.00     0.010 A 
ATOM     45  C   UNL A   1      42.458  23.455  27.477  1.00  0.00    -0.014 A 
BRANCH  45  46
ATOM     46  C   UNL A   1      42.897  24.785  27.976  1.00  0.00     0.031 A 
ATOM     47  C   UNL A   1      41.890  25.861  28.270  1.00  0.00     0.074 A 
ATOM     48  C   UNL A   1      44.215  25.046  28.088  1.00  0.00     0.049 A 
ATOM     49  N   UNL A   1      42.091  27.112  28.597  1.00  0.00    -0.248 NA
ATOM     50  C   UNL A   1      40.471  25.484  28.168  1.00  0.00     0.031 C 
ATOM     51  C   UNL A   1      45.294  24.098  27.799  1.00  0.00     0.029 A 
ATOM     52  N   UNL A   1      44.873  26.195  28.451  1.00  0.00    -0.354 N 
ATOM     53  C   UNL A   1      40.828  27.674  28.736  1.00  0.00     0.074 A 
ATOM     54  C   UNL A   1      39.868  26.641  28.410  1.00  0.00     0.031 C 
ATOM     55  C   UNL A   1      46.475  24.702  28.000  1.00  0.00     0.029 A 
ATOM     56  C   UNL A   1      46.241  26.091  28.381  1.00  0.00     0.049 A 
ATOM     57  H   UNL A   1      44.408  27.015  28.735  1.00  0.00     0.167 HD
ATOM     58  C   UNL A   1      40.499  28.930  29.123  1.00  0.00     0.037 A 
ATOM     59  C   UNL A   1      47.202  27.015  28.573  1.00  0.00     0.037 A 
ATOM     60  C   UNL A   1      41.455  29.957  29.448  1.00  0.00     0.049 A 
ATOM     61  C   UNL A   1      46.807  28.418  28.950  1.00  0.00     0.074 A 
ATOM     62  C   UNL A   1      41.216  31.251  29.876  1.00  0.00     0.029 A 
ATOM     63  N   UNL A   1      42.832  29.809  29.373  1.00  0.00    -0.354 N 
ATOM     64  N   UNL A   1      45.609  28.918  29.131  1.00  0.00    -0.248 NA
ATOM     65  C   UNL A   1      47.896  29.382  29.152  1.00  0.00     0.031 C 
ATOM     66  C   UNL A   1      42.447  31.903  30.015  1.00  0.00     0.029 A 
ATOM     67  C   UNL A   1      43.454  30.997  29.726  1.00  0.00     0.049 A 
ATOM     68  H   UNL A   1      43.298  28.983  29.109  1.00  0.00     0.167 HD
ATOM     69  C   UNL A   1      45.803  30.246  29.491  1.00  0.00     0.074 A 
ATOM     70  C   UNL A   1      47.233  30.466  29.527  1.00  0.00     0.031 C 
ATOM     71  C   UNL A   1      44.880  31.201  29.765  1.00  0.00     0.037 A 
BRANCH  58  72
ATOM     72  C   UNL A   1      39.038  29.266  29.224  1.00  0.00     0.057 A 
ATOM     73  C   UNL A   1      38.282  29.606  28.094  1.00  0.00     0.134 A 
ATOM     74  C   UNL A   1      38.367  29.192  30.451  1.00  0.00     0.134 A 
ATOM     75  F   UNL A   1      38.866  29.703  26.889  1.00  0.00    -0.206 F 
ATOM     76  C   UNL A   1      36.916  29.876  28.183  1.00  0.00     0.040 A 
ATOM     77  C   UNL A   1      36.996  29.434  30.549  1.00  0.00     0.040 A 
ATOM     78  F   UNL A   1      39.028  28.865  31.572  1.00  0.00    -0.206 F 
ATOM     79  C   UNL A   1      36.267  29.783  29.412  1.00  0.00     0.006 A 
ENDBRANCH  58  72
BRANCH  59  80
ATOM     80  C   UNL A   1      48.633  26.660  28.391  1.00  0.00     0.057 A 
ATOM     81  C   UNL A   1      49.244  26.725  27.134  1.00  0.00     0.134 A 
ATOM     82  C   UNL A   1      49.415  26.211  29.463  1.00  0.00     0.134 A 
ATOM     83  F   UNL A   1      48.543  27.128  26.063  1.00  0.00    -0.206 F 
ATOM     84  C   UNL A   1      50.569  26.328  26.942  1.00  0.00     0.040 A 
ATOM     85  C   UNL A   1      50.749  25.841  29.292  1.00  0.00     0.040 A 
ATOM     86  F   UNL A   1      48.894  26.133  30.696  1.00  0.00    -0.206 F 
ATOM     87  C   UNL A   1      51.326  25.887  28.024  1.00  0.00     0.006 A 
ENDBRANCH  59  80
BRANCH  71  88
ATOM     88  C   UNL A   1      45.388  32.557  30.157  1.00  0.00     0.057 A 
ATOM     89  C   UNL A   1      45.526  33.596  29.227  1.00  0.00     0.134 A 
ATOM     90  C   UNL A   1      45.716  32.837  31.491  1.00  0.00     0.134 A 
ATOM     91  F   UNL A   1      45.244  33.390  27.932  1.00  0.00    -0.206 F 
ATOM     92  C   UNL A   1      45.994  34.855  29.604  1.00  0.00     0.040 A 
ATOM     93  C   UNL A   1      46.156  34.101  31.885  1.00  0.00     0.040 A 
ATOM     94  F   UNL A   1      45.599  31.891  32.435  1.00  0.00    -0.206 F 
ATOM     95  C   UNL A   1      46.304  35.113  30.939  1.00  0.00     0.006 A 
ENDBRANCH  71  88
ENDBRANCH  45  46
ENDBRANCH  37  40
ENDBRANCH  35  36
ENDBRANCH  34  35
ENDBRANCH   1  34
TORSDOF 14
ENDMDL
MODEL 2
REMARK VINA RESULT:     -12.5      4.341      8.847
REMARK SMILES C[NH+]1CCC2(CC1)OC[C@H](C(=O)NCCCNC(=O)c1ccc(-c3c4nc(c(-c5c(F)cccc5F)c5ccc([nH]5)c(-c5c(F)cccc5F)c5nc(c(-c6c(F)cccc6F)c6ccc3[nH]6)C=C5)C=C4)cc1)N2C(=O)c1cc(C(F)(F)F)cc(C(F)(F)F)c1
REMARK SMILES IDX 14 1 13 2 11 3 12 4 10 6 1 7 2 8 3 9 7 10 4 12 6 13 5 14
REMARK SMILES IDX 8 15 74 16 9 17 75 18 76 19 77 20 78 21 90 22 79 23 85 24
REMARK SMILES IDX 84 25 80 26 81 27 82 28 83 29 86 30 87 31 88 32 89 33 15 34
REMARK SMILES IDX 16 35 17 36 18 37 19 39 20 40 21 41 73 42 22 43 72 44 23 45
REMARK SMILES IDX 24 46 25 47 66 48 26 49 71 50 65 51 67 52 27 53 70 54 64 55
REMARK SMILES IDX 63 56 28 58 54 59 37 60 53 61 38 62 41 63 52 64 68 65 39 66
REMARK SMILES IDX 40 67 51 69 69 70 42 71 29 72 30 73 35 74 31 75 32 76 34 77
REMARK SMILES IDX 36 78 33 79 55 80 56 81 61 82 57 83 58 84 60 85 62 86 59 87
REMARK SMILES IDX 43 88 44 89 49 90 45 91 46 92 48 93 50 94 47 95
REMARK H PARENT 13 5 2 11 17 38 67 57 41 68
REMARK Flexibility Score: inf
ROOT
ATOM      1  C   UNL A   1      31.778  29.218  27.251  1.00  0.00     0.117 C 
ENDROOT
BRANCH   1   2
ATOM      2  N   UNL A   1      32.873  28.511  26.617  1.00  0.00    -0.354 N 
ATOM      3  C   UNL A   1      32.962  27.187  26.291  1.00  0.00     0.245 C 
ATOM      4  O   UNL A   1      34.090  26.738  26.078  1.00  0.00    -0.273 OA
ATOM      5  H   UNL A   1      33.659  29.059  26.389  1.00  0.00     0.163 HD
BRANCH   3   6
ATOM      6  C   UNL A   1      31.675  26.343  26.193  1.00  0.00     0.203 C 
ATOM      7  C   UNL A   1      32.903  23.241  20.754  1.00  0.00     0.332 C 
ATOM      8  N   UNL A   1      32.857  23.281  22.211  1.00  0.00    -0.337 N 
ATOM      9  C   UNL A   1      33.636  24.397  22.745  1.00  0.00     0.267 C 
ATOM     10  C   UNL A   1      31.515  23.065  22.753  1.00  0.00     0.267 C 
ATOM     11  H   UNL A   1      33.346  22.464  22.576  1.00  0.00     0.347 HD
ATOM     12  C   UNL A   1      32.832  25.603  23.154  1.00  0.00     0.120 C 
ATOM     13  C   UNL A   1      30.765  24.248  23.348  1.00  0.00     0.120 C 
ATOM     14  C   UNL A   1      31.643  25.269  24.062  1.00  0.00     0.155 C 
ATOM     15  O   UNL A   1      30.855  26.508  24.003  1.00  0.00    -0.352 OA
ATOM     16  N   UNL A   1      31.901  25.078  25.513  1.00  0.00    -0.295 N 
ATOM     17  C   UNL A   1      30.645  27.009  25.323  1.00  0.00     0.198 C 
BRANCH  16  18
ATOM     18  C   UNL A   1      32.283  24.032  26.350  1.00  0.00     0.256 C 
ATOM     19  O   UNL A   1      31.778  23.867  27.464  1.00  0.00    -0.269 OA
BRANCH  18  20
ATOM     20  C   UNL A   1      33.249  22.995  25.967  1.00  0.00     0.041 A 
ATOM     21  C   UNL A   1      32.806  21.701  25.667  1.00  0.00     0.027 A 
ATOM     22  C   UNL A   1      34.615  23.257  26.037  1.00  0.00     0.027 A 
ATOM     23  C   UNL A   1      33.728  20.705  25.292  1.00  0.00     0.057 A 
ATOM     24  C   UNL A   1      35.538  22.333  25.528  1.00  0.00     0.057 A 
ATOM     25  C   UNL A   1      35.086  21.050  25.177  1.00  0.00     0.026 A 
BRANCH  23  26
ATOM     26  C   UNL A   1      33.262  19.297  25.007  1.00  0.00     0.416 C 
ATOM     27  F   UNL A   1      32.182  19.266  24.180  1.00  0.00    -0.166 F 
ATOM     28  F   UNL A   1      34.221  18.542  24.406  1.00  0.00    -0.166 F 
ATOM     29  F   UNL A   1      32.895  18.612  26.126  1.00  0.00    -0.166 F 
ENDBRANCH  23  26
BRANCH  24  30
ATOM     30  C   UNL A   1      36.974  22.733  25.273  1.00  0.00     0.416 C 
ATOM     31  F   UNL A   1      37.389  22.405  24.020  1.00  0.00    -0.166 F 
ATOM     32  F   UNL A   1      37.162  24.078  25.386  1.00  0.00    -0.166 F 
ATOM     33  F   UNL A   1      37.865  22.158  26.127  1.00  0.00    -0.166 F 
ENDBRANCH  24  30
ENDBRANCH  18  20
ENDBRANCH  16  18
ENDBRANCH   3   6
ENDBRANCH   1   2
BRANCH   1  34
ATOM     34  C   UNL A   1      31.630  30.623  26.675  1.00  0.00     0.042 C 
BRANCH  34  35
ATOM     35  C   UNL A   1      32.850  31.516  26.898  1.00  0.00     0.118 C 
BRANCH  35  36
ATOM     36  N   UNL A   1      32.490  32.886  27.236  1.00  0.00    -0.352 N 
ATOM     37  C   UNL A   1      33.088  33.773  28.099  1.00  0.00     0.251 C 
ATOM     38  H   UNL A   1      31.693  33.233  26.773  1.00  0.00     0.163 HD
ATOM     39  O   UNL A   1      32.528  34.826  28.376  1.00  0.00    -0.269 OA
BRANCH  37  40
ATOM     40  C   UNL A   1      34.392  33.447  28.719  1.00  0.00     0.039 A 
ATOM     41  C   UNL A   1      34.403  32.751  29.932  1.00  0.00     0.014 A 
ATOM     42  C   UNL A   1      35.595  33.825  28.119  1.00  0.00     0.014 A 
ATOM     43  C   UNL A   1      35.619  32.355  30.493  1.00  0.00     0.010 A 
ATOM     44  C   UNL A   1      36.803  33.371  28.643  1.00  0.00     0.010 A 
ATOM     45  C   UNL A   1      36.827  32.617  29.826  1.00  0.00    -0.014 A 
BRANCH  45  46
ATOM     46  C   UNL A   1      38.117  32.071  30.321  1.00  0.00     0.031 A 
ATOM     47  C   UNL A   1      38.665  30.785  29.771  1.00  0.00     0.074 A 
ATOM     48  C   UNL A   1      38.756  32.700  31.329  1.00  0.00     0.049 A 
ATOM     49  N   UNL A   1      39.708  30.097  30.161  1.00  0.00    -0.248 NA
ATOM     50  C   UNL A   1      37.934  30.184  28.644  1.00  0.00     0.031 C 
ATOM     51  C   UNL A   1      38.311  33.937  31.974  1.00  0.00     0.029 A 
ATOM     52  N   UNL A   1      39.906  32.371  32.004  1.00  0.00    -0.354 N 
ATOM     53  C   UNL A   1      39.759  28.984  29.333  1.00  0.00     0.074 A 
ATOM     54  C   UNL A   1      38.613  29.061  28.451  1.00  0.00     0.031 C 
ATOM     55  C   UNL A   1      39.176  34.263  32.946  1.00  0.00     0.029 A 
ATOM     56  C   UNL A   1      40.209  33.236  33.028  1.00  0.00     0.049 A 
ATOM     57  H   UNL A   1      40.460  31.590  31.776  1.00  0.00     0.167 HD
ATOM     58  C   UNL A   1      40.688  27.999  29.295  1.00  0.00     0.037 A 
ATOM     59  C   UNL A   1      41.190  33.193  33.950  1.00  0.00     0.037 A 
ATOM     60  C   UNL A   1      41.828  27.923  30.173  1.00  0.00     0.049 A 
ATOM     61  C   UNL A   1      42.178  32.059  33.919  1.00  0.00     0.074 A 
ATOM     62  C   UNL A   1      42.839  26.978  30.192  1.00  0.00     0.029 A 
ATOM     63  N   UNL A   1      42.104  28.823  31.191  1.00  0.00    -0.354 N 
ATOM     64  N   UNL A   1      42.244  31.042  33.094  1.00  0.00    -0.248 NA
ATOM     65  C   UNL A   1      43.229  32.067  34.945  1.00  0.00     0.031 C 
ATOM     66  C   UNL A   1      43.701  27.278  31.252  1.00  0.00     0.029 A 
ATOM     67  C   UNL A   1      43.258  28.442  31.859  1.00  0.00     0.049 A 
ATOM     68  H   UNL A   1      41.562  29.616  31.407  1.00  0.00     0.167 HD
ATOM     69  C   UNL A   1      43.355  30.306  33.487  1.00  0.00     0.074 A 
ATOM     70  C   UNL A   1      43.946  31.006  34.607  1.00  0.00     0.031 C 
ATOM     71  C   UNL A   1      43.841  29.151  32.968  1.00  0.00     0.037 A 
BRANCH  58  72
ATOM     72  C   UNL A   1      40.517  26.920  28.264  1.00  0.00     0.057 A 
ATOM     73  C   UNL A   1      41.255  26.919  27.072  1.00  0.00     0.134 A 
ATOM     74  C   UNL A   1      39.655  25.840  28.489  1.00  0.00     0.134 A 
ATOM     75  F   UNL A   1      42.093  27.930  26.791  1.00  0.00    -0.206 F 
ATOM     76  C   UNL A   1      41.127  25.895  26.134  1.00  0.00     0.040 A 
ATOM     77  C   UNL A   1      39.538  24.795  27.572  1.00  0.00     0.040 A 
ATOM     78  F   UNL A   1      38.924  25.773  29.613  1.00  0.00    -0.206 F 
ATOM     79  C   UNL A   1      40.272  24.824  26.387  1.00  0.00     0.006 A 
ENDBRANCH  58  72
BRANCH  59  80
ATOM     80  C   UNL A   1      41.280  34.241  34.999  1.00  0.00     0.057 A 
ATOM     81  C   UNL A   1      40.666  34.077  36.246  1.00  0.00     0.134 A 
ATOM     82  C   UNL A   1      41.952  35.448  34.768  1.00  0.00     0.134 A 
ATOM     83  F   UNL A   1      39.990  32.951  36.522  1.00  0.00    -0.206 F 
ATOM     84  C   UNL A   1      40.688  35.085  37.211  1.00  0.00     0.040 A 
ATOM     85  C   UNL A   1      42.008  36.452  35.736  1.00  0.00     0.040 A 
ATOM     86  F   UNL A   1      42.569  35.668  33.598  1.00  0.00    -0.206 F 
ATOM     87  C   UNL A   1      41.364  36.276  36.958  1.00  0.00     0.006 A 
ENDBRANCH  59  80
BRANCH  71  88
ATOM     88  C   UNL A   1      45.089  28.592  33.586  1.00  0.00     0.057 A 
ATOM     89  C   UNL A   1      46.366  28.965  33.148  1.00  0.00     0.134 A 
ATOM     90  C   UNL A   1      45.012  27.689  34.656  1.00  0.00     0.134 A 
ATOM     91  F   UNL A   1      46.510  29.813  32.119  1.00  0.00    -0.206 F 
ATOM     92  C   UNL A   1      47.520  28.443  33.733  1.00  0.00     0.040 A 
ATOM     93  C   UNL A   1      46.159  27.183  35.269  1.00  0.00     0.040 A 
ATOM     94  F   UNL A   1      43.821  27.295  35.132  1.00  0.00    -0.206 F 
ATOM     95  C   UNL A   1      47.419  27.554  34.803  1.00  0.00     0.006 A 
ENDBRANCH  71  88
ENDBRANCH  45  46
ENDBRANCH  37  40
ENDBRANCH  35  36
ENDBRANCH  34  35
ENDBRANCH   1  34
TORSDOF 14
ENDMDL
MODEL 3
REMARK VINA RESULT:     -12.4      1.424      2.192
REMARK SMILES C[NH+]1CCC2(CC1)OC[C@H](C(=O)NCCCNC(=O)c1ccc(-c3c4nc(c(-c5c(F)cccc5F)c5ccc([nH]5)c(-c5c(F)cccc5F)c5nc(c(-c6c(F)cccc6F)c6ccc3[nH]6)C=C5)C=C4)cc1)N2C(=O)c1cc(C(F)(F)F)cc(C(F)(F)F)c1
REMARK SMILES IDX 14 1 13 2 11 3 12 4 10 6 1 7 2 8 3 9 7 10 4 12 6 13 5 14
REMARK SMILES IDX 8 15 74 16 9 17 75 18 76 19 77 20 78 21 90 22 79 23 85 24
REMARK SMILES IDX 84 25 80 26 81 27 82 28 83 29 86 30 87 31 88 32 89 33 15 34
REMARK SMILES IDX 16 35 17 36 18 37 19 39 20 40 21 41 73 42 22 43 72 44 23 45
REMARK SMILES IDX 24 46 25 47 66 48 26 49 71 50 65 51 67 52 27 53 70 54 64 55
REMARK SMILES IDX 63 56 28 58 54 59 37 60 53 61 38 62 41 63 52 64 68 65 39 66
REMARK SMILES IDX 40 67 51 69 69 70 42 71 29 72 30 73 35 74 31 75 32 76 34 77
REMARK SMILES IDX 36 78 33 79 55 80 56 81 61 82 57 83 58 84 60 85 62 86 59 87
REMARK SMILES IDX 43 88 44 89 49 90 45 91 46 92 48 93 50 94 47 95
REMARK H PARENT 13 5 2 11 17 38 67 57 41 68
REMARK Flexibility Score: inf
ROOT
ATOM      1  C   UNL A   1      36.776  21.014  24.984  1.00  0.00     0.117 C 
ENDROOT
BRANCH   1   2
ATOM      2  N   UNL A   1      35.527  20.444  25.451  1.00  0.00    -0.354 N 
ATOM      3  C   UNL A   1      34.261  20.942  25.328  1.00  0.00     0.245 C 
ATOM      4  O   UNL A   1      33.402  20.477  26.081  1.00  0.00    -0.273 OA
ATOM      5  H   UNL A   1      35.602  19.581  25.921  1.00  0.00     0.163 HD
BRANCH   3   6
ATOM      6  C   UNL A   1      33.971  22.021  24.267  1.00  0.00     0.203 C 
ATOM      7  C   UNL A   1      28.652  24.506  26.767  1.00  0.00     0.332 C 
ATOM      8  N   UNL A   1      30.091  24.556  26.536  1.00  0.00    -0.337 N 
ATOM      9  C   UNL A   1      30.753  23.337  26.995  1.00  0.00     0.267 C 
ATOM     10  C   UNL A   1      30.446  25.069  25.213  1.00  0.00     0.267 C 
ATOM     11  H   UNL A   1      30.493  25.276  27.137  1.00  0.00     0.347 HD
ATOM     12  C   UNL A   1      31.089  22.343  25.914  1.00  0.00     0.120 C 
ATOM     13  C   UNL A   1      30.972  24.097  24.167  1.00  0.00     0.120 C 
ATOM     14  C   UNL A   1      31.824  22.960  24.719  1.00  0.00     0.155 C 
ATOM     15  O   UNL A   1      31.698  21.905  23.704  1.00  0.00    -0.352 OA
ATOM     16  N   UNL A   1      33.290  23.175  24.832  1.00  0.00    -0.295 N 
ATOM     17  C   UNL A   1      32.993  21.531  23.235  1.00  0.00     0.198 C 
BRANCH  16  18
ATOM     18  C   UNL A   1      34.140  24.167  25.318  1.00  0.00     0.256 C 
ATOM     19  O   UNL A   1      35.190  23.899  25.907  1.00  0.00    -0.269 OA
BRANCH  18  20
ATOM     20  C   UNL A   1      33.913  25.603  25.115  1.00  0.00     0.041 A 
ATOM     21  C   UNL A   1      33.872  26.128  23.817  1.00  0.00     0.027 A 
ATOM     22  C   UNL A   1      33.878  26.464  26.208  1.00  0.00     0.027 A 
ATOM     23  C   UNL A   1      33.648  27.504  23.615  1.00  0.00     0.057 A 
ATOM     24  C   UNL A   1      33.509  27.806  26.038  1.00  0.00     0.057 A 
ATOM     25  C   UNL A   1      33.417  28.322  24.735  1.00  0.00     0.026 A 
BRANCH  23  26
ATOM     26  C   UNL A   1      33.644  28.084  22.221  1.00  0.00     0.416 C 
ATOM     27  F   UNL A   1      33.349  27.153  21.273  1.00  0.00    -0.166 F 
ATOM     28  F   UNL A   1      32.728  29.078  22.073  1.00  0.00    -0.166 F 
ATOM     29  F   UNL A   1      34.841  28.622  21.856  1.00  0.00    -0.166 F 
ENDBRANCH  23  26
BRANCH  24  30
ATOM     30  C   UNL A   1      33.126  28.660  27.226  1.00  0.00     0.416 C 
ATOM     31  F   UNL A   1      34.174  28.885  28.063  1.00  0.00    -0.166 F 
ATOM     32  F   UNL A   1      32.678  29.892  26.853  1.00  0.00    -0.166 F 
ATOM     33  F   UNL A   1      32.140  28.122  27.995  1.00  0.00    -0.166 F 
ENDBRANCH  24  30
ENDBRANCH  18  20
ENDBRANCH  16  18
ENDBRANCH   3   6
ENDBRANCH   1   2
BRANCH   1  34
ATOM     34  C   UNL A   1      37.876  19.959  24.944  1.00  0.00     0.042 C 
BRANCH  34  35
ATOM     35  C   UNL A   1      39.111  20.320  25.769  1.00  0.00     0.118 C 
BRANCH  35  36
ATOM     36  N   UNL A   1      40.084  19.238  25.829  1.00  0.00    -0.352 N 
ATOM     37  C   UNL A   1      41.436  19.275  26.076  1.00  0.00     0.251 C 
ATOM     38  H   UNL A   1      39.717  18.339  25.668  1.00  0.00     0.163 HD
ATOM     39  O   UNL A   1      42.113  18.267  25.910  1.00  0.00    -0.269 OA
BRANCH  37  40
ATOM     40  C   UNL A   1      42.081  20.532  26.512  1.00  0.00     0.039 A 
ATOM     41  C   UNL A   1      42.687  21.345  25.548  1.00  0.00     0.014 A 
ATOM     42  C   UNL A   1      42.098  20.911  27.857  1.00  0.00     0.014 A 
ATOM     43  C   UNL A   1      43.226  22.578  25.921  1.00  0.00     0.010 A 
ATOM     44  C   UNL A   1      42.574  22.170  28.216  1.00  0.00     0.010 A 
ATOM     45  C   UNL A   1      43.127  23.024  27.249  1.00  0.00    -0.014 A 
BRANCH  45  46
ATOM     46  C   UNL A   1      43.551  24.393  27.639  1.00  0.00     0.031 A 
ATOM     47  C   UNL A   1      42.532  25.429  28.024  1.00  0.00     0.074 A 
ATOM     48  C   UNL A   1      44.856  24.726  27.569  1.00  0.00     0.049 A 
ATOM     49  N   UNL A   1      42.702  26.702  28.276  1.00  0.00    -0.248 NA
ATOM     50  C   UNL A   1      41.135  24.976  28.120  1.00  0.00     0.031 C 
ATOM     51  C   UNL A   1      45.940  23.823  27.177  1.00  0.00     0.029 A 
ATOM     52  N   UNL A   1      45.490  25.922  27.802  1.00  0.00    -0.354 N 
ATOM     53  C   UNL A   1      41.439  27.204  28.558  1.00  0.00     0.074 A 
ATOM     54  C   UNL A   1      40.504  26.110  28.397  1.00  0.00     0.031 C 
ATOM     55  C   UNL A   1      47.102  24.493  27.200  1.00  0.00     0.029 A 
ATOM     56  C   UNL A   1      46.842  25.884  27.559  1.00  0.00     0.049 A 
ATOM     57  H   UNL A   1      45.020  26.728  28.115  1.00  0.00     0.167 HD
ATOM     58  C   UNL A   1      41.092  28.457  28.939  1.00  0.00     0.037 A 
ATOM     59  C   UNL A   1      47.766  26.864  27.590  1.00  0.00     0.037 A 
ATOM     60  C   UNL A   1      42.022  29.544  29.099  1.00  0.00     0.049 A 
ATOM     61  C   UNL A   1      47.344  28.259  27.965  1.00  0.00     0.074 A 
ATOM     62  C   UNL A   1      41.769  30.842  29.509  1.00  0.00     0.029 A 
ATOM     63  N   UNL A   1      43.384  29.463  28.851  1.00  0.00    -0.354 N 
ATOM     64  N   UNL A   1      46.153  28.705  28.282  1.00  0.00    -0.248 NA
ATOM     65  C   UNL A   1      48.395  29.285  27.989  1.00  0.00     0.031 C 
ATOM     66  C   UNL A   1      42.968  31.560  29.462  1.00  0.00     0.029 A 
ATOM     67  C   UNL A   1      43.980  30.695  29.078  1.00  0.00     0.049 A 
ATOM     68  H   UNL A   1      43.859  28.652  28.559  1.00  0.00     0.167 HD
ATOM     69  C   UNL A   1      46.317  30.055  28.566  1.00  0.00     0.074 A 
ATOM     70  C   UNL A   1      47.726  30.349  28.407  1.00  0.00     0.031 C 
ATOM     71  C   UNL A   1      45.385  30.973  28.923  1.00  0.00     0.037 A 
BRANCH  58  72
ATOM     72  C   UNL A   1      39.640  28.723  29.217  1.00  0.00     0.057 A 
ATOM     73  C   UNL A   1      39.089  28.530  30.491  1.00  0.00     0.134 A 
ATOM     74  C   UNL A   1      38.798  29.233  28.221  1.00  0.00     0.134 A 
ATOM     75  F   UNL A   1      39.838  28.035  31.488  1.00  0.00    -0.206 F 
ATOM     76  C   UNL A   1      37.750  28.817  30.760  1.00  0.00     0.040 A 
ATOM     77  C   UNL A   1      37.465  29.551  28.483  1.00  0.00     0.040 A 
ATOM     78  F   UNL A   1      39.262  29.450  26.981  1.00  0.00    -0.206 F 
ATOM     79  C   UNL A   1      36.936  29.338  29.756  1.00  0.00     0.006 A 
ENDBRANCH  58  72
BRANCH  59  80
ATOM     80  C   UNL A   1      49.179  26.574  27.237  1.00  0.00     0.057 A 
ATOM     81  C   UNL A   1      49.645  26.720  25.925  1.00  0.00     0.134 A 
ATOM     82  C   UNL A   1      50.090  26.109  28.193  1.00  0.00     0.134 A 
ATOM     83  F   UNL A   1      48.817  27.143  24.958  1.00  0.00    -0.206 F 
ATOM     84  C   UNL A   1      50.954  26.385  25.571  1.00  0.00     0.040 A 
ATOM     85  C   UNL A   1      51.409  25.799  27.860  1.00  0.00     0.040 A 
ATOM     86  F   UNL A   1      49.711  25.954  29.471  1.00  0.00    -0.206 F 
ATOM     87  C   UNL A   1      51.840  25.925  26.541  1.00  0.00     0.006 A 
ENDBRANCH  59  80
BRANCH  71  88
ATOM     88  C   UNL A   1      45.863  32.369  29.197  1.00  0.00     0.057 A 
ATOM     89  C   UNL A   1      46.292  32.770  30.469  1.00  0.00     0.134 A 
ATOM     90  C   UNL A   1      45.923  33.317  28.166  1.00  0.00     0.134 A 
ATOM     91  F   UNL A   1      46.245  31.917  31.502  1.00  0.00    -0.206 F 
ATOM     92  C   UNL A   1      46.739  34.070  30.712  1.00  0.00     0.040 A 
ATOM     93  C   UNL A   1      46.398  34.610  28.390  1.00  0.00     0.040 A 
ATOM     94  F   UNL A   1      45.537  32.997  26.922  1.00  0.00    -0.206 F 
ATOM     95  C   UNL A   1      46.800  34.992  29.668  1.00  0.00     0.006 A 
ENDBRANCH  71  88
ENDBRANCH  45  46
ENDBRANCH  37  40
ENDBRANCH  35  36
ENDBRANCH  34  35
ENDBRANCH   1  34
TORSDOF 14
ENDMDL
