MODEL 1
REMARK VINA RESULT:     -11.5      0.000      0.000
REMARK SMILES C[NH2+][C@@]1(C(=O)NCCCNC(=O)c2ccc(-c3c4nc(c(-c5c(F)cccc5F)c5ccc([nH]5)c(-c5c(F)cccc5F)c5nc(c(-c6c(F)cccc6F)c6ccc3[nH]6)C=C5)C=C4)cc2)CCC[C@H]1CCSc1nccc(=O)[nH]1
REMARK SMILES IDX 7 1 6 2 4 3 5 4 3 6 67 7 70 8 68 9 69 10 2 11 1 12 71 15
REMARK SMILES IDX 72 16 73 17 74 18 75 19 80 20 76 21 78 22 77 24 79 25 8 26
REMARK SMILES IDX 9 27 10 28 11 29 12 31 13 32 14 33 66 34 15 35 65 36 16 37
REMARK SMILES IDX 17 38 18 39 59 40 19 41 64 42 58 43 60 44 20 45 63 46 57 47
REMARK SMILES IDX 56 48 21 50 47 51 30 52 46 53 31 54 34 55 45 56 61 57 32 58
REMARK SMILES IDX 33 59 44 61 62 62 35 63 22 64 23 65 28 66 24 67 25 68 27 69
REMARK SMILES IDX 29 70 26 71 48 72 49 73 54 74 50 75 51 76 53 77 55 78 52 79
REMARK SMILES IDX 36 80 37 81 42 82 38 83 39 84 41 85 43 86 40 87
REMARK H PARENT 6 5 2 13 2 14 80 23 10 30 60 49 34 60
REMARK Flexibility Score: inf
ROOT
ATOM      1  C   UNL A   1      31.393  30.475  25.798  1.00  0.00     0.118 C 
ENDROOT
BRANCH   1   2
ATOM      2  N   UNL A   1      31.463  29.510  26.863  1.00  0.00    -0.351 N 
ATOM      3  C   UNL A   1      31.721  28.180  26.910  1.00  0.00     0.281 C 
ATOM      4  O   UNL A   1      31.905  27.781  28.074  1.00  0.00    -0.268 OA
ATOM      5  H   UNL A   1      31.285  29.900  27.749  1.00  0.00     0.163 HD
BRANCH   3   6
ATOM      6  C   UNL A   1      31.802  27.161  25.657  1.00  0.00     0.178 C 
ATOM      7  C   UNL A   1      32.686  25.956  26.029  1.00  0.00     0.079 C 
ATOM      8  C   UNL A   1      32.454  27.814  24.390  1.00  0.00     0.061 C 
ATOM      9  C   UNL A   1      34.036  26.126  25.356  1.00  0.00     0.008 C 
ATOM     10  C   UNL A   1      33.890  27.224  24.314  1.00  0.00     0.011 C 
BRANCH   6  11
ATOM     11  N   UNL A   1      30.391  26.765  25.499  1.00  0.00    -0.336 N 
ATOM     12  C   UNL A   1      29.827  25.571  26.064  1.00  0.00     0.331 C 
ATOM     13  H   UNL A   1      29.843  27.537  25.879  1.00  0.00     0.346 HD
ATOM     14  H   UNL A   1      30.361  26.544  24.504  1.00  0.00     0.346 HD
ENDBRANCH   6  11
BRANCH   8  15
ATOM     15  C   UNL A   1      31.839  27.602  22.978  1.00  0.00     0.022 C 
BRANCH  15  16
ATOM     16  C   UNL A   1      31.033  28.718  22.307  1.00  0.00     0.079 C 
BRANCH  16  17
ATOM     17  S   UNL A   1      29.386  28.974  23.030  1.00  0.00    -0.088 SA
BRANCH  17  18
ATOM     18  C   UNL A   1      28.851  30.371  22.164  1.00  0.00     0.168 A 
ATOM     19  N   UNL A   1      28.287  30.316  21.007  1.00  0.00    -0.233 NA
ATOM     20  N   UNL A   1      29.082  31.517  22.856  1.00  0.00    -0.301 N 
ATOM     21  C   UNL A   1      27.901  31.516  20.467  1.00  0.00     0.120 A 
ATOM     22  C   UNL A   1      28.660  32.723  22.397  1.00  0.00     0.251 A 
ATOM     23  H   UNL A   1      29.569  31.471  23.711  1.00  0.00     0.172 HD
ATOM     24  C   UNL A   1      28.029  32.702  21.070  1.00  0.00     0.091 A 
ATOM     25  O   UNL A   1      28.757  33.763  23.039  1.00  0.00    -0.269 OA
ENDBRANCH  17  18
ENDBRANCH  16  17
ENDBRANCH  15  16
ENDBRANCH   8  15
ENDBRANCH   3   6
ENDBRANCH   1   2
BRANCH   1  26
ATOM     26  C   UNL A   1      31.293  31.910  26.283  1.00  0.00     0.042 C 
BRANCH  26  27
ATOM     27  C   UNL A   1      32.549  32.399  26.994  1.00  0.00     0.118 C 
BRANCH  27  28
ATOM     28  N   UNL A   1      32.447  33.796  27.409  1.00  0.00    -0.352 N 
ATOM     29  C   UNL A   1      33.061  34.487  28.423  1.00  0.00     0.251 C 
ATOM     30  H   UNL A   1      31.827  34.336  26.868  1.00  0.00     0.163 HD
ATOM     31  O   UNL A   1      32.629  35.589  28.749  1.00  0.00    -0.269 OA
BRANCH  29  32
ATOM     32  C   UNL A   1      34.232  33.921  29.124  1.00  0.00     0.039 A 
ATOM     33  C   UNL A   1      34.032  32.963  30.124  1.00  0.00     0.014 A 
ATOM     34  C   UNL A   1      35.524  34.364  28.836  1.00  0.00     0.014 A 
ATOM     35  C   UNL A   1      35.130  32.408  30.782  1.00  0.00     0.010 A 
ATOM     36  C   UNL A   1      36.619  33.732  29.409  1.00  0.00     0.010 A 
ATOM     37  C   UNL A   1      36.436  32.760  30.403  1.00  0.00    -0.014 A 
BRANCH  37  38
ATOM     38  C   UNL A   1      37.626  32.148  31.043  1.00  0.00     0.031 A 
ATOM     39  C   UNL A   1      38.370  31.042  30.344  1.00  0.00     0.074 A 
ATOM     40  C   UNL A   1      37.989  32.534  32.281  1.00  0.00     0.049 A 
ATOM     41  N   UNL A   1      39.377  30.323  30.771  1.00  0.00    -0.248 NA
ATOM     42  C   UNL A   1      37.898  30.670  29.000  1.00  0.00     0.031 C 
ATOM     43  C   UNL A   1      37.316  33.561  33.079  1.00  0.00     0.029 A 
ATOM     44  N   UNL A   1      39.009  32.102  33.089  1.00  0.00    -0.354 N 
ATOM     45  C   UNL A   1      39.641  29.406  29.761  1.00  0.00     0.074 A 
ATOM     46  C   UNL A   1      38.652  29.616  28.729  1.00  0.00     0.031 C 
ATOM     47  C   UNL A   1      37.958  33.699  34.250  1.00  0.00     0.029 A 
ATOM     48  C   UNL A   1      39.058  32.741  34.304  1.00  0.00     0.049 A 
ATOM     49  H   UNL A   1      39.645  31.399  32.824  1.00  0.00     0.167 HD
ATOM     50  C   UNL A   1      40.635  28.489  29.689  1.00  0.00     0.037 A 
ATOM     51  C   UNL A   1      39.890  32.566  35.347  1.00  0.00     0.037 A 
ATOM     52  C   UNL A   1      41.631  28.303  30.710  1.00  0.00     0.049 A 
ATOM     53  C   UNL A   1      40.979  31.534  35.247  1.00  0.00     0.074 A 
ATOM     54  C   UNL A   1      42.718  27.447  30.708  1.00  0.00     0.029 A 
ATOM     55  N   UNL A   1      41.655  28.980  31.920  1.00  0.00    -0.354 N 
ATOM     56  N   UNL A   1      41.264  30.725  34.256  1.00  0.00    -0.248 NA
ATOM     57  C   UNL A   1      41.866  31.393  36.410  1.00  0.00     0.031 C 
ATOM     58  C   UNL A   1      43.368  27.567  31.940  1.00  0.00     0.029 A 
ATOM     59  C   UNL A   1      42.724  28.543  32.684  1.00  0.00     0.049 A 
ATOM     60  H   UNL A   1      41.009  29.671  32.195  1.00  0.00     0.167 HD
ATOM     61  C   UNL A   1      42.382  30.006  34.659  1.00  0.00     0.074 A 
ATOM     62  C   UNL A   1      42.729  30.483  35.982  1.00  0.00     0.031 C 
ATOM     63  C   UNL A   1      43.060  29.037  33.996  1.00  0.00     0.037 A 
BRANCH  50  64
ATOM     64  C   UNL A   1      40.690  27.620  28.464  1.00  0.00     0.057 A 
ATOM     65  C   UNL A   1      39.978  26.416  28.376  1.00  0.00     0.134 A 
ATOM     66  C   UNL A   1      41.447  28.003  27.349  1.00  0.00     0.134 A 
ATOM     67  F   UNL A   1      39.243  25.982  29.411  1.00  0.00    -0.206 F 
ATOM     68  C   UNL A   1      40.043  25.609  27.237  1.00  0.00     0.040 A 
ATOM     69  C   UNL A   1      41.492  27.221  26.194  1.00  0.00     0.040 A 
ATOM     70  F   UNL A   1      42.148  29.146  27.361  1.00  0.00    -0.206 F 
ATOM     71  C   UNL A   1      40.796  26.016  26.139  1.00  0.00     0.006 A 
ENDBRANCH  50  64
BRANCH  51  72
ATOM     72  C   UNL A   1      39.744  33.403  36.566  1.00  0.00     0.057 A 
ATOM     73  C   UNL A   1      38.873  33.029  37.597  1.00  0.00     0.134 A 
ATOM     74  C   UNL A   1      40.461  34.595  36.729  1.00  0.00     0.134 A 
ATOM     75  F   UNL A   1      38.148  31.906  37.493  1.00  0.00    -0.206 F 
ATOM     76  C   UNL A   1      38.702  33.822  38.733  1.00  0.00     0.040 A 
ATOM     77  C   UNL A   1      40.320  35.383  37.873  1.00  0.00     0.040 A 
ATOM     78  F   UNL A   1      41.319  35.005  35.784  1.00  0.00    -0.206 F 
ATOM     79  C   UNL A   1      39.430  35.001  38.875  1.00  0.00     0.006 A 
ENDBRANCH  51  72
BRANCH  63  80
ATOM     80  C   UNL A   1      44.273  28.463  34.669  1.00  0.00     0.057 A 
ATOM     81  C   UNL A   1      44.207  27.310  35.462  1.00  0.00     0.134 A 
ATOM     82  C   UNL A   1      45.531  29.051  34.487  1.00  0.00     0.134 A 
ATOM     83  F   UNL A   1      43.032  26.704  35.688  1.00  0.00    -0.206 F 
ATOM     84  C   UNL A   1      45.346  26.778  36.070  1.00  0.00     0.040 A 
ATOM     85  C   UNL A   1      46.681  28.511  35.062  1.00  0.00     0.040 A 
ATOM     86  F   UNL A   1      45.666  30.151  33.731  1.00  0.00    -0.206 F 
ATOM     87  C   UNL A   1      46.589  27.375  35.863  1.00  0.00     0.006 A 
ENDBRANCH  63  80
ENDBRANCH  37  38
ENDBRANCH  29  32
ENDBRANCH  27  28
ENDBRANCH  26  27
ENDBRANCH   1  26
TORSDOF 15
ENDMDL
MODEL 2
REMARK VINA RESULT:     -11.2      4.594      9.287
REMARK SMILES C[NH2+][C@@]1(C(=O)NCCCNC(=O)c2ccc(-c3c4nc(c(-c5c(F)cccc5F)c5ccc([nH]5)c(-c5c(F)cccc5F)c5nc(c(-c6c(F)cccc6F)c6ccc3[nH]6)C=C5)C=C4)cc2)CCC[C@H]1CCSc1nccc(=O)[nH]1
REMARK SMILES IDX 7 1 6 2 4 3 5 4 3 6 67 7 70 8 68 9 69 10 2 11 1 12 71 15
REMARK SMILES IDX 72 16 73 17 74 18 75 19 80 20 76 21 78 22 77 24 79 25 8 26
REMARK SMILES IDX 9 27 10 28 11 29 12 31 13 32 14 33 66 34 15 35 65 36 16 37
REMARK SMILES IDX 17 38 18 39 59 40 19 41 64 42 58 43 60 44 20 45 63 46 57 47
REMARK SMILES IDX 56 48 21 50 47 51 30 52 46 53 31 54 34 55 45 56 61 57 32 58
REMARK SMILES IDX 33 59 44 61 62 62 35 63 22 64 23 65 28 66 24 67 25 68 27 69
REMARK SMILES IDX 29 70 26 71 48 72 49 73 54 74 50 75 51 76 53 77 55 78 52 79
REMARK SMILES IDX 36 80 37 81 42 82 38 83 39 84 41 85 43 86 40 87
REMARK H PARENT 6 5 2 13 2 14 80 23 10 30 60 49 34 60
REMARK Flexibility Score: inf
ROOT
ATOM      1  C   UNL A   1      36.092  20.733  24.861  1.00  0.00     0.118 C 
ENDROOT
BRANCH   1   2
ATOM      2  N   UNL A   1      35.506  21.050  26.137  1.00  0.00    -0.351 N 
ATOM      3  C   UNL A   1      34.450  21.808  26.522  1.00  0.00     0.281 C 
ATOM      4  O   UNL A   1      34.155  21.624  27.716  1.00  0.00    -0.268 OA
ATOM      5  H   UNL A   1      35.972  20.626  26.892  1.00  0.00     0.163 HD
BRANCH   3   6
ATOM      6  C   UNL A   1      33.615  22.849  25.608  1.00  0.00     0.178 C 
ATOM      7  C   UNL A   1      32.641  22.074  24.701  1.00  0.00     0.079 C 
ATOM      8  C   UNL A   1      34.535  23.687  24.655  1.00  0.00     0.061 C 
ATOM      9  C   UNL A   1      33.213  22.047  23.296  1.00  0.00     0.008 C 
ATOM     10  C   UNL A   1      34.337  23.070  23.243  1.00  0.00     0.011 C 
BRANCH   6  11
ATOM     11  N   UNL A   1      32.894  23.632  26.627  1.00  0.00    -0.336 N 
ATOM     12  C   UNL A   1      31.463  23.737  26.692  1.00  0.00     0.331 C 
ATOM     13  H   UNL A   1      33.184  23.250  27.528  1.00  0.00     0.346 HD
ATOM     14  H   UNL A   1      33.148  24.583  26.359  1.00  0.00     0.346 HD
ENDBRANCH   6  11
BRANCH   8  15
ATOM     15  C   UNL A   1      34.318  25.216  24.478  1.00  0.00     0.022 C 
BRANCH  15  16
ATOM     16  C   UNL A   1      33.561  25.758  23.262  1.00  0.00     0.079 C 
BRANCH  16  17
ATOM     17  S   UNL A   1      31.918  26.427  23.655  1.00  0.00    -0.088 SA
BRANCH  17  18
ATOM     18  C   UNL A   1      32.305  27.561  24.900  1.00  0.00     0.168 A 
ATOM     19  N   UNL A   1      33.101  28.559  24.729  1.00  0.00    -0.233 NA
ATOM     20  N   UNL A   1      31.659  27.280  26.061  1.00  0.00    -0.301 N 
ATOM     21  C   UNL A   1      33.284  29.378  25.814  1.00  0.00     0.120 A 
ATOM     22  C   UNL A   1      31.752  28.096  27.143  1.00  0.00     0.251 A 
ATOM     23  H   UNL A   1      31.110  26.464  26.119  1.00  0.00     0.172 HD
ATOM     24  C   UNL A   1      32.667  29.235  26.991  1.00  0.00     0.091 A 
ATOM     25  O   UNL A   1      31.103  27.933  28.171  1.00  0.00    -0.269 OA
ENDBRANCH  17  18
ENDBRANCH  16  17
ENDBRANCH  15  16
ENDBRANCH   8  15
ENDBRANCH   3   6
ENDBRANCH   1   2
BRANCH   1  26
ATOM     26  C   UNL A   1      37.262  19.769  24.953  1.00  0.00     0.042 C 
BRANCH  26  27
ATOM     27  C   UNL A   1      38.547  20.421  25.448  1.00  0.00     0.118 C 
BRANCH  27  28
ATOM     28  N   UNL A   1      39.613  19.449  25.674  1.00  0.00    -0.352 N 
ATOM     29  C   UNL A   1      40.922  19.612  26.054  1.00  0.00     0.251 C 
ATOM     30  H   UNL A   1      39.348  18.513  25.528  1.00  0.00     0.163 HD
ATOM     31  O   UNL A   1      41.706  18.676  25.930  1.00  0.00    -0.269 OA
BRANCH  29  32
ATOM     32  C   UNL A   1      41.396  20.898  26.605  1.00  0.00     0.039 A 
ATOM     33  C   UNL A   1      41.906  21.868  25.736  1.00  0.00     0.014 A 
ATOM     34  C   UNL A   1      41.386  21.136  27.980  1.00  0.00     0.014 A 
ATOM     35  C   UNL A   1      42.341  23.093  26.242  1.00  0.00     0.010 A 
ATOM     36  C   UNL A   1      41.712  22.393  28.471  1.00  0.00     0.010 A 
ATOM     37  C   UNL A   1      42.212  23.381  27.610  1.00  0.00    -0.014 A 
BRANCH  37  38
ATOM     38  C   UNL A   1      42.613  24.694  28.173  1.00  0.00     0.031 A 
ATOM     39  C   UNL A   1      41.579  25.767  28.387  1.00  0.00     0.074 A 
ATOM     40  C   UNL A   1      43.913  24.944  28.418  1.00  0.00     0.049 A 
ATOM     41  N   UNL A   1      41.739  27.003  28.786  1.00  0.00    -0.248 NA
ATOM     42  C   UNL A   1      40.182  25.415  28.080  1.00  0.00     0.031 C 
ATOM     43  C   UNL A   1      45.013  24.002  28.202  1.00  0.00     0.029 A 
ATOM     44  N   UNL A   1      44.532  26.072  28.893  1.00  0.00    -0.354 N 
ATOM     45  C   UNL A   1      40.474  27.576  28.756  1.00  0.00     0.074 A 
ATOM     46  C   UNL A   1      39.567  26.575  28.242  1.00  0.00     0.031 C 
ATOM     47  C   UNL A   1      46.166  24.581  28.571  1.00  0.00     0.029 A 
ATOM     48  C   UNL A   1      45.895  25.947  29.004  1.00  0.00     0.049 A 
ATOM     49  H   UNL A   1      44.044  26.895  29.130  1.00  0.00     0.167 HD
ATOM     50  C   UNL A   1      40.097  28.816  29.148  1.00  0.00     0.037 A 
ATOM     51  C   UNL A   1      46.822  26.839  29.403  1.00  0.00     0.037 A 
ATOM     52  C   UNL A   1      41.002  29.799  29.682  1.00  0.00     0.049 A 
ATOM     53  C   UNL A   1      46.380  28.213  29.821  1.00  0.00     0.074 A 
ATOM     54  C   UNL A   1      40.714  31.063  30.167  1.00  0.00     0.029 A 
ATOM     55  N   UNL A   1      42.374  29.629  29.794  1.00  0.00    -0.354 N 
ATOM     56  N   UNL A   1      45.170  28.718  29.860  1.00  0.00    -0.248 NA
ATOM     57  C   UNL A   1      47.431  29.142  30.259  1.00  0.00     0.031 C 
ATOM     58  C   UNL A   1      41.919  31.677  30.522  1.00  0.00     0.029 A 
ATOM     59  C   UNL A   1      42.950  30.775  30.316  1.00  0.00     0.049 A 
ATOM     60  H   UNL A   1      42.866  28.814  29.540  1.00  0.00     0.167 HD
ATOM     61  C   UNL A   1      45.310  30.008  30.356  1.00  0.00     0.074 A 
ATOM     62  C   UNL A   1      46.722  30.203  30.616  1.00  0.00     0.031 C 
ATOM     63  C   UNL A   1      44.358  30.947  30.577  1.00  0.00     0.037 A 
BRANCH  50  64
ATOM     64  C   UNL A   1      38.645  29.176  29.010  1.00  0.00     0.057 A 
ATOM     65  C   UNL A   1      37.756  29.105  30.091  1.00  0.00     0.134 A 
ATOM     66  C   UNL A   1      38.132  29.623  27.785  1.00  0.00     0.134 A 
ATOM     67  F   UNL A   1      38.175  28.672  31.290  1.00  0.00    -0.206 F 
ATOM     68  C   UNL A   1      36.405  29.432  29.951  1.00  0.00     0.040 A 
ATOM     69  C   UNL A   1      36.792  29.985  27.642  1.00  0.00     0.040 A 
ATOM     70  F   UNL A   1      38.927  29.724  26.709  1.00  0.00    -0.206 F 
ATOM     71  C   UNL A   1      35.922  29.881  28.725  1.00  0.00     0.006 A 
ENDBRANCH  50  64
BRANCH  51  72
ATOM     72  C   UNL A   1      48.256  26.453  29.450  1.00  0.00     0.057 A 
ATOM     73  C   UNL A   1      49.107  26.712  28.369  1.00  0.00     0.134 A 
ATOM     74  C   UNL A   1      48.808  25.812  30.565  1.00  0.00     0.134 A 
ATOM     75  F   UNL A   1      48.633  27.309  27.265  1.00  0.00    -0.206 F 
ATOM     76  C   UNL A   1      50.448  26.326  28.385  1.00  0.00     0.040 A 
ATOM     77  C   UNL A   1      50.155  25.446  30.606  1.00  0.00     0.040 A 
ATOM     78  F   UNL A   1      48.050  25.544  31.638  1.00  0.00    -0.206 F 
ATOM     79  C   UNL A   1      50.977  25.695  29.509  1.00  0.00     0.006 A 
ENDBRANCH  51  72
BRANCH  63  80
ATOM     80  C   UNL A   1      44.803  32.252  31.171  1.00  0.00     0.057 A 
ATOM     81  C   UNL A   1      45.156  33.349  30.375  1.00  0.00     0.134 A 
ATOM     82  C   UNL A   1      44.839  32.424  32.561  1.00  0.00     0.134 A 
ATOM     83  F   UNL A   1      45.156  33.248  29.038  1.00  0.00    -0.206 F 
ATOM     84  C   UNL A   1      45.554  34.562  30.941  1.00  0.00     0.040 A 
ATOM     85  C   UNL A   1      45.203  33.640  33.138  1.00  0.00     0.040 A 
ATOM     86  F   UNL A   1      44.502  31.417  33.381  1.00  0.00    -0.206 F 
ATOM     87  C   UNL A   1      45.571  34.711  32.327  1.00  0.00     0.006 A 
ENDBRANCH  63  80
ENDBRANCH  37  38
ENDBRANCH  29  32
ENDBRANCH  27  28
ENDBRANCH  26  27
ENDBRANCH   1  26
TORSDOF 15
ENDMDL
MODEL 3
REMARK VINA RESULT:     -11.2      6.353     11.217
REMARK SMILES C[NH2+][C@@]1(C(=O)NCCCNC(=O)c2ccc(-c3c4nc(c(-c5c(F)cccc5F)c5ccc([nH]5)c(-c5c(F)cccc5F)c5nc(c(-c6c(F)cccc6F)c6ccc3[nH]6)C=C5)C=C4)cc2)CCC[C@H]1CCSc1nccc(=O)[nH]1
REMARK SMILES IDX 7 1 6 2 4 3 5 4 3 6 67 7 70 8 68 9 69 10 2 11 1 12 71 15
REMARK SMILES IDX 72 16 73 17 74 18 75 19 80 20 76 21 78 22 77 24 79 25 8 26
REMARK SMILES IDX 9 27 10 28 11 29 12 31 13 32 14 33 66 34 15 35 65 36 16 37
REMARK SMILES IDX 17 38 18 39 59 40 19 41 64 42 58 43 60 44 20 45 63 46 57 47
REMARK SMILES IDX 56 48 21 50 47 51 30 52 46 53 31 54 34 55 45 56 61 57 32 58
REMARK SMILES IDX 33 59 44 61 62 62 35 63 22 64 23 65 28 66 24 67 25 68 27 69
REMARK SMILES IDX 29 70 26 71 48 72 49 73 54 74 50 75 51 76 53 77 55 78 52 79
REMARK SMILES IDX 36 80 37 81 42 82 38 83 39 84 41 85 43 86 40 87
REMARK H PARENT 6 5 2 13 2 14 80 23 10 30 60 49 34 60
REMARK Flexibility Score: inf
ROOT
ATOM      1  C   UNL A   1      37.196  20.374  24.628  1.00  0.00     0.118 C 
ENDROOT
BRANCH   1   2
ATOM      2  N   UNL A   1      37.461  21.691  25.145  1.00  0.00    -0.351 N 
ATOM      3  C   UNL A   1      36.675  22.686  25.625  1.00  0.00     0.281 C 
ATOM      4  O   UNL A   1      37.341  23.577  26.182  1.00  0.00    -0.268 OA
ATOM      5  H   UNL A   1      38.418  21.917  25.153  1.00  0.00     0.163 HD
BRANCH   3   6
ATOM      6  C   UNL A   1      35.064  22.785  25.531  1.00  0.00     0.178 C 
ATOM      7  C   UNL A   1      34.499  23.291  26.870  1.00  0.00     0.079 C 
ATOM      8  C   UNL A   1      34.390  21.396  25.262  1.00  0.00     0.061 C 
ATOM      9  C   UNL A   1      33.900  22.112  27.614  1.00  0.00     0.008 C 
ATOM     10  C   UNL A   1      33.779  20.963  26.624  1.00  0.00     0.011 C 
BRANCH   6  11
ATOM     11  N   UNL A   1      34.886  23.783  24.460  1.00  0.00    -0.336 N 
ATOM     12  C   UNL A   1      34.290  25.074  24.660  1.00  0.00     0.331 C 
ATOM     13  H   UNL A   1      35.820  23.962  24.090  1.00  0.00     0.346 HD
ATOM     14  H   UNL A   1      34.177  23.327  23.885  1.00  0.00     0.346 HD
ENDBRANCH   6  11
BRANCH   8  15
ATOM     15  C   UNL A   1      33.242  21.254  24.224  1.00  0.00     0.022 C 
BRANCH  15  16
ATOM     16  C   UNL A   1      32.194  20.146  24.372  1.00  0.00     0.079 C 
BRANCH  16  17
ATOM     17  S   UNL A   1      32.333  18.830  23.126  1.00  0.00    -0.088 SA
BRANCH  17  18
ATOM     18  C   UNL A   1      33.374  17.711  23.934  1.00  0.00     0.168 A 
ATOM     19  N   UNL A   1      34.603  17.966  24.224  1.00  0.00    -0.233 NA
ATOM     20  N   UNL A   1      32.734  16.551  24.235  1.00  0.00    -0.301 N 
ATOM     21  C   UNL A   1      35.283  16.976  24.887  1.00  0.00     0.120 A 
ATOM     22  C   UNL A   1      33.341  15.568  24.949  1.00  0.00     0.251 A 
ATOM     23  H   UNL A   1      31.807  16.420  23.928  1.00  0.00     0.172 HD
ATOM     24  C   UNL A   1      34.751  15.816  25.281  1.00  0.00     0.091 A 
ATOM     25  O   UNL A   1      32.766  14.555  25.330  1.00  0.00    -0.269 OA
ENDBRANCH  17  18
ENDBRANCH  16  17
ENDBRANCH  15  16
ENDBRANCH   8  15
ENDBRANCH   3   6
ENDBRANCH   1   2
BRANCH   1  26
ATOM     26  C   UNL A   1      38.255  19.351  24.999  1.00  0.00     0.042 C 
BRANCH  26  27
ATOM     27  C   UNL A   1      39.379  19.924  25.854  1.00  0.00     0.118 C 
BRANCH  27  28
ATOM     28  N   UNL A   1      40.503  19.002  25.988  1.00  0.00    -0.352 N 
ATOM     29  C   UNL A   1      41.846  19.229  26.152  1.00  0.00     0.251 C 
ATOM     30  H   UNL A   1      40.254  18.050  25.954  1.00  0.00     0.163 HD
ATOM     31  O   UNL A   1      42.638  18.306  25.981  1.00  0.00    -0.269 OA
BRANCH  29  32
ATOM     32  C   UNL A   1      42.349  20.566  26.528  1.00  0.00     0.039 A 
ATOM     33  C   UNL A   1      42.856  21.409  25.534  1.00  0.00     0.014 A 
ATOM     34  C   UNL A   1      42.367  20.976  27.861  1.00  0.00     0.014 A 
ATOM     35  C   UNL A   1      43.317  22.682  25.873  1.00  0.00     0.010 A 
ATOM     36  C   UNL A   1      42.719  22.281  28.182  1.00  0.00     0.010 A 
ATOM     37  C   UNL A   1      43.217  23.143  27.195  1.00  0.00    -0.014 A 
BRANCH  37  38
ATOM     38  C   UNL A   1      43.647  24.510  27.580  1.00  0.00     0.031 A 
ATOM     39  C   UNL A   1      42.618  25.542  27.960  1.00  0.00     0.074 A 
ATOM     40  C   UNL A   1      44.950  24.841  27.514  1.00  0.00     0.049 A 
ATOM     41  N   UNL A   1      42.783  26.808  28.243  1.00  0.00    -0.248 NA
ATOM     42  C   UNL A   1      41.214  25.099  27.992  1.00  0.00     0.031 C 
ATOM     43  C   UNL A   1      46.034  23.943  27.112  1.00  0.00     0.029 A 
ATOM     44  N   UNL A   1      45.584  26.029  27.776  1.00  0.00    -0.354 N 
ATOM     45  C   UNL A   1      41.508  27.314  28.464  1.00  0.00     0.074 A 
ATOM     46  C   UNL A   1      40.576  26.236  28.222  1.00  0.00     0.031 C 
ATOM     47  C   UNL A   1      47.201  24.603  27.181  1.00  0.00     0.029 A 
ATOM     48  C   UNL A   1      46.944  25.981  27.587  1.00  0.00     0.049 A 
ATOM     49  H   UNL A   1      45.109  26.840  28.069  1.00  0.00     0.167 HD
ATOM     50  C   UNL A   1      41.147  28.558  28.860  1.00  0.00     0.037 A 
ATOM     51  C   UNL A   1      47.876  26.943  27.718  1.00  0.00     0.037 A 
ATOM     52  C   UNL A   1      42.082  29.619  29.123  1.00  0.00     0.049 A 
ATOM     53  C   UNL A   1      47.449  28.319  28.147  1.00  0.00     0.074 A 
ATOM     54  C   UNL A   1      41.827  30.897  29.589  1.00  0.00     0.029 A 
ATOM     55  N   UNL A   1      43.453  29.526  28.935  1.00  0.00    -0.354 N 
ATOM     56  N   UNL A   1      46.248  28.764  28.427  1.00  0.00    -0.248 NA
ATOM     57  C   UNL A   1      48.509  29.327  28.286  1.00  0.00     0.031 C 
ATOM     58  C   UNL A   1      43.038  31.594  29.631  1.00  0.00     0.029 A 
ATOM     59  C   UNL A   1      44.055  30.733  29.251  1.00  0.00     0.049 A 
ATOM     60  H   UNL A   1      43.928  28.722  28.624  1.00  0.00     0.167 HD
ATOM     61  C   UNL A   1      46.411  30.090  28.806  1.00  0.00     0.074 A 
ATOM     62  C   UNL A   1      47.830  30.373  28.733  1.00  0.00     0.031 C 
ATOM     63  C   UNL A   1      45.471  30.993  29.181  1.00  0.00     0.037 A 
BRANCH  50  64
ATOM     64  C   UNL A   1      39.680  28.834  29.029  1.00  0.00     0.057 A 
ATOM     65  C   UNL A   1      39.038  28.707  30.269  1.00  0.00     0.134 A 
ATOM     66  C   UNL A   1      38.901  29.256  27.943  1.00  0.00     0.134 A 
ATOM     67  F   UNL A   1      39.719  28.294  31.349  1.00  0.00    -0.206 F 
ATOM     68  C   UNL A   1      37.671  28.956  30.415  1.00  0.00     0.040 A 
ATOM     69  C   UNL A   1      37.542  29.541  28.085  1.00  0.00     0.040 A 
ATOM     70  F   UNL A   1      39.450  29.407  26.729  1.00  0.00    -0.206 F 
ATOM     71  C   UNL A   1      36.922  29.382  29.322  1.00  0.00     0.006 A 
ENDBRANCH  50  64
BRANCH  51  72
ATOM     72  C   UNL A   1      49.307  26.633  27.465  1.00  0.00     0.057 A 
ATOM     73  C   UNL A   1      49.858  26.769  26.185  1.00  0.00     0.134 A 
ATOM     74  C   UNL A   1      50.155  26.190  28.487  1.00  0.00     0.134 A 
ATOM     75  F   UNL A   1      49.093  27.175  25.161  1.00  0.00    -0.206 F 
ATOM     76  C   UNL A   1      51.192  26.451  25.926  1.00  0.00     0.040 A 
ATOM     77  C   UNL A   1      51.498  25.895  28.248  1.00  0.00     0.040 A 
ATOM     78  F   UNL A   1      49.693  26.049  29.739  1.00  0.00    -0.206 F 
ATOM     79  C   UNL A   1      52.018  26.017  26.960  1.00  0.00     0.006 A 
ENDBRANCH  51  72
BRANCH  63  80
ATOM     80  C   UNL A   1      45.951  32.357  29.587  1.00  0.00     0.057 A 
ATOM     81  C   UNL A   1      46.055  33.411  28.671  1.00  0.00     0.134 A 
ATOM     82  C   UNL A   1      46.276  32.626  30.923  1.00  0.00     0.134 A 
ATOM     83  F   UNL A   1      45.772  33.218  27.375  1.00  0.00    -0.206 F 
ATOM     84  C   UNL A   1      46.489  34.678  29.066  1.00  0.00     0.040 A 
ATOM     85  C   UNL A   1      46.679  33.896  31.335  1.00  0.00     0.040 A 
ATOM     86  F   UNL A   1      46.188  31.664  31.853  1.00  0.00    -0.206 F 
ATOM     87  C   UNL A   1      46.794  34.925  30.403  1.00  0.00     0.006 A 
ENDBRANCH  63  80
ENDBRANCH  37  38
ENDBRANCH  29  32
ENDBRANCH  27  28
ENDBRANCH  26  27
ENDBRANCH   1  26
TORSDOF 15
ENDMDL
