MODEL 1
REMARK VINA RESULT:     -12.9      0.000      0.000
REMARK SMILES O=C(CC1(CN2CC3(CCCCC3)CC2=O)CCCCC1)NCCCNC(=O)c1ccc(-c2c3nc(c(-c4c(F)cccc4F)c4ccc([nH]4)c(-c4c(F)cccc4F)c4nc(c(-c5c(F)cccc5F)c5ccc2[nH]5)C=C4)C=C3)cc1
REMARK SMILES IDX 23 1 22 2 1 3 2 4 3 6 4 7 17 8 21 9 18 10 20 11 19 12 5 13
REMARK SMILES IDX 6 14 7 15 15 16 8 17 14 18 16 19 9 20 13 21 10 22 12 23
REMARK SMILES IDX 11 24 24 25 25 26 26 27 27 28 28 30 29 31 30 32 82 33 31 34
REMARK SMILES IDX 81 35 32 36 33 37 34 38 75 39 35 40 80 41 74 42 76 43 36 44
REMARK SMILES IDX 79 45 73 46 72 47 37 49 63 50 46 51 62 52 47 53 50 54 61 55
REMARK SMILES IDX 77 56 48 57 49 58 60 60 78 61 51 62 38 63 39 64 44 65 40 66
REMARK SMILES IDX 41 67 43 68 45 69 42 70 64 71 65 72 70 73 66 74 67 75 69 76
REMARK SMILES IDX 71 77 68 78 52 79 53 80 58 81 54 82 55 83 57 84 59 85 56 86
REMARK H PARENT 22 5 26 29 76 48 50 59
REMARK Flexibility Score: inf
ROOT
ATOM      1  C   UNL A   1      31.942  30.466  26.757  1.00  0.00     0.117 C 
ENDROOT
BRANCH   1   2
ATOM      2  N   UNL A   1      32.350  30.070  25.424  1.00  0.00    -0.356 N 
ATOM      3  O   UNL A   1      34.227  28.917  26.082  1.00  0.00    -0.275 OA
ATOM      4  C   UNL A   1      33.428  29.242  25.210  1.00  0.00     0.220 C 
ATOM      5  H   UNL A   1      31.841  30.402  24.649  1.00  0.00     0.163 HD
BRANCH   4   6
ATOM      6  C   UNL A   1      33.491  28.679  23.804  1.00  0.00     0.108 C 
BRANCH   6   7
ATOM      7  C   UNL A   1      32.706  27.336  23.607  1.00  0.00    -0.003 C 
ATOM      8  C   UNL A   1      32.751  26.986  22.075  1.00  0.00     0.009 C 
ATOM      9  C   UNL A   1      33.394  26.130  24.319  1.00  0.00     0.009 C 
ATOM     10  C   UNL A   1      32.170  25.610  21.722  1.00  0.00     0.001 C 
ATOM     11  C   UNL A   1      32.867  24.742  23.965  1.00  0.00     0.001 C 
ATOM     12  C   UNL A   1      32.885  24.493  22.469  1.00  0.00     0.000 C 
BRANCH   7  13
ATOM     13  C   UNL A   1      31.197  27.590  23.944  1.00  0.00     0.127 C 
BRANCH  13  14
ATOM     14  N   UNL A   1      30.158  27.723  22.916  1.00  0.00    -0.342 N 
ATOM     15  C   UNL A   1      30.095  28.790  21.954  1.00  0.00     0.127 C 
ATOM     16  C   UNL A   1      28.825  27.475  23.346  1.00  0.00     0.223 C 
ATOM     17  C   UNL A   1      28.942  29.685  22.435  1.00  0.00    -0.003 C 
ATOM     18  C   UNL A   1      27.927  28.568  22.766  1.00  0.00     0.109 C 
ATOM     19  O   UNL A   1      28.463  26.611  24.127  1.00  0.00    -0.275 OA
ATOM     20  C   UNL A   1      29.397  30.412  23.733  1.00  0.00     0.009 C 
ATOM     21  C   UNL A   1      28.527  30.613  21.275  1.00  0.00     0.009 C 
ATOM     22  C   UNL A   1      28.884  31.815  23.976  1.00  0.00     0.001 C 
ATOM     23  C   UNL A   1      28.100  32.029  21.654  1.00  0.00     0.001 C 
ATOM     24  C   UNL A   1      29.005  32.637  22.711  1.00  0.00     0.000 C 
ENDBRANCH  13  14
ENDBRANCH   7  13
ENDBRANCH   6   7
ENDBRANCH   4   6
ENDBRANCH   1   2
BRANCH   1  25
ATOM     25  C   UNL A   1      31.629  31.949  26.870  1.00  0.00     0.042 C 
BRANCH  25  26
ATOM     26  C   UNL A   1      32.802  32.818  27.309  1.00  0.00     0.118 C 
BRANCH  26  27
ATOM     27  N   UNL A   1      32.421  34.181  27.656  1.00  0.00    -0.352 N 
ATOM     28  C   UNL A   1      32.974  35.035  28.582  1.00  0.00     0.251 C 
ATOM     29  H   UNL A   1      31.656  34.544  27.153  1.00  0.00     0.163 HD
ATOM     30  O   UNL A   1      32.449  36.123  28.800  1.00  0.00    -0.269 OA
BRANCH  28  31
ATOM     31  C   UNL A   1      34.175  34.628  29.344  1.00  0.00     0.039 A 
ATOM     32  C   UNL A   1      34.013  34.132  30.640  1.00  0.00     0.014 A 
ATOM     33  C   UNL A   1      35.450  34.709  28.778  1.00  0.00     0.014 A 
ATOM     34  C   UNL A   1      35.117  33.630  31.335  1.00  0.00     0.010 A 
ATOM     35  C   UNL A   1      36.539  34.152  29.446  1.00  0.00     0.010 A 
ATOM     36  C   UNL A   1      36.380  33.591  30.722  1.00  0.00    -0.014 A 
BRANCH  36  37
ATOM     37  C   UNL A   1      37.537  32.926  31.376  1.00  0.00     0.031 A 
ATOM     38  C   UNL A   1      38.187  31.729  30.743  1.00  0.00     0.074 A 
ATOM     39  C   UNL A   1      37.947  33.348  32.589  1.00  0.00     0.049 A 
ATOM     40  N   UNL A   1      39.128  30.952  31.217  1.00  0.00    -0.248 NA
ATOM     41  C   UNL A   1      37.697  31.338  29.413  1.00  0.00     0.031 C 
ATOM     42  C   UNL A   1      37.375  34.472  33.333  1.00  0.00     0.029 A 
ATOM     43  N   UNL A   1      38.929  32.866  33.419  1.00  0.00    -0.354 N 
ATOM     44  C   UNL A   1      39.334  29.975  30.253  1.00  0.00     0.074 A 
ATOM     45  C   UNL A   1      38.392  30.233  29.184  1.00  0.00     0.031 C 
ATOM     46  C   UNL A   1      38.022  34.600  34.503  1.00  0.00     0.029 A 
ATOM     47  C   UNL A   1      39.025  33.546  34.610  1.00  0.00     0.049 A 
ATOM     48  H   UNL A   1      39.509  32.106  33.184  1.00  0.00     0.167 HD
ATOM     49  C   UNL A   1      40.236  28.965  30.249  1.00  0.00     0.037 A 
ATOM     50  C   UNL A   1      39.820  33.333  35.676  1.00  0.00     0.037 A 
ATOM     51  C   UNL A   1      41.190  28.720  31.300  1.00  0.00     0.049 A 
ATOM     52  C   UNL A   1      40.799  32.196  35.656  1.00  0.00     0.074 A 
ATOM     53  C   UNL A   1      42.189  27.763  31.352  1.00  0.00     0.029 A 
ATOM     54  N   UNL A   1      41.261  29.436  32.486  1.00  0.00    -0.354 N 
ATOM     55  N   UNL A   1      41.023  31.316  34.710  1.00  0.00    -0.248 NA
ATOM     56  C   UNL A   1      41.636  32.019  36.852  1.00  0.00     0.031 C 
ATOM     57  C   UNL A   1      42.839  27.874  32.585  1.00  0.00     0.029 A 
ATOM     58  C   UNL A   1      42.271  28.925  33.286  1.00  0.00     0.049 A 
ATOM     59  H   UNL A   1      40.680  30.194  32.723  1.00  0.00     0.167 HD
ATOM     60  C   UNL A   1      42.035  30.494  35.188  1.00  0.00     0.074 A 
ATOM     61  C   UNL A   1      42.394  30.989  36.501  1.00  0.00     0.031 C 
ATOM     62  C   UNL A   1      42.615  29.424  34.592  1.00  0.00     0.037 A 
BRANCH  49  63
ATOM     63  C   UNL A   1      40.238  28.044  29.066  1.00  0.00     0.057 A 
ATOM     64  C   UNL A   1      40.989  28.321  27.918  1.00  0.00     0.134 A 
ATOM     65  C   UNL A   1      39.509  26.847  29.091  1.00  0.00     0.134 A 
ATOM     66  F   UNL A   1      41.699  29.456  27.828  1.00  0.00    -0.206 F 
ATOM     67  C   UNL A   1      41.001  27.451  26.826  1.00  0.00     0.040 A 
ATOM     68  C   UNL A   1      39.532  25.959  28.014  1.00  0.00     0.040 A 
ATOM     69  F   UNL A   1      38.773  26.519  30.162  1.00  0.00    -0.206 F 
ATOM     70  C   UNL A   1      40.276  26.263  26.876  1.00  0.00     0.006 A 
ENDBRANCH  49  63
BRANCH  50  71
ATOM     71  C   UNL A   1      39.727  34.226  36.858  1.00  0.00     0.057 A 
ATOM     72  C   UNL A   1      38.967  33.864  37.975  1.00  0.00     0.134 A 
ATOM     73  C   UNL A   1      40.387  35.460  36.895  1.00  0.00     0.134 A 
ATOM     74  F   UNL A   1      38.295  32.703  37.986  1.00  0.00    -0.206 F 
ATOM     75  C   UNL A   1      38.853  34.703  39.083  1.00  0.00     0.040 A 
ATOM     76  C   UNL A   1      40.300  36.300  38.007  1.00  0.00     0.040 A 
ATOM     77  F   UNL A   1      41.135  35.861  35.857  1.00  0.00    -0.206 F 
ATOM     78  C   UNL A   1      39.526  35.924  39.103  1.00  0.00     0.006 A 
ENDBRANCH  50  71
BRANCH  62  79
ATOM     79  C   UNL A   1      43.708  28.729  35.348  1.00  0.00     0.057 A 
ATOM     80  C   UNL A   1      43.433  27.693  36.249  1.00  0.00     0.134 A 
ATOM     81  C   UNL A   1      45.050  29.078  35.148  1.00  0.00     0.134 A 
ATOM     82  F   UNL A   1      42.168  27.323  36.495  1.00  0.00    -0.206 F 
ATOM     83  C   UNL A   1      44.456  27.040  36.940  1.00  0.00     0.040 A 
ATOM     84  C   UNL A   1      46.080  28.418  35.817  1.00  0.00     0.040 A 
ATOM     85  F   UNL A   1      45.378  30.059  34.294  1.00  0.00    -0.206 F 
ATOM     86  C   UNL A   1      45.785  27.399  36.720  1.00  0.00     0.006 A 
ENDBRANCH  62  79
ENDBRANCH  36  37
ENDBRANCH  28  31
ENDBRANCH  26  27
ENDBRANCH  25  26
ENDBRANCH   1  25
TORSDOF 13
ENDMDL
MODEL 2
REMARK VINA RESULT:     -12.9      4.686      9.319
REMARK SMILES O=C(CC1(CN2CC3(CCCCC3)CC2=O)CCCCC1)NCCCNC(=O)c1ccc(-c2c3nc(c(-c4c(F)cccc4F)c4ccc([nH]4)c(-c4c(F)cccc4F)c4nc(c(-c5c(F)cccc5F)c5ccc2[nH]5)C=C4)C=C3)cc1
REMARK SMILES IDX 23 1 22 2 1 3 2 4 3 6 4 7 17 8 21 9 18 10 20 11 19 12 5 13
REMARK SMILES IDX 6 14 7 15 15 16 8 17 14 18 16 19 9 20 13 21 10 22 12 23
REMARK SMILES IDX 11 24 24 25 25 26 26 27 27 28 28 30 29 31 30 32 82 33 31 34
REMARK SMILES IDX 81 35 32 36 33 37 34 38 75 39 35 40 80 41 74 42 76 43 36 44
REMARK SMILES IDX 79 45 73 46 72 47 37 49 63 50 46 51 62 52 47 53 50 54 61 55
REMARK SMILES IDX 77 56 48 57 49 58 60 60 78 61 51 62 38 63 39 64 44 65 40 66
REMARK SMILES IDX 41 67 43 68 45 69 42 70 64 71 65 72 70 73 66 74 67 75 69 76
REMARK SMILES IDX 71 77 68 78 52 79 53 80 58 81 54 82 55 83 57 84 59 85 56 86
REMARK H PARENT 22 5 26 29 76 48 50 59
REMARK Flexibility Score: inf
ROOT
ATOM      1  C   UNL A   1      32.534  27.327  25.267  1.00  0.00     0.117 C 
ENDROOT
BRANCH   1   2
ATOM      2  N   UNL A   1      32.966  26.028  24.791  1.00  0.00    -0.356 N 
ATOM      3  O   UNL A   1      32.039  24.824  26.516  1.00  0.00    -0.275 OA
ATOM      4  C   UNL A   1      32.597  24.864  25.426  1.00  0.00     0.220 C 
ATOM      5  H   UNL A   1      33.538  25.977  23.992  1.00  0.00     0.163 HD
BRANCH   4   6
ATOM      6  C   UNL A   1      32.857  23.617  24.603  1.00  0.00     0.108 C 
BRANCH   6   7
ATOM      7  C   UNL A   1      34.296  23.018  24.768  1.00  0.00    -0.003 C 
ATOM      8  C   UNL A   1      35.197  23.640  23.639  1.00  0.00     0.009 C 
ATOM      9  C   UNL A   1      34.972  23.446  26.109  1.00  0.00     0.009 C 
ATOM     10  C   UNL A   1      36.687  23.289  23.753  1.00  0.00     0.001 C 
ATOM     11  C   UNL A   1      36.463  23.146  26.243  1.00  0.00     0.001 C 
ATOM     12  C   UNL A   1      37.264  23.725  25.092  1.00  0.00     0.000 C 
BRANCH   7  13
ATOM     13  C   UNL A   1      34.231  21.481  24.468  1.00  0.00     0.127 C 
BRANCH  13  14
ATOM     14  N   UNL A   1      33.018  20.678  24.661  1.00  0.00    -0.342 N 
ATOM     15  C   UNL A   1      32.891  19.609  25.614  1.00  0.00     0.127 C 
ATOM     16  C   UNL A   1      32.360  20.254  23.474  1.00  0.00     0.223 C 
ATOM     17  C   UNL A   1      32.929  18.325  24.771  1.00  0.00    -0.003 C 
ATOM     18  C   UNL A   1      31.980  18.783  23.640  1.00  0.00     0.109 C 
ATOM     19  O   UNL A   1      32.214  20.905  22.452  1.00  0.00    -0.275 OA
ATOM     20  C   UNL A   1      34.375  18.139  24.229  1.00  0.00     0.009 C 
ATOM     21  C   UNL A   1      32.395  17.160  25.631  1.00  0.00     0.009 C 
ATOM     22  C   UNL A   1      34.897  16.727  24.074  1.00  0.00     0.001 C 
ATOM     23  C   UNL A   1      33.061  15.802  25.426  1.00  0.00     0.001 C 
ATOM     24  C   UNL A   1      34.571  15.916  25.309  1.00  0.00     0.000 C 
ENDBRANCH  13  14
ENDBRANCH   7  13
ENDBRANCH   6   7
ENDBRANCH   4   6
ENDBRANCH   1   2
BRANCH   1  25
ATOM     25  C   UNL A   1      33.659  28.139  25.888  1.00  0.00     0.042 C 
BRANCH  25  26
ATOM     26  C   UNL A   1      33.447  28.511  27.351  1.00  0.00     0.118 C 
BRANCH  26  27
ATOM     27  N   UNL A   1      33.526  29.942  27.608  1.00  0.00    -0.352 N 
ATOM     28  C   UNL A   1      34.588  30.693  28.055  1.00  0.00     0.251 C 
ATOM     29  H   UNL A   1      32.698  30.446  27.436  1.00  0.00     0.163 HD
ATOM     30  O   UNL A   1      34.432  31.885  28.304  1.00  0.00    -0.269 OA
BRANCH  28  31
ATOM     31  C   UNL A   1      35.906  30.059  28.276  1.00  0.00     0.039 A 
ATOM     32  C   UNL A   1      36.843  30.076  27.238  1.00  0.00     0.014 A 
ATOM     33  C   UNL A   1      36.230  29.475  29.502  1.00  0.00     0.014 A 
ATOM     34  C   UNL A   1      38.134  29.591  27.460  1.00  0.00     0.010 A 
ATOM     35  C   UNL A   1      37.535  29.049  29.742  1.00  0.00     0.010 A 
ATOM     36  C   UNL A   1      38.504  29.120  28.730  1.00  0.00    -0.014 A 
BRANCH  36  37
ATOM     37  C   UNL A   1      39.909  28.741  29.037  1.00  0.00     0.031 A 
ATOM     38  C   UNL A   1      40.842  29.729  29.676  1.00  0.00     0.074 A 
ATOM     39  C   UNL A   1      40.369  27.534  28.655  1.00  0.00     0.049 A 
ATOM     40  N   UNL A   1      42.125  29.618  29.915  1.00  0.00    -0.248 NA
ATOM     41  C   UNL A   1      40.264  31.019  30.080  1.00  0.00     0.031 C 
ATOM     42  C   UNL A   1      39.579  26.498  27.987  1.00  0.00     0.029 A 
ATOM     43  N   UNL A   1      41.622  26.981  28.757  1.00  0.00    -0.354 N 
ATOM     44  C   UNL A   1      42.510  30.826  30.481  1.00  0.00     0.074 A 
ATOM     45  C   UNL A   1      41.334  31.670  30.515  1.00  0.00     0.031 C 
ATOM     46  C   UNL A   1      40.361  25.433  27.749  1.00  0.00     0.029 A 
ATOM     47  C   UNL A   1      41.714  25.724  28.209  1.00  0.00     0.049 A 
ATOM     48  H   UNL A   1      42.382  27.441  29.181  1.00  0.00     0.167 HD
ATOM     49  C   UNL A   1      43.728  31.194  30.946  1.00  0.00     0.037 A 
ATOM     50  C   UNL A   1      42.774  24.904  28.077  1.00  0.00     0.037 A 
ATOM     51  C   UNL A   1      44.894  30.348  30.935  1.00  0.00     0.049 A 
ATOM     52  C   UNL A   1      44.118  25.341  28.584  1.00  0.00     0.074 A 
ATOM     53  C   UNL A   1      46.153  30.610  31.448  1.00  0.00     0.029 A 
ATOM     54  N   UNL A   1      44.945  29.079  30.380  1.00  0.00    -0.354 N 
ATOM     55  N   UNL A   1      44.453  26.464  29.172  1.00  0.00    -0.248 NA
ATOM     56  C   UNL A   1      45.233  24.399  28.406  1.00  0.00     0.031 C 
ATOM     57  C   UNL A   1      46.977  29.515  31.168  1.00  0.00     0.029 A 
ATOM     58  C   UNL A   1      46.220  28.555  30.515  1.00  0.00     0.049 A 
ATOM     59  H   UNL A   1      44.187  28.619  29.952  1.00  0.00     0.167 HD
ATOM     60  C   UNL A   1      45.809  26.357  29.451  1.00  0.00     0.074 A 
ATOM     61  C   UNL A   1      46.233  25.053  28.982  1.00  0.00     0.031 C 
ATOM     62  C   UNL A   1      46.630  27.259  30.041  1.00  0.00     0.037 A 
BRANCH  49  63
ATOM     63  C   UNL A   1      43.863  32.576  31.512  1.00  0.00     0.057 A 
ATOM     64  C   UNL A   1      43.667  32.836  32.873  1.00  0.00     0.134 A 
ATOM     65  C   UNL A   1      44.231  33.651  30.692  1.00  0.00     0.134 A 
ATOM     66  F   UNL A   1      43.302  31.852  33.708  1.00  0.00    -0.206 F 
ATOM     67  C   UNL A   1      43.812  34.122  33.398  1.00  0.00     0.040 A 
ATOM     68  C   UNL A   1      44.401  34.936  31.210  1.00  0.00     0.040 A 
ATOM     69  F   UNL A   1      44.439  33.468  29.381  1.00  0.00    -0.206 F 
ATOM     70  C   UNL A   1      44.186  35.174  32.566  1.00  0.00     0.006 A 
ENDBRANCH  49  63
BRANCH  50  71
ATOM     71  C   UNL A   1      42.607  23.575  27.439  1.00  0.00     0.057 A 
ATOM     72  C   UNL A   1      42.737  23.420  26.054  1.00  0.00     0.134 A 
ATOM     73  C   UNL A   1      42.306  22.435  28.192  1.00  0.00     0.134 A 
ATOM     74  F   UNL A   1      43.004  24.481  25.279  1.00  0.00    -0.206 F 
ATOM     75  C   UNL A   1      42.561  22.181  25.438  1.00  0.00     0.040 A 
ATOM     76  C   UNL A   1      42.148  21.184  27.592  1.00  0.00     0.040 A 
ATOM     77  F   UNL A   1      42.172  22.518  29.524  1.00  0.00    -0.206 F 
ATOM     78  C   UNL A   1      42.270  21.057  26.210  1.00  0.00     0.006 A 
ENDBRANCH  50  71
BRANCH  62  79
ATOM     79  C   UNL A   1      48.063  26.859  30.229  1.00  0.00     0.057 A 
ATOM     80  C   UNL A   1      49.055  27.229  29.312  1.00  0.00     0.134 A 
ATOM     81  C   UNL A   1      48.459  26.123  31.353  1.00  0.00     0.134 A 
ATOM     82  F   UNL A   1      48.737  27.921  28.208  1.00  0.00    -0.206 F 
ATOM     83  C   UNL A   1      50.390  26.866  29.499  1.00  0.00     0.040 A 
ATOM     84  C   UNL A   1      49.794  25.773  31.560  1.00  0.00     0.040 A 
ATOM     85  F   UNL A   1      47.558  25.742  32.269  1.00  0.00    -0.206 F 
ATOM     86  C   UNL A   1      50.763  26.140  30.629  1.00  0.00     0.006 A 
ENDBRANCH  62  79
ENDBRANCH  36  37
ENDBRANCH  28  31
ENDBRANCH  26  27
ENDBRANCH  25  26
ENDBRANCH   1  25
TORSDOF 13
ENDMDL
MODEL 3
REMARK VINA RESULT:     -12.8      0.959      1.765
REMARK SMILES O=C(CC1(CN2CC3(CCCCC3)CC2=O)CCCCC1)NCCCNC(=O)c1ccc(-c2c3nc(c(-c4c(F)cccc4F)c4ccc([nH]4)c(-c4c(F)cccc4F)c4nc(c(-c5c(F)cccc5F)c5ccc2[nH]5)C=C4)C=C3)cc1
REMARK SMILES IDX 23 1 22 2 1 3 2 4 3 6 4 7 17 8 21 9 18 10 20 11 19 12 5 13
REMARK SMILES IDX 6 14 7 15 15 16 8 17 14 18 16 19 9 20 13 21 10 22 12 23
REMARK SMILES IDX 11 24 24 25 25 26 26 27 27 28 28 30 29 31 30 32 82 33 31 34
REMARK SMILES IDX 81 35 32 36 33 37 34 38 75 39 35 40 80 41 74 42 76 43 36 44
REMARK SMILES IDX 79 45 73 46 72 47 37 49 63 50 46 51 62 52 47 53 50 54 61 55
REMARK SMILES IDX 77 56 48 57 49 58 60 60 78 61 51 62 38 63 39 64 44 65 40 66
REMARK SMILES IDX 41 67 43 68 45 69 42 70 64 71 65 72 70 73 66 74 67 75 69 76
REMARK SMILES IDX 71 77 68 78 52 79 53 80 58 81 54 82 55 83 57 84 59 85 56 86
REMARK H PARENT 22 5 26 29 76 48 50 59
REMARK Flexibility Score: inf
ROOT
ATOM      1  C   UNL A   1      31.778  30.596  26.795  1.00  0.00     0.117 C 
ENDROOT
BRANCH   1   2
ATOM      2  N   UNL A   1      32.200  30.187  25.471  1.00  0.00    -0.356 N 
ATOM      3  O   UNL A   1      34.067  29.038  26.160  1.00  0.00    -0.275 OA
ATOM      4  C   UNL A   1      33.279  29.356  25.277  1.00  0.00     0.220 C 
ATOM      5  H   UNL A   1      31.700  30.513  24.688  1.00  0.00     0.163 HD
BRANCH   4   6
ATOM      6  C   UNL A   1      33.355  28.779  23.877  1.00  0.00     0.108 C 
BRANCH   6   7
ATOM      7  C   UNL A   1      32.649  27.389  23.707  1.00  0.00    -0.003 C 
ATOM      8  C   UNL A   1      32.746  26.994  22.189  1.00  0.00     0.009 C 
ATOM      9  C   UNL A   1      33.388  26.246  24.472  1.00  0.00     0.009 C 
ATOM     10  C   UNL A   1      32.249  25.578  21.869  1.00  0.00     0.001 C 
ATOM     11  C   UNL A   1      32.945  24.820  24.153  1.00  0.00     0.001 C 
ATOM     12  C   UNL A   1      33.009  24.526  22.666  1.00  0.00     0.000 C 
BRANCH   7  13
ATOM     13  C   UNL A   1      31.122  27.569  24.007  1.00  0.00     0.127 C 
BRANCH  13  14
ATOM     14  N   UNL A   1      30.111  27.717  22.953  1.00  0.00    -0.342 N 
ATOM     15  C   UNL A   1      30.081  28.791  21.998  1.00  0.00     0.127 C 
ATOM     16  C   UNL A   1      28.766  27.476  23.346  1.00  0.00     0.223 C 
ATOM     17  C   UNL A   1      28.922  29.690  22.455  1.00  0.00    -0.003 C 
ATOM     18  C   UNL A   1      27.891  28.578  22.751  1.00  0.00     0.109 C 
ATOM     19  O   UNL A   1      28.378  26.609  24.112  1.00  0.00    -0.275 OA
ATOM     20  C   UNL A   1      29.348  30.405  23.769  1.00  0.00     0.009 C 
ATOM     21  C   UNL A   1      28.544  30.629  21.290  1.00  0.00     0.009 C 
ATOM     22  C   UNL A   1      28.839  31.810  24.007  1.00  0.00     0.001 C 
ATOM     23  C   UNL A   1      28.117  32.045  21.668  1.00  0.00     0.001 C 
ATOM     24  C   UNL A   1      28.999  32.640  22.752  1.00  0.00     0.000 C 
ENDBRANCH  13  14
ENDBRANCH   7  13
ENDBRANCH   6   7
ENDBRANCH   4   6
ENDBRANCH   1   2
BRANCH   1  25
ATOM     25  C   UNL A   1      31.403  32.067  26.875  1.00  0.00     0.042 C 
BRANCH  25  26
ATOM     26  C   UNL A   1      32.578  33.033  26.777  1.00  0.00     0.118 C 
BRANCH  26  27
ATOM     27  N   UNL A   1      32.440  34.209  27.626  1.00  0.00    -0.352 N 
ATOM     28  C   UNL A   1      33.187  34.596  28.714  1.00  0.00     0.251 C 
ATOM     29  H   UNL A   1      31.703  34.817  27.384  1.00  0.00     0.163 HD
ATOM     30  O   UNL A   1      32.854  35.582  29.365  1.00  0.00    -0.269 OA
BRANCH  28  31
ATOM     31  C   UNL A   1      34.367  33.803  29.125  1.00  0.00     0.039 A 
ATOM     32  C   UNL A   1      35.641  34.272  28.793  1.00  0.00     0.014 A 
ATOM     33  C   UNL A   1      34.223  32.621  29.855  1.00  0.00     0.014 A 
ATOM     34  C   UNL A   1      36.772  33.606  29.272  1.00  0.00     0.010 A 
ATOM     35  C   UNL A   1      35.349  31.994  30.384  1.00  0.00     0.010 A 
ATOM     36  C   UNL A   1      36.633  32.490  30.113  1.00  0.00    -0.014 A 
BRANCH  36  37
ATOM     37  C   UNL A   1      37.812  31.856  30.759  1.00  0.00     0.031 A 
ATOM     38  C   UNL A   1      38.578  30.773  30.054  1.00  0.00     0.074 A 
ATOM     39  C   UNL A   1      38.138  32.193  32.022  1.00  0.00     0.049 A 
ATOM     40  N   UNL A   1      39.557  30.029  30.501  1.00  0.00    -0.248 NA
ATOM     41  C   UNL A   1      38.174  30.472  28.673  1.00  0.00     0.031 C 
ATOM     42  C   UNL A   1      37.451  33.198  32.835  1.00  0.00     0.029 A 
ATOM     43  N   UNL A   1      39.121  31.712  32.852  1.00  0.00    -0.354 N 
ATOM     44  C   UNL A   1      39.877  29.162  29.464  1.00  0.00     0.074 A 
ATOM     45  C   UNL A   1      38.962  29.447  28.379  1.00  0.00     0.031 C 
ATOM     46  C   UNL A   1      38.039  33.267  34.041  1.00  0.00     0.029 A 
ATOM     47  C   UNL A   1      39.116  32.284  34.101  1.00  0.00     0.049 A 
ATOM     48  H   UNL A   1      39.767  31.021  32.578  1.00  0.00     0.167 HD
ATOM     49  C   UNL A   1      40.855  28.226  29.413  1.00  0.00     0.037 A 
ATOM     50  C   UNL A   1      39.881  32.034  35.181  1.00  0.00     0.037 A 
ATOM     51  C   UNL A   1      41.782  27.958  30.482  1.00  0.00     0.049 A 
ATOM     52  C   UNL A   1      40.947  30.979  35.106  1.00  0.00     0.074 A 
ATOM     53  C   UNL A   1      42.850  27.077  30.495  1.00  0.00     0.029 A 
ATOM     54  N   UNL A   1      41.750  28.564  31.729  1.00  0.00    -0.354 N 
ATOM     55  N   UNL A   1      41.276  30.209  34.097  1.00  0.00    -0.248 NA
ATOM     56  C   UNL A   1      41.746  30.755  36.320  1.00  0.00     0.031 C 
ATOM     57  C   UNL A   1      43.440  27.121  31.763  1.00  0.00     0.029 A 
ATOM     58  C   UNL A   1      42.763  28.059  32.527  1.00  0.00     0.049 A 
ATOM     59  H   UNL A   1      41.102  29.252  32.005  1.00  0.00     0.167 HD
ATOM     60  C   UNL A   1      42.330  29.424  34.547  1.00  0.00     0.074 A 
ATOM     61  C   UNL A   1      42.595  29.821  35.915  1.00  0.00     0.031 C 
ATOM     62  C   UNL A   1      43.014  28.459  33.887  1.00  0.00     0.037 A 
BRANCH  49  63
ATOM     63  C   UNL A   1      40.976  27.421  28.155  1.00  0.00     0.057 A 
ATOM     64  C   UNL A   1      40.285  26.215  27.983  1.00  0.00     0.134 A 
ATOM     65  C   UNL A   1      41.761  27.876  27.087  1.00  0.00     0.134 A 
ATOM     66  F   UNL A   1      39.527  25.720  28.973  1.00  0.00    -0.206 F 
ATOM     67  C   UNL A   1      40.387  25.477  26.802  1.00  0.00     0.040 A 
ATOM     68  C   UNL A   1      41.851  27.158  25.893  1.00  0.00     0.040 A 
ATOM     69  F   UNL A   1      42.443  29.025  27.184  1.00  0.00    -0.206 F 
ATOM     70  C   UNL A   1      41.167  25.953  25.751  1.00  0.00     0.006 A 
ENDBRANCH  49  63
BRANCH  50  71
ATOM     71  C   UNL A   1      39.672  32.805  36.431  1.00  0.00     0.057 A 
ATOM     72  C   UNL A   1      40.442  33.937  36.716  1.00  0.00     0.134 A 
ATOM     73  C   UNL A   1      38.706  32.425  37.370  1.00  0.00     0.134 A 
ATOM     74  F   UNL A   1      41.397  34.335  35.863  1.00  0.00    -0.206 F 
ATOM     75  C   UNL A   1      40.270  34.659  37.898  1.00  0.00     0.040 A 
ATOM     76  C   UNL A   1      38.508  33.151  38.547  1.00  0.00     0.040 A 
ATOM     77  F   UNL A   1      37.933  31.352  37.152  1.00  0.00    -0.206 F 
ATOM     78  C   UNL A   1      39.297  34.267  38.815  1.00  0.00     0.006 A 
ENDBRANCH  50  71
BRANCH  62  79
ATOM     79  C   UNL A   1      44.127  27.780  34.628  1.00  0.00     0.057 A 
ATOM     80  C   UNL A   1      43.921  26.587  35.331  1.00  0.00     0.134 A 
ATOM     81  C   UNL A   1      45.424  28.309  34.613  1.00  0.00     0.134 A 
ATOM     82  F   UNL A   1      42.698  26.039  35.396  1.00  0.00    -0.206 F 
ATOM     83  C   UNL A   1      44.963  25.952  36.009  1.00  0.00     0.040 A 
ATOM     84  C   UNL A   1      46.477  27.672  35.269  1.00  0.00     0.040 A 
ATOM     85  F   UNL A   1      45.687  29.447  33.954  1.00  0.00    -0.206 F 
ATOM     86  C   UNL A   1      46.248  26.493  35.974  1.00  0.00     0.006 A 
ENDBRANCH  62  79
ENDBRANCH  36  37
ENDBRANCH  28  31
ENDBRANCH  26  27
ENDBRANCH  25  26
ENDBRANCH   1  25
TORSDOF 13
ENDMDL
