MODEL 1
REMARK VINA RESULT:     -12.8      0.000      0.000
REMARK SMILES O=C(COc1ccc(Br)cc1/C=C1\C(=O)Nc2ccc(Br)cc21)NCCCNC(=O)c1ccc(-c2c3nc(c(-c4c(F)cccc4F)c4ccc([nH]4)c(-c4c(F)cccc4F)c4nc(c(-c5c(F)cccc5F)c5ccc2[nH]5)C=C4)C=C3)cc1
REMARK SMILES IDX 25 1 24 2 1 3 2 4 3 6 4 7 5 8 6 9 11 10 7 11 10 12 8 13 9 14
REMARK SMILES IDX 12 15 13 16 14 17 23 18 15 19 16 20 17 21 22 22 18 24 20 25
REMARK SMILES IDX 19 26 21 27 26 28 27 29 28 30 29 31 30 33 31 34 32 35 84 36
REMARK SMILES IDX 33 37 83 38 34 39 35 40 36 41 77 42 37 43 82 44 76 45 78 46
REMARK SMILES IDX 38 47 81 48 75 49 74 50 39 52 65 53 48 54 64 55 49 56 52 57
REMARK SMILES IDX 63 58 79 59 50 60 51 61 62 63 80 64 53 65 40 66 41 67 46 68
REMARK SMILES IDX 42 69 43 70 45 71 47 72 44 73 66 74 67 75 72 76 68 77 69 78
REMARK SMILES IDX 71 79 73 80 70 81 54 82 55 83 60 84 56 85 57 86 59 87 61 88
REMARK SMILES IDX 58 89
REMARK H PARENT 24 5 16 23 28 32 78 51 52 62
REMARK Flexibility Score: inf
ROOT
ATOM      1  C   UNL A   1      37.025  21.529  24.867  1.00  0.00     0.117 C 
ENDROOT
BRANCH   1   2
ATOM      2  N   UNL A   1      36.297  21.951  26.058  1.00  0.00    -0.353 N 
ATOM      3  O   UNL A   1      35.428  23.862  25.131  1.00  0.00    -0.271 OA
ATOM      4  C   UNL A   1      35.389  22.996  26.002  1.00  0.00     0.257 C 
ATOM      5  H   UNL A   1      36.454  21.488  26.912  1.00  0.00     0.163 HD
BRANCH   4   6
ATOM      6  C   UNL A   1      34.265  22.958  27.074  1.00  0.00     0.329 C 
BRANCH   6   7
ATOM      7  O   UNL A   1      32.921  22.567  26.746  1.00  0.00    -0.483 OA
BRANCH   7   8
ATOM      8  C   UNL A   1      32.806  21.617  25.752  1.00  0.00     0.127 A 
ATOM      9  C   UNL A   1      33.283  20.313  26.005  1.00  0.00     0.048 A 
ATOM     10  C   UNL A   1      32.126  21.887  24.535  1.00  0.00     0.018 A 
ATOM     11  C   UNL A   1      33.225  19.292  25.068  1.00  0.00     0.019 A 
ATOM     12  C   UNL A   1      32.050  20.804  23.636  1.00  0.00     0.027 A 
ATOM     13  C   UNL A   1      32.616  19.551  23.868  1.00  0.00     0.018 A 
ATOM     14  Br  UNL A   1      32.525  18.205  22.546  1.00  0.00    -0.051 Br
BRANCH  10  15
ATOM     15  C   UNL A   1      31.543  23.233  24.170  1.00  0.00     0.026 C 
ATOM     16  C   UNL A   1      31.998  24.168  23.293  1.00  0.00     0.050 C 
ATOM     17  C   UNL A   1      33.272  24.115  22.482  1.00  0.00     0.256 C 
ATOM     18  C   UNL A   1      31.705  25.618  23.353  1.00  0.00     0.012 A 
ATOM     19  O   UNL A   1      33.592  23.345  21.602  1.00  0.00    -0.269 OA
ATOM     20  N   UNL A   1      33.905  25.309  22.766  1.00  0.00    -0.321 N 
ATOM     21  C   UNL A   1      32.966  26.231  23.215  1.00  0.00     0.049 A 
ATOM     22  C   UNL A   1      30.572  26.407  23.291  1.00  0.00     0.026 A 
ATOM     23  H   UNL A   1      34.868  25.481  22.667  1.00  0.00     0.170 HD
ATOM     24  C   UNL A   1      33.173  27.592  23.244  1.00  0.00     0.028 A 
ATOM     25  C   UNL A   1      30.758  27.800  23.196  1.00  0.00     0.018 A 
ATOM     26  C   UNL A   1      32.038  28.391  23.238  1.00  0.00     0.018 A 
ATOM     27  Br  UNL A   1      29.269  28.928  22.872  1.00  0.00    -0.051 Br
ENDBRANCH  10  15
ENDBRANCH   7   8
ENDBRANCH   6   7
ENDBRANCH   4   6
ENDBRANCH   1   2
BRANCH   1  28
ATOM     28  C   UNL A   1      37.851  20.265  25.019  1.00  0.00     0.042 C 
BRANCH  28  29
ATOM     29  C   UNL A   1      39.093  20.415  25.882  1.00  0.00     0.118 C 
BRANCH  29  30
ATOM     30  N   UNL A   1      40.029  19.298  25.807  1.00  0.00    -0.352 N 
ATOM     31  C   UNL A   1      41.383  19.271  26.069  1.00  0.00     0.251 C 
ATOM     32  H   UNL A   1      39.636  18.438  25.530  1.00  0.00     0.163 HD
ATOM     33  O   UNL A   1      42.018  18.234  25.897  1.00  0.00    -0.269 OA
BRANCH  31  34
ATOM     34  C   UNL A   1      42.084  20.503  26.500  1.00  0.00     0.039 A 
ATOM     35  C   UNL A   1      42.164  20.849  27.848  1.00  0.00     0.014 A 
ATOM     36  C   UNL A   1      42.628  21.353  25.531  1.00  0.00     0.014 A 
ATOM     37  C   UNL A   1      42.573  22.128  28.207  1.00  0.00     0.010 A 
ATOM     38  C   UNL A   1      43.143  22.601  25.908  1.00  0.00     0.010 A 
ATOM     39  C   UNL A   1      43.056  23.027  27.241  1.00  0.00    -0.014 A 
BRANCH  39  40
ATOM     40  C   UNL A   1      43.429  24.406  27.660  1.00  0.00     0.031 A 
ATOM     41  C   UNL A   1      44.862  24.872  27.607  1.00  0.00     0.074 A 
ATOM     42  C   UNL A   1      42.458  25.274  28.009  1.00  0.00     0.049 A 
ATOM     43  N   UNL A   1      45.356  26.057  27.872  1.00  0.00    -0.248 NA
ATOM     44  C   UNL A   1      45.875  23.880  27.211  1.00  0.00     0.031 C 
ATOM     45  C   UNL A   1      41.031  24.955  28.093  1.00  0.00     0.029 A 
ATOM     46  N   UNL A   1      42.518  26.608  28.323  1.00  0.00    -0.354 N 
ATOM     47  C   UNL A   1      46.730  25.950  27.688  1.00  0.00     0.074 A 
ATOM     48  C   UNL A   1      46.997  24.575  27.327  1.00  0.00     0.031 C 
ATOM     49  C   UNL A   1      40.347  26.073  28.373  1.00  0.00     0.029 A 
ATOM     50  C   UNL A   1      41.287  27.172  28.553  1.00  0.00     0.049 A 
ATOM     51  H   UNL A   1      43.361  27.113  28.377  1.00  0.00     0.167 HD
ATOM     52  C   UNL A   1      47.682  26.911  27.792  1.00  0.00     0.037 A 
ATOM     53  C   UNL A   1      40.951  28.431  28.888  1.00  0.00     0.037 A 
ATOM     54  C   UNL A   1      47.418  28.284  28.137  1.00  0.00     0.049 A 
ATOM     55  C   UNL A   1      42.031  29.461  29.052  1.00  0.00     0.074 A 
ATOM     56  C   UNL A   1      48.313  29.335  28.247  1.00  0.00     0.029 A 
ATOM     57  N   UNL A   1      46.165  28.798  28.433  1.00  0.00    -0.354 N 
ATOM     58  N   UNL A   1      43.322  29.346  28.854  1.00  0.00    -0.248 NA
ATOM     59  C   UNL A   1      41.607  30.794  29.499  1.00  0.00     0.031 C 
ATOM     60  C   UNL A   1      47.608  30.473  28.656  1.00  0.00     0.029 A 
ATOM     61  C   UNL A   1      46.266  30.143  28.752  1.00  0.00     0.049 A 
ATOM     62  H   UNL A   1      45.326  28.283  28.419  1.00  0.00     0.167 HD
ATOM     63  C   UNL A   1      43.861  30.594  29.137  1.00  0.00     0.074 A 
ATOM     64  C   UNL A   1      42.753  31.457  29.493  1.00  0.00     0.031 C 
ATOM     65  C   UNL A   1      45.158  30.989  29.112  1.00  0.00     0.037 A 
BRANCH  52  66
ATOM     66  C   UNL A   1      49.106  26.501  27.546  1.00  0.00     0.057 A 
ATOM     67  C   UNL A   1      49.636  26.504  26.248  1.00  0.00     0.134 A 
ATOM     68  C   UNL A   1      49.948  26.078  28.583  1.00  0.00     0.134 A 
ATOM     69  F   UNL A   1      48.884  26.888  25.206  1.00  0.00    -0.206 F 
ATOM     70  C   UNL A   1      50.949  26.105  25.992  1.00  0.00     0.040 A 
ATOM     71  C   UNL A   1      51.271  25.701  28.344  1.00  0.00     0.040 A 
ATOM     72  F   UNL A   1      49.509  26.061  29.850  1.00  0.00    -0.206 F 
ATOM     73  C   UNL A   1      51.774  25.709  27.044  1.00  0.00     0.006 A 
ENDBRANCH  52  66
BRANCH  53  74
ATOM     74  C   UNL A   1      39.527  28.790  29.106  1.00  0.00     0.057 A 
ATOM     75  C   UNL A   1      38.727  29.264  28.058  1.00  0.00     0.134 A 
ATOM     76  C   UNL A   1      38.925  28.641  30.359  1.00  0.00     0.134 A 
ATOM     77  F   UNL A   1      39.246  29.433  26.832  1.00  0.00    -0.206 F 
ATOM     78  C   UNL A   1      37.384  29.586  28.251  1.00  0.00     0.040 A 
ATOM     79  C   UNL A   1      37.574  28.930  30.561  1.00  0.00     0.040 A 
ATOM     80  F   UNL A   1      39.634  28.172  31.398  1.00  0.00    -0.206 F 
ATOM     81  C   UNL A   1      36.801  29.408  29.504  1.00  0.00     0.006 A 
ENDBRANCH  53  74
BRANCH  65  82
ATOM     82  C   UNL A   1      45.435  32.423  29.460  1.00  0.00     0.057 A 
ATOM     83  C   UNL A   1      45.403  33.417  28.475  1.00  0.00     0.134 A 
ATOM     84  C   UNL A   1      45.735  32.819  30.770  1.00  0.00     0.134 A 
ATOM     85  F   UNL A   1      45.129  33.105  27.199  1.00  0.00    -0.206 F 
ATOM     86  C   UNL A   1      45.653  34.755  28.780  1.00  0.00     0.040 A 
ATOM     87  C   UNL A   1      45.958  34.158  31.093  1.00  0.00     0.040 A 
ATOM     88  F   UNL A   1      45.764  31.918  31.763  1.00  0.00    -0.206 F 
ATOM     89  C   UNL A   1      45.923  35.130  30.095  1.00  0.00     0.006 A 
ENDBRANCH  65  82
ENDBRANCH  39  40
ENDBRANCH  31  34
ENDBRANCH  29  30
ENDBRANCH  28  29
ENDBRANCH   1  28
TORSDOF 13
ENDMDL
MODEL 2
REMARK VINA RESULT:     -12.8      5.044     10.141
REMARK SMILES O=C(COc1ccc(Br)cc1/C=C1\C(=O)Nc2ccc(Br)cc21)NCCCNC(=O)c1ccc(-c2c3nc(c(-c4c(F)cccc4F)c4ccc([nH]4)c(-c4c(F)cccc4F)c4nc(c(-c5c(F)cccc5F)c5ccc2[nH]5)C=C4)C=C3)cc1
REMARK SMILES IDX 25 1 24 2 1 3 2 4 3 6 4 7 5 8 6 9 11 10 7 11 10 12 8 13 9 14
REMARK SMILES IDX 12 15 13 16 14 17 23 18 15 19 16 20 17 21 22 22 18 24 20 25
REMARK SMILES IDX 19 26 21 27 26 28 27 29 28 30 29 31 30 33 31 34 32 35 84 36
REMARK SMILES IDX 33 37 83 38 34 39 35 40 36 41 77 42 37 43 82 44 76 45 78 46
REMARK SMILES IDX 38 47 81 48 75 49 74 50 39 52 65 53 48 54 64 55 49 56 52 57
REMARK SMILES IDX 63 58 79 59 50 60 51 61 62 63 80 64 53 65 40 66 41 67 46 68
REMARK SMILES IDX 42 69 43 70 45 71 47 72 44 73 66 74 67 75 72 76 68 77 69 78
REMARK SMILES IDX 71 79 73 80 70 81 54 82 55 83 60 84 56 85 57 86 59 87 61 88
REMARK SMILES IDX 58 89
REMARK H PARENT 24 5 16 23 28 32 78 51 52 62
REMARK Flexibility Score: inf
ROOT
ATOM      1  C   UNL A   1      32.224  30.065  26.796  1.00  0.00     0.117 C 
ENDROOT
BRANCH   1   2
ATOM      2  N   UNL A   1      33.188  29.732  25.753  1.00  0.00    -0.353 N 
ATOM      3  O   UNL A   1      33.265  27.486  26.218  1.00  0.00    -0.271 OA
ATOM      4  C   UNL A   1      33.463  28.412  25.435  1.00  0.00     0.257 C 
ATOM      5  H   UNL A   1      33.649  30.455  25.270  1.00  0.00     0.163 HD
BRANCH   4   6
ATOM      6  C   UNL A   1      33.969  28.168  23.986  1.00  0.00     0.329 C 
BRANCH   6   7
ATOM      7  O   UNL A   1      33.167  27.479  23.012  1.00  0.00    -0.483 OA
BRANCH   7   8
ATOM      8  C   UNL A   1      31.815  27.752  23.056  1.00  0.00     0.127 A 
ATOM      9  C   UNL A   1      31.380  29.062  22.760  1.00  0.00     0.048 A 
ATOM     10  C   UNL A   1      30.854  26.732  23.280  1.00  0.00     0.018 A 
ATOM     11  C   UNL A   1      30.046  29.439  22.789  1.00  0.00     0.019 A 
ATOM     12  C   UNL A   1      29.510  27.155  23.251  1.00  0.00     0.027 A 
ATOM     13  C   UNL A   1      29.108  28.476  23.053  1.00  0.00     0.018 A 
ATOM     14  Br  UNL A   1      27.278  28.936  23.126  1.00  0.00    -0.051 Br
BRANCH  10  15
ATOM     15  C   UNL A   1      31.200  25.289  23.571  1.00  0.00     0.026 C 
ATOM     16  C   UNL A   1      31.131  24.598  24.740  1.00  0.00     0.050 C 
ATOM     17  C   UNL A   1      30.734  25.134  26.095  1.00  0.00     0.256 C 
ATOM     18  C   UNL A   1      31.938  23.404  25.082  1.00  0.00     0.012 A 
ATOM     19  O   UNL A   1      29.668  25.578  26.464  1.00  0.00    -0.269 OA
ATOM     20  N   UNL A   1      31.774  24.765  26.925  1.00  0.00    -0.321 N 
ATOM     21  C   UNL A   1      32.450  23.687  26.363  1.00  0.00     0.049 A 
ATOM     22  C   UNL A   1      32.090  22.128  24.573  1.00  0.00     0.026 A 
ATOM     23  H   UNL A   1      32.001  25.196  27.780  1.00  0.00     0.170 HD
ATOM     24  C   UNL A   1      33.289  22.851  27.065  1.00  0.00     0.028 A 
ATOM     25  C   UNL A   1      32.845  21.213  25.333  1.00  0.00     0.018 A 
ATOM     26  C   UNL A   1      33.491  21.586  26.531  1.00  0.00     0.018 A 
ATOM     27  Br  UNL A   1      32.904  19.389  24.824  1.00  0.00    -0.051 Br
ENDBRANCH  10  15
ENDBRANCH   7   8
ENDBRANCH   6   7
ENDBRANCH   4   6
ENDBRANCH   1   2
BRANCH   1  28
ATOM     28  C   UNL A   1      31.825  31.526  26.875  1.00  0.00     0.042 C 
BRANCH  28  29
ATOM     29  C   UNL A   1      32.955  32.478  27.227  1.00  0.00     0.118 C 
BRANCH  29  30
ATOM     30  N   UNL A   1      32.528  33.815  27.626  1.00  0.00    -0.352 N 
ATOM     31  C   UNL A   1      33.066  34.660  28.574  1.00  0.00     0.251 C 
ATOM     32  H   UNL A   1      31.740  34.164  27.150  1.00  0.00     0.163 HD
ATOM     33  O   UNL A   1      32.528  35.739  28.807  1.00  0.00    -0.269 OA
BRANCH  31  34
ATOM     34  C   UNL A   1      34.258  34.246  29.352  1.00  0.00     0.039 A 
ATOM     35  C   UNL A   1      35.545  34.546  28.908  1.00  0.00     0.014 A 
ATOM     36  C   UNL A   1      34.084  33.499  30.522  1.00  0.00     0.014 A 
ATOM     37  C   UNL A   1      36.637  33.918  29.492  1.00  0.00     0.010 A 
ATOM     38  C   UNL A   1      35.197  32.957  31.176  1.00  0.00     0.010 A 
ATOM     39  C   UNL A   1      36.479  33.103  30.626  1.00  0.00    -0.014 A 
BRANCH  39  40
ATOM     40  C   UNL A   1      37.668  32.403  31.185  1.00  0.00     0.031 A 
ATOM     41  C   UNL A   1      38.154  32.693  32.584  1.00  0.00     0.074 A 
ATOM     42  C   UNL A   1      38.264  31.435  30.461  1.00  0.00     0.049 A 
ATOM     43  N   UNL A   1      39.130  32.131  33.253  1.00  0.00    -0.248 NA
ATOM     44  C   UNL A   1      37.456  33.755  33.327  1.00  0.00     0.031 C 
ATOM     45  C   UNL A   1      37.889  31.049  29.099  1.00  0.00     0.029 A 
ATOM     46  N   UNL A   1      39.286  30.576  30.779  1.00  0.00    -0.354 N 
ATOM     47  C   UNL A   1      39.173  32.776  34.483  1.00  0.00     0.074 A 
ATOM     48  C   UNL A   1      38.150  33.799  34.455  1.00  0.00     0.031 C 
ATOM     49  C   UNL A   1      38.624  29.993  28.723  1.00  0.00     0.029 A 
ATOM     50  C   UNL A   1      39.567  29.668  29.788  1.00  0.00     0.049 A 
ATOM     51  H   UNL A   1      39.771  30.608  31.635  1.00  0.00     0.167 HD
ATOM     52  C   UNL A   1      39.978  32.531  35.547  1.00  0.00     0.037 A 
ATOM     53  C   UNL A   1      40.490  28.691  29.733  1.00  0.00     0.037 A 
ATOM     54  C   UNL A   1      40.987  31.504  35.585  1.00  0.00     0.049 A 
ATOM     55  C   UNL A   1      41.405  28.479  30.904  1.00  0.00     0.074 A 
ATOM     56  C   UNL A   1      41.837  31.165  36.624  1.00  0.00     0.029 A 
ATOM     57  N   UNL A   1      41.288  30.652  34.533  1.00  0.00    -0.354 N 
ATOM     58  N   UNL A   1      41.417  29.085  32.066  1.00  0.00    -0.248 NA
ATOM     59  C   UNL A   1      42.445  27.453  30.748  1.00  0.00     0.031 C 
ATOM     60  C   UNL A   1      42.684  30.141  36.185  1.00  0.00     0.029 A 
ATOM     61  C   UNL A   1      42.327  29.807  34.888  1.00  0.00     0.049 A 
ATOM     62  H   UNL A   1      40.830  30.649  33.661  1.00  0.00     0.167 HD
ATOM     63  C   UNL A   1      42.453  28.504  32.785  1.00  0.00     0.074 A 
ATOM     64  C   UNL A   1      43.027  27.478  31.938  1.00  0.00     0.031 C 
ATOM     65  C   UNL A   1      42.895  28.797  34.034  1.00  0.00     0.037 A 
BRANCH  52  66
ATOM     66  C   UNL A   1      39.808  33.404  36.758  1.00  0.00     0.057 A 
ATOM     67  C   UNL A   1      38.885  33.068  37.758  1.00  0.00     0.134 A 
ATOM     68  C   UNL A   1      40.533  34.591  36.927  1.00  0.00     0.134 A 
ATOM     69  F   UNL A   1      38.149  31.951  37.658  1.00  0.00    -0.206 F 
ATOM     70  C   UNL A   1      38.693  33.877  38.880  1.00  0.00     0.040 A 
ATOM     71  C   UNL A   1      40.370  35.395  38.056  1.00  0.00     0.040 A 
ATOM     72  F   UNL A   1      41.441  34.967  36.013  1.00  0.00    -0.206 F 
ATOM     73  C   UNL A   1      39.443  35.041  39.035  1.00  0.00     0.006 A 
ENDBRANCH  52  66
BRANCH  53  74
ATOM     74  C   UNL A   1      40.608  27.844  28.519  1.00  0.00     0.057 A 
ATOM     75  C   UNL A   1      39.935  26.620  28.417  1.00  0.00     0.134 A 
ATOM     76  C   UNL A   1      41.374  28.252  27.422  1.00  0.00     0.134 A 
ATOM     77  F   UNL A   1      39.187  26.171  29.436  1.00  0.00    -0.206 F 
ATOM     78  C   UNL A   1      40.026  25.829  27.273  1.00  0.00     0.040 A 
ATOM     79  C   UNL A   1      41.451  27.484  26.259  1.00  0.00     0.040 A 
ATOM     80  F   UNL A   1      42.026  29.424  27.451  1.00  0.00    -0.206 F 
ATOM     81  C   UNL A   1      40.778  26.266  26.185  1.00  0.00     0.006 A 
ENDBRANCH  53  74
BRANCH  65  82
ATOM     82  C   UNL A   1      44.040  27.979  34.555  1.00  0.00     0.057 A 
ATOM     83  C   UNL A   1      45.362  28.410  34.384  1.00  0.00     0.134 A 
ATOM     84  C   UNL A   1      43.837  26.765  35.224  1.00  0.00     0.134 A 
ATOM     85  F   UNL A   1      45.628  29.559  33.746  1.00  0.00    -0.206 F 
ATOM     86  C   UNL A   1      46.440  27.666  34.866  1.00  0.00     0.040 A 
ATOM     87  C   UNL A   1      44.905  26.026  35.735  1.00  0.00     0.040 A 
ATOM     88  F   UNL A   1      42.595  26.305  35.435  1.00  0.00    -0.206 F 
ATOM     89  C   UNL A   1      46.212  26.474  35.552  1.00  0.00     0.006 A 
ENDBRANCH  65  82
ENDBRANCH  39  40
ENDBRANCH  31  34
ENDBRANCH  29  30
ENDBRANCH  28  29
ENDBRANCH   1  28
TORSDOF 13
ENDMDL
MODEL 3
REMARK VINA RESULT:     -12.8      1.640      3.647
REMARK SMILES O=C(COc1ccc(Br)cc1/C=C1\C(=O)Nc2ccc(Br)cc21)NCCCNC(=O)c1ccc(-c2c3nc(c(-c4c(F)cccc4F)c4ccc([nH]4)c(-c4c(F)cccc4F)c4nc(c(-c5c(F)cccc5F)c5ccc2[nH]5)C=C4)C=C3)cc1
REMARK SMILES IDX 25 1 24 2 1 3 2 4 3 6 4 7 5 8 6 9 11 10 7 11 10 12 8 13 9 14
REMARK SMILES IDX 12 15 13 16 14 17 23 18 15 19 16 20 17 21 22 22 18 24 20 25
REMARK SMILES IDX 19 26 21 27 26 28 27 29 28 30 29 31 30 33 31 34 32 35 84 36
REMARK SMILES IDX 33 37 83 38 34 39 35 40 36 41 77 42 37 43 82 44 76 45 78 46
REMARK SMILES IDX 38 47 81 48 75 49 74 50 39 52 65 53 48 54 64 55 49 56 52 57
REMARK SMILES IDX 63 58 79 59 50 60 51 61 62 63 80 64 53 65 40 66 41 67 46 68
REMARK SMILES IDX 42 69 43 70 45 71 47 72 44 73 66 74 67 75 72 76 68 77 69 78
REMARK SMILES IDX 71 79 73 80 70 81 54 82 55 83 60 84 56 85 57 86 59 87 61 88
REMARK SMILES IDX 58 89
REMARK H PARENT 24 5 16 23 28 32 78 51 52 62
REMARK Flexibility Score: inf
ROOT
ATOM      1  C   UNL A   1      37.027  22.071  24.044  1.00  0.00     0.117 C 
ENDROOT
BRANCH   1   2
ATOM      2  N   UNL A   1      35.876  22.818  24.538  1.00  0.00    -0.353 N 
ATOM      3  O   UNL A   1      37.044  24.050  26.081  1.00  0.00    -0.271 OA
ATOM      4  C   UNL A   1      36.042  23.900  25.387  1.00  0.00     0.257 C 
ATOM      5  H   UNL A   1      34.970  22.548  24.265  1.00  0.00     0.163 HD
BRANCH   4   6
ATOM      6  C   UNL A   1      34.904  24.958  25.347  1.00  0.00     0.329 C 
BRANCH   6   7
ATOM      7  O   UNL A   1      33.804  24.920  26.271  1.00  0.00    -0.483 OA
BRANCH   7   8
ATOM      8  C   UNL A   1      32.570  25.229  25.735  1.00  0.00     0.127 A 
ATOM      9  C   UNL A   1      32.139  26.572  25.762  1.00  0.00     0.048 A 
ATOM     10  C   UNL A   1      31.781  24.257  25.066  1.00  0.00     0.018 A 
ATOM     11  C   UNL A   1      30.912  26.982  25.261  1.00  0.00     0.019 A 
ATOM     12  C   UNL A   1      30.567  24.731  24.531  1.00  0.00     0.027 A 
ATOM     13  C   UNL A   1      30.116  26.046  24.656  1.00  0.00     0.018 A 
ATOM     14  Br  UNL A   1      28.427  26.541  23.974  1.00  0.00    -0.051 Br
BRANCH  10  15
ATOM     15  C   UNL A   1      32.157  22.797  24.944  1.00  0.00     0.026 C 
ATOM     16  C   UNL A   1      32.692  22.123  23.890  1.00  0.00     0.050 C 
ATOM     17  C   UNL A   1      32.999  22.670  22.517  1.00  0.00     0.256 C 
ATOM     18  C   UNL A   1      32.558  20.669  23.644  1.00  0.00     0.012 A 
ATOM     19  O   UNL A   1      33.798  23.522  22.189  1.00  0.00    -0.269 OA
ATOM     20  N   UNL A   1      32.362  21.801  21.654  1.00  0.00    -0.321 N 
ATOM     21  C   UNL A   1      32.162  20.583  22.294  1.00  0.00     0.049 A 
ATOM     22  C   UNL A   1      32.917  19.510  24.305  1.00  0.00     0.026 A 
ATOM     23  H   UNL A   1      32.091  22.010  20.731  1.00  0.00     0.170 HD
ATOM     24  C   UNL A   1      31.892  19.402  21.639  1.00  0.00     0.028 A 
ATOM     25  C   UNL A   1      32.765  18.294  23.612  1.00  0.00     0.018 A 
ATOM     26  C   UNL A   1      32.199  18.232  22.321  1.00  0.00     0.018 A 
ATOM     27  Br  UNL A   1      33.450  16.692  24.358  1.00  0.00    -0.051 Br
ENDBRANCH  10  15
ENDBRANCH   7   8
ENDBRANCH   6   7
ENDBRANCH   4   6
ENDBRANCH   1   2
BRANCH   1  28
ATOM     28  C   UNL A   1      37.334  20.780  24.778  1.00  0.00     0.042 C 
BRANCH  28  29
ATOM     29  C   UNL A   1      38.512  20.854  25.735  1.00  0.00     0.118 C 
BRANCH  29  30
ATOM     30  N   UNL A   1      39.487  19.777  25.591  1.00  0.00    -0.352 N 
ATOM     31  C   UNL A   1      40.822  19.752  25.937  1.00  0.00     0.251 C 
ATOM     32  H   UNL A   1      39.141  18.948  25.187  1.00  0.00     0.163 HD
ATOM     33  O   UNL A   1      41.499  18.760  25.686  1.00  0.00    -0.269 OA
BRANCH  31  34
ATOM     34  C   UNL A   1      41.453  20.940  26.558  1.00  0.00     0.039 A 
ATOM     35  C   UNL A   1      41.437  21.121  27.940  1.00  0.00     0.014 A 
ATOM     36  C   UNL A   1      42.028  21.916  25.737  1.00  0.00     0.014 A 
ATOM     37  C   UNL A   1      41.780  22.357  28.476  1.00  0.00     0.010 A 
ATOM     38  C   UNL A   1      42.477  23.120  26.293  1.00  0.00     0.010 A 
ATOM     39  C   UNL A   1      42.292  23.379  27.659  1.00  0.00    -0.014 A 
BRANCH  39  40
ATOM     40  C   UNL A   1      42.593  24.706  28.264  1.00  0.00     0.031 A 
ATOM     41  C   UNL A   1      44.008  25.100  28.607  1.00  0.00     0.074 A 
ATOM     42  C   UNL A   1      41.595  25.597  28.426  1.00  0.00     0.049 A 
ATOM     43  N   UNL A   1      44.458  26.237  29.078  1.00  0.00    -0.248 NA
ATOM     44  C   UNL A   1      45.054  24.086  28.399  1.00  0.00     0.031 C 
ATOM     45  C   UNL A   1      40.183  25.346  28.127  1.00  0.00     0.029 A 
ATOM     46  N   UNL A   1      41.617  26.902  28.849  1.00  0.00    -0.354 N 
ATOM     47  C   UNL A   1      45.829  26.073  29.234  1.00  0.00     0.074 A 
ATOM     48  C   UNL A   1      46.133  24.713  28.845  1.00  0.00     0.031 C 
ATOM     49  C   UNL A   1      39.487  26.477  28.314  1.00  0.00     0.029 A 
ATOM     50  C   UNL A   1      40.387  27.512  28.808  1.00  0.00     0.049 A 
ATOM     51  H   UNL A   1      42.436  27.358  29.150  1.00  0.00     0.167 HD
ATOM     52  C   UNL A   1      46.755  26.974  29.647  1.00  0.00     0.037 A 
ATOM     53  C   UNL A   1      40.019  28.761  29.146  1.00  0.00     0.037 A 
ATOM     54  C   UNL A   1      46.458  28.332  30.021  1.00  0.00     0.049 A 
ATOM     55  C   UNL A   1      41.056  29.720  29.654  1.00  0.00     0.074 A 
ATOM     56  C   UNL A   1      47.330  29.326  30.432  1.00  0.00     0.029 A 
ATOM     57  N   UNL A   1      45.188  28.890  30.035  1.00  0.00    -0.354 N 
ATOM     58  N   UNL A   1      42.351  29.553  29.776  1.00  0.00    -0.248 NA
ATOM     59  C   UNL A   1      40.576  31.041  30.084  1.00  0.00     0.031 C 
ATOM     60  C   UNL A   1      46.583  30.469  30.740  1.00  0.00     0.029 A 
ATOM     61  C   UNL A   1      45.250  30.203  30.473  1.00  0.00     0.049 A 
ATOM     62  H   UNL A   1      44.363  28.420  29.772  1.00  0.00     0.167 HD
ATOM     63  C   UNL A   1      42.841  30.750  30.280  1.00  0.00     0.074 A 
ATOM     64  C   UNL A   1      41.708  31.643  30.416  1.00  0.00     0.031 C 
ATOM     65  C   UNL A   1      44.115  31.079  30.610  1.00  0.00     0.037 A 
BRANCH  52  66
ATOM     66  C   UNL A   1      48.181  26.509  29.732  1.00  0.00     0.057 A 
ATOM     67  C   UNL A   1      49.055  26.682  28.649  1.00  0.00     0.134 A 
ATOM     68  C   UNL A   1      48.687  25.867  30.870  1.00  0.00     0.134 A 
ATOM     69  F   UNL A   1      48.635  27.279  27.525  1.00  0.00    -0.206 F 
ATOM     70  C   UNL A   1      50.377  26.236  28.697  1.00  0.00     0.040 A 
ATOM     71  C   UNL A   1      50.015  25.441  30.941  1.00  0.00     0.040 A 
ATOM     72  F   UNL A   1      47.909  25.680  31.946  1.00  0.00    -0.206 F 
ATOM     73  C   UNL A   1      50.863  25.620  29.849  1.00  0.00     0.006 A 
ENDBRANCH  52  66
BRANCH  53  74
ATOM     74  C   UNL A   1      38.599  29.177  29.029  1.00  0.00     0.057 A 
ATOM     75  C   UNL A   1      37.739  29.151  30.135  1.00  0.00     0.134 A 
ATOM     76  C   UNL A   1      38.075  29.638  27.817  1.00  0.00     0.134 A 
ATOM     77  F   UNL A   1      38.180  28.715  31.325  1.00  0.00    -0.206 F 
ATOM     78  C   UNL A   1      36.409  29.557  30.037  1.00  0.00     0.040 A 
ATOM     79  C   UNL A   1      36.754  30.077  27.711  1.00  0.00     0.040 A 
ATOM     80  F   UNL A   1      38.854  29.708  26.727  1.00  0.00    -0.206 F 
ATOM     81  C   UNL A   1      35.916  30.033  28.825  1.00  0.00     0.006 A 
ENDBRANCH  53  74
BRANCH  65  82
ATOM     82  C   UNL A   1      44.342  32.469  31.127  1.00  0.00     0.057 A 
ATOM     83  C   UNL A   1      44.597  33.527  30.246  1.00  0.00     0.134 A 
ATOM     84  C   UNL A   1      44.309  32.762  32.497  1.00  0.00     0.134 A 
ATOM     85  F   UNL A   1      44.649  33.315  28.922  1.00  0.00    -0.206 F 
ATOM     86  C   UNL A   1      44.806  34.827  30.708  1.00  0.00     0.040 A 
ATOM     87  C   UNL A   1      44.488  34.063  32.969  1.00  0.00     0.040 A 
ATOM     88  F   UNL A   1      44.053  31.797  33.393  1.00  0.00    -0.206 F 
ATOM     89  C   UNL A   1      44.742  35.099  32.073  1.00  0.00     0.006 A 
ENDBRANCH  65  82
ENDBRANCH  39  40
ENDBRANCH  31  34
ENDBRANCH  29  30
ENDBRANCH  28  29
ENDBRANCH   1  28
TORSDOF 13
ENDMDL
