MODEL 1
REMARK VINA RESULT:     -13.4      0.000      0.000
REMARK SMILES CC1=C[C@H](C)[C@H](CN2C[C@]34C=C[C@@H](O3)[C@H](C(=O)NCCCNC(=O)c3ccc(-c5c6nc(c(-c7c(F)cccc7F)c7ccc([nH]7)c(-c7c(F)cccc7F)c7nc(c(-c8c(F)cccc8F)c8ccc5[nH]8)C=C7)C=C6)cc3)[C@@H]4C2=O)[C@H](C)C1
REMARK SMILES IDX 20 1 19 2 18 3 16 4 17 5 15 7 8 8 9 9 80 10 10 11 79 12
REMARK SMILES IDX 81 13 11 14 14 15 12 16 13 17 7 18 6 19 1 20 2 21 3 22 84 23
REMARK SMILES IDX 4 24 82 25 5 26 83 27 21 28 22 29 23 30 24 32 25 33 26 34
REMARK SMILES IDX 78 35 27 36 77 37 28 38 29 39 30 40 71 41 31 42 76 43 70 44
REMARK SMILES IDX 72 45 32 46 75 47 69 48 68 49 33 51 59 52 42 53 58 54 43 55
REMARK SMILES IDX 46 56 57 57 73 58 44 59 45 60 56 62 74 63 47 64 34 65 35 66
REMARK SMILES IDX 40 67 36 68 37 69 39 70 41 71 38 72 60 73 61 74 66 75 62 76
REMARK SMILES IDX 63 77 65 78 67 79 64 80 48 81 49 82 54 83 50 84 51 85 53 86
REMARK SMILES IDX 55 87 52 88
REMARK H PARENT 18 6 22 31 72 50 46 61
REMARK Flexibility Score: inf
ROOT
ATOM      1  C   UNL A   1      39.272  22.161  26.427  1.00  0.00     0.042 C 
ENDROOT
BRANCH   1   2
ATOM      2  C   UNL A   1      38.117  22.872  25.742  1.00  0.00     0.117 C 
BRANCH   2   3
ATOM      3  N   UNL A   1      36.864  22.846  26.483  1.00  0.00    -0.356 N 
ATOM      4  C   UNL A   1      35.649  23.353  26.084  1.00  0.00     0.227 C 
ATOM      5  O   UNL A   1      34.684  23.232  26.834  1.00  0.00    -0.275 OA
ATOM      6  H   UNL A   1      36.890  22.418  27.369  1.00  0.00     0.163 HD
BRANCH   4   7
ATOM      7  C   UNL A   1      35.576  24.087  24.760  1.00  0.00     0.127 C 
ATOM      8  N   UNL A   1      32.450  25.525  25.561  1.00  0.00    -0.339 N 
ATOM      9  C   UNL A   1      32.385  24.235  24.957  1.00  0.00     0.160 C 
ATOM     10  C   UNL A   1      33.753  25.950  25.542  1.00  0.00     0.230 C 
ATOM     11  C   UNL A   1      33.293  24.221  23.692  1.00  0.00     0.117 C 
ATOM     12  C   UNL A   1      34.431  25.070  24.527  1.00  0.00     0.132 C 
ATOM     13  O   UNL A   1      34.220  26.959  26.041  1.00  0.00    -0.274 OA
ATOM     14  C   UNL A   1      33.154  22.660  23.696  1.00  0.00     0.009 C 
ATOM     15  O   UNL A   1      34.398  24.017  22.791  1.00  0.00    -0.360 OA
ATOM     16  C   UNL A   1      34.350  22.074  23.754  1.00  0.00     0.004 C 
ATOM     17  C   UNL A   1      35.307  23.181  23.561  1.00  0.00     0.155 C 
BRANCH   8  18
ATOM     18  C   UNL A   1      31.277  26.379  25.643  1.00  0.00     0.124 C 
BRANCH  18  19
ATOM     19  C   UNL A   1      31.173  27.374  24.460  1.00  0.00     0.018 C 
ATOM     20  C   UNL A   1      29.195  30.614  22.118  1.00  0.00     0.039 C 
ATOM     21  C   UNL A   1      29.758  29.501  22.954  1.00  0.00    -0.077 C 
ATOM     22  C   UNL A   1      29.554  28.213  22.648  1.00  0.00    -0.025 C 
ATOM     23  C   UNL A   1      30.486  29.915  24.192  1.00  0.00     0.034 C 
ATOM     24  C   UNL A   1      29.991  27.055  23.497  1.00  0.00     0.014 C 
ATOM     25  C   UNL A   1      31.447  28.880  24.800  1.00  0.00    -0.005 C 
ATOM     26  C   UNL A   1      28.751  26.436  24.149  1.00  0.00     0.012 C 
ATOM     27  C   UNL A   1      31.674  29.234  26.276  1.00  0.00     0.008 C 
ENDBRANCH  18  19
ENDBRANCH   8  18
ENDBRANCH   4   7
ENDBRANCH   2   3
ENDBRANCH   1   2
BRANCH   1  28
ATOM     28  C   UNL A   1      40.257  23.121  27.095  1.00  0.00     0.118 C 
BRANCH  28  29
ATOM     29  N   UNL A   1      41.078  23.864  26.139  1.00  0.00    -0.352 N 
ATOM     30  C   UNL A   1      41.346  25.208  26.011  1.00  0.00     0.251 C 
ATOM     31  H   UNL A   1      41.520  23.299  25.463  1.00  0.00     0.163 HD
ATOM     32  O   UNL A   1      41.939  25.612  25.013  1.00  0.00    -0.269 OA
BRANCH  30  33
ATOM     33  C   UNL A   1      40.900  26.179  27.034  1.00  0.00     0.039 A 
ATOM     34  C   UNL A   1      39.912  25.800  27.951  1.00  0.00     0.014 A 
ATOM     35  C   UNL A   1      41.434  27.466  27.089  1.00  0.00     0.014 A 
ATOM     36  C   UNL A   1      39.556  26.665  28.991  1.00  0.00     0.010 A 
ATOM     37  C   UNL A   1      41.149  28.288  28.174  1.00  0.00     0.010 A 
ATOM     38  C   UNL A   1      40.223  27.890  29.150  1.00  0.00    -0.014 A 
BRANCH  38  39
ATOM     39  C   UNL A   1      40.014  28.758  30.339  1.00  0.00     0.031 A 
ATOM     40  C   UNL A   1      38.981  29.850  30.307  1.00  0.00     0.074 A 
ATOM     41  C   UNL A   1      40.841  28.646  31.396  1.00  0.00     0.049 A 
ATOM     42  N   UNL A   1      38.783  30.826  31.157  1.00  0.00    -0.248 NA
ATOM     43  C   UNL A   1      38.076  29.870  29.148  1.00  0.00     0.031 C 
ATOM     44  C   UNL A   1      41.917  27.661  31.536  1.00  0.00     0.029 A 
ATOM     45  N   UNL A   1      40.925  29.390  32.549  1.00  0.00    -0.354 N 
ATOM     46  C   UNL A   1      37.758  31.593  30.618  1.00  0.00     0.074 A 
ATOM     47  C   UNL A   1      37.400  30.991  29.352  1.00  0.00     0.031 C 
ATOM     48  C   UNL A   1      42.541  27.852  32.709  1.00  0.00     0.029 A 
ATOM     49  C   UNL A   1      41.946  29.000  33.382  1.00  0.00     0.049 A 
ATOM     50  H   UNL A   1      40.312  30.131  32.757  1.00  0.00     0.167 HD
ATOM     51  C   UNL A   1      37.158  32.688  31.140  1.00  0.00     0.037 A 
ATOM     52  C   UNL A   1      42.372  29.522  34.549  1.00  0.00     0.037 A 
ATOM     53  C   UNL A   1      37.480  33.258  32.422  1.00  0.00     0.049 A 
ATOM     54  C   UNL A   1      41.687  30.735  35.108  1.00  0.00     0.074 A 
ATOM     55  C   UNL A   1      36.867  34.314  33.075  1.00  0.00     0.029 A 
ATOM     56  N   UNL A   1      38.502  32.816  33.247  1.00  0.00    -0.354 N 
ATOM     57  N   UNL A   1      40.684  31.417  34.613  1.00  0.00    -0.248 NA
ATOM     58  C   UNL A   1      42.198  31.256  36.384  1.00  0.00     0.031 C 
ATOM     59  C   UNL A   1      37.541  34.531  34.282  1.00  0.00     0.029 A 
ATOM     60  C   UNL A   1      38.551  33.590  34.394  1.00  0.00     0.049 A 
ATOM     61  H   UNL A   1      39.103  32.062  33.047  1.00  0.00     0.167 HD
ATOM     62  C   UNL A   1      40.431  32.435  35.523  1.00  0.00     0.074 A 
ATOM     63  C   UNL A   1      41.378  32.275  36.607  1.00  0.00     0.031 C 
ATOM     64  C   UNL A   1      39.498  33.415  35.464  1.00  0.00     0.037 A 
BRANCH  51  65
ATOM     65  C   UNL A   1      36.080  33.341  30.326  1.00  0.00     0.057 A 
ATOM     66  C   UNL A   1      36.377  34.126  29.204  1.00  0.00     0.134 A 
ATOM     67  C   UNL A   1      34.730  33.155  30.648  1.00  0.00     0.134 A 
ATOM     68  F   UNL A   1      37.651  34.352  28.851  1.00  0.00    -0.206 F 
ATOM     69  C   UNL A   1      35.369  34.724  28.446  1.00  0.00     0.040 A 
ATOM     70  C   UNL A   1      33.713  33.729  29.882  1.00  0.00     0.040 A 
ATOM     71  F   UNL A   1      34.378  32.410  31.706  1.00  0.00    -0.206 F 
ATOM     72  C   UNL A   1      34.032  34.521  28.782  1.00  0.00     0.006 A 
ENDBRANCH  51  65
BRANCH  52  73
ATOM     73  C   UNL A   1      43.505  28.893  35.271  1.00  0.00     0.057 A 
ATOM     74  C   UNL A   1      44.826  29.251  34.981  1.00  0.00     0.134 A 
ATOM     75  C   UNL A   1      43.299  27.927  36.262  1.00  0.00     0.134 A 
ATOM     76  F   UNL A   1      45.084  30.157  34.026  1.00  0.00    -0.206 F 
ATOM     77  C   UNL A   1      45.905  28.661  35.640  1.00  0.00     0.040 A 
ATOM     78  C   UNL A   1      44.367  27.343  36.944  1.00  0.00     0.040 A 
ATOM     79  F   UNL A   1      42.056  27.547  36.591  1.00  0.00    -0.206 F 
ATOM     80  C   UNL A   1      45.676  27.707  36.630  1.00  0.00     0.006 A 
ENDBRANCH  52  73
BRANCH  64  81
ATOM     81  C   UNL A   1      39.441  34.377  36.611  1.00  0.00     0.057 A 
ATOM     82  C   UNL A   1      38.775  34.059  37.801  1.00  0.00     0.134 A 
ATOM     83  C   UNL A   1      40.100  35.610  36.543  1.00  0.00     0.134 A 
ATOM     84  F   UNL A   1      38.112  32.898  37.921  1.00  0.00    -0.206 F 
ATOM     85  C   UNL A   1      38.758  34.942  38.882  1.00  0.00     0.040 A 
ATOM     86  C   UNL A   1      40.107  36.491  37.625  1.00  0.00     0.040 A 
ATOM     87  F   UNL A   1      40.760  35.970  35.432  1.00  0.00    -0.206 F 
ATOM     88  C   UNL A   1      39.432  36.159  38.798  1.00  0.00     0.006 A 
ENDBRANCH  64  81
ENDBRANCH  38  39
ENDBRANCH  30  33
ENDBRANCH  28  29
ENDBRANCH   1  28
TORSDOF 12
ENDMDL
MODEL 2
REMARK VINA RESULT:     -13.4      4.273      5.879
REMARK SMILES CC1=C[C@H](C)[C@H](CN2C[C@]34C=C[C@@H](O3)[C@H](C(=O)NCCCNC(=O)c3ccc(-c5c6nc(c(-c7c(F)cccc7F)c7ccc([nH]7)c(-c7c(F)cccc7F)c7nc(c(-c8c(F)cccc8F)c8ccc5[nH]8)C=C7)C=C6)cc3)[C@@H]4C2=O)[C@H](C)C1
REMARK SMILES IDX 20 1 19 2 18 3 16 4 17 5 15 7 8 8 9 9 80 10 10 11 79 12
REMARK SMILES IDX 81 13 11 14 14 15 12 16 13 17 7 18 6 19 1 20 2 21 3 22 84 23
REMARK SMILES IDX 4 24 82 25 5 26 83 27 21 28 22 29 23 30 24 32 25 33 26 34
REMARK SMILES IDX 78 35 27 36 77 37 28 38 29 39 30 40 71 41 31 42 76 43 70 44
REMARK SMILES IDX 72 45 32 46 75 47 69 48 68 49 33 51 59 52 42 53 58 54 43 55
REMARK SMILES IDX 46 56 57 57 73 58 44 59 45 60 56 62 74 63 47 64 34 65 35 66
REMARK SMILES IDX 40 67 36 68 37 69 39 70 41 71 38 72 60 73 61 74 66 75 62 76
REMARK SMILES IDX 63 77 65 78 67 79 64 80 48 81 49 82 54 83 50 84 51 85 53 86
REMARK SMILES IDX 55 87 52 88
REMARK H PARENT 18 6 22 31 72 50 46 61
REMARK Flexibility Score: inf
ROOT
ATOM      1  C   UNL A   1      37.608  20.805  24.614  1.00  0.00     0.042 C 
ENDROOT
BRANCH   1   2
ATOM      2  C   UNL A   1      36.215  20.421  25.089  1.00  0.00     0.117 C 
BRANCH   2   3
ATOM      3  N   UNL A   1      35.700  21.240  26.177  1.00  0.00    -0.356 N 
ATOM      4  C   UNL A   1      34.724  22.207  26.103  1.00  0.00     0.227 C 
ATOM      5  O   UNL A   1      34.399  22.797  27.130  1.00  0.00    -0.275 OA
ATOM      6  H   UNL A   1      36.096  21.085  27.065  1.00  0.00     0.163 HD
BRANCH   4   7
ATOM      7  C   UNL A   1      34.138  22.535  24.744  1.00  0.00     0.127 C 
ATOM      8  N   UNL A   1      32.349  25.301  26.017  1.00  0.00    -0.339 N 
ATOM      9  C   UNL A   1      31.673  24.050  26.113  1.00  0.00     0.160 C 
ATOM     10  C   UNL A   1      33.502  25.121  25.299  1.00  0.00     0.230 C 
ATOM     11  C   UNL A   1      31.743  23.329  24.733  1.00  0.00     0.117 C 
ATOM     12  C   UNL A   1      33.313  23.809  24.587  1.00  0.00     0.132 C 
ATOM     13  O   UNL A   1      34.384  25.934  25.081  1.00  0.00    -0.274 OA
ATOM     14  C   UNL A   1      31.264  22.030  25.466  1.00  0.00     0.009 C 
ATOM     15  O   UNL A   1      32.120  22.457  23.651  1.00  0.00    -0.360 OA
ATOM     16  C   UNL A   1      32.133  21.035  25.289  1.00  0.00     0.004 C 
ATOM     17  C   UNL A   1      33.073  21.547  24.273  1.00  0.00     0.155 C 
BRANCH   8  18
ATOM     18  C   UNL A   1      31.636  26.557  26.182  1.00  0.00     0.124 C 
BRANCH  18  19
ATOM     19  C   UNL A   1      31.541  27.372  24.869  1.00  0.00     0.018 C 
ATOM     20  C   UNL A   1      29.502  30.107  21.995  1.00  0.00     0.039 C 
ATOM     21  C   UNL A   1      30.084  29.163  23.007  1.00  0.00    -0.077 C 
ATOM     22  C   UNL A   1      29.988  27.834  22.873  1.00  0.00    -0.025 C 
ATOM     23  C   UNL A   1      30.702  29.795  24.213  1.00  0.00     0.034 C 
ATOM     24  C   UNL A   1      30.447  26.837  23.897  1.00  0.00     0.014 C 
ATOM     25  C   UNL A   1      31.690  28.927  25.010  1.00  0.00    -0.005 C 
ATOM     26  C   UNL A   1      29.212  26.220  24.561  1.00  0.00     0.012 C 
ATOM     27  C   UNL A   1      31.797  29.494  26.433  1.00  0.00     0.008 C 
ENDBRANCH  18  19
ENDBRANCH   8  18
ENDBRANCH   4   7
ENDBRANCH   2   3
ENDBRANCH   1   2
BRANCH   1  28
ATOM     28  C   UNL A   1      38.622  20.909  25.753  1.00  0.00     0.118 C 
BRANCH  28  29
ATOM     29  N   UNL A   1      39.648  19.867  25.710  1.00  0.00    -0.352 N 
ATOM     30  C   UNL A   1      40.996  19.894  25.992  1.00  0.00     0.251 C 
ATOM     31  H   UNL A   1      39.315  18.984  25.427  1.00  0.00     0.163 HD
ATOM     32  O   UNL A   1      41.689  18.918  25.717  1.00  0.00    -0.269 OA
BRANCH  30  33
ATOM     33  C   UNL A   1      41.630  21.092  26.586  1.00  0.00     0.039 A 
ATOM     34  C   UNL A   1      42.129  22.090  25.741  1.00  0.00     0.014 A 
ATOM     35  C   UNL A   1      41.753  21.232  27.968  1.00  0.00     0.014 A 
ATOM     36  C   UNL A   1      42.633  23.276  26.284  1.00  0.00     0.010 A 
ATOM     37  C   UNL A   1      42.168  22.446  28.506  1.00  0.00     0.010 A 
ATOM     38  C   UNL A   1      42.593  23.491  27.671  1.00  0.00    -0.014 A 
BRANCH  38  39
ATOM     39  C   UNL A   1      42.943  24.801  28.281  1.00  0.00     0.031 A 
ATOM     40  C   UNL A   1      41.878  25.837  28.513  1.00  0.00     0.074 A 
ATOM     41  C   UNL A   1      44.236  25.105  28.504  1.00  0.00     0.049 A 
ATOM     42  N   UNL A   1      42.009  27.096  28.848  1.00  0.00    -0.248 NA
ATOM     43  C   UNL A   1      40.486  25.411  28.305  1.00  0.00     0.031 C 
ATOM     44  C   UNL A   1      45.373  24.209  28.277  1.00  0.00     0.029 A 
ATOM     45  N   UNL A   1      44.817  26.268  28.949  1.00  0.00    -0.354 N 
ATOM     46  C   UNL A   1      40.722  27.619  28.856  1.00  0.00     0.074 A 
ATOM     47  C   UNL A   1      39.829  26.552  28.457  1.00  0.00     0.031 C 
ATOM     48  C   UNL A   1      46.510  24.848  28.596  1.00  0.00     0.029 A 
ATOM     49  C   UNL A   1      46.190  26.212  29.001  1.00  0.00     0.049 A 
ATOM     50  H   UNL A   1      44.300  27.065  29.205  1.00  0.00     0.167 HD
ATOM     51  C   UNL A   1      40.319  28.870  29.182  1.00  0.00     0.037 A 
ATOM     52  C   UNL A   1      47.093  27.159  29.319  1.00  0.00     0.037 A 
ATOM     53  C   UNL A   1      41.202  29.917  29.626  1.00  0.00     0.049 A 
ATOM     54  C   UNL A   1      46.621  28.538  29.682  1.00  0.00     0.074 A 
ATOM     55  C   UNL A   1      40.877  31.189  30.063  1.00  0.00     0.029 A 
ATOM     56  N   UNL A   1      42.582  29.810  29.692  1.00  0.00    -0.354 N 
ATOM     57  N   UNL A   1      45.397  29.002  29.736  1.00  0.00    -0.248 NA
ATOM     58  C   UNL A   1      47.656  29.525  30.019  1.00  0.00     0.031 C 
ATOM     59  C   UNL A   1      42.066  31.864  30.364  1.00  0.00     0.029 A 
ATOM     60  C   UNL A   1      43.126  31.000  30.144  1.00  0.00     0.049 A 
ATOM     61  H   UNL A   1      43.098  29.006  29.453  1.00  0.00     0.167 HD
ATOM     62  C   UNL A   1      45.512  30.328  30.131  1.00  0.00     0.074 A 
ATOM     63  C   UNL A   1      46.924  30.592  30.313  1.00  0.00     0.031 C 
ATOM     64  C   UNL A   1      44.533  31.245  30.323  1.00  0.00     0.037 A 
BRANCH  51  65
ATOM     65  C   UNL A   1      38.854  29.174  29.081  1.00  0.00     0.057 A 
ATOM     66  C   UNL A   1      38.010  29.111  30.196  1.00  0.00     0.134 A 
ATOM     67  C   UNL A   1      38.288  29.564  27.860  1.00  0.00     0.134 A 
ATOM     68  F   UNL A   1      38.488  28.732  31.390  1.00  0.00    -0.206 F 
ATOM     69  C   UNL A   1      36.648  29.403  30.097  1.00  0.00     0.040 A 
ATOM     70  C   UNL A   1      36.933  29.882  27.755  1.00  0.00     0.040 A 
ATOM     71  F   UNL A   1      39.043  29.650  26.755  1.00  0.00    -0.206 F 
ATOM     72  C   UNL A   1      36.108  29.795  28.874  1.00  0.00     0.006 A 
ENDBRANCH  51  65
BRANCH  52  73
ATOM     73  C   UNL A   1      48.541  26.833  29.314  1.00  0.00     0.057 A 
ATOM     74  C   UNL A   1      49.328  27.088  28.187  1.00  0.00     0.134 A 
ATOM     75  C   UNL A   1      49.169  26.262  30.428  1.00  0.00     0.134 A 
ATOM     76  F   UNL A   1      48.775  27.616  27.085  1.00  0.00    -0.206 F 
ATOM     77  C   UNL A   1      50.688  26.776  28.159  1.00  0.00     0.040 A 
ATOM     78  C   UNL A   1      50.532  25.963  30.421  1.00  0.00     0.040 A 
ATOM     79  F   UNL A   1      48.469  26.000  31.541  1.00  0.00    -0.206 F 
ATOM     80  C   UNL A   1      51.295  26.216  29.282  1.00  0.00     0.006 A 
ENDBRANCH  52  73
BRANCH  64  81
ATOM     81  C   UNL A   1      44.953  32.611  30.772  1.00  0.00     0.057 A 
ATOM     82  C   UNL A   1      45.198  33.640  29.856  1.00  0.00     0.134 A 
ATOM     83  C   UNL A   1      45.064  32.912  32.135  1.00  0.00     0.134 A 
ATOM     84  F   UNL A   1      45.123  33.409  28.537  1.00  0.00    -0.206 F 
ATOM     85  C   UNL A   1      45.550  34.923  30.281  1.00  0.00     0.040 A 
ATOM     86  C   UNL A   1      45.395  34.195  32.572  1.00  0.00     0.040 A 
ATOM     87  F   UNL A   1      44.836  31.969  33.062  1.00  0.00    -0.206 F 
ATOM     88  C   UNL A   1      45.642  35.204  31.643  1.00  0.00     0.006 A 
ENDBRANCH  64  81
ENDBRANCH  38  39
ENDBRANCH  30  33
ENDBRANCH  28  29
ENDBRANCH   1  28
TORSDOF 12
ENDMDL
MODEL 3
REMARK VINA RESULT:     -13.3      2.192      7.637
REMARK SMILES CC1=C[C@H](C)[C@H](CN2C[C@]34C=C[C@@H](O3)[C@H](C(=O)NCCCNC(=O)c3ccc(-c5c6nc(c(-c7c(F)cccc7F)c7ccc([nH]7)c(-c7c(F)cccc7F)c7nc(c(-c8c(F)cccc8F)c8ccc5[nH]8)C=C7)C=C6)cc3)[C@@H]4C2=O)[C@H](C)C1
REMARK SMILES IDX 20 1 19 2 18 3 16 4 17 5 15 7 8 8 9 9 80 10 10 11 79 12
REMARK SMILES IDX 81 13 11 14 14 15 12 16 13 17 7 18 6 19 1 20 2 21 3 22 84 23
REMARK SMILES IDX 4 24 82 25 5 26 83 27 21 28 22 29 23 30 24 32 25 33 26 34
REMARK SMILES IDX 78 35 27 36 77 37 28 38 29 39 30 40 71 41 31 42 76 43 70 44
REMARK SMILES IDX 72 45 32 46 75 47 69 48 68 49 33 51 59 52 42 53 58 54 43 55
REMARK SMILES IDX 46 56 57 57 73 58 44 59 45 60 56 62 74 63 47 64 34 65 35 66
REMARK SMILES IDX 40 67 36 68 37 69 39 70 41 71 38 72 60 73 61 74 66 75 62 76
REMARK SMILES IDX 63 77 65 78 67 79 64 80 48 81 49 82 54 83 50 84 51 85 53 86
REMARK SMILES IDX 55 87 52 88
REMARK H PARENT 18 6 22 31 72 50 46 61
REMARK Flexibility Score: inf
ROOT
ATOM      1  C   UNL A   1      31.662  31.736  26.532  1.00  0.00     0.042 C 
ENDROOT
BRANCH   1   2
ATOM      2  C   UNL A   1      31.908  30.245  26.368  1.00  0.00     0.117 C 
BRANCH   2   3
ATOM      3  N   UNL A   1      32.818  29.896  25.287  1.00  0.00    -0.356 N 
ATOM      4  C   UNL A   1      32.809  28.750  24.526  1.00  0.00     0.227 C 
ATOM      5  O   UNL A   1      33.649  28.623  23.639  1.00  0.00    -0.275 OA
ATOM      6  H   UNL A   1      33.520  30.555  25.078  1.00  0.00     0.163 HD
BRANCH   4   7
ATOM      7  C   UNL A   1      31.796  27.673  24.861  1.00  0.00     0.127 C 
ATOM      8  N   UNL A   1      33.916  25.104  23.686  1.00  0.00    -0.339 N 
ATOM      9  C   UNL A   1      33.090  25.706  22.693  1.00  0.00     0.160 C 
ATOM     10  C   UNL A   1      33.555  25.599  24.912  1.00  0.00     0.230 C 
ATOM     11  C   UNL A   1      31.625  25.764  23.219  1.00  0.00     0.117 C 
ATOM     12  C   UNL A   1      32.197  26.210  24.698  1.00  0.00     0.132 C 
ATOM     13  O   UNL A   1      34.086  25.391  25.990  1.00  0.00    -0.274 OA
ATOM     14  C   UNL A   1      31.315  26.750  22.041  1.00  0.00     0.009 C 
ATOM     15  O   UNL A   1      30.382  26.217  23.788  1.00  0.00    -0.360 OA
ATOM     16  C   UNL A   1      30.829  27.903  22.499  1.00  0.00     0.004 C 
ATOM     17  C   UNL A   1      30.583  27.652  23.932  1.00  0.00     0.155 C 
BRANCH   8  18
ATOM     18  C   UNL A   1      34.585  23.836  23.443  1.00  0.00     0.124 C 
BRANCH  18  19
ATOM     19  C   UNL A   1      34.062  22.696  24.350  1.00  0.00     0.018 C 
ATOM     20  C   UNL A   1      32.960  18.463  25.224  1.00  0.00     0.039 C 
ATOM     21  C   UNL A   1      33.320  19.862  24.817  1.00  0.00    -0.077 C 
ATOM     22  C   UNL A   1      32.398  20.736  24.394  1.00  0.00    -0.025 C 
ATOM     23  C   UNL A   1      34.778  20.194  24.833  1.00  0.00     0.034 C 
ATOM     24  C   UNL A   1      32.701  22.109  23.869  1.00  0.00     0.014 C 
ATOM     25  C   UNL A   1      35.139  21.688  24.882  1.00  0.00    -0.005 C 
ATOM     26  C   UNL A   1      32.475  22.110  22.354  1.00  0.00     0.012 C 
ATOM     27  C   UNL A   1      36.574  21.859  24.364  1.00  0.00     0.008 C 
ENDBRANCH  18  19
ENDBRANCH   8  18
ENDBRANCH   4   7
ENDBRANCH   2   3
ENDBRANCH   1   2
BRANCH   1  28
ATOM     28  C   UNL A   1      32.809  32.459  27.237  1.00  0.00     0.118 C 
BRANCH  28  29
ATOM     29  N   UNL A   1      32.507  33.856  27.550  1.00  0.00    -0.352 N 
ATOM     30  C   UNL A   1      33.053  34.730  28.463  1.00  0.00     0.251 C 
ATOM     31  H   UNL A   1      31.780  34.242  27.009  1.00  0.00     0.163 HD
ATOM     32  O   UNL A   1      32.511  35.815  28.657  1.00  0.00    -0.269 OA
BRANCH  30  33
ATOM     33  C   UNL A   1      34.260  34.371  29.241  1.00  0.00     0.039 A 
ATOM     34  C   UNL A   1      34.109  33.758  30.491  1.00  0.00     0.014 A 
ATOM     35  C   UNL A   1      35.538  34.648  28.759  1.00  0.00     0.014 A 
ATOM     36  C   UNL A   1      35.235  33.314  31.191  1.00  0.00     0.010 A 
ATOM     37  C   UNL A   1      36.651  34.125  29.409  1.00  0.00     0.010 A 
ATOM     38  C   UNL A   1      36.512  33.434  30.622  1.00  0.00    -0.014 A 
BRANCH  38  39
ATOM     39  C   UNL A   1      37.716  32.815  31.238  1.00  0.00     0.031 A 
ATOM     40  C   UNL A   1      38.377  31.632  30.586  1.00  0.00     0.074 A 
ATOM     41  C   UNL A   1      38.133  33.236  32.448  1.00  0.00     0.049 A 
ATOM     42  N   UNL A   1      39.306  30.839  31.059  1.00  0.00    -0.248 NA
ATOM     43  C   UNL A   1      37.906  31.272  29.240  1.00  0.00     0.031 C 
ATOM     44  C   UNL A   1      37.550  34.341  33.213  1.00  0.00     0.029 A 
ATOM     45  N   UNL A   1      39.132  32.762  33.263  1.00  0.00    -0.354 N 
ATOM     46  C   UNL A   1      39.503  29.868  30.086  1.00  0.00     0.074 A 
ATOM     47  C   UNL A   1      38.574  30.150  29.012  1.00  0.00     0.031 C 
ATOM     48  C   UNL A   1      38.209  34.469  34.376  1.00  0.00     0.029 A 
ATOM     49  C   UNL A   1      39.225  33.428  34.462  1.00  0.00     0.049 A 
ATOM     50  H   UNL A   1      39.725  32.018  33.013  1.00  0.00     0.167 HD
ATOM     51  C   UNL A   1      40.390  28.846  30.080  1.00  0.00     0.037 A 
ATOM     52  C   UNL A   1      40.025  33.211  35.525  1.00  0.00     0.037 A 
ATOM     53  C   UNL A   1      41.349  28.595  31.125  1.00  0.00     0.049 A 
ATOM     54  C   UNL A   1      41.004  32.072  35.491  1.00  0.00     0.074 A 
ATOM     55  C   UNL A   1      42.346  27.637  31.167  1.00  0.00     0.029 A 
ATOM     56  N   UNL A   1      41.428  29.310  32.309  1.00  0.00    -0.354 N 
ATOM     57  N   UNL A   1      41.216  31.196  34.541  1.00  0.00    -0.248 NA
ATOM     58  C   UNL A   1      41.848  31.889  36.680  1.00  0.00     0.031 C 
ATOM     59  C   UNL A   1      43.010  27.753  32.394  1.00  0.00     0.029 A 
ATOM     60  C   UNL A   1      42.445  28.803  33.099  1.00  0.00     0.049 A 
ATOM     61  H   UNL A   1      40.847  30.067  32.552  1.00  0.00     0.167 HD
ATOM     62  C   UNL A   1      42.229  30.368  35.008  1.00  0.00     0.074 A 
ATOM     63  C   UNL A   1      42.597  30.855  36.322  1.00  0.00     0.031 C 
ATOM     64  C   UNL A   1      42.801  29.300  34.403  1.00  0.00     0.037 A 
BRANCH  51  65
ATOM     65  C   UNL A   1      40.374  27.923  28.897  1.00  0.00     0.057 A 
ATOM     66  C   UNL A   1      41.124  28.189  27.745  1.00  0.00     0.134 A 
ATOM     67  C   UNL A   1      39.626  26.739  28.925  1.00  0.00     0.134 A 
ATOM     68  F   UNL A   1      41.851  29.312  27.651  1.00  0.00    -0.206 F 
ATOM     69  C   UNL A   1      41.111  27.322  26.651  1.00  0.00     0.040 A 
ATOM     70  C   UNL A   1      39.625  25.853  27.847  1.00  0.00     0.040 A 
ATOM     71  F   UNL A   1      38.892  26.422  30.002  1.00  0.00    -0.206 F 
ATOM     72  C   UNL A   1      40.364  26.147  26.703  1.00  0.00     0.006 A 
ENDBRANCH  51  65
BRANCH  52  73
ATOM     73  C   UNL A   1      39.937  34.098  36.711  1.00  0.00     0.057 A 
ATOM     74  C   UNL A   1      39.072  33.796  37.768  1.00  0.00     0.134 A 
ATOM     75  C   UNL A   1      40.710  35.261  36.817  1.00  0.00     0.134 A 
ATOM     76  F   UNL A   1      38.294  32.705  37.710  1.00  0.00    -0.206 F 
ATOM     77  C   UNL A   1      38.967  34.625  38.885  1.00  0.00     0.040 A 
ATOM     78  C   UNL A   1      40.629  36.089  37.938  1.00  0.00     0.040 A 
ATOM     79  F   UNL A   1      41.563  35.600  35.840  1.00  0.00    -0.206 F 
ATOM     80  C   UNL A   1      39.751  35.774  38.975  1.00  0.00     0.006 A 
ENDBRANCH  52  73
BRANCH  64  81
ATOM     81  C   UNL A   1      43.898  28.598  35.143  1.00  0.00     0.057 A 
ATOM     82  C   UNL A   1      43.636  27.500  35.970  1.00  0.00     0.134 A 
ATOM     83  C   UNL A   1      45.232  28.994  34.987  1.00  0.00     0.134 A 
ATOM     84  F   UNL A   1      42.377  27.083  36.171  1.00  0.00    -0.206 F 
ATOM     85  C   UNL A   1      44.666  26.824  36.627  1.00  0.00     0.040 A 
ATOM     86  C   UNL A   1      46.270  28.313  35.622  1.00  0.00     0.040 A 
ATOM     87  F   UNL A   1      45.546  30.036  34.204  1.00  0.00    -0.206 F 
ATOM     88  C   UNL A   1      45.989  27.226  36.448  1.00  0.00     0.006 A 
ENDBRANCH  64  81
ENDBRANCH  38  39
ENDBRANCH  30  33
ENDBRANCH  28  29
ENDBRANCH   1  28
TORSDOF 12
ENDMDL
