MODEL 1
REMARK VINA RESULT:      -9.2      0.000      0.000
REMARK SMILES [NH3+][C@H](CSCc1ccco1)C(=O)NCCCNC(=O)c1ccc(-c2c3nc(c(-c4c(F)cccc4F)c4ccc([nH]4)c(-c4c(F)cccc4F)c4nc(c(-c5c(F)cccc5F)c5ccc2[nH]5)C=C4)C=C3)cc1
REMARK SMILES IDX 14 1 13 2 11 3 12 4 2 6 1 7 3 11 4 12 5 13 6 14 7 15 10 16
REMARK SMILES IDX 8 17 9 18 15 19 16 20 17 21 18 22 19 24 20 25 21 26 73 27
REMARK SMILES IDX 22 28 72 29 23 30 24 31 25 32 66 33 26 34 71 35 65 36 67 37
REMARK SMILES IDX 27 38 70 39 64 40 63 41 28 43 54 44 37 45 53 46 38 47 41 48
REMARK SMILES IDX 52 49 68 50 39 51 40 52 51 54 69 55 42 56 29 57 30 58 35 59
REMARK SMILES IDX 31 60 32 61 34 62 36 63 33 64 55 65 56 66 61 67 57 68 58 69
REMARK SMILES IDX 60 70 62 71 59 72 43 73 44 74 49 75 45 76 46 77 48 78 50 79
REMARK SMILES IDX 47 80
REMARK H PARENT 13 5 1 8 1 9 1 10 17 23 67 42 41 53
REMARK Flexibility Score: inf
ROOT
ATOM      1  C   UNL A   1      32.930  36.390  32.662  1.00  0.00     0.118 C 
ENDROOT
BRANCH   1   2
ATOM      2  N   UNL A   1      32.946  34.944  32.785  1.00  0.00    -0.351 N 
ATOM      3  C   UNL A   1      33.926  34.087  33.189  1.00  0.00     0.279 C 
ATOM      4  O   UNL A   1      33.693  32.880  33.090  1.00  0.00    -0.268 OA
ATOM      5  H   UNL A   1      32.101  34.505  32.535  1.00  0.00     0.163 HD
BRANCH   3   6
ATOM      6  C   UNL A   1      35.262  34.597  33.767  1.00  0.00     0.280 C 
BRANCH   6   7
ATOM      7  N   UNL A   1      36.157  35.015  32.663  1.00  0.00    -0.347 N 
ATOM      8  H   UNL A   1      36.911  35.590  33.037  1.00  0.00     0.345 HD
ATOM      9  H   UNL A   1      35.625  35.554  31.979  1.00  0.00     0.345 HD
ATOM     10  H   UNL A   1      36.551  34.189  32.213  1.00  0.00     0.345 HD
ENDBRANCH   6   7
BRANCH   6  11
ATOM     11  C   UNL A   1      35.827  33.560  34.755  1.00  0.00     0.145 C 
BRANCH  11  12
ATOM     12  S   UNL A   1      37.410  32.740  34.322  1.00  0.00    -0.147 SA
BRANCH  12  13
ATOM     13  C   UNL A   1      36.889  31.419  33.189  1.00  0.00     0.145 C 
BRANCH  13  14
ATOM     14  C   UNL A   1      37.853  30.309  32.927  1.00  0.00     0.113 A 
ATOM     15  C   UNL A   1      37.651  29.014  32.486  1.00  0.00     0.046 A 
ATOM     16  O   UNL A   1      39.184  30.497  33.176  1.00  0.00    -0.468 OA
ATOM     17  C   UNL A   1      38.921  28.390  32.455  1.00  0.00     0.042 A 
ATOM     18  C   UNL A   1      39.821  29.337  32.877  1.00  0.00     0.195 A 
ENDBRANCH  13  14
ENDBRANCH  12  13
ENDBRANCH  11  12
ENDBRANCH   6  11
ENDBRANCH   3   6
ENDBRANCH   1   2
BRANCH   1  19
ATOM     19  C   UNL A   1      32.639  36.826  31.232  1.00  0.00     0.042 C 
BRANCH  19  20
ATOM     20  C   UNL A   1      33.503  36.124  30.190  1.00  0.00     0.118 C 
BRANCH  20  21
ATOM     21  N   UNL A   1      32.716  35.339  29.248  1.00  0.00    -0.352 N 
ATOM     22  C   UNL A   1      33.075  34.256  28.482  1.00  0.00     0.251 C 
ATOM     23  H   UNL A   1      31.781  35.631  29.143  1.00  0.00     0.163 HD
ATOM     24  O   UNL A   1      32.329  33.861  27.596  1.00  0.00    -0.269 OA
BRANCH  22  25
ATOM     25  C   UNL A   1      34.372  33.586  28.713  1.00  0.00     0.039 A 
ATOM     26  C   UNL A   1      35.458  33.919  27.900  1.00  0.00     0.014 A 
ATOM     27  C   UNL A   1      34.518  32.637  29.727  1.00  0.00     0.014 A 
ATOM     28  C   UNL A   1      36.712  33.363  28.160  1.00  0.00     0.010 A 
ATOM     29  C   UNL A   1      35.783  32.149  30.039  1.00  0.00     0.010 A 
ATOM     30  C   UNL A   1      36.894  32.513  29.263  1.00  0.00    -0.014 A 
BRANCH  30  31
ATOM     31  C   UNL A   1      38.241  32.021  29.643  1.00  0.00     0.031 A 
ATOM     32  C   UNL A   1      38.714  30.669  29.185  1.00  0.00     0.074 A 
ATOM     33  C   UNL A   1      39.007  32.760  30.469  1.00  0.00     0.049 A 
ATOM     34  N   UNL A   1      39.816  30.032  29.489  1.00  0.00    -0.248 NA
ATOM     35  C   UNL A   1      37.817  29.924  28.288  1.00  0.00     0.031 C 
ATOM     36  C   UNL A   1      38.642  34.068  31.018  1.00  0.00     0.029 A 
ATOM     37  N   UNL A   1      40.246  32.512  31.005  1.00  0.00    -0.354 N 
ATOM     38  C   UNL A   1      39.741  28.812  28.831  1.00  0.00     0.074 A 
ATOM     39  C   UNL A   1      38.462  28.775  28.156  1.00  0.00     0.031 C 
ATOM     40  C   UNL A   1      39.642  34.515  31.793  1.00  0.00     0.029 A 
ATOM     41  C   UNL A   1      40.696  33.508  31.838  1.00  0.00     0.049 A 
ATOM     42  H   UNL A   1      40.763  31.698  30.810  1.00  0.00     0.167 HD
ATOM     43  C   UNL A   1      40.663  27.822  28.778  1.00  0.00     0.037 A 
ATOM     44  C   UNL A   1      41.822  33.592  32.570  1.00  0.00     0.037 A 
ATOM     45  C   UNL A   1      41.940  27.870  29.443  1.00  0.00     0.049 A 
ATOM     46  C   UNL A   1      42.814  32.463  32.521  1.00  0.00     0.074 A 
ATOM     47  C   UNL A   1      42.967  26.943  29.404  1.00  0.00     0.029 A 
ATOM     48  N   UNL A   1      42.360  28.895  30.277  1.00  0.00    -0.354 N 
ATOM     49  N   UNL A   1      42.763  31.346  31.838  1.00  0.00    -0.248 NA
ATOM     50  C   UNL A   1      44.022  32.607  33.346  1.00  0.00     0.031 C 
ATOM     51  C   UNL A   1      43.984  27.380  30.259  1.00  0.00     0.029 A 
ATOM     52  C   UNL A   1      43.616  28.608  30.785  1.00  0.00     0.049 A 
ATOM     53  H   UNL A   1      41.841  29.708  30.479  1.00  0.00     0.167 HD
ATOM     54  C   UNL A   1      43.938  30.667  32.129  1.00  0.00     0.074 A 
ATOM     55  C   UNL A   1      44.692  31.506  33.036  1.00  0.00     0.031 C 
ATOM     56  C   UNL A   1      44.355  29.454  31.688  1.00  0.00     0.037 A 
BRANCH  43  57
ATOM     57  C   UNL A   1      40.323  26.599  27.974  1.00  0.00     0.057 A 
ATOM     58  C   UNL A   1      40.851  26.383  26.695  1.00  0.00     0.134 A 
ATOM     59  C   UNL A   1      39.487  25.607  28.502  1.00  0.00     0.134 A 
ATOM     60  F   UNL A   1      41.650  27.298  26.125  1.00  0.00    -0.206 F 
ATOM     61  C   UNL A   1      40.539  25.239  25.959  1.00  0.00     0.040 A 
ATOM     62  C   UNL A   1      39.191  24.445  27.788  1.00  0.00     0.040 A 
ATOM     63  F   UNL A   1      38.952  25.745  29.725  1.00  0.00    -0.206 F 
ATOM     64  C   UNL A   1      39.712  24.261  26.509  1.00  0.00     0.006 A 
ENDBRANCH  43  57
BRANCH  44  65
ATOM     65  C   UNL A   1      42.077  34.790  33.412  1.00  0.00     0.057 A 
ATOM     66  C   UNL A   1      42.863  35.848  32.942  1.00  0.00     0.134 A 
ATOM     67  C   UNL A   1      41.552  34.902  34.705  1.00  0.00     0.134 A 
ATOM     68  F   UNL A   1      43.409  35.792  31.718  1.00  0.00    -0.206 F 
ATOM     69  C   UNL A   1      43.139  36.963  33.735  1.00  0.00     0.040 A 
ATOM     70  C   UNL A   1      41.796  36.024  35.498  1.00  0.00     0.040 A 
ATOM     71  F   UNL A   1      40.784  33.926  35.212  1.00  0.00    -0.206 F 
ATOM     72  C   UNL A   1      42.600  37.055  35.016  1.00  0.00     0.006 A 
ENDBRANCH  44  65
BRANCH  56  73
ATOM     73  C   UNL A   1      45.697  28.975  32.161  1.00  0.00     0.057 A 
ATOM     74  C   UNL A   1      46.878  29.286  31.475  1.00  0.00     0.134 A 
ATOM     75  C   UNL A   1      45.813  28.222  33.338  1.00  0.00     0.134 A 
ATOM     76  F   UNL A   1      46.836  29.991  30.333  1.00  0.00    -0.206 F 
ATOM     77  C   UNL A   1      48.123  28.845  31.928  1.00  0.00     0.040 A 
ATOM     78  C   UNL A   1      47.055  27.802  33.816  1.00  0.00     0.040 A 
ATOM     79  F   UNL A   1      44.723  27.897  34.049  1.00  0.00    -0.206 F 
ATOM     80  C   UNL A   1      48.214  28.107  33.106  1.00  0.00     0.006 A 
ENDBRANCH  56  73
ENDBRANCH  30  31
ENDBRANCH  22  25
ENDBRANCH  20  21
ENDBRANCH  19  20
ENDBRANCH   1  19
TORSDOF 15
ENDMDL
MODEL 2
REMARK VINA RESULT:      -8.7      2.668      7.891
REMARK SMILES [NH3+][C@H](CSCc1ccco1)C(=O)NCCCNC(=O)c1ccc(-c2c3nc(c(-c4c(F)cccc4F)c4ccc([nH]4)c(-c4c(F)cccc4F)c4nc(c(-c5c(F)cccc5F)c5ccc2[nH]5)C=C4)C=C3)cc1
REMARK SMILES IDX 14 1 13 2 11 3 12 4 2 6 1 7 3 11 4 12 5 13 6 14 7 15 10 16
REMARK SMILES IDX 8 17 9 18 15 19 16 20 17 21 18 22 19 24 20 25 21 26 73 27
REMARK SMILES IDX 22 28 72 29 23 30 24 31 25 32 66 33 26 34 71 35 65 36 67 37
REMARK SMILES IDX 27 38 70 39 64 40 63 41 28 43 54 44 37 45 53 46 38 47 41 48
REMARK SMILES IDX 52 49 68 50 39 51 40 52 51 54 69 55 42 56 29 57 30 58 35 59
REMARK SMILES IDX 31 60 32 61 34 62 36 63 33 64 55 65 56 66 61 67 57 68 58 69
REMARK SMILES IDX 60 70 62 71 59 72 43 73 44 74 49 75 45 76 46 77 48 78 50 79
REMARK SMILES IDX 47 80
REMARK H PARENT 13 5 1 8 1 9 1 10 17 23 67 42 41 53
REMARK Flexibility Score: inf
ROOT
ATOM      1  C   UNL A   1      35.710  32.571  30.870  1.00  0.00     0.118 C 
ENDROOT
BRANCH   1   2
ATOM      2  N   UNL A   1      34.478  32.658  31.632  1.00  0.00    -0.351 N 
ATOM      3  C   UNL A   1      34.191  33.288  32.806  1.00  0.00     0.279 C 
ATOM      4  O   UNL A   1      33.069  33.100  33.284  1.00  0.00    -0.268 OA
ATOM      5  H   UNL A   1      33.717  32.179  31.232  1.00  0.00     0.163 HD
BRANCH   3   6
ATOM      6  C   UNL A   1      35.209  34.217  33.498  1.00  0.00     0.280 C 
BRANCH   6   7
ATOM      7  N   UNL A   1      35.044  34.132  34.968  1.00  0.00    -0.347 N 
ATOM      8  H   UNL A   1      35.313  33.202  35.287  1.00  0.00     0.345 HD
ATOM      9  H   UNL A   1      34.068  34.307  35.211  1.00  0.00     0.345 HD
ATOM     10  H   UNL A   1      35.636  34.831  35.418  1.00  0.00     0.345 HD
ENDBRANCH   6   7
BRANCH   6  11
ATOM     11  C   UNL A   1      35.131  35.624  32.878  1.00  0.00     0.145 C 
BRANCH  11  12
ATOM     12  S   UNL A   1      33.803  36.746  33.468  1.00  0.00    -0.147 SA
BRANCH  12  13
ATOM     13  C   UNL A   1      32.442  36.410  32.313  1.00  0.00     0.145 C 
BRANCH  13  14
ATOM     14  C   UNL A   1      32.783  36.239  30.869  1.00  0.00     0.113 A 
ATOM     15  C   UNL A   1      33.300  37.130  29.945  1.00  0.00     0.046 A 
ATOM     16  O   UNL A   1      32.539  35.044  30.253  1.00  0.00    -0.468 OA
ATOM     17  C   UNL A   1      33.384  36.439  28.713  1.00  0.00     0.042 A 
ATOM     18  C   UNL A   1      32.916  35.171  28.956  1.00  0.00     0.195 A 
ENDBRANCH  13  14
ENDBRANCH  12  13
ENDBRANCH  11  12
ENDBRANCH   6  11
ENDBRANCH   3   6
ENDBRANCH   1   2
BRANCH   1  19
ATOM     19  C   UNL A   1      35.770  33.633  29.780  1.00  0.00     0.042 C 
BRANCH  19  20
ATOM     20  C   UNL A   1      35.767  33.060  28.367  1.00  0.00     0.118 C 
BRANCH  20  21
ATOM     21  N   UNL A   1      34.768  32.014  28.189  1.00  0.00    -0.352 N 
ATOM     22  C   UNL A   1      34.925  30.659  28.025  1.00  0.00     0.251 C 
ATOM     23  H   UNL A   1      33.834  32.328  28.185  1.00  0.00     0.163 HD
ATOM     24  O   UNL A   1      33.972  29.971  27.684  1.00  0.00    -0.269 OA
BRANCH  22  25
ATOM     25  C   UNL A   1      36.249  30.039  28.237  1.00  0.00     0.039 A 
ATOM     26  C   UNL A   1      37.186  30.077  27.201  1.00  0.00     0.014 A 
ATOM     27  C   UNL A   1      36.568  29.425  29.450  1.00  0.00     0.014 A 
ATOM     28  C   UNL A   1      38.472  29.576  27.413  1.00  0.00     0.010 A 
ATOM     29  C   UNL A   1      37.872  29.003  29.689  1.00  0.00     0.010 A 
ATOM     30  C   UNL A   1      38.839  29.081  28.676  1.00  0.00    -0.014 A 
BRANCH  30  31
ATOM     31  C   UNL A   1      40.235  28.673  28.967  1.00  0.00     0.031 A 
ATOM     32  C   UNL A   1      41.187  29.633  29.625  1.00  0.00     0.074 A 
ATOM     33  C   UNL A   1      40.669  27.462  28.566  1.00  0.00     0.049 A 
ATOM     34  N   UNL A   1      42.463  29.490  29.877  1.00  0.00    -0.248 NA
ATOM     35  C   UNL A   1      40.636  30.936  30.031  1.00  0.00     0.031 C 
ATOM     36  C   UNL A   1      39.854  26.457  27.877  1.00  0.00     0.029 A 
ATOM     37  N   UNL A   1      41.905  26.874  28.663  1.00  0.00    -0.354 N 
ATOM     38  C   UNL A   1      42.869  30.684  30.458  1.00  0.00     0.074 A 
ATOM     39  C   UNL A   1      41.718  31.560  30.473  1.00  0.00     0.031 C 
ATOM     40  C   UNL A   1      40.606  25.372  27.635  1.00  0.00     0.029 A 
ATOM     41  C   UNL A   1      41.965  25.620  28.104  1.00  0.00     0.049 A 
ATOM     42  H   UNL A   1      42.675  27.309  29.094  1.00  0.00     0.167 HD
ATOM     43  C   UNL A   1      44.086  31.012  30.953  1.00  0.00     0.037 A 
ATOM     44  C   UNL A   1      43.002  24.774  27.967  1.00  0.00     0.037 A 
ATOM     45  C   UNL A   1      45.226  30.132  30.945  1.00  0.00     0.049 A 
ATOM     46  C   UNL A   1      44.351  25.176  28.493  1.00  0.00     0.074 A 
ATOM     47  C   UNL A   1      46.487  30.350  31.474  1.00  0.00     0.029 A 
ATOM     48  N   UNL A   1      45.248  28.870  30.370  1.00  0.00    -0.354 N 
ATOM     49  N   UNL A   1      44.705  26.280  29.106  1.00  0.00    -0.248 NA
ATOM     50  C   UNL A   1      45.447  24.215  28.310  1.00  0.00     0.031 C 
ATOM     51  C   UNL A   1      47.287  29.244  31.169  1.00  0.00     0.029 A 
ATOM     52  C   UNL A   1      46.509  28.312  30.502  1.00  0.00     0.049 A 
ATOM     53  H   UNL A   1      44.480  28.435  29.933  1.00  0.00     0.167 HD
ATOM     54  C   UNL A   1      46.053  26.137  29.402  1.00  0.00     0.074 A 
ATOM     55  C   UNL A   1      46.450  24.830  28.920  1.00  0.00     0.031 C 
ATOM     56  C   UNL A   1      46.890  27.009  30.016  1.00  0.00     0.037 A 
BRANCH  43  57
ATOM     57  C   UNL A   1      44.249  32.384  31.542  1.00  0.00     0.057 A 
ATOM     58  C   UNL A   1      44.651  33.480  30.767  1.00  0.00     0.134 A 
ATOM     59  C   UNL A   1      43.963  32.621  32.893  1.00  0.00     0.134 A 
ATOM     60  F   UNL A   1      44.950  33.322  29.469  1.00  0.00    -0.206 F 
ATOM     61  C   UNL A   1      44.790  34.754  31.320  1.00  0.00     0.040 A 
ATOM     62  C   UNL A   1      44.070  33.897  33.450  1.00  0.00     0.040 A 
ATOM     63  F   UNL A   1      43.566  31.619  33.692  1.00  0.00    -0.206 F 
ATOM     64  C   UNL A   1      44.491  34.967  32.664  1.00  0.00     0.006 A 
ENDBRANCH  43  57
BRANCH  44  65
ATOM     65  C   UNL A   1      42.808  23.457  27.305  1.00  0.00     0.057 A 
ATOM     66  C   UNL A   1      42.363  22.344  28.028  1.00  0.00     0.134 A 
ATOM     67  C   UNL A   1      43.071  23.277  25.942  1.00  0.00     0.134 A 
ATOM     68  F   UNL A   1      42.111  22.450  29.341  1.00  0.00    -0.206 F 
ATOM     69  C   UNL A   1      42.210  21.094  27.426  1.00  0.00     0.040 A 
ATOM     70  C   UNL A   1      42.895  22.039  25.321  1.00  0.00     0.040 A 
ATOM     71  F   UNL A   1      43.493  24.305  25.190  1.00  0.00    -0.206 F 
ATOM     72  C   UNL A   1      42.471  20.941  26.066  1.00  0.00     0.006 A 
ENDBRANCH  44  65
BRANCH  56  73
ATOM     73  C   UNL A   1      48.311  26.569  30.222  1.00  0.00     0.057 A 
ATOM     74  C   UNL A   1      49.325  26.886  29.310  1.00  0.00     0.134 A 
ATOM     75  C   UNL A   1      48.675  25.848  31.367  1.00  0.00     0.134 A 
ATOM     76  F   UNL A   1      49.040  27.562  28.186  1.00  0.00    -0.206 F 
ATOM     77  C   UNL A   1      50.645  26.482  29.516  1.00  0.00     0.040 A 
ATOM     78  C   UNL A   1      49.997  25.464  31.599  1.00  0.00     0.040 A 
ATOM     79  F   UNL A   1      47.755  25.518  32.287  1.00  0.00    -0.206 F 
ATOM     80  C   UNL A   1      50.985  25.775  30.667  1.00  0.00     0.006 A 
ENDBRANCH  56  73
ENDBRANCH  30  31
ENDBRANCH  22  25
ENDBRANCH  20  21
ENDBRANCH  19  20
ENDBRANCH   1  19
TORSDOF 15
ENDMDL
MODEL 3
REMARK VINA RESULT:      -8.7      4.626     10.298
REMARK SMILES [NH3+][C@H](CSCc1ccco1)C(=O)NCCCNC(=O)c1ccc(-c2c3nc(c(-c4c(F)cccc4F)c4ccc([nH]4)c(-c4c(F)cccc4F)c4nc(c(-c5c(F)cccc5F)c5ccc2[nH]5)C=C4)C=C3)cc1
REMARK SMILES IDX 14 1 13 2 11 3 12 4 2 6 1 7 3 11 4 12 5 13 6 14 7 15 10 16
REMARK SMILES IDX 8 17 9 18 15 19 16 20 17 21 18 22 19 24 20 25 21 26 73 27
REMARK SMILES IDX 22 28 72 29 23 30 24 31 25 32 66 33 26 34 71 35 65 36 67 37
REMARK SMILES IDX 27 38 70 39 64 40 63 41 28 43 54 44 37 45 53 46 38 47 41 48
REMARK SMILES IDX 52 49 68 50 39 51 40 52 51 54 69 55 42 56 29 57 30 58 35 59
REMARK SMILES IDX 31 60 32 61 34 62 36 63 33 64 55 65 56 66 61 67 57 68 58 69
REMARK SMILES IDX 60 70 62 71 59 72 43 73 44 74 49 75 45 76 46 77 48 78 50 79
REMARK SMILES IDX 47 80
REMARK H PARENT 13 5 1 8 1 9 1 10 17 23 67 42 41 53
REMARK Flexibility Score: inf
ROOT
ATOM      1  C   UNL A   1      42.246  19.796  25.944  1.00  0.00     0.118 C 
ENDROOT
BRANCH   1   2
ATOM      2  N   UNL A   1      43.413  18.934  26.013  1.00  0.00    -0.351 N 
ATOM      3  C   UNL A   1      44.547  18.895  25.258  1.00  0.00     0.279 C 
ATOM      4  O   UNL A   1      45.335  17.972  25.477  1.00  0.00    -0.268 OA
ATOM      5  H   UNL A   1      43.380  18.262  26.732  1.00  0.00     0.163 HD
BRANCH   3   6
ATOM      6  C   UNL A   1      44.848  19.967  24.192  1.00  0.00     0.280 C 
BRANCH   6   7
ATOM      7  N   UNL A   1      44.862  19.344  22.847  1.00  0.00    -0.347 N 
ATOM      8  H   UNL A   1      45.245  18.402  22.913  1.00  0.00     0.345 HD
ATOM      9  H   UNL A   1      45.439  19.904  22.219  1.00  0.00     0.345 HD
ATOM     10  H   UNL A   1      43.910  19.299  22.483  1.00  0.00     0.345 HD
ENDBRANCH   6   7
BRANCH   6  11
ATOM     11  C   UNL A   1      46.106  20.758  24.595  1.00  0.00     0.145 C 
BRANCH  11  12
ATOM     12  S   UNL A   1      45.956  22.580  24.754  1.00  0.00    -0.147 SA
BRANCH  12  13
ATOM     13  C   UNL A   1      45.533  22.803  26.507  1.00  0.00     0.145 C 
BRANCH  13  14
ATOM     14  C   UNL A   1      46.235  23.887  27.257  1.00  0.00     0.113 A 
ATOM     15  C   UNL A   1      45.758  24.833  28.146  1.00  0.00     0.046 A 
ATOM     16  O   UNL A   1      47.574  24.084  27.067  1.00  0.00    -0.468 OA
ATOM     17  C   UNL A   1      46.862  25.634  28.522  1.00  0.00     0.042 A 
ATOM     18  C   UNL A   1      47.945  25.133  27.843  1.00  0.00     0.195 A 
ENDBRANCH  13  14
ENDBRANCH  12  13
ENDBRANCH  11  12
ENDBRANCH   6  11
ENDBRANCH   3   6
ENDBRANCH   1   2
BRANCH   1  19
ATOM     19  C   UNL A   1      42.321  20.921  26.968  1.00  0.00     0.042 C 
BRANCH  19  20
ATOM     20  C   UNL A   1      41.797  22.255  26.449  1.00  0.00     0.118 C 
BRANCH  20  21
ATOM     21  N   UNL A   1      40.431  22.164  25.950  1.00  0.00    -0.352 N 
ATOM     22  C   UNL A   1      39.354  22.989  26.164  1.00  0.00     0.251 C 
ATOM     23  H   UNL A   1      40.252  21.389  25.368  1.00  0.00     0.163 HD
ATOM     24  O   UNL A   1      38.233  22.631  25.824  1.00  0.00    -0.269 OA
BRANCH  22  25
ATOM     25  C   UNL A   1      39.545  24.296  26.827  1.00  0.00     0.039 A 
ATOM     26  C   UNL A   1      39.074  24.466  28.131  1.00  0.00     0.014 A 
ATOM     27  C   UNL A   1      40.187  25.347  26.169  1.00  0.00     0.014 A 
ATOM     28  C   UNL A   1      39.324  25.663  28.806  1.00  0.00     0.010 A 
ATOM     29  C   UNL A   1      40.509  26.505  26.868  1.00  0.00     0.010 A 
ATOM     30  C   UNL A   1      40.088  26.672  28.196  1.00  0.00    -0.014 A 
BRANCH  30  31
ATOM     31  C   UNL A   1      40.486  27.893  28.939  1.00  0.00     0.031 A 
ATOM     32  C   UNL A   1      41.840  27.981  29.587  1.00  0.00     0.074 A 
ATOM     33  C   UNL A   1      39.595  28.891  29.099  1.00  0.00     0.049 A 
ATOM     34  N   UNL A   1      42.331  28.924  30.350  1.00  0.00    -0.248 NA
ATOM     35  C   UNL A   1      42.753  26.849  29.367  1.00  0.00     0.031 C 
ATOM     36  C   UNL A   1      38.233  28.904  28.557  1.00  0.00     0.029 A 
ATOM     37  N   UNL A   1      39.692  30.081  29.775  1.00  0.00    -0.354 N 
ATOM     38  C   UNL A   1      43.601  28.495  30.710  1.00  0.00     0.074 A 
ATOM     39  C   UNL A   1      43.786  27.184  30.126  1.00  0.00     0.031 C 
ATOM     40  C   UNL A   1      37.633  30.053  28.904  1.00  0.00     0.029 A 
ATOM     41  C   UNL A   1      38.545  30.835  29.732  1.00  0.00     0.049 A 
ATOM     42  H   UNL A   1      40.507  30.367  30.246  1.00  0.00     0.167 HD
ATOM     43  C   UNL A   1      44.537  29.145  31.442  1.00  0.00     0.037 A 
ATOM     44  C   UNL A   1      38.252  32.014  30.310  1.00  0.00     0.037 A 
ATOM     45  C   UNL A   1      44.352  30.455  32.012  1.00  0.00     0.049 A 
ATOM     46  C   UNL A   1      39.296  32.699  31.149  1.00  0.00     0.074 A 
ATOM     47  C   UNL A   1      45.259  31.221  32.722  1.00  0.00     0.029 A 
ATOM     48  N   UNL A   1      43.176  31.187  31.947  1.00  0.00    -0.354 N 
ATOM     49  N   UNL A   1      40.520  32.315  31.421  1.00  0.00    -0.248 NA
ATOM     50  C   UNL A   1      38.919  33.980  31.760  1.00  0.00     0.031 C 
ATOM     51  C   UNL A   1      44.615  32.392  33.135  1.00  0.00     0.029 A 
ATOM     52  C   UNL A   1      43.324  32.382  32.632  1.00  0.00     0.049 A 
ATOM     53  H   UNL A   1      42.356  30.900  31.482  1.00  0.00     0.167 HD
ATOM     54  C   UNL A   1      41.066  33.316  32.213  1.00  0.00     0.074 A 
ATOM     55  C   UNL A   1      40.047  34.334  32.360  1.00  0.00     0.031 C 
ATOM     56  C   UNL A   1      42.299  33.386  32.771  1.00  0.00     0.037 A 
BRANCH  43  57
ATOM     57  C   UNL A   1      45.846  28.445  31.674  1.00  0.00     0.057 A 
ATOM     58  C   UNL A   1      46.923  28.577  30.788  1.00  0.00     0.134 A 
ATOM     59  C   UNL A   1      46.045  27.660  32.817  1.00  0.00     0.134 A 
ATOM     60  F   UNL A   1      46.797  29.306  29.669  1.00  0.00    -0.206 F 
ATOM     61  C   UNL A   1      48.140  27.932  31.015  1.00  0.00     0.040 A 
ATOM     62  C   UNL A   1      47.267  27.034  33.069  1.00  0.00     0.040 A 
ATOM     63  F   UNL A   1      45.059  27.495  33.711  1.00  0.00    -0.206 F 
ATOM     64  C   UNL A   1      48.317  27.164  32.164  1.00  0.00     0.006 A 
ENDBRANCH  43  57
BRANCH  44  65
ATOM     65  C   UNL A   1      36.914  32.630  30.116  1.00  0.00     0.057 A 
ATOM     66  C   UNL A   1      36.678  33.531  29.071  1.00  0.00     0.134 A 
ATOM     67  C   UNL A   1      35.844  32.342  30.972  1.00  0.00     0.134 A 
ATOM     68  F   UNL A   1      37.668  33.861  28.228  1.00  0.00    -0.206 F 
ATOM     69  C   UNL A   1      35.435  34.142  28.898  1.00  0.00     0.040 A 
ATOM     70  C   UNL A   1      34.588  32.924  30.793  1.00  0.00     0.040 A 
ATOM     71  F   UNL A   1      36.001  31.481  31.988  1.00  0.00    -0.206 F 
ATOM     72  C   UNL A   1      34.384  33.834  29.758  1.00  0.00     0.006 A 
ENDBRANCH  44  65
BRANCH  56  73
ATOM     73  C   UNL A   1      42.623  34.615  33.571  1.00  0.00     0.057 A 
ATOM     74  C   UNL A   1      43.054  35.802  32.964  1.00  0.00     0.134 A 
ATOM     75  C   UNL A   1      42.468  34.622  34.964  1.00  0.00     0.134 A 
ATOM     76  F   UNL A   1      43.238  35.858  31.636  1.00  0.00    -0.206 F 
ATOM     77  C   UNL A   1      43.343  36.942  33.716  1.00  0.00     0.040 A 
ATOM     78  C   UNL A   1      42.724  35.765  35.722  1.00  0.00     0.040 A 
ATOM     79  F   UNL A   1      42.050  33.522  35.609  1.00  0.00    -0.206 F 
ATOM     80  C   UNL A   1      43.171  36.928  35.098  1.00  0.00     0.006 A 
ENDBRANCH  56  73
ENDBRANCH  30  31
ENDBRANCH  22  25
ENDBRANCH  20  21
ENDBRANCH  19  20
ENDBRANCH   1  19
TORSDOF 15
ENDMDL
