MODEL 1
REMARK VINA RESULT:     -14.0      0.000      0.000
REMARK SMILES CC1=C(C)C[C@@H](C(=O)NCCCNC(=O)c2ccc(-c3c4nc(c(-c5c(F)cccc5F)c5ccc([nH]5)c(-c5c(F)cccc5F)c5nc(c(-c6c(F)cccc6F)c6ccc3[nH]6)C=C5)C=C4)cc2)[C@@H](C(=O)N2CCN(c3cccc(C(F)(F)F)c3)CC2)C1
REMARK SMILES IDX 10 1 9 2 7 3 8 4 6 6 1 7 2 8 3 9 89 10 4 11 5 12 70 13 71 14
REMARK SMILES IDX 72 15 73 16 74 17 88 18 75 19 87 20 76 21 77 22 78 23 86 24
REMARK SMILES IDX 79 25 81 26 80 27 82 28 83 29 84 30 85 31 11 32 12 33 13 34
REMARK SMILES IDX 14 35 15 37 16 38 17 39 69 40 18 41 68 42 19 43 20 44 21 45
REMARK SMILES IDX 62 46 22 47 67 48 61 49 63 50 23 51 66 52 60 53 59 54 24 56
REMARK SMILES IDX 50 57 33 58 49 59 34 60 37 61 48 62 64 63 35 64 36 65 47 67
REMARK SMILES IDX 65 68 38 69 25 70 26 71 31 72 27 73 28 74 30 75 32 76 29 77
REMARK SMILES IDX 51 78 52 79 57 80 53 81 54 82 56 83 58 84 55 85 39 86 40 87
REMARK SMILES IDX 45 88 41 89 42 90 44 91 46 92 43 93
REMARK H PARENT 9 5 13 36 63 55 37 66
REMARK Flexibility Score: inf
ROOT
ATOM      1  C   UNL A   1      36.043  19.953  24.964  1.00  0.00     0.117 C 
ENDROOT
BRANCH   1   2
ATOM      2  N   UNL A   1      35.606  20.994  25.876  1.00  0.00    -0.356 N 
ATOM      3  C   UNL A   1      34.398  21.398  26.326  1.00  0.00     0.224 C 
ATOM      4  O   UNL A   1      34.398  22.360  27.107  1.00  0.00    -0.275 OA
ATOM      5  H   UNL A   1      36.351  21.517  26.249  1.00  0.00     0.163 HD
BRANCH   3   6
ATOM      6  C   UNL A   1      33.059  20.785  25.925  1.00  0.00     0.095 C 
ATOM      7  C   UNL A   1      32.926  17.853  22.609  1.00  0.00     0.039 C 
ATOM      8  C   UNL A   1      32.792  18.734  23.828  1.00  0.00    -0.074 C 
ATOM      9  C   UNL A   1      32.965  18.329  25.101  1.00  0.00    -0.074 C 
ATOM     10  C   UNL A   1      32.441  20.160  23.474  1.00  0.00     0.045 C 
ATOM     11  C   UNL A   1      33.267  16.914  25.532  1.00  0.00     0.039 C 
ATOM     12  C   UNL A   1      32.892  19.299  26.256  1.00  0.00     0.045 C 
ATOM     13  C   UNL A   1      32.505  21.244  24.574  1.00  0.00     0.095 C 
BRANCH  13  14
ATOM     14  C   UNL A   1      33.221  22.466  23.983  1.00  0.00     0.226 C 
ATOM     15  O   UNL A   1      34.244  22.333  23.307  1.00  0.00    -0.275 OA
ATOM     16  N   UNL A   1      32.635  23.704  24.112  1.00  0.00    -0.339 N 
ATOM     17  C   UNL A   1      32.970  24.730  23.122  1.00  0.00     0.141 C 
ATOM     18  C   UNL A   1      31.855  24.199  25.255  1.00  0.00     0.141 C 
ATOM     19  C   UNL A   1      31.681  25.356  22.576  1.00  0.00     0.138 C 
ATOM     20  C   UNL A   1      30.630  25.050  24.838  1.00  0.00     0.138 C 
ATOM     21  N   UNL A   1      30.916  25.924  23.691  1.00  0.00    -0.368 N 
BRANCH  21  22
ATOM     22  C   UNL A   1      30.642  27.271  23.666  1.00  0.00     0.037 A 
ATOM     23  C   UNL A   1      31.521  28.181  24.271  1.00  0.00     0.026 A 
ATOM     24  C   UNL A   1      29.447  27.766  23.134  1.00  0.00     0.039 A 
ATOM     25  C   UNL A   1      31.219  29.540  24.356  1.00  0.00     0.003 A 
ATOM     26  C   UNL A   1      29.109  29.128  23.241  1.00  0.00     0.058 A 
ATOM     27  C   UNL A   1      30.012  30.012  23.850  1.00  0.00     0.013 A 
BRANCH  26  28
ATOM     28  C   UNL A   1      27.781  29.642  22.748  1.00  0.00     0.416 C 
ATOM     29  F   UNL A   1      27.777  29.866  21.404  1.00  0.00    -0.166 F 
ATOM     30  F   UNL A   1      26.764  28.766  22.982  1.00  0.00    -0.166 F 
ATOM     31  F   UNL A   1      27.400  30.818  23.321  1.00  0.00    -0.166 F 
ENDBRANCH  26  28
ENDBRANCH  21  22
ENDBRANCH  13  14
ENDBRANCH   3   6
ENDBRANCH   1   2
BRANCH   1  32
ATOM     32  C   UNL A   1      37.502  20.070  24.535  1.00  0.00     0.042 C 
BRANCH  32  33
ATOM     33  C   UNL A   1      38.452  20.409  25.679  1.00  0.00     0.118 C 
BRANCH  33  34
ATOM     34  N   UNL A   1      39.508  19.410  25.792  1.00  0.00    -0.352 N 
ATOM     35  C   UNL A   1      40.847  19.597  26.017  1.00  0.00     0.251 C 
ATOM     36  H   UNL A   1      39.220  18.474  25.691  1.00  0.00     0.163 HD
ATOM     37  O   UNL A   1      41.642  18.693  25.781  1.00  0.00    -0.269 OA
BRANCH  35  38
ATOM     38  C   UNL A   1      41.334  20.881  26.561  1.00  0.00     0.039 A 
ATOM     39  C   UNL A   1      41.250  21.110  27.937  1.00  0.00     0.014 A 
ATOM     40  C   UNL A   1      41.803  21.886  25.708  1.00  0.00     0.014 A 
ATOM     41  C   UNL A   1      41.655  22.339  28.462  1.00  0.00     0.010 A 
ATOM     42  C   UNL A   1      42.253  23.093  26.237  1.00  0.00     0.010 A 
ATOM     43  C   UNL A   1      42.166  23.338  27.616  1.00  0.00    -0.014 A 
BRANCH  43  44
ATOM     44  C   UNL A   1      42.576  24.657  28.153  1.00  0.00     0.031 A 
ATOM     45  C   UNL A   1      41.549  25.735  28.364  1.00  0.00     0.074 A 
ATOM     46  C   UNL A   1      43.875  24.902  28.406  1.00  0.00     0.049 A 
ATOM     47  N   UNL A   1      41.715  26.968  28.773  1.00  0.00    -0.248 NA
ATOM     48  C   UNL A   1      40.153  25.388  28.055  1.00  0.00     0.031 C 
ATOM     49  C   UNL A   1      44.970  23.952  28.205  1.00  0.00     0.029 A 
ATOM     50  N   UNL A   1      44.495  26.031  28.879  1.00  0.00    -0.354 N 
ATOM     51  C   UNL A   1      40.453  27.546  28.753  1.00  0.00     0.074 A 
ATOM     52  C   UNL A   1      39.536  26.544  28.252  1.00  0.00     0.031 C 
ATOM     53  C   UNL A   1      46.125  24.532  28.568  1.00  0.00     0.029 A 
ATOM     54  C   UNL A   1      45.856  25.901  28.999  1.00  0.00     0.049 A 
ATOM     55  H   UNL A   1      44.010  26.856  29.109  1.00  0.00     0.167 HD
ATOM     56  C   UNL A   1      40.086  28.793  29.134  1.00  0.00     0.037 A 
ATOM     57  C   UNL A   1      46.782  26.788  29.409  1.00  0.00     0.037 A 
ATOM     58  C   UNL A   1      40.992  29.779  29.659  1.00  0.00     0.049 A 
ATOM     59  C   UNL A   1      46.349  28.162  29.837  1.00  0.00     0.074 A 
ATOM     60  C   UNL A   1      40.709  31.050  30.129  1.00  0.00     0.029 A 
ATOM     61  N   UNL A   1      42.362  29.602  29.786  1.00  0.00    -0.354 N 
ATOM     62  N   UNL A   1      45.144  28.676  29.867  1.00  0.00    -0.248 NA
ATOM     63  C   UNL A   1      47.405  29.077  30.292  1.00  0.00     0.031 C 
ATOM     64  C   UNL A   1      41.912  31.654  30.512  1.00  0.00     0.029 A 
ATOM     65  C   UNL A   1      42.939  30.745  30.313  1.00  0.00     0.049 A 
ATOM     66  H   UNL A   1      42.851  28.784  29.538  1.00  0.00     0.167 HD
ATOM     67  C   UNL A   1      45.292  29.963  30.366  1.00  0.00     0.074 A 
ATOM     68  C   UNL A   1      46.703  30.147  30.637  1.00  0.00     0.031 C 
ATOM     69  C   UNL A   1      44.345  30.908  30.581  1.00  0.00     0.037 A 
BRANCH  56  70
ATOM     70  C   UNL A   1      38.636  29.157  29.003  1.00  0.00     0.057 A 
ATOM     71  C   UNL A   1      37.760  29.090  30.094  1.00  0.00     0.134 A 
ATOM     72  C   UNL A   1      38.119  29.606  27.783  1.00  0.00     0.134 A 
ATOM     73  F   UNL A   1      38.192  28.656  31.287  1.00  0.00    -0.206 F 
ATOM     74  C   UNL A   1      36.412  29.435  29.969  1.00  0.00     0.040 A 
ATOM     75  C   UNL A   1      36.779  29.977  27.652  1.00  0.00     0.040 A 
ATOM     76  F   UNL A   1      38.905  29.699  26.700  1.00  0.00    -0.206 F 
ATOM     77  C   UNL A   1      35.920  29.886  28.746  1.00  0.00     0.006 A 
ENDBRANCH  56  70
BRANCH  57  78
ATOM     78  C   UNL A   1      48.211  26.393  29.464  1.00  0.00     0.057 A 
ATOM     79  C   UNL A   1      48.753  25.816  30.617  1.00  0.00     0.134 A 
ATOM     80  C   UNL A   1      49.066  26.587  28.372  1.00  0.00     0.134 A 
ATOM     81  F   UNL A   1      47.986  25.624  31.700  1.00  0.00    -0.206 F 
ATOM     82  C   UNL A   1      50.099  25.456  30.690  1.00  0.00     0.040 A 
ATOM     83  C   UNL A   1      50.409  26.213  28.424  1.00  0.00     0.040 A 
ATOM     84  F   UNL A   1      48.603  27.132  27.238  1.00  0.00    -0.206 F 
ATOM     85  C   UNL A   1      50.931  25.651  29.588  1.00  0.00     0.006 A 
ENDBRANCH  57  78
BRANCH  69  86
ATOM     86  C   UNL A   1      44.799  32.212  31.163  1.00  0.00     0.057 A 
ATOM     87  C   UNL A   1      44.883  32.410  32.547  1.00  0.00     0.134 A 
ATOM     88  C   UNL A   1      45.191  33.268  30.331  1.00  0.00     0.134 A 
ATOM     89  F   UNL A   1      44.509  31.441  33.397  1.00  0.00    -0.206 F 
ATOM     90  C   UNL A   1      45.325  33.621  33.083  1.00  0.00     0.040 A 
ATOM     91  C   UNL A   1      45.654  34.475  30.856  1.00  0.00     0.040 A 
ATOM     92  F   UNL A   1      45.139  33.138  28.997  1.00  0.00    -0.206 F 
ATOM     93  C   UNL A   1      45.717  34.655  32.235  1.00  0.00     0.006 A 
ENDBRANCH  69  86
ENDBRANCH  43  44
ENDBRANCH  35  38
ENDBRANCH  33  34
ENDBRANCH  32  33
ENDBRANCH   1  32
TORSDOF 13
ENDMDL
MODEL 2
REMARK VINA RESULT:     -13.9      4.685      9.287
REMARK SMILES CC1=C(C)C[C@@H](C(=O)NCCCNC(=O)c2ccc(-c3c4nc(c(-c5c(F)cccc5F)c5ccc([nH]5)c(-c5c(F)cccc5F)c5nc(c(-c6c(F)cccc6F)c6ccc3[nH]6)C=C5)C=C4)cc2)[C@@H](C(=O)N2CCN(c3cccc(C(F)(F)F)c3)CC2)C1
REMARK SMILES IDX 10 1 9 2 7 3 8 4 6 6 1 7 2 8 3 9 89 10 4 11 5 12 70 13 71 14
REMARK SMILES IDX 72 15 73 16 74 17 88 18 75 19 87 20 76 21 77 22 78 23 86 24
REMARK SMILES IDX 79 25 81 26 80 27 82 28 83 29 84 30 85 31 11 32 12 33 13 34
REMARK SMILES IDX 14 35 15 37 16 38 17 39 69 40 18 41 68 42 19 43 20 44 21 45
REMARK SMILES IDX 62 46 22 47 67 48 61 49 63 50 23 51 66 52 60 53 59 54 24 56
REMARK SMILES IDX 50 57 33 58 49 59 34 60 37 61 48 62 64 63 35 64 36 65 47 67
REMARK SMILES IDX 65 68 38 69 25 70 26 71 31 72 27 73 28 74 30 75 32 76 29 77
REMARK SMILES IDX 51 78 52 79 57 80 53 81 54 82 56 83 58 84 55 85 39 86 40 87
REMARK SMILES IDX 45 88 41 89 42 90 44 91 46 92 43 93
REMARK H PARENT 9 5 13 36 63 55 37 66
REMARK Flexibility Score: inf
ROOT
ATOM      1  C   UNL A   1      30.904  30.452  25.383  1.00  0.00     0.117 C 
ENDROOT
BRANCH   1   2
ATOM      2  N   UNL A   1      32.163  29.852  24.983  1.00  0.00    -0.356 N 
ATOM      3  C   UNL A   1      32.539  29.059  23.956  1.00  0.00     0.224 C 
ATOM      4  O   UNL A   1      33.728  28.711  23.937  1.00  0.00    -0.275 OA
ATOM      5  H   UNL A   1      32.905  30.072  25.591  1.00  0.00     0.163 HD
BRANCH   3   6
ATOM      6  C   UNL A   1      31.614  28.548  22.855  1.00  0.00     0.095 C 
ATOM      7  C   UNL A   1      27.237  29.067  23.291  1.00  0.00     0.039 C 
ATOM      8  C   UNL A   1      28.691  28.908  22.913  1.00  0.00    -0.074 C 
ATOM      9  C   UNL A   1      29.439  29.844  22.298  1.00  0.00    -0.074 C 
ATOM     10  C   UNL A   1      29.247  27.561  23.310  1.00  0.00     0.045 C 
ATOM     11  C   UNL A   1      28.939  31.189  21.829  1.00  0.00     0.039 C 
ATOM     12  C   UNL A   1      30.911  29.631  22.033  1.00  0.00     0.045 C 
ATOM     13  C   UNL A   1      30.771  27.323  23.221  1.00  0.00     0.095 C 
BRANCH  13  14
ATOM     14  C   UNL A   1      31.210  26.622  24.515  1.00  0.00     0.226 C 
ATOM     15  O   UNL A   1      30.850  27.046  25.616  1.00  0.00    -0.275 OA
ATOM     16  N   UNL A   1      31.907  25.439  24.425  1.00  0.00    -0.339 N 
ATOM     17  C   UNL A   1      31.833  24.509  25.554  1.00  0.00     0.141 C 
ATOM     18  C   UNL A   1      32.899  25.072  23.404  1.00  0.00     0.141 C 
ATOM     19  C   UNL A   1      31.482  23.108  25.040  1.00  0.00     0.138 C 
ATOM     20  C   UNL A   1      32.796  23.594  22.954  1.00  0.00     0.138 C 
ATOM     21  N   UNL A   1      32.499  22.686  24.071  1.00  0.00    -0.368 N 
BRANCH  21  22
ATOM     22  C   UNL A   1      33.215  21.544  24.343  1.00  0.00     0.037 A 
ATOM     23  C   UNL A   1      34.519  21.633  24.849  1.00  0.00     0.026 A 
ATOM     24  C   UNL A   1      32.715  20.274  24.033  1.00  0.00     0.039 A 
ATOM     25  C   UNL A   1      35.309  20.499  25.034  1.00  0.00     0.003 A 
ATOM     26  C   UNL A   1      33.509  19.122  24.180  1.00  0.00     0.058 A 
ATOM     27  C   UNL A   1      34.809  19.247  24.692  1.00  0.00     0.013 A 
BRANCH  26  28
ATOM     28  C   UNL A   1      33.001  17.767  23.760  1.00  0.00     0.416 C 
ATOM     29  F   UNL A   1      34.011  16.905  23.455  1.00  0.00    -0.166 F 
ATOM     30  F   UNL A   1      32.274  17.157  24.737  1.00  0.00    -0.166 F 
ATOM     31  F   UNL A   1      32.196  17.798  22.661  1.00  0.00    -0.166 F 
ENDBRANCH  26  28
ENDBRANCH  21  22
ENDBRANCH  13  14
ENDBRANCH   3   6
ENDBRANCH   1   2
BRANCH   1  32
ATOM     32  C   UNL A   1      31.018  31.907  25.826  1.00  0.00     0.042 C 
BRANCH  32  33
ATOM     33  C   UNL A   1      32.098  32.145  26.876  1.00  0.00     0.118 C 
BRANCH  33  34
ATOM     34  N   UNL A   1      32.239  33.568  27.163  1.00  0.00    -0.352 N 
ATOM     35  C   UNL A   1      33.071  34.185  28.062  1.00  0.00     0.251 C 
ATOM     36  H   UNL A   1      31.658  34.167  26.640  1.00  0.00     0.163 HD
ATOM     37  O   UNL A   1      32.856  35.344  28.402  1.00  0.00    -0.269 OA
BRANCH  35  38
ATOM     38  C   UNL A   1      34.236  33.461  28.610  1.00  0.00     0.039 A 
ATOM     39  C   UNL A   1      34.031  32.242  29.263  1.00  0.00     0.014 A 
ATOM     40  C   UNL A   1      35.518  34.018  28.543  1.00  0.00     0.014 A 
ATOM     41  C   UNL A   1      35.115  31.571  29.834  1.00  0.00     0.010 A 
ATOM     42  C   UNL A   1      36.605  33.324  29.070  1.00  0.00     0.010 A 
ATOM     43  C   UNL A   1      36.411  32.104  29.735  1.00  0.00    -0.014 A 
BRANCH  43  44
ATOM     44  C   UNL A   1      37.568  31.417  30.358  1.00  0.00     0.031 A 
ATOM     45  C   UNL A   1      37.937  31.710  31.786  1.00  0.00     0.074 A 
ATOM     46  C   UNL A   1      38.314  30.568  29.627  1.00  0.00     0.049 A 
ATOM     47  N   UNL A   1      38.941  31.254  32.492  1.00  0.00    -0.248 NA
ATOM     48  C   UNL A   1      37.075  32.656  32.511  1.00  0.00     0.031 C 
ATOM     49  C   UNL A   1      38.082  30.232  28.222  1.00  0.00     0.029 A 
ATOM     50  N   UNL A   1      39.427  29.840  29.966  1.00  0.00    -0.354 N 
ATOM     51  C   UNL A   1      38.841  31.870  33.732  1.00  0.00     0.074 A 
ATOM     52  C   UNL A   1      37.704  32.763  33.672  1.00  0.00     0.031 C 
ATOM     53  C   UNL A   1      39.013  29.351  27.823  1.00  0.00     0.029 A 
ATOM     54  C   UNL A   1      39.923  29.083  28.934  1.00  0.00     0.049 A 
ATOM     55  H   UNL A   1      39.831  29.859  30.863  1.00  0.00     0.167 HD
ATOM     56  C   UNL A   1      39.616  31.694  34.829  1.00  0.00     0.037 A 
ATOM     57  C   UNL A   1      40.992  28.266  28.890  1.00  0.00     0.037 A 
ATOM     58  C   UNL A   1      40.728  30.785  34.899  1.00  0.00     0.049 A 
ATOM     59  C   UNL A   1      41.829  28.080  30.124  1.00  0.00     0.074 A 
ATOM     60  C   UNL A   1      41.537  30.490  35.983  1.00  0.00     0.029 A 
ATOM     61  N   UNL A   1      41.186  30.018  33.838  1.00  0.00    -0.354 N 
ATOM     62  N   UNL A   1      41.689  28.624  31.307  1.00  0.00    -0.248 NA
ATOM     63  C   UNL A   1      42.971  27.160  30.016  1.00  0.00     0.031 C 
ATOM     64  C   UNL A   1      42.506  29.569  35.570  1.00  0.00     0.029 A 
ATOM     65  C   UNL A   1      42.276  29.263  34.238  1.00  0.00     0.049 A 
ATOM     66  H   UNL A   1      40.794  30.012  32.936  1.00  0.00     0.167 HD
ATOM     67  C   UNL A   1      42.706  28.097  32.091  1.00  0.00     0.074 A 
ATOM     68  C   UNL A   1      43.449  27.179  31.252  1.00  0.00     0.031 C 
ATOM     69  C   UNL A   1      42.999  28.350  33.390  1.00  0.00     0.037 A 
BRANCH  56  70
ATOM     70  C   UNL A   1      39.278  32.500  36.049  1.00  0.00     0.057 A 
ATOM     71  C   UNL A   1      39.812  33.777  36.259  1.00  0.00     0.134 A 
ATOM     72  C   UNL A   1      38.386  32.005  37.009  1.00  0.00     0.134 A 
ATOM     73  F   UNL A   1      40.682  34.302  35.383  1.00  0.00    -0.206 F 
ATOM     74  C   UNL A   1      39.491  34.526  37.394  1.00  0.00     0.040 A 
ATOM     75  C   UNL A   1      38.038  32.755  38.134  1.00  0.00     0.040 A 
ATOM     76  F   UNL A   1      37.833  30.792  36.865  1.00  0.00    -0.206 F 
ATOM     77  C   UNL A   1      38.596  34.016  38.332  1.00  0.00     0.006 A 
ENDBRANCH  56  70
BRANCH  57  78
ATOM     78  C   UNL A   1      41.314  27.537  27.639  1.00  0.00     0.057 A 
ATOM     79  C   UNL A   1      42.103  28.128  26.645  1.00  0.00     0.134 A 
ATOM     80  C   UNL A   1      40.843  26.240  27.405  1.00  0.00     0.134 A 
ATOM     81  F   UNL A   1      42.567  29.376  26.806  1.00  0.00    -0.206 F 
ATOM     82  C   UNL A   1      42.399  27.462  25.456  1.00  0.00     0.040 A 
ATOM     83  C   UNL A   1      41.149  25.555  26.229  1.00  0.00     0.040 A 
ATOM     84  F   UNL A   1      40.086  25.620  28.322  1.00  0.00    -0.206 F 
ATOM     85  C   UNL A   1      41.924  26.168  25.248  1.00  0.00     0.006 A 
ENDBRANCH  57  78
BRANCH  69  86
ATOM     86  C   UNL A   1      44.152  27.603  33.989  1.00  0.00     0.057 A 
ATOM     87  C   UNL A   1      45.447  28.136  34.002  1.00  0.00     0.134 A 
ATOM     88  C   UNL A   1      43.958  26.354  34.592  1.00  0.00     0.134 A 
ATOM     89  F   UNL A   1      45.699  29.323  33.429  1.00  0.00    -0.206 F 
ATOM     90  C   UNL A   1      46.513  27.443  34.577  1.00  0.00     0.040 A 
ATOM     91  C   UNL A   1      45.012  25.662  35.189  1.00  0.00     0.040 A 
ATOM     92  F   UNL A   1      42.739  25.792  34.617  1.00  0.00    -0.206 F 
ATOM     93  C   UNL A   1      46.294  26.204  35.178  1.00  0.00     0.006 A 
ENDBRANCH  69  86
ENDBRANCH  43  44
ENDBRANCH  35  38
ENDBRANCH  33  34
ENDBRANCH  32  33
ENDBRANCH   1  32
TORSDOF 13
ENDMDL
MODEL 3
REMARK VINA RESULT:     -13.6      4.164      9.447
REMARK SMILES CC1=C(C)C[C@@H](C(=O)NCCCNC(=O)c2ccc(-c3c4nc(c(-c5c(F)cccc5F)c5ccc([nH]5)c(-c5c(F)cccc5F)c5nc(c(-c6c(F)cccc6F)c6ccc3[nH]6)C=C5)C=C4)cc2)[C@@H](C(=O)N2CCN(c3cccc(C(F)(F)F)c3)CC2)C1
REMARK SMILES IDX 10 1 9 2 7 3 8 4 6 6 1 7 2 8 3 9 89 10 4 11 5 12 70 13 71 14
REMARK SMILES IDX 72 15 73 16 74 17 88 18 75 19 87 20 76 21 77 22 78 23 86 24
REMARK SMILES IDX 79 25 81 26 80 27 82 28 83 29 84 30 85 31 11 32 12 33 13 34
REMARK SMILES IDX 14 35 15 37 16 38 17 39 69 40 18 41 68 42 19 43 20 44 21 45
REMARK SMILES IDX 62 46 22 47 67 48 61 49 63 50 23 51 66 52 60 53 59 54 24 56
REMARK SMILES IDX 50 57 33 58 49 59 34 60 37 61 48 62 64 63 35 64 36 65 47 67
REMARK SMILES IDX 65 68 38 69 25 70 26 71 31 72 27 73 28 74 30 75 32 76 29 77
REMARK SMILES IDX 51 78 52 79 57 80 53 81 54 82 56 83 58 84 55 85 39 86 40 87
REMARK SMILES IDX 45 88 41 89 42 90 44 91 46 92 43 93
REMARK H PARENT 9 5 13 36 63 55 37 66
REMARK Flexibility Score: inf
ROOT
ATOM      1  C   UNL A   1      30.999  30.287  25.485  1.00  0.00     0.117 C 
ENDROOT
BRANCH   1   2
ATOM      2  N   UNL A   1      32.218  29.735  24.922  1.00  0.00    -0.356 N 
ATOM      3  C   UNL A   1      32.499  29.033  23.803  1.00  0.00     0.224 C 
ATOM      4  O   UNL A   1      33.683  28.701  23.646  1.00  0.00    -0.275 OA
ATOM      5  H   UNL A   1      33.012  29.912  25.476  1.00  0.00     0.163 HD
BRANCH   3   6
ATOM      6  C   UNL A   1      31.478  28.604  22.753  1.00  0.00     0.095 C 
ATOM      7  C   UNL A   1      27.187  29.472  23.426  1.00  0.00     0.039 C 
ATOM      8  C   UNL A   1      28.601  29.199  22.970  1.00  0.00    -0.074 C 
ATOM      9  C   UNL A   1      29.388  30.074  22.316  1.00  0.00    -0.074 C 
ATOM     10  C   UNL A   1      29.067  27.809  23.335  1.00  0.00     0.045 C 
ATOM     11  C   UNL A   1      28.974  31.458  21.876  1.00  0.00     0.039 C 
ATOM     12  C   UNL A   1      30.821  29.745  21.971  1.00  0.00     0.045 C 
ATOM     13  C   UNL A   1      30.560  27.449  23.163  1.00  0.00     0.095 C 
BRANCH  13  14
ATOM     14  C   UNL A   1      31.010  26.709  24.431  1.00  0.00     0.226 C 
ATOM     15  O   UNL A   1      30.641  27.084  25.546  1.00  0.00    -0.275 OA
ATOM     16  N   UNL A   1      31.729  25.543  24.298  1.00  0.00    -0.339 N 
ATOM     17  C   UNL A   1      31.670  24.570  25.391  1.00  0.00     0.141 C 
ATOM     18  C   UNL A   1      32.728  25.233  23.265  1.00  0.00     0.141 C 
ATOM     19  C   UNL A   1      31.345  23.182  24.824  1.00  0.00     0.138 C 
ATOM     20  C   UNL A   1      32.653  23.771  22.760  1.00  0.00     0.138 C 
ATOM     21  N   UNL A   1      32.371  22.816  23.842  1.00  0.00    -0.368 N 
BRANCH  21  22
ATOM     22  C   UNL A   1      33.107  21.678  24.072  1.00  0.00     0.037 A 
ATOM     23  C   UNL A   1      32.466  20.438  24.207  1.00  0.00     0.026 A 
ATOM     24  C   UNL A   1      34.490  21.729  24.281  1.00  0.00     0.039 A 
ATOM     25  C   UNL A   1      33.173  19.285  24.547  1.00  0.00     0.003 A 
ATOM     26  C   UNL A   1      35.213  20.583  24.659  1.00  0.00     0.058 A 
ATOM     27  C   UNL A   1      34.541  19.358  24.781  1.00  0.00     0.013 A 
BRANCH  26  28
ATOM     28  C   UNL A   1      36.686  20.660  24.971  1.00  0.00     0.416 C 
ATOM     29  F   UNL A   1      37.266  19.429  25.043  1.00  0.00    -0.166 F 
ATOM     30  F   UNL A   1      37.384  21.346  24.025  1.00  0.00    -0.166 F 
ATOM     31  F   UNL A   1      36.965  21.270  26.157  1.00  0.00    -0.166 F 
ENDBRANCH  26  28
ENDBRANCH  21  22
ENDBRANCH  13  14
ENDBRANCH   3   6
ENDBRANCH   1   2
BRANCH   1  32
ATOM     32  C   UNL A   1      31.085  31.771  25.827  1.00  0.00     0.042 C 
BRANCH  32  33
ATOM     33  C   UNL A   1      32.169  32.103  26.847  1.00  0.00     0.118 C 
BRANCH  33  34
ATOM     34  N   UNL A   1      32.137  33.517  27.198  1.00  0.00    -0.352 N 
ATOM     35  C   UNL A   1      32.912  34.197  28.102  1.00  0.00     0.251 C 
ATOM     36  H   UNL A   1      31.467  34.059  26.721  1.00  0.00     0.163 HD
ATOM     37  O   UNL A   1      32.563  35.302  28.503  1.00  0.00    -0.269 OA
BRANCH  35  38
ATOM     38  C   UNL A   1      34.178  33.605  28.582  1.00  0.00     0.039 A 
ATOM     39  C   UNL A   1      34.147  32.725  29.667  1.00  0.00     0.014 A 
ATOM     40  C   UNL A   1      35.401  33.975  28.010  1.00  0.00     0.014 A 
ATOM     41  C   UNL A   1      35.340  32.199  30.168  1.00  0.00     0.010 A 
ATOM     42  C   UNL A   1      36.586  33.412  28.479  1.00  0.00     0.010 A 
ATOM     43  C   UNL A   1      36.568  32.534  29.573  1.00  0.00    -0.014 A 
BRANCH  43  44
ATOM     44  C   UNL A   1      37.845  32.004  30.108  1.00  0.00     0.031 A 
ATOM     45  C   UNL A   1      38.413  30.721  29.567  1.00  0.00     0.074 A 
ATOM     46  C   UNL A   1      38.469  32.651  31.110  1.00  0.00     0.049 A 
ATOM     47  N   UNL A   1      39.486  30.069  29.939  1.00  0.00    -0.248 NA
ATOM     48  C   UNL A   1      37.664  30.074  28.479  1.00  0.00     0.031 C 
ATOM     49  C   UNL A   1      37.999  33.882  31.745  1.00  0.00     0.029 A 
ATOM     50  N   UNL A   1      39.631  32.353  31.777  1.00  0.00    -0.354 N 
ATOM     51  C   UNL A   1      39.530  28.931  29.144  1.00  0.00     0.074 A 
ATOM     52  C   UNL A   1      38.356  28.958  28.299  1.00  0.00     0.031 C 
ATOM     53  C   UNL A   1      38.872  34.244  32.698  1.00  0.00     0.029 A 
ATOM     54  C   UNL A   1      39.947  33.257  32.760  1.00  0.00     0.049 A 
ATOM     55  H   UNL A   1      40.185  31.566  31.570  1.00  0.00     0.167 HD
ATOM     56  C   UNL A   1      40.473  27.960  29.109  1.00  0.00     0.037 A 
ATOM     57  C   UNL A   1      40.986  33.285  33.616  1.00  0.00     0.037 A 
ATOM     58  C   UNL A   1      41.656  27.948  29.928  1.00  0.00     0.049 A 
ATOM     59  C   UNL A   1      42.025  32.201  33.549  1.00  0.00     0.074 A 
ATOM     60  C   UNL A   1      42.701  27.040  29.924  1.00  0.00     0.029 A 
ATOM     61  N   UNL A   1      41.952  28.894  30.898  1.00  0.00    -0.354 N 
ATOM     62  N   UNL A   1      42.084  31.161  32.754  1.00  0.00    -0.248 NA
ATOM     63  C   UNL A   1      43.144  32.299  34.497  1.00  0.00     0.031 C 
ATOM     64  C   UNL A   1      43.615  27.420  30.914  1.00  0.00     0.029 A 
ATOM     65  C   UNL A   1      43.154  28.584  31.509  1.00  0.00     0.049 A 
ATOM     66  H   UNL A   1      41.389  29.671  31.119  1.00  0.00     0.167 HD
ATOM     67  C   UNL A   1      43.256  30.495  33.087  1.00  0.00     0.074 A 
ATOM     68  C   UNL A   1      43.883  31.255  34.148  1.00  0.00     0.031 C 
ATOM     69  C   UNL A   1      43.767  29.355  32.560  1.00  0.00     0.037 A 
BRANCH  56  70
ATOM     70  C   UNL A   1      40.266  26.831  28.142  1.00  0.00     0.057 A 
ATOM     71  C   UNL A   1      39.459  25.731  28.458  1.00  0.00     0.134 A 
ATOM     72  C   UNL A   1      40.856  26.858  26.873  1.00  0.00     0.134 A 
ATOM     73  F   UNL A   1      38.875  25.639  29.663  1.00  0.00    -0.206 F 
ATOM     74  C   UNL A   1      39.264  24.685  27.553  1.00  0.00     0.040 A 
ATOM     75  C   UNL A   1      40.648  25.830  25.951  1.00  0.00     0.040 A 
ATOM     76  F   UNL A   1      41.635  27.886  26.504  1.00  0.00    -0.206 F 
ATOM     77  C   UNL A   1      39.855  24.737  26.293  1.00  0.00     0.006 A 
ENDBRANCH  56  70
BRANCH  57  78
ATOM     78  C   UNL A   1      41.111  34.395  34.591  1.00  0.00     0.057 A 
ATOM     79  C   UNL A   1      40.601  34.274  35.887  1.00  0.00     0.134 A 
ATOM     80  C   UNL A   1      41.739  35.599  34.251  1.00  0.00     0.134 A 
ATOM     81  F   UNL A   1      39.972  33.151  36.263  1.00  0.00    -0.206 F 
ATOM     82  C   UNL A   1      40.695  35.317  36.810  1.00  0.00     0.040 A 
ATOM     83  C   UNL A   1      41.859  36.642  35.170  1.00  0.00     0.040 A 
ATOM     84  F   UNL A   1      42.252  35.773  33.025  1.00  0.00    -0.206 F 
ATOM     85  C   UNL A   1      41.331  36.505  36.452  1.00  0.00     0.006 A 
ENDBRANCH  57  78
BRANCH  69  86
ATOM     86  C   UNL A   1      45.080  28.880  33.103  1.00  0.00     0.057 A 
ATOM     87  C   UNL A   1      45.150  27.973  34.168  1.00  0.00     0.134 A 
ATOM     88  C   UNL A   1      46.286  29.305  32.532  1.00  0.00     0.134 A 
ATOM     89  F   UNL A   1      44.030  27.538  34.766  1.00  0.00    -0.206 F 
ATOM     90  C   UNL A   1      46.376  27.520  34.658  1.00  0.00     0.040 A 
ATOM     91  C   UNL A   1      47.516  28.843  32.999  1.00  0.00     0.040 A 
ATOM     92  F   UNL A   1      46.285  30.169  31.506  1.00  0.00    -0.206 F 
ATOM     93  C   UNL A   1      47.563  27.951  34.068  1.00  0.00     0.006 A 
ENDBRANCH  69  86
ENDBRANCH  43  44
ENDBRANCH  35  38
ENDBRANCH  33  34
ENDBRANCH  32  33
ENDBRANCH   1  32
TORSDOF 13
ENDMDL
