MODEL 1
REMARK VINA RESULT:     -11.9      0.000      0.000
REMARK SMILES COc1ccc(C(=O)NNC(=O)CCC(=O)NCCCNC(=O)c2ccc(-c3c4nc(c(-c5c(F)cccc5F)c5ccc([nH]5)c(-c5c(F)cccc5F)c5nc(c(-c6c(F)cccc6F)c6ccc3[nH]6)C=C5)C=C4)cc2)cc1Br
REMARK SMILES IDX 15 1 16 2 17 3 14 5 13 6 11 7 10 8 12 10 9 11 7 12 8 13 6 15
REMARK SMILES IDX 3 16 4 17 79 18 5 19 78 20 80 21 2 22 1 23 18 24 19 25 20 26
REMARK SMILES IDX 21 27 22 28 23 30 24 31 25 32 77 33 26 34 76 35 27 36 28 37
REMARK SMILES IDX 29 38 70 39 30 40 75 41 69 42 71 43 31 44 74 45 68 46 67 47
REMARK SMILES IDX 32 49 58 50 41 51 57 52 42 53 45 54 56 55 72 56 43 57 44 58
REMARK SMILES IDX 55 60 73 61 46 62 33 63 34 64 39 65 35 66 36 67 38 68 40 69
REMARK SMILES IDX 37 70 59 71 60 72 65 73 61 74 62 75 64 76 66 77 63 78 47 79
REMARK SMILES IDX 48 80 53 81 49 82 50 83 52 84 54 85 51 86
REMARK H PARENT 17 4 10 9 9 14 21 29 71 48 45 59
REMARK Flexibility Score: inf
ROOT
ATOM      1  C   UNL A   1      31.064  24.506  26.354  1.00  0.00     0.220 C 
ATOM      2  O   UNL A   1      30.779  23.706  27.250  1.00  0.00    -0.275 OA
ATOM      3  N   UNL A   1      30.213  25.557  26.123  1.00  0.00    -0.356 N 
ATOM      4  H   UNL A   1      29.307  25.446  26.492  1.00  0.00     0.163 HD
ENDROOT
BRANCH   1   5
ATOM      5  C   UNL A   1      32.270  24.240  25.470  1.00  0.00     0.110 C 
BRANCH   5   6
ATOM      6  C   UNL A   1      31.845  23.992  24.024  1.00  0.00     0.112 C 
BRANCH   6   7
ATOM      7  C   UNL A   1      33.017  23.477  23.238  1.00  0.00     0.238 C 
ATOM      8  N   UNL A   1      33.152  22.131  23.019  1.00  0.00    -0.267 N 
ATOM      9  H   UNL A   1      33.853  21.855  22.385  1.00  0.00     0.191 HD
ATOM     10  O   UNL A   1      33.817  24.260  22.721  1.00  0.00    -0.273 OA
BRANCH   8  11
ATOM     11  N   UNL A   1      32.388  21.101  23.612  1.00  0.00    -0.264 N 
ATOM     12  C   UNL A   1      32.799  20.176  24.573  1.00  0.00     0.269 C 
ATOM     13  O   UNL A   1      32.046  19.280  24.958  1.00  0.00    -0.267 OA
ATOM     14  H   UNL A   1      31.453  21.026  23.312  1.00  0.00     0.191 HD
BRANCH  12  15
ATOM     15  C   UNL A   1      34.164  20.221  25.126  1.00  0.00     0.042 A 
ATOM     16  C   UNL A   1      36.827  20.912  25.275  1.00  0.00     0.133 A 
ATOM     17  C   UNL A   1      36.483  19.619  24.878  1.00  0.00     0.048 A 
ATOM     18  C   UNL A   1      35.805  21.780  25.749  1.00  0.00     0.060 A 
ATOM     19  C   UNL A   1      35.135  19.299  24.734  1.00  0.00     0.018 A 
ATOM     20  C   UNL A   1      34.513  21.313  25.880  1.00  0.00     0.033 A 
ATOM     21  Br  UNL A   1      35.734  23.693  25.911  1.00  0.00    -0.047 Br
BRANCH  16  22
ATOM     22  O   UNL A   1      38.071  21.338  24.896  1.00  0.00    -0.496 OA
ATOM     23  C   UNL A   1      39.007  21.673  25.922  1.00  0.00     0.278 C 
ENDBRANCH  16  22
ENDBRANCH  12  15
ENDBRANCH   8  11
ENDBRANCH   6   7
ENDBRANCH   5   6
ENDBRANCH   1   5
BRANCH   3  24
ATOM     24  C   UNL A   1      30.443  26.812  25.416  1.00  0.00     0.117 C 
BRANCH  24  25
ATOM     25  C   UNL A   1      31.433  27.832  26.045  1.00  0.00     0.042 C 
BRANCH  25  26
ATOM     26  C   UNL A   1      31.739  29.141  25.271  1.00  0.00     0.118 C 
BRANCH  26  27
ATOM     27  N   UNL A   1      31.954  30.337  26.143  1.00  0.00    -0.352 N 
ATOM     28  C   UNL A   1      32.840  31.063  26.923  1.00  0.00     0.251 C 
ATOM     29  H   UNL A   1      31.095  30.817  26.177  1.00  0.00     0.163 HD
ATOM     30  O   UNL A   1      32.363  32.156  27.268  1.00  0.00    -0.269 OA
BRANCH  28  31
ATOM     31  C   UNL A   1      34.239  30.807  27.446  1.00  0.00     0.039 A 
ATOM     32  C   UNL A   1      35.063  31.882  27.814  1.00  0.00     0.014 A 
ATOM     33  C   UNL A   1      34.832  29.581  27.626  1.00  0.00     0.014 A 
ATOM     34  C   UNL A   1      36.365  31.697  28.359  1.00  0.00     0.010 A 
ATOM     35  C   UNL A   1      36.111  29.349  28.187  1.00  0.00     0.010 A 
ATOM     36  C   UNL A   1      36.899  30.415  28.584  1.00  0.00    -0.014 A 
BRANCH  36  37
ATOM     37  C   UNL A   1      38.106  30.192  29.441  1.00  0.00     0.031 A 
ATOM     38  C   UNL A   1      38.263  30.712  30.850  1.00  0.00     0.074 A 
ATOM     39  C   UNL A   1      39.170  29.613  28.848  1.00  0.00     0.049 A 
ATOM     40  N   UNL A   1      39.171  30.409  31.749  1.00  0.00    -0.248 NA
ATOM     41  C   UNL A   1      37.326  31.754  31.292  1.00  0.00     0.031 C 
ATOM     42  C   UNL A   1      39.258  29.316  27.416  1.00  0.00     0.029 A 
ATOM     43  N   UNL A   1      40.365  29.164  29.352  1.00  0.00    -0.354 N 
ATOM     44  C   UNL A   1      38.916  31.215  32.858  1.00  0.00     0.074 A 
ATOM     45  C   UNL A   1      37.801  32.065  32.494  1.00  0.00     0.031 C 
ATOM     46  C   UNL A   1      40.393  28.648  27.172  1.00  0.00     0.029 A 
ATOM     47  C   UNL A   1      41.102  28.458  28.429  1.00  0.00     0.049 A 
ATOM     48  H   UNL A   1      40.662  29.331  30.275  1.00  0.00     0.167 HD
ATOM     49  C   UNL A   1      39.547  31.227  34.063  1.00  0.00     0.037 A 
ATOM     50  C   UNL A   1      42.181  27.670  28.595  1.00  0.00     0.037 A 
ATOM     51  C   UNL A   1      40.664  30.362  34.379  1.00  0.00     0.049 A 
ATOM     52  C   UNL A   1      42.709  27.482  29.985  1.00  0.00     0.074 A 
ATOM     53  C   UNL A   1      41.314  30.174  35.588  1.00  0.00     0.029 A 
ATOM     54  N   UNL A   1      41.304  29.544  33.456  1.00  0.00    -0.354 N 
ATOM     55  N   UNL A   1      42.340  28.087  31.090  1.00  0.00    -0.248 NA
ATOM     56  C   UNL A   1      43.766  26.481  30.164  1.00  0.00     0.031 C 
ATOM     57  C   UNL A   1      42.362  29.264  35.388  1.00  0.00     0.029 A 
ATOM     58  C   UNL A   1      42.338  28.852  34.064  1.00  0.00     0.049 A 
ATOM     59  H   UNL A   1      41.058  29.468  32.507  1.00  0.00     0.167 HD
ATOM     60  C   UNL A   1      43.125  27.549  32.096  1.00  0.00     0.074 A 
ATOM     61  C   UNL A   1      43.950  26.528  31.476  1.00  0.00     0.031 C 
ATOM     62  C   UNL A   1      43.176  27.878  33.411  1.00  0.00     0.037 A 
BRANCH  49  63
ATOM     63  C   UNL A   1      39.040  32.155  35.143  1.00  0.00     0.057 A 
ATOM     64  C   UNL A   1      38.231  31.694  36.193  1.00  0.00     0.134 A 
ATOM     65  C   UNL A   1      39.431  33.502  35.197  1.00  0.00     0.134 A 
ATOM     66  F   UNL A   1      37.820  30.417  36.224  1.00  0.00    -0.206 F 
ATOM     67  C   UNL A   1      37.812  32.533  37.231  1.00  0.00     0.040 A 
ATOM     68  C   UNL A   1      39.042  34.345  36.245  1.00  0.00     0.040 A 
ATOM     69  F   UNL A   1      40.219  34.022  34.245  1.00  0.00    -0.206 F 
ATOM     70  C   UNL A   1      38.224  33.862  37.264  1.00  0.00     0.006 A 
ENDBRANCH  49  63
BRANCH  50  71
ATOM     71  C   UNL A   1      42.679  26.880  27.440  1.00  0.00     0.057 A 
ATOM     72  C   UNL A   1      42.108  25.641  27.126  1.00  0.00     0.134 A 
ATOM     73  C   UNL A   1      43.639  27.387  26.556  1.00  0.00     0.134 A 
ATOM     74  F   UNL A   1      41.182  25.100  27.932  1.00  0.00    -0.206 F 
ATOM     75  C   UNL A   1      42.472  24.933  25.979  1.00  0.00     0.040 A 
ATOM     76  C   UNL A   1      43.994  26.703  25.391  1.00  0.00     0.040 A 
ATOM     77  F   UNL A   1      44.203  28.582  26.783  1.00  0.00    -0.206 F 
ATOM     78  C   UNL A   1      43.410  25.472  25.100  1.00  0.00     0.006 A 
ENDBRANCH  50  71
BRANCH  62  79
ATOM     79  C   UNL A   1      44.193  27.145  34.232  1.00  0.00     0.057 A 
ATOM     80  C   UNL A   1      45.502  27.627  34.371  1.00  0.00     0.134 A 
ATOM     81  C   UNL A   1      43.876  25.934  34.857  1.00  0.00     0.134 A 
ATOM     82  F   UNL A   1      45.869  28.777  33.785  1.00  0.00    -0.206 F 
ATOM     83  C   UNL A   1      46.474  26.904  35.061  1.00  0.00     0.040 A 
ATOM     84  C   UNL A   1      44.833  25.215  35.573  1.00  0.00     0.040 A 
ATOM     85  F   UNL A   1      42.638  25.424  34.769  1.00  0.00    -0.206 F 
ATOM     86  C   UNL A   1      46.140  25.693  35.664  1.00  0.00     0.006 A 
ENDBRANCH  62  79
ENDBRANCH  36  37
ENDBRANCH  28  31
ENDBRANCH  26  27
ENDBRANCH  25  26
ENDBRANCH  24  25
ENDBRANCH   3  24
TORSDOF 15
ENDMDL
MODEL 2
REMARK VINA RESULT:     -11.9      3.757      8.701
REMARK SMILES COc1ccc(C(=O)NNC(=O)CCC(=O)NCCCNC(=O)c2ccc(-c3c4nc(c(-c5c(F)cccc5F)c5ccc([nH]5)c(-c5c(F)cccc5F)c5nc(c(-c6c(F)cccc6F)c6ccc3[nH]6)C=C5)C=C4)cc2)cc1Br
REMARK SMILES IDX 15 1 16 2 17 3 14 5 13 6 11 7 10 8 12 10 9 11 7 12 8 13 6 15
REMARK SMILES IDX 3 16 4 17 79 18 5 19 78 20 80 21 2 22 1 23 18 24 19 25 20 26
REMARK SMILES IDX 21 27 22 28 23 30 24 31 25 32 77 33 26 34 76 35 27 36 28 37
REMARK SMILES IDX 29 38 70 39 30 40 75 41 69 42 71 43 31 44 74 45 68 46 67 47
REMARK SMILES IDX 32 49 58 50 41 51 57 52 42 53 45 54 56 55 72 56 43 57 44 58
REMARK SMILES IDX 55 60 73 61 46 62 33 63 34 64 39 65 35 66 36 67 38 68 40 69
REMARK SMILES IDX 37 70 59 71 60 72 65 73 61 74 62 75 64 76 66 77 63 78 47 79
REMARK SMILES IDX 48 80 53 81 49 82 50 83 52 84 54 85 51 86
REMARK H PARENT 17 4 10 9 9 14 21 29 71 48 45 59
REMARK Flexibility Score: inf
ROOT
ATOM      1  C   UNL A   1      32.738  21.071  25.559  1.00  0.00     0.220 C 
ATOM      2  O   UNL A   1      31.794  20.297  25.379  1.00  0.00    -0.275 OA
ATOM      3  N   UNL A   1      33.991  20.543  25.736  1.00  0.00    -0.356 N 
ATOM      4  H   UNL A   1      34.009  19.590  25.983  1.00  0.00     0.163 HD
ENDROOT
BRANCH   1   5
ATOM      5  C   UNL A   1      32.467  22.560  25.695  1.00  0.00     0.110 C 
BRANCH   5   6
ATOM      6  C   UNL A   1      31.019  22.889  25.340  1.00  0.00     0.112 C 
BRANCH   6   7
ATOM      7  C   UNL A   1      30.333  23.491  26.534  1.00  0.00     0.238 C 
ATOM      8  N   UNL A   1      29.598  24.638  26.391  1.00  0.00    -0.267 N 
ATOM      9  H   UNL A   1      29.057  24.915  27.165  1.00  0.00     0.191 HD
ATOM     10  O   UNL A   1      30.362  22.919  27.626  1.00  0.00    -0.273 OA
BRANCH   8  11
ATOM     11  N   UNL A   1      29.539  25.463  25.245  1.00  0.00    -0.264 N 
ATOM     12  C   UNL A   1      30.383  26.523  24.911  1.00  0.00     0.269 C 
ATOM     13  O   UNL A   1      30.177  27.210  23.908  1.00  0.00    -0.267 OA
ATOM     14  H   UNL A   1      28.818  25.266  24.605  1.00  0.00     0.191 HD
BRANCH  12  15
ATOM     15  C   UNL A   1      31.523  26.880  25.774  1.00  0.00     0.042 A 
ATOM     16  C   UNL A   1      33.810  28.208  26.548  1.00  0.00     0.133 A 
ATOM     17  C   UNL A   1      33.910  26.892  26.094  1.00  0.00     0.048 A 
ATOM     18  C   UNL A   1      32.518  28.767  26.754  1.00  0.00     0.060 A 
ATOM     19  C   UNL A   1      32.761  26.253  25.635  1.00  0.00     0.018 A 
ATOM     20  C   UNL A   1      31.395  27.985  26.578  1.00  0.00     0.033 A 
ATOM     21  Br  UNL A   1      31.925  30.590  26.875  1.00  0.00    -0.047 Br
BRANCH  16  22
ATOM     22  O   UNL A   1      34.957  28.951  26.473  1.00  0.00    -0.496 OA
ATOM     23  C   UNL A   1      35.507  29.459  27.689  1.00  0.00     0.278 C 
ENDBRANCH  16  22
ENDBRANCH  12  15
ENDBRANCH   8  11
ENDBRANCH   6   7
ENDBRANCH   5   6
ENDBRANCH   1   5
BRANCH   3  24
ATOM     24  C   UNL A   1      35.301  21.175  25.614  1.00  0.00     0.117 C 
BRANCH  24  25
ATOM     25  C   UNL A   1      35.693  21.777  24.236  1.00  0.00     0.042 C 
BRANCH  25  26
ATOM     26  C   UNL A   1      37.087  22.444  24.089  1.00  0.00     0.118 C 
BRANCH  26  27
ATOM     27  N   UNL A   1      38.119  21.933  25.043  1.00  0.00    -0.352 N 
ATOM     28  C   UNL A   1      38.954  22.214  26.112  1.00  0.00     0.251 C 
ATOM     29  H   UNL A   1      38.270  20.987  24.812  1.00  0.00     0.163 HD
ATOM     30  O   UNL A   1      39.487  21.188  26.565  1.00  0.00    -0.269 OA
BRANCH  28  31
ATOM     31  C   UNL A   1      39.360  23.487  26.827  1.00  0.00     0.039 A 
ATOM     32  C   UNL A   1      40.439  23.479  27.726  1.00  0.00     0.014 A 
ATOM     33  C   UNL A   1      38.778  24.723  26.689  1.00  0.00     0.014 A 
ATOM     34  C   UNL A   1      40.895  24.656  28.385  1.00  0.00     0.010 A 
ATOM     35  C   UNL A   1      39.212  25.922  27.302  1.00  0.00     0.010 A 
ATOM     36  C   UNL A   1      40.301  25.910  28.155  1.00  0.00    -0.014 A 
BRANCH  36  37
ATOM     37  C   UNL A   1      40.955  27.190  28.574  1.00  0.00     0.031 A 
ATOM     38  C   UNL A   1      42.404  27.534  28.321  1.00  0.00     0.074 A 
ATOM     39  C   UNL A   1      40.226  28.015  29.353  1.00  0.00     0.049 A 
ATOM     40  N   UNL A   1      43.018  28.687  28.458  1.00  0.00    -0.248 NA
ATOM     41  C   UNL A   1      43.298  26.436  27.931  1.00  0.00     0.031 C 
ATOM     42  C   UNL A   1      38.912  27.680  29.908  1.00  0.00     0.029 A 
ATOM     43  N   UNL A   1      40.461  29.288  29.808  1.00  0.00    -0.354 N 
ATOM     44  C   UNL A   1      44.363  28.456  28.169  1.00  0.00     0.074 A 
ATOM     45  C   UNL A   1      44.484  27.036  27.907  1.00  0.00     0.031 C 
ATOM     46  C   UNL A   1      38.415  28.750  30.543  1.00  0.00     0.029 A 
ATOM     47  C   UNL A   1      39.366  29.846  30.425  1.00  0.00     0.049 A 
ATOM     48  H   UNL A   1      41.324  29.752  29.703  1.00  0.00     0.167 HD
ATOM     49  C   UNL A   1      45.386  29.351  28.115  1.00  0.00     0.037 A 
ATOM     50  C   UNL A   1      39.120  31.122  30.778  1.00  0.00     0.037 A 
ATOM     51  C   UNL A   1      45.217  30.762  28.391  1.00  0.00     0.049 A 
ATOM     52  C   UNL A   1      40.163  32.152  30.466  1.00  0.00     0.074 A 
ATOM     53  C   UNL A   1      46.126  31.798  28.252  1.00  0.00     0.029 A 
ATOM     54  N   UNL A   1      44.047  31.328  28.881  1.00  0.00    -0.354 N 
ATOM     55  N   UNL A   1      41.375  31.974  29.995  1.00  0.00    -0.248 NA
ATOM     56  C   UNL A   1      39.799  33.555  30.692  1.00  0.00     0.031 C 
ATOM     57  C   UNL A   1      45.513  32.983  28.684  1.00  0.00     0.029 A 
ATOM     58  C   UNL A   1      44.208  32.693  29.050  1.00  0.00     0.049 A 
ATOM     59  H   UNL A   1      43.222  30.830  29.079  1.00  0.00     0.167 HD
ATOM     60  C   UNL A   1      41.925  33.240  29.876  1.00  0.00     0.074 A 
ATOM     61  C   UNL A   1      40.891  34.178  30.272  1.00  0.00     0.031 C 
ATOM     62  C   UNL A   1      43.177  33.597  29.493  1.00  0.00     0.037 A 
BRANCH  49  63
ATOM     63  C   UNL A   1      46.759  28.866  27.709  1.00  0.00     0.057 A 
ATOM     64  C   UNL A   1      47.716  28.477  28.659  1.00  0.00     0.134 A 
ATOM     65  C   UNL A   1      47.107  28.691  26.361  1.00  0.00     0.134 A 
ATOM     66  F   UNL A   1      47.460  28.602  29.971  1.00  0.00    -0.206 F 
ATOM     67  C   UNL A   1      48.965  27.966  28.289  1.00  0.00     0.040 A 
ATOM     68  C   UNL A   1      48.342  28.154  25.977  1.00  0.00     0.040 A 
ATOM     69  F   UNL A   1      46.246  29.018  25.386  1.00  0.00    -0.206 F 
ATOM     70  C   UNL A   1      49.278  27.795  26.944  1.00  0.00     0.006 A 
ENDBRANCH  49  63
BRANCH  50  71
ATOM     71  C   UNL A   1      37.768  31.483  31.277  1.00  0.00     0.057 A 
ATOM     72  C   UNL A   1      37.501  31.512  32.652  1.00  0.00     0.134 A 
ATOM     73  C   UNL A   1      36.755  31.922  30.418  1.00  0.00     0.134 A 
ATOM     74  F   UNL A   1      38.431  31.105  33.529  1.00  0.00    -0.206 F 
ATOM     75  C   UNL A   1      36.279  31.963  33.154  1.00  0.00     0.040 A 
ATOM     76  C   UNL A   1      35.537  32.399  30.907  1.00  0.00     0.040 A 
ATOM     77  F   UNL A   1      36.956  31.946  29.092  1.00  0.00    -0.206 F 
ATOM     78  C   UNL A   1      35.297  32.421  32.279  1.00  0.00     0.006 A 
ENDBRANCH  50  71
BRANCH  62  79
ATOM     79  C   UNL A   1      43.482  35.064  29.535  1.00  0.00     0.057 A 
ATOM     80  C   UNL A   1      43.860  35.695  30.728  1.00  0.00     0.134 A 
ATOM     81  C   UNL A   1      43.361  35.857  28.388  1.00  0.00     0.134 A 
ATOM     82  F   UNL A   1      43.980  34.989  31.862  1.00  0.00    -0.206 F 
ATOM     83  C   UNL A   1      44.060  37.074  30.789  1.00  0.00     0.040 A 
ATOM     84  C   UNL A   1      43.585  37.233  28.432  1.00  0.00     0.040 A 
ATOM     85  F   UNL A   1      43.011  35.310  27.214  1.00  0.00    -0.206 F 
ATOM     86  C   UNL A   1      43.922  37.847  29.638  1.00  0.00     0.006 A 
ENDBRANCH  62  79
ENDBRANCH  36  37
ENDBRANCH  28  31
ENDBRANCH  26  27
ENDBRANCH  25  26
ENDBRANCH  24  25
ENDBRANCH   3  24
TORSDOF 15
ENDMDL
MODEL 3
REMARK VINA RESULT:     -11.8      5.219      8.317
REMARK SMILES COc1ccc(C(=O)NNC(=O)CCC(=O)NCCCNC(=O)c2ccc(-c3c4nc(c(-c5c(F)cccc5F)c5ccc([nH]5)c(-c5c(F)cccc5F)c5nc(c(-c6c(F)cccc6F)c6ccc3[nH]6)C=C5)C=C4)cc2)cc1Br
REMARK SMILES IDX 15 1 16 2 17 3 14 5 13 6 11 7 10 8 12 10 9 11 7 12 8 13 6 15
REMARK SMILES IDX 3 16 4 17 79 18 5 19 78 20 80 21 2 22 1 23 18 24 19 25 20 26
REMARK SMILES IDX 21 27 22 28 23 30 24 31 25 32 77 33 26 34 76 35 27 36 28 37
REMARK SMILES IDX 29 38 70 39 30 40 75 41 69 42 71 43 31 44 74 45 68 46 67 47
REMARK SMILES IDX 32 49 58 50 41 51 57 52 42 53 45 54 56 55 72 56 43 57 44 58
REMARK SMILES IDX 55 60 73 61 46 62 33 63 34 64 39 65 35 66 36 67 38 68 40 69
REMARK SMILES IDX 37 70 59 71 60 72 65 73 61 74 62 75 64 76 66 77 63 78 47 79
REMARK SMILES IDX 48 80 53 81 49 82 50 83 52 84 54 85 51 86
REMARK H PARENT 17 4 10 9 9 14 21 29 71 48 45 59
REMARK Flexibility Score: inf
ROOT
ATOM      1  C   UNL A   1      36.064  34.770  33.306  1.00  0.00     0.220 C 
ATOM      2  O   UNL A   1      37.152  35.275  33.015  1.00  0.00    -0.275 OA
ATOM      3  N   UNL A   1      34.926  35.502  33.088  1.00  0.00    -0.356 N 
ATOM      4  H   UNL A   1      35.069  36.471  32.980  1.00  0.00     0.163 HD
ENDROOT
BRANCH   1   5
ATOM      5  C   UNL A   1      36.029  33.417  33.995  1.00  0.00     0.110 C 
BRANCH   5   6
ATOM      6  C   UNL A   1      37.428  32.812  34.088  1.00  0.00     0.112 C 
BRANCH   6   7
ATOM      7  C   UNL A   1      37.486  31.855  35.245  1.00  0.00     0.238 C 
ATOM      8  N   UNL A   1      37.914  30.569  35.045  1.00  0.00    -0.267 N 
ATOM      9  H   UNL A   1      38.067  30.023  35.849  1.00  0.00     0.191 HD
ATOM     10  O   UNL A   1      37.225  32.237  36.388  1.00  0.00    -0.273 OA
BRANCH   8  11
ATOM     11  N   UNL A   1      38.157  29.947  33.799  1.00  0.00    -0.264 N 
ATOM     12  C   UNL A   1      39.389  29.598  33.244  1.00  0.00     0.269 C 
ATOM     13  O   UNL A   1      39.465  29.120  32.110  1.00  0.00    -0.267 OA
ATOM     14  H   UNL A   1      37.363  29.733  33.258  1.00  0.00     0.191 HD
BRANCH  12  15
ATOM     15  C   UNL A   1      40.642  29.831  33.983  1.00  0.00     0.042 A 
ATOM     16  C   UNL A   1      42.289  30.103  36.176  1.00  0.00     0.133 A 
ATOM     17  C   UNL A   1      41.890  31.246  35.482  1.00  0.00     0.048 A 
ATOM     18  C   UNL A   1      41.973  28.826  35.635  1.00  0.00     0.060 A 
ATOM     19  C   UNL A   1      40.998  31.108  34.421  1.00  0.00     0.018 A 
ATOM     20  C   UNL A   1      41.348  28.735  34.409  1.00  0.00     0.033 A 
ATOM     21  Br  UNL A   1      41.880  27.088  36.449  1.00  0.00    -0.047 Br
BRANCH  16  22
ATOM     22  O   UNL A   1      42.693  30.303  37.468  1.00  0.00    -0.496 OA
ATOM     23  C   UNL A   1      42.952  31.643  37.890  1.00  0.00     0.278 C 
ENDBRANCH  16  22
ENDBRANCH  12  15
ENDBRANCH   8  11
ENDBRANCH   6   7
ENDBRANCH   5   6
ENDBRANCH   1   5
BRANCH   3  24
ATOM     24  C   UNL A   1      33.535  35.069  32.993  1.00  0.00     0.117 C 
BRANCH  24  25
ATOM     25  C   UNL A   1      32.510  36.046  32.353  1.00  0.00     0.042 C 
BRANCH  25  26
ATOM     26  C   UNL A   1      32.837  36.657  30.964  1.00  0.00     0.118 C 
BRANCH  26  27
ATOM     27  N   UNL A   1      32.707  35.699  29.823  1.00  0.00    -0.352 N 
ATOM     28  C   UNL A   1      33.223  34.591  29.170  1.00  0.00     0.251 C 
ATOM     29  H   UNL A   1      31.908  35.974  29.317  1.00  0.00     0.163 HD
ATOM     30  O   UNL A   1      32.456  34.176  28.287  1.00  0.00    -0.269 OA
BRANCH  28  31
ATOM     31  C   UNL A   1      34.509  33.799  29.294  1.00  0.00     0.039 A 
ATOM     32  C   UNL A   1      35.450  33.813  28.252  1.00  0.00     0.014 A 
ATOM     33  C   UNL A   1      34.897  33.033  30.366  1.00  0.00     0.014 A 
ATOM     34  C   UNL A   1      36.696  33.129  28.336  1.00  0.00     0.010 A 
ATOM     35  C   UNL A   1      36.133  32.358  30.504  1.00  0.00     0.010 A 
ATOM     36  C   UNL A   1      37.070  32.412  29.487  1.00  0.00    -0.014 A 
BRANCH  36  37
ATOM     37  C   UNL A   1      38.479  31.966  29.726  1.00  0.00     0.031 A 
ATOM     38  C   UNL A   1      39.515  32.770  30.476  1.00  0.00     0.074 A 
ATOM     39  C   UNL A   1      38.872  30.839  29.099  1.00  0.00     0.049 A 
ATOM     40  N   UNL A   1      40.696  32.397  30.914  1.00  0.00    -0.248 NA
ATOM     41  C   UNL A   1      39.226  34.192  30.708  1.00  0.00     0.031 C 
ATOM     42  C   UNL A   1      38.060  30.113  28.118  1.00  0.00     0.029 A 
ATOM     43  N   UNL A   1      40.024  30.099  29.185  1.00  0.00    -0.354 N 
ATOM     44  C   UNL A   1      41.287  33.529  31.474  1.00  0.00     0.074 A 
ATOM     45  C   UNL A   1      40.355  34.619  31.264  1.00  0.00     0.031 C 
ATOM     46  C   UNL A   1      38.693  28.985  27.769  1.00  0.00     0.029 A 
ATOM     47  C   UNL A   1      39.943  28.902  28.511  1.00  0.00     0.049 A 
ATOM     48  H   UNL A   1      40.824  30.394  29.678  1.00  0.00     0.167 HD
ATOM     49  C   UNL A   1      42.483  33.636  32.112  1.00  0.00     0.037 A 
ATOM     50  C   UNL A   1      40.744  27.821  28.555  1.00  0.00     0.037 A 
ATOM     51  C   UNL A   1      43.386  32.518  32.291  1.00  0.00     0.049 A 
ATOM     52  C   UNL A   1      41.926  27.857  29.476  1.00  0.00     0.074 A 
ATOM     53  C   UNL A   1      44.561  32.447  33.021  1.00  0.00     0.029 A 
ATOM     54  N   UNL A   1      43.205  31.268  31.713  1.00  0.00    -0.354 N 
ATOM     55  N   UNL A   1      42.385  28.865  30.179  1.00  0.00    -0.248 NA
ATOM     56  C   UNL A   1      42.675  26.608  29.643  1.00  0.00     0.031 C 
ATOM     57  C   UNL A   1      45.103  31.164  32.860  1.00  0.00     0.029 A 
ATOM     58  C   UNL A   1      44.243  30.421  32.066  1.00  0.00     0.049 A 
ATOM     59  H   UNL A   1      42.449  31.019  31.135  1.00  0.00     0.167 HD
ATOM     60  C   UNL A   1      43.485  28.377  30.867  1.00  0.00     0.074 A 
ATOM     61  C   UNL A   1      43.585  26.967  30.537  1.00  0.00     0.031 C 
ATOM     62  C   UNL A   1      44.345  29.036  31.683  1.00  0.00     0.037 A 
BRANCH  49  63
ATOM     63  C   UNL A   1      42.881  34.971  32.698  1.00  0.00     0.057 A 
ATOM     64  C   UNL A   1      42.499  35.351  33.994  1.00  0.00     0.134 A 
ATOM     65  C   UNL A   1      43.730  35.852  32.011  1.00  0.00     0.134 A 
ATOM     66  F   UNL A   1      41.696  34.562  34.725  1.00  0.00    -0.206 F 
ATOM     67  C   UNL A   1      42.917  36.557  34.568  1.00  0.00     0.040 A 
ATOM     68  C   UNL A   1      44.179  37.048  32.584  1.00  0.00     0.040 A 
ATOM     69  F   UNL A   1      44.160  35.559  30.775  1.00  0.00    -0.206 F 
ATOM     70  C   UNL A   1      43.767  37.406  33.866  1.00  0.00     0.006 A 
ENDBRANCH  49  63
BRANCH  50  71
ATOM     71  C   UNL A   1      40.322  26.584  27.848  1.00  0.00     0.057 A 
ATOM     72  C   UNL A   1      40.867  26.256  26.600  1.00  0.00     0.134 A 
ATOM     73  C   UNL A   1      39.470  25.646  28.442  1.00  0.00     0.134 A 
ATOM     74  F   UNL A   1      41.691  27.112  25.978  1.00  0.00    -0.206 F 
ATOM     75  C   UNL A   1      40.582  25.045  25.969  1.00  0.00     0.040 A 
ATOM     76  C   UNL A   1      39.196  24.419  27.835  1.00  0.00     0.040 A 
ATOM     77  F   UNL A   1      38.937  25.886  29.650  1.00  0.00    -0.206 F 
ATOM     78  C   UNL A   1      39.753  24.115  26.594  1.00  0.00     0.006 A 
ENDBRANCH  50  71
BRANCH  62  79
ATOM     79  C   UNL A   1      45.484  28.226  32.226  1.00  0.00     0.057 A 
ATOM     80  C   UNL A   1      45.315  27.382  33.333  1.00  0.00     0.134 A 
ATOM     81  C   UNL A   1      46.762  28.317  31.665  1.00  0.00     0.134 A 
ATOM     82  F   UNL A   1      44.115  27.264  33.920  1.00  0.00    -0.206 F 
ATOM     83  C   UNL A   1      46.390  26.695  33.893  1.00  0.00     0.040 A 
ATOM     84  C   UNL A   1      47.841  27.613  32.202  1.00  0.00     0.040 A 
ATOM     85  F   UNL A   1      46.986  29.100  30.600  1.00  0.00    -0.206 F 
ATOM     86  C   UNL A   1      47.659  26.810  33.327  1.00  0.00     0.006 A 
ENDBRANCH  62  79
ENDBRANCH  36  37
ENDBRANCH  28  31
ENDBRANCH  26  27
ENDBRANCH  25  26
ENDBRANCH  24  25
ENDBRANCH   3  24
TORSDOF 15
ENDMDL
