MODEL 1
REMARK VINA RESULT:     -12.0      0.000      0.000
REMARK SMILES O=C(NCCCNC(=O)c1ccc(-c2c3nc(c(-c4c(F)cccc4F)c4ccc([nH]4)c(-c4c(F)cccc4F)c4nc(c(-c5c(F)cccc5F)c5ccc2[nH]5)C=C4)C=C3)cc1)c1ccc(N[C@H]2OC[C@@H](O)[C@@H](O)[C@H]2O)cc1
REMARK SMILES IDX 4 1 3 2 1 3 2 4 64 6 65 7 79 8 66 9 78 10 67 11 68 12 69 14
REMARK SMILES IDX 70 15 76 16 71 17 74 18 72 19 77 20 75 22 73 24 5 26 6 27
REMARK SMILES IDX 7 28 8 29 9 31 10 32 11 33 63 34 12 35 62 36 13 37 14 38
REMARK SMILES IDX 15 39 56 40 16 41 61 42 55 43 57 44 17 45 60 46 54 47 53 48
REMARK SMILES IDX 18 50 44 51 27 52 43 53 28 54 31 55 42 56 58 57 29 58 30 59
REMARK SMILES IDX 41 61 59 62 32 63 19 64 20 65 25 66 21 67 22 68 24 69 26 70
REMARK SMILES IDX 23 71 45 72 46 73 51 74 47 75 48 76 50 77 52 78 49 79 33 80
REMARK SMILES IDX 34 81 39 82 35 83 36 84 38 85 40 86 37 87
REMARK H PARENT 3 5 68 13 77 21 75 23 73 25 7 30 57 49 31 60
REMARK Flexibility Score: inf
ROOT
ATOM      1  C   UNL A   1      33.994  23.442  25.655  1.00  0.00     0.118 C 
ENDROOT
BRANCH   1   2
ATOM      2  N   UNL A   1      32.783  23.114  26.396  1.00  0.00    -0.352 N 
ATOM      3  O   UNL A   1      30.829  23.510  27.446  1.00  0.00    -0.269 OA
ATOM      4  C   UNL A   1      31.663  23.872  26.614  1.00  0.00     0.251 C 
ATOM      5  H   UNL A   1      32.768  22.216  26.798  1.00  0.00     0.163 HD
BRANCH   4   6
ATOM      6  C   UNL A   1      31.460  25.128  25.869  1.00  0.00     0.039 A 
ATOM      7  C   UNL A   1      30.887  25.119  24.599  1.00  0.00     0.016 A 
ATOM      8  C   UNL A   1      31.811  26.340  26.462  1.00  0.00     0.016 A 
ATOM      9  C   UNL A   1      30.768  26.309  23.881  1.00  0.00     0.026 A 
ATOM     10  C   UNL A   1      31.659  27.530  25.742  1.00  0.00     0.026 A 
ATOM     11  C   UNL A   1      31.172  27.533  24.425  1.00  0.00     0.036 A 
BRANCH  11  12
ATOM     12  N   UNL A   1      31.039  28.744  23.765  1.00  0.00    -0.358 N 
ATOM     13  H   UNL A   1      31.851  29.151  23.383  1.00  0.00     0.163 HD
BRANCH  12  14
ATOM     14  C   UNL A   1      29.779  29.455  23.599  1.00  0.00     0.244 C 
ATOM     15  O   UNL A   1      29.948  30.812  24.016  1.00  0.00    -0.353 OA
ATOM     16  C   UNL A   1      29.414  29.456  22.096  1.00  0.00     0.195 C 
ATOM     17  C   UNL A   1      28.741  31.578  23.932  1.00  0.00     0.197 C 
ATOM     18  C   UNL A   1      28.126  30.262  21.892  1.00  0.00     0.178 C 
ATOM     19  C   UNL A   1      28.253  31.672  22.486  1.00  0.00     0.171 C 
BRANCH  16  20
ATOM     20  O   UNL A   1      30.490  30.072  21.343  1.00  0.00    -0.386 OA
ATOM     21  H   UNL A   1      30.166  30.325  20.465  1.00  0.00     0.211 HD
ENDBRANCH  16  20
BRANCH  18  22
ATOM     22  O   UNL A   1      27.815  30.340  20.498  1.00  0.00    -0.387 OA
ATOM     23  H   UNL A   1      27.626  31.261  20.261  1.00  0.00     0.211 HD
ENDBRANCH  18  22
BRANCH  19  24
ATOM     24  O   UNL A   1      29.178  32.453  21.715  1.00  0.00    -0.388 OA
ATOM     25  H   UNL A   1      29.901  32.755  22.287  1.00  0.00     0.211 HD
ENDBRANCH  19  24
ENDBRANCH  12  14
ENDBRANCH  11  12
ENDBRANCH   4   6
ENDBRANCH   1   2
BRANCH   1  26
ATOM     26  C   UNL A   1      35.259  23.117  26.436  1.00  0.00     0.042 C 
BRANCH  26  27
ATOM     27  C   UNL A   1      36.551  23.515  25.738  1.00  0.00     0.118 C 
BRANCH  27  28
ATOM     28  N   UNL A   1      37.633  22.568  25.964  1.00  0.00    -0.352 N 
ATOM     29  C   UNL A   1      38.930  22.763  26.365  1.00  0.00     0.251 C 
ATOM     30  H   UNL A   1      37.393  21.627  25.802  1.00  0.00     0.163 HD
ATOM     31  O   UNL A   1      39.714  21.817  26.323  1.00  0.00    -0.269 OA
BRANCH  29  32
ATOM     32  C   UNL A   1      39.406  24.086  26.829  1.00  0.00     0.039 A 
ATOM     33  C   UNL A   1      39.213  24.428  28.171  1.00  0.00     0.014 A 
ATOM     34  C   UNL A   1      39.981  25.014  25.958  1.00  0.00     0.014 A 
ATOM     35  C   UNL A   1      39.631  25.674  28.643  1.00  0.00     0.010 A 
ATOM     36  C   UNL A   1      40.481  26.218  26.447  1.00  0.00     0.010 A 
ATOM     37  C   UNL A   1      40.291  26.572  27.790  1.00  0.00    -0.014 A 
BRANCH  37  38
ATOM     38  C   UNL A   1      40.752  27.894  28.284  1.00  0.00     0.031 A 
ATOM     39  C   UNL A   1      42.220  28.228  28.306  1.00  0.00     0.074 A 
ATOM     40  C   UNL A   1      39.854  28.783  28.752  1.00  0.00     0.049 A 
ATOM     41  N   UNL A   1      42.814  29.323  28.713  1.00  0.00    -0.248 NA
ATOM     42  C   UNL A   1      43.146  27.185  27.837  1.00  0.00     0.031 C 
ATOM     43  C   UNL A   1      38.411  28.558  28.844  1.00  0.00     0.029 A 
ATOM     44  N   UNL A   1      40.025  30.053  29.240  1.00  0.00    -0.354 N 
ATOM     45  C   UNL A   1      44.176  29.091  28.567  1.00  0.00     0.074 A 
ATOM     46  C   UNL A   1      44.324  27.734  28.088  1.00  0.00     0.031 C 
ATOM     47  C   UNL A   1      37.824  29.665  29.329  1.00  0.00     0.029 A 
ATOM     48  C   UNL A   1      38.851  30.665  29.606  1.00  0.00     0.049 A 
ATOM     49  H   UNL A   1      40.906  30.486  29.320  1.00  0.00     0.167 HD
ATOM     50  C   UNL A   1      45.209  29.938  28.786  1.00  0.00     0.037 A 
ATOM     51  C   UNL A   1      38.627  31.896  30.103  1.00  0.00     0.037 A 
ATOM     52  C   UNL A   1      45.061  31.300  29.229  1.00  0.00     0.049 A 
ATOM     53  C   UNL A   1      39.786  32.832  30.300  1.00  0.00     0.074 A 
ATOM     54  C   UNL A   1      46.040  32.260  29.414  1.00  0.00     0.029 A 
ATOM     55  N   UNL A   1      43.851  31.894  29.553  1.00  0.00    -0.354 N 
ATOM     56  N   UNL A   1      41.063  32.625  30.084  1.00  0.00    -0.248 NA
ATOM     57  C   UNL A   1      39.470  34.179  30.795  1.00  0.00     0.031 C 
ATOM     58  C   UNL A   1      45.426  33.426  29.887  1.00  0.00     0.029 A 
ATOM     59  C   UNL A   1      44.060  33.204  29.951  1.00  0.00     0.049 A 
ATOM     60  H   UNL A   1      42.973  31.452  29.506  1.00  0.00     0.167 HD
ATOM     61  C   UNL A   1      41.699  33.821  30.390  1.00  0.00     0.074 A 
ATOM     62  C   UNL A   1      40.665  34.754  30.789  1.00  0.00     0.031 C 
ATOM     63  C   UNL A   1      43.020  34.122  30.343  1.00  0.00     0.037 A 
BRANCH  50  64
ATOM     64  C   UNL A   1      46.595  29.413  28.542  1.00  0.00     0.057 A 
ATOM     65  C   UNL A   1      47.213  29.511  27.287  1.00  0.00     0.134 A 
ATOM     66  C   UNL A   1      47.329  28.819  29.577  1.00  0.00     0.134 A 
ATOM     67  F   UNL A   1      46.561  30.057  26.249  1.00  0.00    -0.206 F 
ATOM     68  C   UNL A   1      48.497  29.010  27.064  1.00  0.00     0.040 A 
ATOM     69  C   UNL A   1      48.623  28.339  29.372  1.00  0.00     0.040 A 
ATOM     70  F   UNL A   1      46.800  28.698  30.803  1.00  0.00    -0.206 F 
ATOM     71  C   UNL A   1      49.209  28.427  28.110  1.00  0.00     0.006 A 
ENDBRANCH  50  64
BRANCH  51  72
ATOM     72  C   UNL A   1      37.242  32.329  30.407  1.00  0.00     0.057 A 
ATOM     73  C   UNL A   1      36.656  32.055  31.649  1.00  0.00     0.134 A 
ATOM     74  C   UNL A   1      36.470  33.023  29.470  1.00  0.00     0.134 A 
ATOM     75  F   UNL A   1      37.341  31.377  32.583  1.00  0.00    -0.206 F 
ATOM     76  C   UNL A   1      35.347  32.439  31.942  1.00  0.00     0.040 A 
ATOM     77  C   UNL A   1      35.168  33.435  29.757  1.00  0.00     0.040 A 
ATOM     78  F   UNL A   1      36.977  33.326  28.265  1.00  0.00    -0.206 F 
ATOM     79  C   UNL A   1      34.601  33.137  30.994  1.00  0.00     0.006 A 
ENDBRANCH  51  72
BRANCH  63  80
ATOM     80  C   UNL A   1      43.414  35.524  30.700  1.00  0.00     0.057 A 
ATOM     81  C   UNL A   1      43.483  36.543  29.741  1.00  0.00     0.134 A 
ATOM     82  C   UNL A   1      43.711  35.863  32.027  1.00  0.00     0.134 A 
ATOM     83  F   UNL A   1      43.222  36.280  28.451  1.00  0.00    -0.206 F 
ATOM     84  C   UNL A   1      43.862  37.841  30.083  1.00  0.00     0.040 A 
ATOM     85  C   UNL A   1      44.067  37.164  32.386  1.00  0.00     0.040 A 
ATOM     86  F   UNL A   1      43.656  34.937  32.996  1.00  0.00    -0.206 F 
ATOM     87  C   UNL A   1      44.151  38.155  31.410  1.00  0.00     0.006 A 
ENDBRANCH  63  80
ENDBRANCH  37  38
ENDBRANCH  29  32
ENDBRANCH  27  28
ENDBRANCH  26  27
ENDBRANCH   1  26
TORSDOF 15
ENDMDL
MODEL 2
REMARK VINA RESULT:     -12.0      2.847      7.399
REMARK SMILES O=C(NCCCNC(=O)c1ccc(-c2c3nc(c(-c4c(F)cccc4F)c4ccc([nH]4)c(-c4c(F)cccc4F)c4nc(c(-c5c(F)cccc5F)c5ccc2[nH]5)C=C4)C=C3)cc1)c1ccc(N[C@H]2OC[C@@H](O)[C@@H](O)[C@H]2O)cc1
REMARK SMILES IDX 4 1 3 2 1 3 2 4 64 6 65 7 79 8 66 9 78 10 67 11 68 12 69 14
REMARK SMILES IDX 70 15 76 16 71 17 74 18 72 19 77 20 75 22 73 24 5 26 6 27
REMARK SMILES IDX 7 28 8 29 9 31 10 32 11 33 63 34 12 35 62 36 13 37 14 38
REMARK SMILES IDX 15 39 56 40 16 41 61 42 55 43 57 44 17 45 60 46 54 47 53 48
REMARK SMILES IDX 18 50 44 51 27 52 43 53 28 54 31 55 42 56 58 57 29 58 30 59
REMARK SMILES IDX 41 61 59 62 32 63 19 64 20 65 25 66 21 67 22 68 24 69 26 70
REMARK SMILES IDX 23 71 45 72 46 73 51 74 47 75 48 76 50 77 52 78 49 79 33 80
REMARK SMILES IDX 34 81 39 82 35 83 36 84 38 85 40 86 37 87
REMARK H PARENT 3 5 68 13 77 21 75 23 73 25 7 30 57 49 31 60
REMARK Flexibility Score: inf
ROOT
ATOM      1  C   UNL A   1      35.773  20.413  25.020  1.00  0.00     0.118 C 
ENDROOT
BRANCH   1   2
ATOM      2  N   UNL A   1      34.642  19.508  25.175  1.00  0.00    -0.352 N 
ATOM      3  O   UNL A   1      32.489  18.922  25.492  1.00  0.00    -0.269 OA
ATOM      4  C   UNL A   1      33.299  19.775  25.123  1.00  0.00     0.251 C 
ATOM      5  H   UNL A   1      34.878  18.567  25.341  1.00  0.00     0.163 HD
BRANCH   4   6
ATOM      6  C   UNL A   1      32.820  21.085  24.644  1.00  0.00     0.039 A 
ATOM      7  C   UNL A   1      32.588  22.129  25.537  1.00  0.00     0.016 A 
ATOM      8  C   UNL A   1      32.636  21.288  23.277  1.00  0.00     0.016 A 
ATOM      9  C   UNL A   1      32.067  23.337  25.074  1.00  0.00     0.026 A 
ATOM     10  C   UNL A   1      32.142  22.516  22.823  1.00  0.00     0.026 A 
ATOM     11  C   UNL A   1      31.811  23.549  23.715  1.00  0.00     0.036 A 
BRANCH  11  12
ATOM     12  N   UNL A   1      31.331  24.744  23.204  1.00  0.00    -0.358 N 
ATOM     13  H   UNL A   1      30.566  24.705  22.585  1.00  0.00     0.163 HD
BRANCH  12  14
ATOM     14  C   UNL A   1      31.883  26.053  23.521  1.00  0.00     0.244 C 
ATOM     15  O   UNL A   1      33.297  26.029  23.312  1.00  0.00    -0.353 OA
ATOM     16  C   UNL A   1      31.271  27.088  22.548  1.00  0.00     0.195 C 
ATOM     17  C   UNL A   1      33.933  27.268  23.646  1.00  0.00     0.197 C 
ATOM     18  C   UNL A   1      31.894  28.463  22.819  1.00  0.00     0.178 C 
ATOM     19  C   UNL A   1      33.427  28.401  22.753  1.00  0.00     0.171 C 
BRANCH  16  20
ATOM     20  O   UNL A   1      31.561  26.691  21.183  1.00  0.00    -0.386 OA
ATOM     21  H   UNL A   1      31.719  27.481  20.644  1.00  0.00     0.211 HD
ENDBRANCH  16  20
BRANCH  18  22
ATOM     22  O   UNL A   1      31.399  29.418  21.877  1.00  0.00    -0.387 OA
ATOM     23  H   UNL A   1      31.517  29.075  20.978  1.00  0.00     0.211 HD
ENDBRANCH  18  22
BRANCH  19  24
ATOM     24  O   UNL A   1      33.857  28.178  21.402  1.00  0.00    -0.388 OA
ATOM     25  H   UNL A   1      33.082  28.113  20.823  1.00  0.00     0.211 HD
ENDBRANCH  19  24
ENDBRANCH  12  14
ENDBRANCH  11  12
ENDBRANCH   4   6
ENDBRANCH   1   2
BRANCH   1  26
ATOM     26  C   UNL A   1      37.084  19.672  24.797  1.00  0.00     0.042 C 
BRANCH  26  27
ATOM     27  C   UNL A   1      38.294  20.320  25.454  1.00  0.00     0.118 C 
BRANCH  27  28
ATOM     28  N   UNL A   1      39.420  19.407  25.591  1.00  0.00    -0.352 N 
ATOM     29  C   UNL A   1      40.710  19.627  26.001  1.00  0.00     0.251 C 
ATOM     30  H   UNL A   1      39.222  18.475  25.347  1.00  0.00     0.163 HD
ATOM     31  O   UNL A   1      41.537  18.725  25.873  1.00  0.00    -0.269 OA
BRANCH  29  32
ATOM     32  C   UNL A   1      41.128  20.924  26.579  1.00  0.00     0.039 A 
ATOM     33  C   UNL A   1      41.610  21.912  25.714  1.00  0.00     0.014 A 
ATOM     34  C   UNL A   1      41.112  21.162  27.955  1.00  0.00     0.014 A 
ATOM     35  C   UNL A   1      42.033  23.143  26.223  1.00  0.00     0.010 A 
ATOM     36  C   UNL A   1      41.445  22.419  28.453  1.00  0.00     0.010 A 
ATOM     37  C   UNL A   1      41.931  23.416  27.596  1.00  0.00    -0.014 A 
BRANCH  37  38
ATOM     38  C   UNL A   1      42.364  24.725  28.146  1.00  0.00     0.031 A 
ATOM     39  C   UNL A   1      41.359  25.822  28.382  1.00  0.00     0.074 A 
ATOM     40  C   UNL A   1      43.669  24.946  28.397  1.00  0.00     0.049 A 
ATOM     41  N   UNL A   1      41.548  27.033  28.843  1.00  0.00    -0.248 NA
ATOM     42  C   UNL A   1      39.961  25.528  28.027  1.00  0.00     0.031 C 
ATOM     43  C   UNL A   1      44.751  23.990  28.153  1.00  0.00     0.029 A 
ATOM     44  N   UNL A   1      44.307  26.046  28.911  1.00  0.00    -0.354 N 
ATOM     45  C   UNL A   1      40.303  27.648  28.813  1.00  0.00     0.074 A 
ATOM     46  C   UNL A   1      39.377  26.697  28.238  1.00  0.00     0.031 C 
ATOM     47  C   UNL A   1      45.914  24.535  28.546  1.00  0.00     0.029 A 
ATOM     48  C   UNL A   1      45.664  25.884  29.044  1.00  0.00     0.049 A 
ATOM     49  H   UNL A   1      43.836  26.873  29.163  1.00  0.00     0.167 HD
ATOM     50  C   UNL A   1      39.955  28.882  29.249  1.00  0.00     0.037 A 
ATOM     51  C   UNL A   1      46.601  26.727  29.518  1.00  0.00     0.037 A 
ATOM     52  C   UNL A   1      40.869  29.815  29.854  1.00  0.00     0.049 A 
ATOM     53  C   UNL A   1      46.185  28.076  30.033  1.00  0.00     0.074 A 
ATOM     54  C   UNL A   1      40.601  31.062  30.390  1.00  0.00     0.029 A 
ATOM     55  N   UNL A   1      42.230  29.598  30.004  1.00  0.00    -0.354 N 
ATOM     56  N   UNL A   1      44.990  28.614  30.070  1.00  0.00    -0.248 NA
ATOM     57  C   UNL A   1      47.246  28.927  30.587  1.00  0.00     0.031 C 
ATOM     58  C   UNL A   1      41.808  31.617  30.832  1.00  0.00     0.029 A 
ATOM     59  C   UNL A   1      42.819  30.695  30.612  1.00  0.00     0.049 A 
ATOM     60  H   UNL A   1      42.708  28.786  29.721  1.00  0.00     0.167 HD
ATOM     61  C   UNL A   1      45.151  29.855  30.674  1.00  0.00     0.074 A 
ATOM     62  C   UNL A   1      46.556  29.980  31.003  1.00  0.00     0.031 C 
ATOM     63  C   UNL A   1      44.219  30.803  30.936  1.00  0.00     0.037 A 
BRANCH  50  64
ATOM     64  C   UNL A   1      38.518  29.289  29.091  1.00  0.00     0.057 A 
ATOM     65  C   UNL A   1      37.620  29.270  30.168  1.00  0.00     0.134 A 
ATOM     66  C   UNL A   1      38.029  29.723  27.852  1.00  0.00     0.134 A 
ATOM     67  F   UNL A   1      38.020  28.852  31.379  1.00  0.00    -0.206 F 
ATOM     68  C   UNL A   1      36.283  29.638  30.012  1.00  0.00     0.040 A 
ATOM     69  C   UNL A   1      36.700  30.120  27.690  1.00  0.00     0.040 A 
ATOM     70  F   UNL A   1      38.834  29.772  26.781  1.00  0.00    -0.206 F 
ATOM     71  C   UNL A   1      35.821  30.071  28.771  1.00  0.00     0.006 A 
ENDBRANCH  50  64
BRANCH  51  72
ATOM     72  C   UNL A   1      48.021  26.299  29.569  1.00  0.00     0.057 A 
ATOM     73  C   UNL A   1      48.869  26.482  28.470  1.00  0.00     0.134 A 
ATOM     74  C   UNL A   1      48.563  25.701  30.711  1.00  0.00     0.134 A 
ATOM     75  F   UNL A   1      48.400  27.034  27.341  1.00  0.00    -0.206 F 
ATOM     76  C   UNL A   1      50.201  26.067  28.498  1.00  0.00     0.040 A 
ATOM     77  C   UNL A   1      49.901  25.303  30.762  1.00  0.00     0.040 A 
ATOM     78  F   UNL A   1      47.805  25.508  31.801  1.00  0.00    -0.206 F 
ATOM     79  C   UNL A   1      50.721  25.480  29.650  1.00  0.00     0.006 A 
ENDBRANCH  51  72
BRANCH  63  80
ATOM     80  C   UNL A   1      44.686  32.043  31.639  1.00  0.00     0.057 A 
ATOM     81  C   UNL A   1      45.124  33.174  30.937  1.00  0.00     0.134 A 
ATOM     82  C   UNL A   1      44.680  32.112  33.039  1.00  0.00     0.134 A 
ATOM     83  F   UNL A   1      45.164  33.167  29.596  1.00  0.00    -0.206 F 
ATOM     84  C   UNL A   1      45.567  34.318  31.602  1.00  0.00     0.040 A 
ATOM     85  C   UNL A   1      45.098  33.260  33.714  1.00  0.00     0.040 A 
ATOM     86  F   UNL A   1      44.266  31.067  33.771  1.00  0.00    -0.206 F 
ATOM     87  C   UNL A   1      45.550  34.364  32.995  1.00  0.00     0.006 A 
ENDBRANCH  63  80
ENDBRANCH  37  38
ENDBRANCH  29  32
ENDBRANCH  27  28
ENDBRANCH  26  27
ENDBRANCH   1  26
TORSDOF 15
ENDMDL
MODEL 3
REMARK VINA RESULT:     -11.9      3.907      8.947
REMARK SMILES O=C(NCCCNC(=O)c1ccc(-c2c3nc(c(-c4c(F)cccc4F)c4ccc([nH]4)c(-c4c(F)cccc4F)c4nc(c(-c5c(F)cccc5F)c5ccc2[nH]5)C=C4)C=C3)cc1)c1ccc(N[C@H]2OC[C@@H](O)[C@@H](O)[C@H]2O)cc1
REMARK SMILES IDX 4 1 3 2 1 3 2 4 64 6 65 7 79 8 66 9 78 10 67 11 68 12 69 14
REMARK SMILES IDX 70 15 76 16 71 17 74 18 72 19 77 20 75 22 73 24 5 26 6 27
REMARK SMILES IDX 7 28 8 29 9 31 10 32 11 33 63 34 12 35 62 36 13 37 14 38
REMARK SMILES IDX 15 39 56 40 16 41 61 42 55 43 57 44 17 45 60 46 54 47 53 48
REMARK SMILES IDX 18 50 44 51 27 52 43 53 28 54 31 55 42 56 58 57 29 58 30 59
REMARK SMILES IDX 41 61 59 62 32 63 19 64 20 65 25 66 21 67 22 68 24 69 26 70
REMARK SMILES IDX 23 71 45 72 46 73 51 74 47 75 48 76 50 77 52 78 49 79 33 80
REMARK SMILES IDX 34 81 39 82 35 83 36 84 38 85 40 86 37 87
REMARK H PARENT 3 5 68 13 77 21 75 23 73 25 7 30 57 49 31 60
REMARK Flexibility Score: inf
ROOT
ATOM      1  C   UNL A   1      31.116  30.162  24.951  1.00  0.00     0.118 C 
ENDROOT
BRANCH   1   2
ATOM      2  N   UNL A   1      30.423  30.290  23.676  1.00  0.00    -0.352 N 
ATOM      3  O   UNL A   1      29.700  29.645  21.640  1.00  0.00    -0.269 OA
ATOM      4  C   UNL A   1      30.092  29.322  22.763  1.00  0.00     0.251 C 
ATOM      5  H   UNL A   1      30.153  31.205  23.434  1.00  0.00     0.163 HD
BRANCH   4   6
ATOM      6  C   UNL A   1      30.221  27.896  23.114  1.00  0.00     0.039 A 
ATOM      7  C   UNL A   1      29.197  27.231  23.784  1.00  0.00     0.016 A 
ATOM      8  C   UNL A   1      31.367  27.198  22.734  1.00  0.00     0.016 A 
ATOM      9  C   UNL A   1      29.366  25.901  24.171  1.00  0.00     0.026 A 
ATOM     10  C   UNL A   1      31.511  25.856  23.103  1.00  0.00     0.026 A 
ATOM     11  C   UNL A   1      30.532  25.194  23.860  1.00  0.00     0.036 A 
BRANCH  11  12
ATOM     12  N   UNL A   1      30.729  23.863  24.189  1.00  0.00    -0.358 N 
ATOM     13  H   UNL A   1      29.993  23.232  24.010  1.00  0.00     0.163 HD
BRANCH  12  14
ATOM     14  C   UNL A   1      31.949  23.334  24.783  1.00  0.00     0.244 C 
ATOM     15  O   UNL A   1      32.248  24.069  25.972  1.00  0.00    -0.353 OA
ATOM     16  C   UNL A   1      31.699  21.860  25.179  1.00  0.00     0.195 C 
ATOM     17  C   UNL A   1      33.464  23.646  26.599  1.00  0.00     0.197 C 
ATOM     18  C   UNL A   1      32.950  21.307  25.871  1.00  0.00     0.178 C 
ATOM     19  C   UNL A   1      33.366  22.191  27.056  1.00  0.00     0.171 C 
BRANCH  16  20
ATOM     20  O   UNL A   1      30.575  21.795  26.094  1.00  0.00    -0.386 OA
ATOM     21  H   UNL A   1      29.950  21.119  25.791  1.00  0.00     0.211 HD
ENDBRANCH  16  20
BRANCH  18  22
ATOM     22  O   UNL A   1      32.710  19.969  26.315  1.00  0.00    -0.387 OA
ATOM     23  H   UNL A   1      32.226  19.989  27.155  1.00  0.00     0.211 HD
ENDBRANCH  18  22
BRANCH  19  24
ATOM     24  O   UNL A   1      32.408  22.082  28.117  1.00  0.00    -0.388 OA
ATOM     25  H   UNL A   1      32.101  21.164  28.184  1.00  0.00     0.211 HD
ENDBRANCH  19  24
ENDBRANCH  12  14
ENDBRANCH  11  12
ENDBRANCH   4   6
ENDBRANCH   1   2
BRANCH   1  26
ATOM     26  C   UNL A   1      30.942  31.392  25.831  1.00  0.00     0.042 C 
BRANCH  26  27
ATOM     27  C   UNL A   1      32.195  31.807  26.589  1.00  0.00     0.118 C 
BRANCH  27  28
ATOM     28  N   UNL A   1      32.174  33.204  26.997  1.00  0.00    -0.352 N 
ATOM     29  C   UNL A   1      32.955  33.891  27.891  1.00  0.00     0.251 C 
ATOM     30  H   UNL A   1      31.481  33.747  26.557  1.00  0.00     0.163 HD
ATOM     31  O   UNL A   1      32.637  35.039  28.198  1.00  0.00    -0.269 OA
BRANCH  29  32
ATOM     32  C   UNL A   1      34.156  33.278  28.500  1.00  0.00     0.039 A 
ATOM     33  C   UNL A   1      34.065  31.966  28.973  1.00  0.00     0.014 A 
ATOM     34  C   UNL A   1      35.347  33.989  28.668  1.00  0.00     0.014 A 
ATOM     35  C   UNL A   1      35.171  31.358  29.572  1.00  0.00     0.010 A 
ATOM     36  C   UNL A   1      36.476  33.355  29.180  1.00  0.00     0.010 A 
ATOM     37  C   UNL A   1      36.395  32.040  29.659  1.00  0.00    -0.014 A 
BRANCH  37  38
ATOM     38  C   UNL A   1      37.582  31.400  30.281  1.00  0.00     0.031 A 
ATOM     39  C   UNL A   1      37.945  31.700  31.712  1.00  0.00     0.074 A 
ATOM     40  C   UNL A   1      38.360  30.580  29.549  1.00  0.00     0.049 A 
ATOM     41  N   UNL A   1      38.948  31.250  32.423  1.00  0.00    -0.248 NA
ATOM     42  C   UNL A   1      37.083  32.654  32.430  1.00  0.00     0.031 C 
ATOM     43  C   UNL A   1      38.154  30.256  28.137  1.00  0.00     0.029 A 
ATOM     44  N   UNL A   1      39.481  29.869  29.894  1.00  0.00    -0.354 N 
ATOM     45  C   UNL A   1      38.849  31.879  33.658  1.00  0.00     0.074 A 
ATOM     46  C   UNL A   1      37.722  32.783  33.582  1.00  0.00     0.031 C 
ATOM     47  C   UNL A   1      39.100  29.388  27.743  1.00  0.00     0.029 A 
ATOM     48  C   UNL A   1      39.992  29.115  28.866  1.00  0.00     0.049 A 
ATOM     49  H   UNL A   1      39.882  29.897  30.792  1.00  0.00     0.167 HD
ATOM     50  C   UNL A   1      39.610  31.701  34.764  1.00  0.00     0.037 A 
ATOM     51  C   UNL A   1      41.056  28.291  28.834  1.00  0.00     0.037 A 
ATOM     52  C   UNL A   1      40.709  30.776  34.851  1.00  0.00     0.049 A 
ATOM     53  C   UNL A   1      41.861  28.080  30.085  1.00  0.00     0.074 A 
ATOM     54  C   UNL A   1      41.498  30.473  35.947  1.00  0.00     0.029 A 
ATOM     55  N   UNL A   1      41.172  30.002  33.798  1.00  0.00    -0.354 N 
ATOM     56  N   UNL A   1      41.709  28.623  31.269  1.00  0.00    -0.248 NA
ATOM     57  C   UNL A   1      42.977  27.127  30.000  1.00  0.00     0.031 C 
ATOM     58  C   UNL A   1      42.463  29.542  35.547  1.00  0.00     0.029 A 
ATOM     59  C   UNL A   1      42.245  29.232  34.214  1.00  0.00     0.049 A 
ATOM     60  H   UNL A   1      40.794  30.000  32.890  1.00  0.00     0.167 HD
ATOM     61  C   UNL A   1      42.689  28.060  32.075  1.00  0.00     0.074 A 
ATOM     62  C   UNL A   1      43.420  27.120  31.249  1.00  0.00     0.031 C 
ATOM     63  C   UNL A   1      42.960  28.298  33.381  1.00  0.00     0.037 A 
BRANCH  50  64
ATOM     64  C   UNL A   1      39.271  32.525  35.973  1.00  0.00     0.057 A 
ATOM     65  C   UNL A   1      39.825  33.795  36.183  1.00  0.00     0.134 A 
ATOM     66  C   UNL A   1      38.364  32.051  36.931  1.00  0.00     0.134 A 
ATOM     67  F   UNL A   1      40.711  34.303  35.312  1.00  0.00    -0.206 F 
ATOM     68  C   UNL A   1      39.514  34.550  37.315  1.00  0.00     0.040 A 
ATOM     69  C   UNL A   1      38.024  32.809  38.053  1.00  0.00     0.040 A 
ATOM     70  F   UNL A   1      37.792  30.847  36.789  1.00  0.00    -0.206 F 
ATOM     71  C   UNL A   1      38.606  34.060  38.251  1.00  0.00     0.006 A 
ENDBRANCH  50  64
BRANCH  51  72
ATOM     72  C   UNL A   1      41.394  27.569  27.583  1.00  0.00     0.057 A 
ATOM     73  C   UNL A   1      42.211  28.157  26.609  1.00  0.00     0.134 A 
ATOM     74  C   UNL A   1      40.912  26.280  27.329  1.00  0.00     0.134 A 
ATOM     75  F   UNL A   1      42.688  29.397  26.789  1.00  0.00    -0.206 F 
ATOM     76  C   UNL A   1      42.521  27.497  25.419  1.00  0.00     0.040 A 
ATOM     77  C   UNL A   1      41.234  25.599  26.154  1.00  0.00     0.040 A 
ATOM     78  F   UNL A   1      40.134  25.659  28.227  1.00  0.00    -0.206 F 
ATOM     79  C   UNL A   1      42.035  26.211  25.192  1.00  0.00     0.006 A 
ENDBRANCH  51  72
BRANCH  63  80
ATOM     80  C   UNL A   1      44.071  27.505  34.004  1.00  0.00     0.057 A 
ATOM     81  C   UNL A   1      45.394  27.967  34.019  1.00  0.00     0.134 A 
ATOM     82  C   UNL A   1      43.810  26.270  34.612  1.00  0.00     0.134 A 
ATOM     83  F   UNL A   1      45.711  29.136  33.443  1.00  0.00    -0.206 F 
ATOM     84  C   UNL A   1      46.421  27.215  34.590  1.00  0.00     0.040 A 
ATOM     85  C   UNL A   1      44.825  25.521  35.208  1.00  0.00     0.040 A 
ATOM     86  F   UNL A   1      42.563  25.773  34.639  1.00  0.00    -0.206 F 
ATOM     87  C   UNL A   1      46.137  25.990  35.191  1.00  0.00     0.006 A 
ENDBRANCH  63  80
ENDBRANCH  37  38
ENDBRANCH  29  32
ENDBRANCH  27  28
ENDBRANCH  26  27
ENDBRANCH   1  26
TORSDOF 15
ENDMDL
