MODEL 1
REMARK VINA RESULT:      -9.8      0.000      0.000
REMARK SMILES O=C(C[C@H]1C[N@@H+]([C@@H]2CC(=O)NC2=O)CCO1)NCCCNC(=O)c1ccc(-c2c3nc(c(-c4c(F)cccc4F)c4ccc([nH]4)c(-c4c(F)cccc4F)c4nc(c(-c5c(F)cccc5F)c5ccc2[nH]5)C=C4)C=C3)cc1
REMARK SMILES IDX 19 1 18 2 17 3 1 4 2 5 3 7 4 8 5 9 16 10 6 11 15 12 14 13
REMARK SMILES IDX 7 15 8 16 12 17 9 18 11 19 13 20 10 21 20 23 21 24 22 25
REMARK SMILES IDX 23 27 24 28 25 29 77 30 26 31 76 32 27 33 28 34 29 35 70 36
REMARK SMILES IDX 30 37 75 38 69 39 71 40 31 41 74 42 68 43 67 44 32 46 58 47
REMARK SMILES IDX 41 48 57 49 42 50 45 51 56 52 72 53 43 54 44 55 55 57 73 58
REMARK SMILES IDX 46 59 33 60 34 61 39 62 35 63 36 64 38 65 40 66 37 67 59 68
REMARK SMILES IDX 60 69 65 70 61 71 62 72 64 73 66 74 63 75 47 76 48 77 53 78
REMARK SMILES IDX 49 79 50 80 52 81 54 82 51 83
REMARK H PARENT 17 6 6 14 11 22 21 26 71 45 45 56
REMARK Flexibility Score: inf
ROOT
ATOM      1  C   UNL A   1      32.960  36.981  30.806  1.00  0.00     0.042 C 
ENDROOT
BRANCH   1   2
ATOM      2  C   UNL A   1      32.820  35.951  31.964  1.00  0.00     0.117 C 
BRANCH   2   3
ATOM      3  N   UNL A   1      34.071  35.305  32.338  1.00  0.00    -0.356 N 
ATOM      4  O   UNL A   1      33.338  33.336  33.227  1.00  0.00    -0.275 OA
ATOM      5  C   UNL A   1      34.277  34.072  32.927  1.00  0.00     0.222 C 
ATOM      6  H   UNL A   1      34.887  35.820  32.144  1.00  0.00     0.163 HD
BRANCH   5   7
ATOM      7  C   UNL A   1      35.751  33.657  33.300  1.00  0.00     0.138 C 
BRANCH   7   8
ATOM      8  C   UNL A   1      36.449  34.282  34.531  1.00  0.00     0.182 C 
ATOM      9  C   UNL A   1      36.413  33.348  35.710  1.00  0.00     0.295 C 
ATOM     10  O   UNL A   1      37.858  34.631  34.318  1.00  0.00    -0.366 OA
ATOM     11  N   UNL A   1      37.565  32.382  35.709  1.00  0.00    -0.320 N 
ATOM     12  C   UNL A   1      38.629  34.649  35.577  1.00  0.00     0.222 C 
ATOM     13  C   UNL A   1      38.598  33.263  36.321  1.00  0.00     0.291 C 
ATOM     14  H   UNL A   1      37.163  31.532  36.103  1.00  0.00     0.348 HD
BRANCH  11  15
ATOM     15  C   UNL A   1      38.256  31.692  34.500  1.00  0.00     0.284 C 
ATOM     16  C   UNL A   1      37.464  31.063  33.327  1.00  0.00     0.176 C 
ATOM     17  C   UNL A   1      39.483  30.779  34.514  1.00  0.00     0.285 C 
ATOM     18  C   UNL A   1      38.212  29.825  32.947  1.00  0.00     0.233 C 
ATOM     19  N   UNL A   1      39.268  29.675  33.763  1.00  0.00    -0.291 N 
ATOM     20  O   UNL A   1      40.607  31.038  34.903  1.00  0.00    -0.268 OA
ATOM     21  O   UNL A   1      37.946  29.100  32.000  1.00  0.00    -0.274 OA
ATOM     22  H   UNL A   1      39.818  28.860  33.809  1.00  0.00     0.173 HD
ENDBRANCH  11  15
ENDBRANCH   7   8
ENDBRANCH   5   7
ENDBRANCH   2   3
ENDBRANCH   1   2
BRANCH   1  23
ATOM     23  C   UNL A   1      33.551  36.517  29.465  1.00  0.00     0.118 C 
BRANCH  23  24
ATOM     24  N   UNL A   1      32.769  35.477  28.830  1.00  0.00    -0.352 N 
ATOM     25  C   UNL A   1      33.147  34.252  28.343  1.00  0.00     0.251 C 
ATOM     26  H   UNL A   1      31.811  35.683  28.732  1.00  0.00     0.163 HD
ATOM     27  O   UNL A   1      32.351  33.615  27.656  1.00  0.00    -0.269 OA
BRANCH  25  28
ATOM     28  C   UNL A   1      34.486  33.668  28.611  1.00  0.00     0.039 A 
ATOM     29  C   UNL A   1      34.599  32.759  29.669  1.00  0.00     0.014 A 
ATOM     30  C   UNL A   1      35.641  34.083  27.939  1.00  0.00     0.014 A 
ATOM     31  C   UNL A   1      35.850  32.254  30.037  1.00  0.00     0.010 A 
ATOM     32  C   UNL A   1      36.891  33.540  28.280  1.00  0.00     0.010 A 
ATOM     33  C   UNL A   1      37.013  32.625  29.339  1.00  0.00    -0.014 A 
BRANCH  33  34
ATOM     34  C   UNL A   1      38.328  32.029  29.719  1.00  0.00     0.031 A 
ATOM     35  C   UNL A   1      39.283  32.748  30.637  1.00  0.00     0.074 A 
ATOM     36  C   UNL A   1      38.662  30.812  29.244  1.00  0.00     0.049 A 
ATOM     37  N   UNL A   1      40.438  32.344  31.112  1.00  0.00    -0.248 NA
ATOM     38  C   UNL A   1      38.904  34.102  31.064  1.00  0.00     0.031 C 
ATOM     39  C   UNL A   1      37.851  30.020  28.318  1.00  0.00     0.029 A 
ATOM     40  N   UNL A   1      39.762  30.023  29.478  1.00  0.00    -0.354 N 
ATOM     41  C   UNL A   1      40.921  33.390  31.890  1.00  0.00     0.074 A 
ATOM     42  C   UNL A   1      39.959  34.467  31.781  1.00  0.00     0.031 C 
ATOM     43  C   UNL A   1      38.459  28.846  28.092  1.00  0.00     0.029 A 
ATOM     44  C   UNL A   1      39.720  28.812  28.827  1.00  0.00     0.049 A 
ATOM     45  H   UNL A   1      40.509  30.297  30.057  1.00  0.00     0.167 HD
ATOM     46  C   UNL A   1      42.048  33.443  32.643  1.00  0.00     0.037 A 
ATOM     47  C   UNL A   1      40.595  27.788  28.819  1.00  0.00     0.037 A 
ATOM     48  C   UNL A   1      43.006  32.370  32.757  1.00  0.00     0.049 A 
ATOM     49  C   UNL A   1      41.843  27.876  29.652  1.00  0.00     0.074 A 
ATOM     50  C   UNL A   1      44.153  32.314  33.531  1.00  0.00     0.029 A 
ATOM     51  N   UNL A   1      42.932  31.165  32.073  1.00  0.00    -0.354 N 
ATOM     52  N   UNL A   1      42.249  28.845  30.436  1.00  0.00    -0.248 NA
ATOM     53  C   UNL A   1      42.751  26.721  29.607  1.00  0.00     0.031 C 
ATOM     54  C   UNL A   1      44.803  31.102  33.272  1.00  0.00     0.029 A 
ATOM     55  C   UNL A   1      44.027  30.372  32.387  1.00  0.00     0.049 A 
ATOM     56  H   UNL A   1      42.209  30.910  31.456  1.00  0.00     0.167 HD
ATOM     57  C   UNL A   1      43.440  28.405  31.000  1.00  0.00     0.074 A 
ATOM     58  C   UNL A   1      43.678  27.074  30.485  1.00  0.00     0.031 C 
ATOM     59  C   UNL A   1      44.260  29.048  31.868  1.00  0.00     0.037 A 
BRANCH  46  60
ATOM     60  C   UNL A   1      42.319  34.712  33.404  1.00  0.00     0.057 A 
ATOM     61  C   UNL A   1      42.129  34.801  34.791  1.00  0.00     0.134 A 
ATOM     62  C   UNL A   1      42.823  35.848  32.754  1.00  0.00     0.134 A 
ATOM     63  F   UNL A   1      41.646  33.755  35.479  1.00  0.00    -0.206 F 
ATOM     64  C   UNL A   1      42.400  35.976  35.495  1.00  0.00     0.040 A 
ATOM     65  C   UNL A   1      43.126  37.019  33.452  1.00  0.00     0.040 A 
ATOM     66  F   UNL A   1      43.042  35.834  31.430  1.00  0.00    -0.206 F 
ATOM     67  C   UNL A   1      42.907  37.089  34.826  1.00  0.00     0.006 A 
ENDBRANCH  46  60
BRANCH  47  68
ATOM     68  C   UNL A   1      40.312  26.575  28.008  1.00  0.00     0.057 A 
ATOM     69  C   UNL A   1      39.463  25.566  28.480  1.00  0.00     0.134 A 
ATOM     70  C   UNL A   1      40.892  26.387  26.748  1.00  0.00     0.134 A 
ATOM     71  F   UNL A   1      38.892  25.676  29.689  1.00  0.00    -0.206 F 
ATOM     72  C   UNL A   1      39.221  24.407  27.742  1.00  0.00     0.040 A 
ATOM     73  C   UNL A   1      40.635  25.247  25.985  1.00  0.00     0.040 A 
ATOM     74  F   UNL A   1      41.710  27.318  26.233  1.00  0.00    -0.206 F 
ATOM     75  C   UNL A   1      39.804  24.248  26.486  1.00  0.00     0.006 A 
ENDBRANCH  47  68
BRANCH  59  76
ATOM     76  C   UNL A   1      45.475  28.299  32.343  1.00  0.00     0.057 A 
ATOM     77  C   UNL A   1      45.448  27.472  33.474  1.00  0.00     0.134 A 
ATOM     78  C   UNL A   1      46.691  28.406  31.654  1.00  0.00     0.134 A 
ATOM     79  F   UNL A   1      44.320  27.333  34.188  1.00  0.00    -0.206 F 
ATOM     80  C   UNL A   1      46.593  26.812  33.925  1.00  0.00     0.040 A 
ATOM     81  C   UNL A   1      47.834  27.724  32.076  1.00  0.00     0.040 A 
ATOM     82  F   UNL A   1      46.789  29.171  30.556  1.00  0.00    -0.206 F 
ATOM     83  C   UNL A   1      47.790  26.934  33.223  1.00  0.00     0.006 A 
ENDBRANCH  59  76
ENDBRANCH  33  34
ENDBRANCH  25  28
ENDBRANCH  23  24
ENDBRANCH   1  23
TORSDOF 12
ENDMDL
MODEL 2
REMARK VINA RESULT:      -9.8      3.760      6.231
REMARK SMILES O=C(C[C@H]1C[N@@H+]([C@@H]2CC(=O)NC2=O)CCO1)NCCCNC(=O)c1ccc(-c2c3nc(c(-c4c(F)cccc4F)c4ccc([nH]4)c(-c4c(F)cccc4F)c4nc(c(-c5c(F)cccc5F)c5ccc2[nH]5)C=C4)C=C3)cc1
REMARK SMILES IDX 19 1 18 2 17 3 1 4 2 5 3 7 4 8 5 9 16 10 6 11 15 12 14 13
REMARK SMILES IDX 7 15 8 16 12 17 9 18 11 19 13 20 10 21 20 23 21 24 22 25
REMARK SMILES IDX 23 27 24 28 25 29 77 30 26 31 76 32 27 33 28 34 29 35 70 36
REMARK SMILES IDX 30 37 75 38 69 39 71 40 31 41 74 42 68 43 67 44 32 46 58 47
REMARK SMILES IDX 41 48 57 49 42 50 45 51 56 52 72 53 43 54 44 55 55 57 73 58
REMARK SMILES IDX 46 59 33 60 34 61 39 62 35 63 36 64 38 65 40 66 37 67 59 68
REMARK SMILES IDX 60 69 65 70 61 71 62 72 64 73 66 74 63 75 47 76 48 77 53 78
REMARK SMILES IDX 49 79 50 80 52 81 54 82 51 83
REMARK H PARENT 17 6 6 14 11 22 21 26 71 45 45 56
REMARK Flexibility Score: inf
ROOT
ATOM      1  C   UNL A   1      31.015  31.666  26.508  1.00  0.00     0.042 C 
ENDROOT
BRANCH   1   2
ATOM      2  C   UNL A   1      30.388  31.374  25.114  1.00  0.00     0.117 C 
BRANCH   2   3
ATOM      3  N   UNL A   1      30.893  30.166  24.477  1.00  0.00    -0.356 N 
ATOM      4  O   UNL A   1      29.537  29.991  22.651  1.00  0.00    -0.275 OA
ATOM      5  C   UNL A   1      30.471  29.546  23.316  1.00  0.00     0.222 C 
ATOM      6  H   UNL A   1      31.643  29.727  24.939  1.00  0.00     0.163 HD
BRANCH   5   7
ATOM      7  C   UNL A   1      31.155  28.187  22.902  1.00  0.00     0.138 C 
BRANCH   7   8
ATOM      8  C   UNL A   1      30.710  26.859  23.560  1.00  0.00     0.182 C 
ATOM      9  C   UNL A   1      31.896  25.993  23.891  1.00  0.00     0.295 C 
ATOM     10  O   UNL A   1      29.953  27.023  24.805  1.00  0.00    -0.366 OA
ATOM     11  N   UNL A   1      32.480  26.315  25.238  1.00  0.00    -0.320 N 
ATOM     12  C   UNL A   1      30.058  25.843  25.688  1.00  0.00     0.222 C 
ATOM     13  C   UNL A   1      31.546  25.522  26.085  1.00  0.00     0.291 C 
ATOM     14  H   UNL A   1      33.480  26.162  25.107  1.00  0.00     0.348 HD
BRANCH  11  15
ATOM     15  C   UNL A   1      32.616  27.698  25.935  1.00  0.00     0.284 C 
ATOM     16  C   UNL A   1      33.819  28.643  25.697  1.00  0.00     0.176 C 
ATOM     17  C   UNL A   1      32.276  28.059  27.382  1.00  0.00     0.285 C 
ATOM     18  C   UNL A   1      34.115  29.271  27.021  1.00  0.00     0.233 C 
ATOM     19  N   UNL A   1      33.273  28.778  27.944  1.00  0.00    -0.291 N 
ATOM     20  O   UNL A   1      31.198  27.975  27.942  1.00  0.00    -0.268 OA
ATOM     21  O   UNL A   1      34.944  30.145  27.220  1.00  0.00    -0.274 OA
ATOM     22  H   UNL A   1      33.372  28.921  28.913  1.00  0.00     0.173 HD
ENDBRANCH  11  15
ENDBRANCH   7   8
ENDBRANCH   5   7
ENDBRANCH   2   3
ENDBRANCH   1   2
BRANCH   1  23
ATOM     23  C   UNL A   1      32.359  32.408  26.579  1.00  0.00     0.118 C 
BRANCH  23  24
ATOM     24  N   UNL A   1      32.258  33.707  27.211  1.00  0.00    -0.352 N 
ATOM     25  C   UNL A   1      32.991  34.259  28.231  1.00  0.00     0.251 C 
ATOM     26  H   UNL A   1      31.548  34.287  26.851  1.00  0.00     0.163 HD
ATOM     27  O   UNL A   1      32.594  35.302  28.748  1.00  0.00    -0.269 OA
BRANCH  25  28
ATOM     28  C   UNL A   1      34.242  33.641  28.737  1.00  0.00     0.039 A 
ATOM     29  C   UNL A   1      34.123  32.542  29.594  1.00  0.00     0.014 A 
ATOM     30  C   UNL A   1      35.508  34.186  28.494  1.00  0.00     0.014 A 
ATOM     31  C   UNL A   1      35.259  31.981  30.187  1.00  0.00     0.010 A 
ATOM     32  C   UNL A   1      36.652  33.593  29.053  1.00  0.00     0.010 A 
ATOM     33  C   UNL A   1      36.542  32.488  29.913  1.00  0.00    -0.014 A 
BRANCH  33  34
ATOM     34  C   UNL A   1      37.742  31.835  30.517  1.00  0.00     0.031 A 
ATOM     35  C   UNL A   1      38.204  32.172  31.911  1.00  0.00     0.074 A 
ATOM     36  C   UNL A   1      38.418  30.911  29.804  1.00  0.00     0.049 A 
ATOM     37  N   UNL A   1      39.191  31.654  32.604  1.00  0.00    -0.248 NA
ATOM     38  C   UNL A   1      37.478  33.239  32.613  1.00  0.00     0.031 C 
ATOM     39  C   UNL A   1      38.105  30.516  28.430  1.00  0.00     0.029 A 
ATOM     40  N   UNL A   1      39.499  30.130  30.135  1.00  0.00    -0.354 N 
ATOM     41  C   UNL A   1      39.203  32.329  33.819  1.00  0.00     0.074 A 
ATOM     42  C   UNL A   1      38.160  33.331  33.748  1.00  0.00     0.031 C 
ATOM     43  C   UNL A   1      38.947  29.543  28.048  1.00  0.00     0.029 A 
ATOM     44  C   UNL A   1      39.883  29.269  29.134  1.00  0.00     0.049 A 
ATOM     45  H   UNL A   1      39.956  30.183  31.005  1.00  0.00     0.167 HD
ATOM     46  C   UNL A   1      39.995  32.123  34.902  1.00  0.00     0.037 A 
ATOM     47  C   UNL A   1      40.875  28.358  29.091  1.00  0.00     0.037 A 
ATOM     48  C   UNL A   1      41.031  31.123  34.977  1.00  0.00     0.049 A 
ATOM     49  C   UNL A   1      41.746  28.157  30.300  1.00  0.00     0.074 A 
ATOM     50  C   UNL A   1      41.853  30.809  36.047  1.00  0.00     0.029 A 
ATOM     51  N   UNL A   1      41.395  30.278  33.939  1.00  0.00    -0.354 N 
ATOM     52  N   UNL A   1      41.698  28.757  31.464  1.00  0.00    -0.248 NA
ATOM     53  C   UNL A   1      42.802  27.142  30.191  1.00  0.00     0.031 C 
ATOM     54  C   UNL A   1      42.751  29.815  35.638  1.00  0.00     0.029 A 
ATOM     55  C   UNL A   1      42.446  29.463  34.334  1.00  0.00     0.049 A 
ATOM     56  H   UNL A   1      40.970  30.259  33.051  1.00  0.00     0.167 HD
ATOM     57  C   UNL A   1      42.695  28.172  32.235  1.00  0.00     0.074 A 
ATOM     58  C   UNL A   1      43.315  27.156  31.412  1.00  0.00     0.031 C 
ATOM     59  C   UNL A   1      43.061  28.454  33.510  1.00  0.00     0.037 A 
BRANCH  46  60
ATOM     60  C   UNL A   1      39.777  33.004  36.102  1.00  0.00     0.057 A 
ATOM     61  C   UNL A   1      40.478  34.206  36.278  1.00  0.00     0.134 A 
ATOM     62  C   UNL A   1      38.822  32.673  37.074  1.00  0.00     0.134 A 
ATOM     63  F   UNL A   1      41.411  34.585  35.390  1.00  0.00    -0.206 F 
ATOM     64  C   UNL A   1      40.259  35.028  37.385  1.00  0.00     0.040 A 
ATOM     65  C   UNL A   1      38.572  33.502  38.169  1.00  0.00     0.040 A 
ATOM     66  F   UNL A   1      38.104  31.545  36.966  1.00  0.00    -0.206 F 
ATOM     67  C   UNL A   1      39.298  34.680  38.333  1.00  0.00     0.006 A 
ENDBRANCH  46  60
BRANCH  47  68
ATOM     68  C   UNL A   1      41.087  27.548  27.863  1.00  0.00     0.057 A 
ATOM     69  C   UNL A   1      40.501  26.285  27.715  1.00  0.00     0.134 A 
ATOM     70  C   UNL A   1      41.891  28.010  26.814  1.00  0.00     0.134 A 
ATOM     71  F   UNL A   1      39.737  25.777  28.693  1.00  0.00    -0.206 F 
ATOM     72  C   UNL A   1      40.725  25.502  26.581  1.00  0.00     0.040 A 
ATOM     73  C   UNL A   1      42.099  27.250  25.661  1.00  0.00     0.040 A 
ATOM     74  F   UNL A   1      42.476  29.215  26.888  1.00  0.00    -0.206 F 
ATOM     75  C   UNL A   1      41.522  25.988  25.547  1.00  0.00     0.006 A 
ENDBRANCH  47  68
BRANCH  59  76
ATOM     76  C   UNL A   1      44.163  27.620  34.104  1.00  0.00     0.057 A 
ATOM     77  C   UNL A   1      43.914  26.397  34.742  1.00  0.00     0.134 A 
ATOM     78  C   UNL A   1      45.497  28.048  34.034  1.00  0.00     0.134 A 
ATOM     79  F   UNL A   1      42.660  25.933  34.855  1.00  0.00    -0.206 F 
ATOM     80  C   UNL A   1      44.943  25.652  35.322  1.00  0.00     0.040 A 
ATOM     81  C   UNL A   1      46.537  27.296  34.580  1.00  0.00     0.040 A 
ATOM     82  F   UNL A   1      45.811  29.204  33.429  1.00  0.00    -0.206 F 
ATOM     83  C   UNL A   1      46.260  26.099  35.238  1.00  0.00     0.006 A 
ENDBRANCH  59  76
ENDBRANCH  33  34
ENDBRANCH  25  28
ENDBRANCH  23  24
ENDBRANCH   1  23
TORSDOF 12
ENDMDL
MODEL 3
REMARK VINA RESULT:      -9.7      5.150     10.867
REMARK SMILES O=C(C[C@H]1C[N@@H+]([C@@H]2CC(=O)NC2=O)CCO1)NCCCNC(=O)c1ccc(-c2c3nc(c(-c4c(F)cccc4F)c4ccc([nH]4)c(-c4c(F)cccc4F)c4nc(c(-c5c(F)cccc5F)c5ccc2[nH]5)C=C4)C=C3)cc1
REMARK SMILES IDX 19 1 18 2 17 3 1 4 2 5 3 7 4 8 5 9 16 10 6 11 15 12 14 13
REMARK SMILES IDX 7 15 8 16 12 17 9 18 11 19 13 20 10 21 20 23 21 24 22 25
REMARK SMILES IDX 23 27 24 28 25 29 77 30 26 31 76 32 27 33 28 34 29 35 70 36
REMARK SMILES IDX 30 37 75 38 69 39 71 40 31 41 74 42 68 43 67 44 32 46 58 47
REMARK SMILES IDX 41 48 57 49 42 50 45 51 56 52 72 53 43 54 44 55 55 57 73 58
REMARK SMILES IDX 46 59 33 60 34 61 39 62 35 63 36 64 38 65 40 66 37 67 59 68
REMARK SMILES IDX 60 69 65 70 61 71 62 72 64 73 66 74 63 75 47 76 48 77 53 78
REMARK SMILES IDX 49 79 50 80 52 81 54 82 51 83
REMARK H PARENT 17 6 6 14 11 22 21 26 71 45 45 56
REMARK Flexibility Score: inf
ROOT
ATOM      1  C   UNL A   1      38.284  19.860  24.793  1.00  0.00     0.042 C 
ENDROOT
BRANCH   1   2
ATOM      2  C   UNL A   1      36.747  20.046  24.946  1.00  0.00     0.117 C 
BRANCH   2   3
ATOM      3  N   UNL A   1      36.350  21.377  25.385  1.00  0.00    -0.356 N 
ATOM      4  O   UNL A   1      34.218  21.018  26.116  1.00  0.00    -0.275 OA
ATOM      5  C   UNL A   1      35.153  21.797  25.935  1.00  0.00     0.222 C 
ATOM      6  H   UNL A   1      37.032  22.078  25.276  1.00  0.00     0.163 HD
BRANCH   5   7
ATOM      7  C   UNL A   1      34.970  23.332  26.244  1.00  0.00     0.138 C 
BRANCH   7   8
ATOM      8  C   UNL A   1      34.884  24.355  25.086  1.00  0.00     0.182 C 
ATOM      9  C   UNL A   1      33.976  23.864  23.991  1.00  0.00     0.295 C 
ATOM     10  O   UNL A   1      34.386  25.677  25.480  1.00  0.00    -0.366 OA
ATOM     11  N   UNL A   1      32.537  24.220  24.241  1.00  0.00    -0.320 N 
ATOM     12  C   UNL A   1      33.766  26.403  24.353  1.00  0.00     0.222 C 
ATOM     13  C   UNL A   1      32.557  25.617  23.724  1.00  0.00     0.291 C 
ATOM     14  H   UNL A   1      32.024  23.425  23.859  1.00  0.00     0.348 HD
BRANCH  11  15
ATOM     15  C   UNL A   1      31.768  24.277  25.591  1.00  0.00     0.284 C 
ATOM     16  C   UNL A   1      31.316  23.008  26.354  1.00  0.00     0.176 C 
ATOM     17  C   UNL A   1      30.654  25.244  25.998  1.00  0.00     0.285 C 
ATOM     18  C   UNL A   1      29.977  23.334  26.934  1.00  0.00     0.233 C 
ATOM     19  N   UNL A   1      29.624  24.577  26.566  1.00  0.00    -0.291 N 
ATOM     20  O   UNL A   1      30.703  26.458  26.069  1.00  0.00    -0.268 OA
ATOM     21  O   UNL A   1      29.335  22.612  27.681  1.00  0.00    -0.274 OA
ATOM     22  H   UNL A   1      28.725  24.955  26.695  1.00  0.00     0.173 HD
ENDBRANCH  11  15
ENDBRANCH   7   8
ENDBRANCH   5   7
ENDBRANCH   2   3
ENDBRANCH   1   2
BRANCH   1  23
ATOM     23  C   UNL A   1      39.158  19.823  26.057  1.00  0.00     0.118 C 
BRANCH  23  24
ATOM     24  N   UNL A   1      40.403  19.110  25.865  1.00  0.00    -0.352 N 
ATOM     25  C   UNL A   1      41.700  19.555  25.916  1.00  0.00     0.251 C 
ATOM     26  H   UNL A   1      40.303  18.151  25.664  1.00  0.00     0.163 HD
ATOM     27  O   UNL A   1      42.597  18.815  25.515  1.00  0.00    -0.269 OA
BRANCH  25  28
ATOM     28  C   UNL A   1      42.060  20.899  26.433  1.00  0.00     0.039 A 
ATOM     29  C   UNL A   1      41.979  21.107  27.814  1.00  0.00     0.014 A 
ATOM     30  C   UNL A   1      42.349  21.981  25.594  1.00  0.00     0.014 A 
ATOM     31  C   UNL A   1      42.204  22.378  28.353  1.00  0.00     0.010 A 
ATOM     32  C   UNL A   1      42.620  23.247  26.139  1.00  0.00     0.010 A 
ATOM     33  C   UNL A   1      42.543  23.463  27.525  1.00  0.00    -0.014 A 
BRANCH  33  34
ATOM     34  C   UNL A   1      42.831  24.797  28.132  1.00  0.00     0.031 A 
ATOM     35  C   UNL A   1      44.229  25.199  28.523  1.00  0.00     0.074 A 
ATOM     36  C   UNL A   1      41.818  25.667  28.321  1.00  0.00     0.049 A 
ATOM     37  N   UNL A   1      44.658  26.341  29.007  1.00  0.00    -0.248 NA
ATOM     38  C   UNL A   1      45.282  24.186  28.366  1.00  0.00     0.031 C 
ATOM     39  C   UNL A   1      40.410  25.396  28.026  1.00  0.00     0.029 A 
ATOM     40  N   UNL A   1      41.814  26.957  28.797  1.00  0.00    -0.354 N 
ATOM     41  C   UNL A   1      46.024  26.184  29.212  1.00  0.00     0.074 A 
ATOM     42  C   UNL A   1      46.343  24.818  28.850  1.00  0.00     0.031 C 
ATOM     43  C   UNL A   1      39.685  26.494  28.289  1.00  0.00     0.029 A 
ATOM     44  C   UNL A   1      40.566  27.536  28.806  1.00  0.00     0.049 A 
ATOM     45  H   UNL A   1      42.626  27.421  29.102  1.00  0.00     0.167 HD
ATOM     46  C   UNL A   1      46.933  27.095  29.642  1.00  0.00     0.037 A 
ATOM     47  C   UNL A   1      40.172  28.767  29.186  1.00  0.00     0.037 A 
ATOM     48  C   UNL A   1      46.619  28.457  29.999  1.00  0.00     0.049 A 
ATOM     49  C   UNL A   1      41.197  29.754  29.670  1.00  0.00     0.074 A 
ATOM     50  C   UNL A   1      47.479  29.465  30.401  1.00  0.00     0.029 A 
ATOM     51  N   UNL A   1      45.343  29.000  30.004  1.00  0.00    -0.354 N 
ATOM     52  N   UNL A   1      42.494  29.609  29.791  1.00  0.00    -0.248 NA
ATOM     53  C   UNL A   1      40.703  31.082  30.059  1.00  0.00     0.031 C 
ATOM     54  C   UNL A   1      46.718  30.600  30.704  1.00  0.00     0.029 A 
ATOM     55  C   UNL A   1      45.390  30.321  30.428  1.00  0.00     0.049 A 
ATOM     56  H   UNL A   1      44.523  28.521  29.745  1.00  0.00     0.167 HD
ATOM     57  C   UNL A   1      42.973  30.833  30.241  1.00  0.00     0.074 A 
ATOM     58  C   UNL A   1      41.830  31.714  30.349  1.00  0.00     0.031 C 
ATOM     59  C   UNL A   1      44.247  31.193  30.536  1.00  0.00     0.037 A 
BRANCH  46  60
ATOM     60  C   UNL A   1      48.366  26.649  29.759  1.00  0.00     0.057 A 
ATOM     61  C   UNL A   1      49.295  26.860  28.731  1.00  0.00     0.134 A 
ATOM     62  C   UNL A   1      48.837  26.044  30.933  1.00  0.00     0.134 A 
ATOM     63  F   UNL A   1      48.914  27.430  27.577  1.00  0.00    -0.206 F 
ATOM     64  C   UNL A   1      50.627  26.460  28.853  1.00  0.00     0.040 A 
ATOM     65  C   UNL A   1      50.174  25.668  31.078  1.00  0.00     0.040 A 
ATOM     66  F   UNL A   1      48.008  25.821  31.964  1.00  0.00    -0.206 F 
ATOM     67  C   UNL A   1      51.073  25.868  30.033  1.00  0.00     0.006 A 
ENDBRANCH  46  60
BRANCH  47  68
ATOM     68  C   UNL A   1      38.737  29.146  29.104  1.00  0.00     0.057 A 
ATOM     69  C   UNL A   1      38.169  29.588  27.903  1.00  0.00     0.134 A 
ATOM     70  C   UNL A   1      37.902  29.088  30.226  1.00  0.00     0.134 A 
ATOM     71  F   UNL A   1      38.921  29.686  26.797  1.00  0.00    -0.206 F 
ATOM     72  C   UNL A   1      36.832  29.981  27.826  1.00  0.00     0.040 A 
ATOM     73  C   UNL A   1      36.555  29.448  30.157  1.00  0.00     0.040 A 
ATOM     74  F   UNL A   1      38.381  28.666  31.407  1.00  0.00    -0.206 F 
ATOM     75  C   UNL A   1      36.019  29.906  28.956  1.00  0.00     0.006 A 
ENDBRANCH  47  68
BRANCH  59  76
ATOM     76  C   UNL A   1      44.473  32.616  30.969  1.00  0.00     0.057 A 
ATOM     77  C   UNL A   1      44.724  33.645  30.051  1.00  0.00     0.134 A 
ATOM     78  C   UNL A   1      44.436  32.961  32.327  1.00  0.00     0.134 A 
ATOM     79  F   UNL A   1      44.785  33.383  28.736  1.00  0.00    -0.206 F 
ATOM     80  C   UNL A   1      44.969  34.955  30.470  1.00  0.00     0.040 A 
ATOM     81  C   UNL A   1      44.646  34.273  32.755  1.00  0.00     0.040 A 
ATOM     82  F   UNL A   1      44.190  32.030  33.261  1.00  0.00    -0.206 F 
ATOM     83  C   UNL A   1      44.926  35.272  31.826  1.00  0.00     0.006 A 
ENDBRANCH  59  76
ENDBRANCH  33  34
ENDBRANCH  25  28
ENDBRANCH  23  24
ENDBRANCH   1  23
TORSDOF 12
ENDMDL
