MODEL 1
REMARK VINA RESULT:     -14.4      0.000      0.000
REMARK SMILES Cc1c(NC(=O)[C@@H]2CC=CC[C@@H]2C(=O)NCCCNC(=O)c2ccc(-c3c4nc(c(-c5c(F)cccc5F)c5ccc([nH]5)c(-c5c(F)cccc5F)c5nc(c(-c6c(F)cccc6F)c6ccc3[nH]6)C=C5)C=C4)cc2)cccc1C(=O)N1CCOCC1
REMARK SMILES IDX 16 1 15 2 13 3 14 4 12 6 7 7 8 8 9 9 11 10 10 11 5 12 4 13
REMARK SMILES IDX 6 15 3 16 1 17 2 18 79 19 76 20 78 21 77 22 80 23 81 24
REMARK SMILES IDX 82 25 83 26 87 27 84 28 86 29 85 30 17 31 18 32 19 33 20 34
REMARK SMILES IDX 21 36 22 37 23 38 75 39 24 40 74 41 25 42 26 43 27 44 68 45
REMARK SMILES IDX 28 46 73 47 67 48 69 49 29 50 72 51 66 52 65 53 30 55 56 56
REMARK SMILES IDX 39 57 55 58 40 59 43 60 54 61 70 62 41 63 42 64 53 66 71 67
REMARK SMILES IDX 44 68 31 69 32 70 37 71 33 72 34 73 36 74 38 75 35 76 57 77
REMARK SMILES IDX 58 78 63 79 59 80 60 81 62 82 64 83 61 84 45 85 46 86 51 87
REMARK SMILES IDX 47 88 48 89 50 90 52 91 49 92
REMARK H PARENT 15 5 4 14 19 35 69 54 43 65
REMARK Flexibility Score: inf
ROOT
ATOM      1  C   UNL A   1      37.252  23.764  25.896  1.00  0.00     0.117 C 
ENDROOT
BRANCH   1   2
ATOM      2  N   UNL A   1      36.073  23.178  26.518  1.00  0.00    -0.356 N 
ATOM      3  C   UNL A   1      34.731  23.346  26.494  1.00  0.00     0.224 C 
ATOM      4  O   UNL A   1      34.148  22.535  27.233  1.00  0.00    -0.275 OA
ATOM      5  H   UNL A   1      36.324  22.449  27.130  1.00  0.00     0.163 HD
BRANCH   3   6
ATOM      6  C   UNL A   1      33.881  24.299  25.608  1.00  0.00     0.095 C 
ATOM      7  C   UNL A   1      32.385  24.015  25.298  1.00  0.00     0.095 C 
ATOM      8  C   UNL A   1      32.260  22.617  24.687  1.00  0.00     0.041 C 
ATOM      9  C   UNL A   1      33.217  22.423  23.541  1.00  0.00    -0.030 C 
ATOM     10  C   UNL A   1      34.583  24.409  24.219  1.00  0.00     0.041 C 
ATOM     11  C   UNL A   1      34.246  23.252  23.310  1.00  0.00    -0.030 C 
BRANCH   7  12
ATOM     12  C   UNL A   1      31.508  24.442  26.463  1.00  0.00     0.228 C 
ATOM     13  N   UNL A   1      31.042  25.694  26.673  1.00  0.00    -0.326 N 
ATOM     14  H   UNL A   1      30.237  25.698  27.240  1.00  0.00     0.169 HD
ATOM     15  O   UNL A   1      31.159  23.614  27.317  1.00  0.00    -0.274 OA
BRANCH  13  16
ATOM     16  C   UNL A   1      31.417  26.989  26.285  1.00  0.00     0.044 A 
ATOM     17  C   UNL A   1      30.635  26.361  23.968  1.00  0.00     0.047 C 
ATOM     18  C   UNL A   1      31.081  27.400  24.966  1.00  0.00    -0.015 A 
ATOM     19  C   UNL A   1      31.243  28.756  24.606  1.00  0.00     0.045 A 
ATOM     20  C   UNL A   1      31.995  27.896  27.174  1.00  0.00     0.026 A 
ATOM     21  C   UNL A   1      31.860  29.637  25.509  1.00  0.00     0.014 A 
ATOM     22  C   UNL A   1      32.250  29.206  26.775  1.00  0.00     0.003 A 
BRANCH  19  23
ATOM     23  C   UNL A   1      30.981  29.299  23.242  1.00  0.00     0.254 C 
ATOM     24  O   UNL A   1      31.752  28.938  22.352  1.00  0.00    -0.269 OA
ATOM     25  N   UNL A   1      29.899  30.134  22.980  1.00  0.00    -0.334 N 
ATOM     26  C   UNL A   1      29.193  31.009  23.926  1.00  0.00     0.148 C 
ATOM     27  C   UNL A   1      29.527  30.361  21.582  1.00  0.00     0.148 C 
ATOM     28  C   UNL A   1      27.676  31.023  23.654  1.00  0.00     0.181 C 
ATOM     29  C   UNL A   1      28.007  30.296  21.428  1.00  0.00     0.181 C 
ATOM     30  O   UNL A   1      27.377  31.274  22.272  1.00  0.00    -0.378 OA
ENDBRANCH  19  23
ENDBRANCH  13  16
ENDBRANCH   7  12
ENDBRANCH   3   6
ENDBRANCH   1   2
BRANCH   1  31
ATOM     31  C   UNL A   1      38.394  22.759  25.773  1.00  0.00     0.042 C 
BRANCH  31  32
ATOM     32  C   UNL A   1      39.410  22.821  26.899  1.00  0.00     0.118 C 
BRANCH  32  33
ATOM     33  N   UNL A   1      40.774  23.151  26.495  1.00  0.00    -0.352 N 
ATOM     34  C   UNL A   1      41.356  24.413  26.393  1.00  0.00     0.251 C 
ATOM     35  H   UNL A   1      41.353  22.389  26.266  1.00  0.00     0.163 HD
ATOM     36  O   UNL A   1      42.512  24.548  26.093  1.00  0.00    -0.269 OA
BRANCH  34  37
ATOM     37  C   UNL A   1      40.531  25.584  26.809  1.00  0.00     0.039 A 
ATOM     38  C   UNL A   1      40.766  26.797  26.159  1.00  0.00     0.014 A 
ATOM     39  C   UNL A   1      39.830  25.547  28.009  1.00  0.00     0.014 A 
ATOM     40  C   UNL A   1      40.560  27.983  26.858  1.00  0.00     0.010 A 
ATOM     41  C   UNL A   1      39.763  26.710  28.753  1.00  0.00     0.010 A 
ATOM     42  C   UNL A   1      40.196  27.921  28.202  1.00  0.00    -0.014 A 
BRANCH  42  43
ATOM     43  C   UNL A   1      40.352  29.048  29.123  1.00  0.00     0.031 A 
ATOM     44  C   UNL A   1      39.269  30.046  29.270  1.00  0.00     0.074 A 
ATOM     45  C   UNL A   1      41.469  29.156  29.882  1.00  0.00     0.049 A 
ATOM     46  N   UNL A   1      39.431  31.233  29.753  1.00  0.00    -0.248 NA
ATOM     47  C   UNL A   1      37.901  29.791  28.833  1.00  0.00     0.031 C 
ATOM     48  C   UNL A   1      41.693  30.064  31.006  1.00  0.00     0.029 A 
ATOM     49  N   UNL A   1      42.734  28.605  29.627  1.00  0.00    -0.354 N 
ATOM     50  C   UNL A   1      38.192  31.814  29.887  1.00  0.00     0.074 A 
ATOM     51  C   UNL A   1      37.271  30.873  29.294  1.00  0.00     0.031 C 
ATOM     52  C   UNL A   1      43.013  30.262  31.141  1.00  0.00     0.029 A 
ATOM     53  C   UNL A   1      43.669  29.588  30.036  1.00  0.00     0.049 A 
ATOM     54  H   UNL A   1      42.932  27.720  29.245  1.00  0.00     0.167 HD
ATOM     55  C   UNL A   1      38.068  32.996  30.554  1.00  0.00     0.037 A 
ATOM     56  C   UNL A   1      44.515  30.172  29.140  1.00  0.00     0.037 A 
ATOM     57  C   UNL A   1      39.367  33.537  30.935  1.00  0.00     0.049 A 
ATOM     58  C   UNL A   1      44.343  31.669  28.991  1.00  0.00     0.074 A 
ATOM     59  C   UNL A   1      40.145  33.472  32.080  1.00  0.00     0.029 A 
ATOM     60  N   UNL A   1      40.187  34.027  29.939  1.00  0.00    -0.354 N 
ATOM     61  N   UNL A   1      43.422  32.368  29.597  1.00  0.00    -0.248 NA
ATOM     62  C   UNL A   1      45.133  32.479  28.060  1.00  0.00     0.031 C 
ATOM     63  C   UNL A   1      41.466  33.877  31.736  1.00  0.00     0.029 A 
ATOM     64  C   UNL A   1      41.481  34.197  30.391  1.00  0.00     0.049 A 
ATOM     65  H   UNL A   1      39.889  34.230  29.022  1.00  0.00     0.167 HD
ATOM     66  C   UNL A   1      43.432  33.644  29.102  1.00  0.00     0.074 A 
ATOM     67  C   UNL A   1      44.532  33.677  28.158  1.00  0.00     0.031 C 
ATOM     68  C   UNL A   1      42.508  34.581  29.444  1.00  0.00     0.037 A 
BRANCH  55  69
ATOM     69  C   UNL A   1      36.756  33.569  31.016  1.00  0.00     0.057 A 
ATOM     70  C   UNL A   1      36.408  33.553  32.379  1.00  0.00     0.134 A 
ATOM     71  C   UNL A   1      35.775  34.115  30.170  1.00  0.00     0.134 A 
ATOM     72  F   UNL A   1      37.271  33.147  33.321  1.00  0.00    -0.206 F 
ATOM     73  C   UNL A   1      35.147  33.946  32.848  1.00  0.00     0.040 A 
ATOM     74  C   UNL A   1      34.488  34.451  30.614  1.00  0.00     0.040 A 
ATOM     75  F   UNL A   1      36.036  34.399  28.887  1.00  0.00    -0.206 F 
ATOM     76  C   UNL A   1      34.166  34.357  31.959  1.00  0.00     0.006 A 
ENDBRANCH  55  69
BRANCH  56  77
ATOM     77  C   UNL A   1      44.928  29.253  28.048  1.00  0.00     0.057 A 
ATOM     78  C   UNL A   1      45.917  28.290  28.315  1.00  0.00     0.134 A 
ATOM     79  C   UNL A   1      44.146  29.064  26.907  1.00  0.00     0.134 A 
ATOM     80  F   UNL A   1      46.708  28.415  29.393  1.00  0.00    -0.206 F 
ATOM     81  C   UNL A   1      46.038  27.127  27.552  1.00  0.00     0.040 A 
ATOM     82  C   UNL A   1      44.270  27.912  26.124  1.00  0.00     0.040 A 
ATOM     83  F   UNL A   1      43.166  29.927  26.599  1.00  0.00    -0.206 F 
ATOM     84  C   UNL A   1      45.188  26.920  26.471  1.00  0.00     0.006 A 
ENDBRANCH  56  77
BRANCH  68  85
ATOM     85  C   UNL A   1      42.523  35.960  28.880  1.00  0.00     0.057 A 
ATOM     86  C   UNL A   1      41.933  36.252  27.646  1.00  0.00     0.134 A 
ATOM     87  C   UNL A   1      43.246  36.995  29.497  1.00  0.00     0.134 A 
ATOM     88  F   UNL A   1      41.232  35.318  26.984  1.00  0.00    -0.206 F 
ATOM     89  C   UNL A   1      42.061  37.510  27.050  1.00  0.00     0.040 A 
ATOM     90  C   UNL A   1      43.409  38.244  28.897  1.00  0.00     0.040 A 
ATOM     91  F   UNL A   1      43.809  36.824  30.704  1.00  0.00    -0.206 F 
ATOM     92  C   UNL A   1      42.815  38.504  27.668  1.00  0.00     0.006 A 
ENDBRANCH  68  85
ENDBRANCH  42  43
ENDBRANCH  34  37
ENDBRANCH  32  33
ENDBRANCH  31  32
ENDBRANCH   1  31
TORSDOF 13
ENDMDL
MODEL 2
REMARK VINA RESULT:     -14.4      4.074      9.740
REMARK SMILES Cc1c(NC(=O)[C@@H]2CC=CC[C@@H]2C(=O)NCCCNC(=O)c2ccc(-c3c4nc(c(-c5c(F)cccc5F)c5ccc([nH]5)c(-c5c(F)cccc5F)c5nc(c(-c6c(F)cccc6F)c6ccc3[nH]6)C=C5)C=C4)cc2)cccc1C(=O)N1CCOCC1
REMARK SMILES IDX 16 1 15 2 13 3 14 4 12 6 7 7 8 8 9 9 11 10 10 11 5 12 4 13
REMARK SMILES IDX 6 15 3 16 1 17 2 18 79 19 76 20 78 21 77 22 80 23 81 24
REMARK SMILES IDX 82 25 83 26 87 27 84 28 86 29 85 30 17 31 18 32 19 33 20 34
REMARK SMILES IDX 21 36 22 37 23 38 75 39 24 40 74 41 25 42 26 43 27 44 68 45
REMARK SMILES IDX 28 46 73 47 67 48 69 49 29 50 72 51 66 52 65 53 30 55 56 56
REMARK SMILES IDX 39 57 55 58 40 59 43 60 54 61 70 62 41 63 42 64 53 66 71 67
REMARK SMILES IDX 44 68 31 69 32 70 37 71 33 72 34 73 36 74 38 75 35 76 57 77
REMARK SMILES IDX 58 78 63 79 59 80 60 81 62 82 64 83 61 84 45 85 46 86 51 87
REMARK SMILES IDX 47 88 48 89 50 90 52 91 49 92
REMARK H PARENT 15 5 4 14 19 35 69 54 43 65
REMARK Flexibility Score: inf
ROOT
ATOM      1  C   UNL A   1      34.434  29.006  26.927  1.00  0.00     0.117 C 
ENDROOT
BRANCH   1   2
ATOM      2  N   UNL A   1      34.130  28.935  25.505  1.00  0.00    -0.356 N 
ATOM      3  C   UNL A   1      33.772  28.000  24.595  1.00  0.00     0.224 C 
ATOM      4  O   UNL A   1      33.611  28.489  23.464  1.00  0.00    -0.275 OA
ATOM      5  H   UNL A   1      34.206  29.822  25.084  1.00  0.00     0.163 HD
BRANCH   3   6
ATOM      6  C   UNL A   1      33.439  26.498  24.816  1.00  0.00     0.095 C 
ATOM      7  C   UNL A   1      32.628  25.674  23.777  1.00  0.00     0.095 C 
ATOM      8  C   UNL A   1      31.300  26.385  23.506  1.00  0.00     0.041 C 
ATOM      9  C   UNL A   1      30.579  26.722  24.784  1.00  0.00    -0.030 C 
ATOM     10  C   UNL A   1      32.647  26.379  26.155  1.00  0.00     0.041 C 
ATOM     11  C   UNL A   1      31.179  26.685  25.984  1.00  0.00    -0.030 C 
BRANCH   7  12
ATOM     12  C   UNL A   1      33.525  25.228  22.634  1.00  0.00     0.228 C 
ATOM     13  N   UNL A   1      34.286  24.109  22.628  1.00  0.00    -0.326 N 
ATOM     14  H   UNL A   1      34.499  23.813  21.714  1.00  0.00     0.169 HD
ATOM     15  O   UNL A   1      33.599  25.904  21.598  1.00  0.00    -0.274 OA
BRANCH  13  16
ATOM     16  C   UNL A   1      34.847  23.265  23.598  1.00  0.00     0.044 A 
ATOM     17  C   UNL A   1      32.519  22.349  23.935  1.00  0.00     0.047 C 
ATOM     18  C   UNL A   1      34.008  22.265  24.160  1.00  0.00    -0.015 A 
ATOM     19  C   UNL A   1      34.582  21.263  24.973  1.00  0.00     0.045 A 
ATOM     20  C   UNL A   1      36.201  23.311  23.933  1.00  0.00     0.026 A 
ATOM     21  C   UNL A   1      35.939  21.355  25.320  1.00  0.00     0.014 A 
ATOM     22  C   UNL A   1      36.738  22.381  24.820  1.00  0.00     0.003 A 
BRANCH  19  23
ATOM     23  C   UNL A   1      33.803  20.195  25.664  1.00  0.00     0.254 C 
ATOM     24  O   UNL A   1      33.156  20.543  26.653  1.00  0.00    -0.269 OA
ATOM     25  N   UNL A   1      33.774  18.887  25.193  1.00  0.00    -0.334 N 
ATOM     26  C   UNL A   1      34.786  18.207  24.373  1.00  0.00     0.148 C 
ATOM     27  C   UNL A   1      32.749  17.985  25.726  1.00  0.00     0.148 C 
ATOM     28  C   UNL A   1      34.134  17.280  23.329  1.00  0.00     0.181 C 
ATOM     29  C   UNL A   1      32.138  17.161  24.592  1.00  0.00     0.181 C 
ATOM     30  O   UNL A   1      33.157  16.406  23.916  1.00  0.00    -0.378 OA
ENDBRANCH  19  23
ENDBRANCH  13  16
ENDBRANCH   7  12
ENDBRANCH   3   6
ENDBRANCH   1   2
BRANCH   1  31
ATOM     31  C   UNL A   1      34.111  30.377  27.514  1.00  0.00     0.042 C 
BRANCH  31  32
ATOM     32  C   UNL A   1      35.285  31.337  27.551  1.00  0.00     0.118 C 
BRANCH  32  33
ATOM     33  N   UNL A   1      35.684  31.789  28.881  1.00  0.00    -0.352 N 
ATOM     34  C   UNL A   1      36.514  31.141  29.793  1.00  0.00     0.251 C 
ATOM     35  H   UNL A   1      35.321  32.658  29.169  1.00  0.00     0.163 HD
ATOM     36  O   UNL A   1      36.806  31.646  30.844  1.00  0.00    -0.269 OA
BRANCH  34  37
ATOM     37  C   UNL A   1      37.144  29.862  29.357  1.00  0.00     0.039 A 
ATOM     38  C   UNL A   1      37.391  28.900  30.340  1.00  0.00     0.014 A 
ATOM     39  C   UNL A   1      37.768  29.782  28.117  1.00  0.00     0.014 A 
ATOM     40  C   UNL A   1      38.476  28.044  30.182  1.00  0.00     0.010 A 
ATOM     41  C   UNL A   1      38.927  29.036  28.023  1.00  0.00     0.010 A 
ATOM     42  C   UNL A   1      39.322  28.218  29.087  1.00  0.00    -0.014 A 
BRANCH  42  43
ATOM     43  C   UNL A   1      40.680  27.675  29.035  1.00  0.00     0.031 A 
ATOM     44  C   UNL A   1      40.908  26.278  28.601  1.00  0.00     0.074 A 
ATOM     45  C   UNL A   1      41.739  28.462  29.338  1.00  0.00     0.049 A 
ATOM     46  N   UNL A   1      41.977  25.600  28.854  1.00  0.00    -0.248 NA
ATOM     47  C   UNL A   1      39.907  25.511  27.868  1.00  0.00     0.031 C 
ATOM     48  C   UNL A   1      43.155  28.168  29.118  1.00  0.00     0.029 A 
ATOM     49  N   UNL A   1      41.748  29.617  30.135  1.00  0.00    -0.354 N 
ATOM     50  C   UNL A   1      41.906  24.414  28.164  1.00  0.00     0.074 A 
ATOM     51  C   UNL A   1      40.591  24.405  27.567  1.00  0.00     0.031 C 
ATOM     52  C   UNL A   1      43.883  28.884  29.989  1.00  0.00     0.029 A 
ATOM     53  C   UNL A   1      42.955  29.564  30.874  1.00  0.00     0.049 A 
ATOM     54  H   UNL A   1      41.059  30.320  30.172  1.00  0.00     0.167 HD
ATOM     55  C   UNL A   1      42.996  23.598  28.108  1.00  0.00     0.037 A 
ATOM     56  C   UNL A   1      42.945  29.471  32.235  1.00  0.00     0.037 A 
ATOM     57  C   UNL A   1      44.085  24.097  28.938  1.00  0.00     0.049 A 
ATOM     58  C   UNL A   1      43.585  28.215  32.788  1.00  0.00     0.074 A 
ATOM     59  C   UNL A   1      45.202  24.882  28.702  1.00  0.00     0.029 A 
ATOM     60  N   UNL A   1      43.940  24.037  30.309  1.00  0.00    -0.354 N 
ATOM     61  N   UNL A   1      44.053  27.242  32.054  1.00  0.00    -0.248 NA
ATOM     62  C   UNL A   1      43.651  27.911  34.220  1.00  0.00     0.031 C 
ATOM     63  C   UNL A   1      45.689  25.342  29.959  1.00  0.00     0.029 A 
ATOM     64  C   UNL A   1      44.876  24.824  30.950  1.00  0.00     0.049 A 
ATOM     65  H   UNL A   1      43.255  23.500  30.773  1.00  0.00     0.167 HD
ATOM     66  C   UNL A   1      44.388  26.192  32.865  1.00  0.00     0.074 A 
ATOM     67  C   UNL A   1      44.141  26.660  34.214  1.00  0.00     0.031 C 
ATOM     68  C   UNL A   1      44.789  24.984  32.387  1.00  0.00     0.037 A 
BRANCH  55  69
ATOM     69  C   UNL A   1      43.135  22.440  27.155  1.00  0.00     0.057 A 
ATOM     70  C   UNL A   1      42.314  21.304  27.285  1.00  0.00     0.134 A 
ATOM     71  C   UNL A   1      44.078  22.363  26.117  1.00  0.00     0.134 A 
ATOM     72  F   UNL A   1      41.308  21.261  28.169  1.00  0.00    -0.206 F 
ATOM     73  C   UNL A   1      42.491  20.146  26.517  1.00  0.00     0.040 A 
ATOM     74  C   UNL A   1      44.310  21.190  25.385  1.00  0.00     0.040 A 
ATOM     75  F   UNL A   1      44.781  23.435  25.727  1.00  0.00    -0.206 F 
ATOM     76  C   UNL A   1      43.519  20.070  25.591  1.00  0.00     0.006 A 
ENDBRANCH  55  69
BRANCH  56  77
ATOM     77  C   UNL A   1      41.798  30.182  32.856  1.00  0.00     0.057 A 
ATOM     78  C   UNL A   1      41.859  31.582  32.979  1.00  0.00     0.134 A 
ATOM     79  C   UNL A   1      40.543  29.584  32.989  1.00  0.00     0.134 A 
ATOM     80  F   UNL A   1      43.035  32.219  32.868  1.00  0.00    -0.206 F 
ATOM     81  C   UNL A   1      40.707  32.361  33.101  1.00  0.00     0.040 A 
ATOM     82  C   UNL A   1      39.384  30.354  33.130  1.00  0.00     0.040 A 
ATOM     83  F   UNL A   1      40.401  28.257  32.860  1.00  0.00    -0.206 F 
ATOM     84  C   UNL A   1      39.460  31.747  33.144  1.00  0.00     0.006 A 
ENDBRANCH  56  77
BRANCH  68  85
ATOM     85  C   UNL A   1      45.132  23.846  33.285  1.00  0.00     0.057 A 
ATOM     86  C   UNL A   1      44.172  22.904  33.672  1.00  0.00     0.134 A 
ATOM     87  C   UNL A   1      46.397  23.744  33.888  1.00  0.00     0.134 A 
ATOM     88  F   UNL A   1      42.936  22.934  33.152  1.00  0.00    -0.206 F 
ATOM     89  C   UNL A   1      44.453  21.915  34.619  1.00  0.00     0.040 A 
ATOM     90  C   UNL A   1      46.680  22.782  34.859  1.00  0.00     0.040 A 
ATOM     91  F   UNL A   1      47.396  24.573  33.548  1.00  0.00    -0.206 F 
ATOM     92  C   UNL A   1      45.705  21.863  35.227  1.00  0.00     0.006 A 
ENDBRANCH  68  85
ENDBRANCH  42  43
ENDBRANCH  34  37
ENDBRANCH  32  33
ENDBRANCH  31  32
ENDBRANCH   1  31
TORSDOF 13
ENDMDL
MODEL 3
REMARK VINA RESULT:     -14.3      3.981      9.558
REMARK SMILES Cc1c(NC(=O)[C@@H]2CC=CC[C@@H]2C(=O)NCCCNC(=O)c2ccc(-c3c4nc(c(-c5c(F)cccc5F)c5ccc([nH]5)c(-c5c(F)cccc5F)c5nc(c(-c6c(F)cccc6F)c6ccc3[nH]6)C=C5)C=C4)cc2)cccc1C(=O)N1CCOCC1
REMARK SMILES IDX 16 1 15 2 13 3 14 4 12 6 7 7 8 8 9 9 11 10 10 11 5 12 4 13
REMARK SMILES IDX 6 15 3 16 1 17 2 18 79 19 76 20 78 21 77 22 80 23 81 24
REMARK SMILES IDX 82 25 83 26 87 27 84 28 86 29 85 30 17 31 18 32 19 33 20 34
REMARK SMILES IDX 21 36 22 37 23 38 75 39 24 40 74 41 25 42 26 43 27 44 68 45
REMARK SMILES IDX 28 46 73 47 67 48 69 49 29 50 72 51 66 52 65 53 30 55 56 56
REMARK SMILES IDX 39 57 55 58 40 59 43 60 54 61 70 62 41 63 42 64 53 66 71 67
REMARK SMILES IDX 44 68 31 69 32 70 37 71 33 72 34 73 36 74 38 75 35 76 57 77
REMARK SMILES IDX 58 78 63 79 59 80 60 81 62 82 64 83 61 84 45 85 46 86 51 87
REMARK SMILES IDX 47 88 48 89 50 90 52 91 49 92
REMARK H PARENT 15 5 4 14 19 35 69 54 43 65
REMARK Flexibility Score: inf
ROOT
ATOM      1  C   UNL A   1      32.880  29.667  26.821  1.00  0.00     0.117 C 
ENDROOT
BRANCH   1   2
ATOM      2  N   UNL A   1      31.803  30.015  25.905  1.00  0.00    -0.356 N 
ATOM      3  C   UNL A   1      31.195  29.491  24.816  1.00  0.00     0.224 C 
ATOM      4  O   UNL A   1      30.275  30.217  24.404  1.00  0.00    -0.275 OA
ATOM      5  H   UNL A   1      31.402  30.881  26.148  1.00  0.00     0.163 HD
BRANCH   3   6
ATOM      6  C   UNL A   1      31.423  28.111  24.140  1.00  0.00     0.095 C 
ATOM      7  C   UNL A   1      32.514  27.122  24.638  1.00  0.00     0.095 C 
ATOM      8  C   UNL A   1      33.867  27.837  24.646  1.00  0.00     0.041 C 
ATOM      9  C   UNL A   1      34.146  28.515  23.330  1.00  0.00    -0.030 C 
ATOM     10  C   UNL A   1      31.745  28.366  22.634  1.00  0.00     0.041 C 
ATOM     11  C   UNL A   1      33.194  28.722  22.408  1.00  0.00    -0.030 C 
BRANCH   7  12
ATOM     12  C   UNL A   1      32.024  26.358  25.857  1.00  0.00     0.228 C 
ATOM     13  N   UNL A   1      32.527  25.182  26.296  1.00  0.00    -0.326 N 
ATOM     14  H   UNL A   1      32.340  25.035  27.252  1.00  0.00     0.169 HD
ATOM     15  O   UNL A   1      31.094  26.807  26.542  1.00  0.00    -0.274 OA
BRANCH  13  16
ATOM     16  C   UNL A   1      33.248  24.118  25.732  1.00  0.00     0.044 A 
ATOM     17  C   UNL A   1      31.017  23.181  25.013  1.00  0.00     0.047 C 
ATOM     18  C   UNL A   1      32.524  23.179  24.949  1.00  0.00    -0.015 A 
ATOM     19  C   UNL A   1      33.235  22.224  24.190  1.00  0.00     0.045 A 
ATOM     20  C   UNL A   1      34.637  24.027  25.827  1.00  0.00     0.026 A 
ATOM     21  C   UNL A   1      34.628  22.133  24.333  1.00  0.00     0.014 A 
ATOM     22  C   UNL A   1      35.322  23.014  25.159  1.00  0.00     0.003 A 
BRANCH  19  23
ATOM     23  C   UNL A   1      32.592  21.152  23.376  1.00  0.00     0.254 C 
ATOM     24  O   UNL A   1      32.182  21.484  22.261  1.00  0.00    -0.269 OA
ATOM     25  N   UNL A   1      32.498  19.841  23.830  1.00  0.00    -0.334 N 
ATOM     26  C   UNL A   1      32.489  19.374  25.223  1.00  0.00     0.148 C 
ATOM     27  C   UNL A   1      32.153  18.799  22.860  1.00  0.00     0.148 C 
ATOM     28  C   UNL A   1      33.275  18.058  25.380  1.00  0.00     0.181 C 
ATOM     29  C   UNL A   1      33.035  17.568  23.079  1.00  0.00     0.181 C 
ATOM     30  O   UNL A   1      32.875  17.071  24.418  1.00  0.00    -0.378 OA
ENDBRANCH  19  23
ENDBRANCH  13  16
ENDBRANCH   7  12
ENDBRANCH   3   6
ENDBRANCH   1   2
BRANCH   1  31
ATOM     31  C   UNL A   1      33.387  30.879  27.597  1.00  0.00     0.042 C 
BRANCH  31  32
ATOM     32  C   UNL A   1      34.894  31.056  27.572  1.00  0.00     0.118 C 
BRANCH  32  33
ATOM     33  N   UNL A   1      35.470  31.692  28.754  1.00  0.00    -0.352 N 
ATOM     34  C   UNL A   1      36.446  31.186  29.609  1.00  0.00     0.251 C 
ATOM     35  H   UNL A   1      35.126  32.588  28.973  1.00  0.00     0.163 HD
ATOM     36  O   UNL A   1      36.873  31.835  30.527  1.00  0.00    -0.269 OA
BRANCH  34  37
ATOM     37  C   UNL A   1      37.045  29.866  29.260  1.00  0.00     0.039 A 
ATOM     38  C   UNL A   1      37.330  28.992  30.312  1.00  0.00     0.014 A 
ATOM     39  C   UNL A   1      37.609  29.669  28.005  1.00  0.00     0.014 A 
ATOM     40  C   UNL A   1      38.401  28.112  30.182  1.00  0.00     0.010 A 
ATOM     41  C   UNL A   1      38.757  28.905  27.925  1.00  0.00     0.010 A 
ATOM     42  C   UNL A   1      39.195  28.179  29.038  1.00  0.00    -0.014 A 
BRANCH  42  43
ATOM     43  C   UNL A   1      40.546  27.618  28.972  1.00  0.00     0.031 A 
ATOM     44  C   UNL A   1      40.747  26.205  28.579  1.00  0.00     0.074 A 
ATOM     45  C   UNL A   1      41.621  28.402  29.223  1.00  0.00     0.049 A 
ATOM     46  N   UNL A   1      41.814  25.523  28.830  1.00  0.00    -0.248 NA
ATOM     47  C   UNL A   1      39.720  25.426  27.897  1.00  0.00     0.031 C 
ATOM     48  C   UNL A   1      43.027  28.083  28.980  1.00  0.00     0.029 A 
ATOM     49  N   UNL A   1      41.663  29.583  29.981  1.00  0.00    -0.354 N 
ATOM     50  C   UNL A   1      41.712  24.315  28.182  1.00  0.00     0.074 A 
ATOM     51  C   UNL A   1      40.384  24.303  27.616  1.00  0.00     0.031 C 
ATOM     52  C   UNL A   1      43.784  28.819  29.809  1.00  0.00     0.029 A 
ATOM     53  C   UNL A   1      42.886  29.538  30.692  1.00  0.00     0.049 A 
ATOM     54  H   UNL A   1      40.983  30.294  30.010  1.00  0.00     0.167 HD
ATOM     55  C   UNL A   1      42.792  23.484  28.127  1.00  0.00     0.037 A 
ATOM     56  C   UNL A   1      42.908  29.491  32.056  1.00  0.00     0.037 A 
ATOM     57  C   UNL A   1      43.906  23.997  28.914  1.00  0.00     0.049 A 
ATOM     58  C   UNL A   1      43.546  28.246  32.635  1.00  0.00     0.074 A 
ATOM     59  C   UNL A   1      45.026  24.760  28.626  1.00  0.00     0.029 A 
ATOM     60  N   UNL A   1      43.792  23.984  30.290  1.00  0.00    -0.354 N 
ATOM     61  N   UNL A   1      43.985  27.244  31.923  1.00  0.00    -0.248 NA
ATOM     62  C   UNL A   1      43.643  27.989  34.074  1.00  0.00     0.031 C 
ATOM     63  C   UNL A   1      45.548  25.255  29.855  1.00  0.00     0.029 A 
ATOM     64  C   UNL A   1      44.753  24.780  30.882  1.00  0.00     0.049 A 
ATOM     65  H   UNL A   1      43.113  23.472  30.787  1.00  0.00     0.167 HD
ATOM     66  C   UNL A   1      44.327  26.217  32.760  1.00  0.00     0.074 A 
ATOM     67  C   UNL A   1      44.118  26.733  34.099  1.00  0.00     0.031 C 
ATOM     68  C   UNL A   1      44.703  24.989  32.315  1.00  0.00     0.037 A 
BRANCH  55  69
ATOM     69  C   UNL A   1      42.894  22.294  27.211  1.00  0.00     0.057 A 
ATOM     70  C   UNL A   1      42.068  21.170  27.403  1.00  0.00     0.134 A 
ATOM     71  C   UNL A   1      43.806  22.173  26.149  1.00  0.00     0.134 A 
ATOM     72  F   UNL A   1      41.088  21.165  28.316  1.00  0.00    -0.206 F 
ATOM     73  C   UNL A   1      42.214  19.985  26.670  1.00  0.00     0.040 A 
ATOM     74  C   UNL A   1      44.007  20.974  25.451  1.00  0.00     0.040 A 
ATOM     75  F   UNL A   1      44.505  23.226  25.703  1.00  0.00    -0.206 F 
ATOM     76  C   UNL A   1      43.214  19.868  25.718  1.00  0.00     0.006 A 
ENDBRANCH  55  69
BRANCH  56  77
ATOM     77  C   UNL A   1      41.784  30.236  32.680  1.00  0.00     0.057 A 
ATOM     78  C   UNL A   1      41.859  31.639  32.745  1.00  0.00     0.134 A 
ATOM     79  C   UNL A   1      40.529  29.656  32.871  1.00  0.00     0.134 A 
ATOM     80  F   UNL A   1      43.037  32.261  32.575  1.00  0.00    -0.206 F 
ATOM     81  C   UNL A   1      40.718  32.434  32.868  1.00  0.00     0.040 A 
ATOM     82  C   UNL A   1      39.380  30.441  33.014  1.00  0.00     0.040 A 
ATOM     83  F   UNL A   1      40.373  28.326  32.799  1.00  0.00    -0.206 F 
ATOM     84  C   UNL A   1      39.468  31.832  32.969  1.00  0.00     0.006 A 
ENDBRANCH  56  77
BRANCH  68  85
ATOM     85  C   UNL A   1      45.054  23.877  33.241  1.00  0.00     0.057 A 
ATOM     86  C   UNL A   1      44.102  22.938  33.651  1.00  0.00     0.134 A 
ATOM     87  C   UNL A   1      46.319  23.801  33.849  1.00  0.00     0.134 A 
ATOM     88  F   UNL A   1      42.865  22.944  33.129  1.00  0.00    -0.206 F 
ATOM     89  C   UNL A   1      44.389  21.975  34.623  1.00  0.00     0.040 A 
ATOM     90  C   UNL A   1      46.608  22.867  34.844  1.00  0.00     0.040 A 
ATOM     91  F   UNL A   1      47.311  24.630  33.488  1.00  0.00    -0.206 F 
ATOM     92  C   UNL A   1      45.641  21.949  35.234  1.00  0.00     0.006 A 
ENDBRANCH  68  85
ENDBRANCH  42  43
ENDBRANCH  34  37
ENDBRANCH  32  33
ENDBRANCH  31  32
ENDBRANCH   1  31
TORSDOF 13
ENDMDL
