MODEL 1
REMARK VINA RESULT:     -10.4      0.000      0.000
REMARK SMILES CC(C)CCOCC[N@@H+]1CC[C@@H](C(=O)NCCCNC(=O)c2ccc(-c3c4nc(c(-c5c(F)cccc5F)c5ccc([nH]5)c(-c5c(F)cccc5F)c5nc(c(-c6c(F)cccc6F)c6ccc3[nH]6)C=C5)C=C4)cc2)[C@@H]1C
REMARK SMILES IDX 13 1 14 2 15 3 12 5 9 6 10 7 76 8 11 10 77 11 8 12 7 13 6 14
REMARK SMILES IDX 5 15 4 16 2 17 1 18 3 19 16 20 17 21 18 22 19 23 20 24 21 26
REMARK SMILES IDX 22 27 23 28 75 29 24 30 74 31 25 32 26 33 27 34 68 35 28 36
REMARK SMILES IDX 73 37 67 38 69 39 29 40 72 41 66 42 65 43 30 45 56 46 39 47
REMARK SMILES IDX 55 48 40 49 43 50 54 51 70 52 41 53 42 54 53 56 71 57 44 58
REMARK SMILES IDX 31 59 32 60 37 61 33 62 34 63 36 64 38 65 35 66 57 67 58 68
REMARK SMILES IDX 63 69 59 70 60 71 62 72 64 73 61 74 45 75 46 76 51 77 47 78
REMARK SMILES IDX 48 79 50 80 52 81 49 82
REMARK H PARENT 15 4 9 9 19 25 69 44 43 55
REMARK Flexibility Score: inf
ROOT
ATOM      1  C   UNL A   1      34.545  30.543  27.618  1.00  0.00     0.229 C 
ATOM      2  O   UNL A   1      35.766  30.642  27.506  1.00  0.00    -0.275 OA
ATOM      3  N   UNL A   1      33.852  31.444  28.395  1.00  0.00    -0.356 N 
ATOM      4  H   UNL A   1      33.309  31.102  29.143  1.00  0.00     0.163 HD
ENDROOT
BRANCH   1   5
ATOM      5  C   UNL A   1      33.768  29.307  27.130  1.00  0.00     0.142 C 
ATOM      6  N   UNL A   1      32.200  29.453  25.401  1.00  0.00    -0.330 N 
ATOM      7  C   UNL A   1      33.053  28.367  24.988  1.00  0.00     0.263 C 
ATOM      8  C   UNL A   1      32.251  29.524  26.863  1.00  0.00     0.193 C 
ATOM      9  H   UNL A   1      32.533  30.360  25.075  1.00  0.00     0.348 HD
ATOM     10  C   UNL A   1      34.299  28.773  25.772  1.00  0.00     0.081 C 
ATOM     11  C   UNL A   1      31.470  28.410  27.584  1.00  0.00     0.076 C 
BRANCH   6  12
ATOM     12  C   UNL A   1      31.059  29.845  24.596  1.00  0.00     0.291 C 
BRANCH  12  13
ATOM     13  C   UNL A   1      30.808  29.073  23.236  1.00  0.00     0.221 C 
BRANCH  13  14
ATOM     14  O   UNL A   1      30.414  29.702  22.014  1.00  0.00    -0.376 OA
BRANCH  14  15
ATOM     15  C   UNL A   1      29.070  29.875  21.582  1.00  0.00     0.160 C 
BRANCH  15  16
ATOM     16  C   UNL A   1      28.405  31.268  21.422  1.00  0.00     0.031 C 
BRANCH  16  17
ATOM     17  C   UNL A   1      27.967  32.129  22.625  1.00  0.00    -0.015 C 
ATOM     18  C   UNL A   1      27.471  31.334  23.791  1.00  0.00     0.007 C 
ATOM     19  C   UNL A   1      29.063  33.089  23.119  1.00  0.00     0.007 C 
ENDBRANCH  16  17
ENDBRANCH  15  16
ENDBRANCH  14  15
ENDBRANCH  13  14
ENDBRANCH  12  13
ENDBRANCH   6  12
ENDBRANCH   1   5
BRANCH   3  20
ATOM     20  C   UNL A   1      33.886  32.891  28.158  1.00  0.00     0.117 C 
BRANCH  20  21
ATOM     21  C   UNL A   1      34.014  33.635  29.494  1.00  0.00     0.042 C 
BRANCH  21  22
ATOM     22  C   UNL A   1      33.829  35.142  29.387  1.00  0.00     0.118 C 
BRANCH  22  23
ATOM     23  N   UNL A   1      32.843  35.758  30.264  1.00  0.00    -0.352 N 
ATOM     24  C   UNL A   1      32.844  35.746  31.658  1.00  0.00     0.251 C 
ATOM     25  H   UNL A   1      32.099  36.232  29.827  1.00  0.00     0.163 HD
ATOM     26  O   UNL A   1      31.932  36.235  32.293  1.00  0.00    -0.269 OA
BRANCH  24  27
ATOM     27  C   UNL A   1      33.965  35.061  32.363  1.00  0.00     0.039 A 
ATOM     28  C   UNL A   1      33.761  33.803  32.935  1.00  0.00     0.014 A 
ATOM     29  C   UNL A   1      35.242  35.622  32.366  1.00  0.00     0.014 A 
ATOM     30  C   UNL A   1      34.860  33.061  33.390  1.00  0.00     0.010 A 
ATOM     31  C   UNL A   1      36.339  34.839  32.700  1.00  0.00     0.010 A 
ATOM     32  C   UNL A   1      36.167  33.544  33.212  1.00  0.00    -0.014 A 
BRANCH  32  33
ATOM     33  C   UNL A   1      37.376  32.735  33.546  1.00  0.00     0.031 A 
ATOM     34  C   UNL A   1      38.133  33.015  34.820  1.00  0.00     0.074 A 
ATOM     35  C   UNL A   1      37.857  31.833  32.666  1.00  0.00     0.049 A 
ATOM     36  N   UNL A   1      39.291  32.547  35.218  1.00  0.00    -0.248 NA
ATOM     37  C   UNL A   1      37.532  33.985  35.749  1.00  0.00     0.031 C 
ATOM     38  C   UNL A   1      37.266  31.510  31.364  1.00  0.00     0.029 A 
ATOM     39  N   UNL A   1      38.969  31.027  32.727  1.00  0.00    -0.354 N 
ATOM     40  C   UNL A   1      39.563  33.189  36.421  1.00  0.00     0.074 A 
ATOM     41  C   UNL A   1      38.489  34.130  36.652  1.00  0.00     0.031 C 
ATOM     42  C   UNL A   1      38.000  30.554  30.769  1.00  0.00     0.029 A 
ATOM     43  C   UNL A   1      39.137  30.224  31.622  1.00  0.00     0.049 A 
ATOM     44  H   UNL A   1      39.589  31.025  33.491  1.00  0.00     0.167 HD
ATOM     45  C   UNL A   1      40.591  32.988  37.280  1.00  0.00     0.037 A 
ATOM     46  C   UNL A   1      40.101  29.330  31.328  1.00  0.00     0.037 A 
ATOM     47  C   UNL A   1      41.627  32.011  37.081  1.00  0.00     0.049 A 
ATOM     48  C   UNL A   1      41.217  29.105  32.312  1.00  0.00     0.074 A 
ATOM     49  C   UNL A   1      42.683  31.693  37.917  1.00  0.00     0.029 A 
ATOM     50  N   UNL A   1      41.723  31.180  35.977  1.00  0.00    -0.354 N 
ATOM     51  N   UNL A   1      41.429  29.684  33.470  1.00  0.00    -0.248 NA
ATOM     52  C   UNL A   1      42.226  28.098  31.954  1.00  0.00     0.031 C 
ATOM     53  C   UNL A   1      43.432  30.681  37.308  1.00  0.00     0.029 A 
ATOM     54  C   UNL A   1      42.821  30.346  36.111  1.00  0.00     0.049 A 
ATOM     55  H   UNL A   1      41.105  31.182  35.212  1.00  0.00     0.167 HD
ATOM     56  C   UNL A   1      42.569  29.086  33.991  1.00  0.00     0.074 A 
ATOM     57  C   UNL A   1      42.997  28.091  33.032  1.00  0.00     0.031 C 
ATOM     58  C   UNL A   1      43.210  29.341  35.157  1.00  0.00     0.037 A 
BRANCH  45  59
ATOM     59  C   UNL A   1      40.620  33.815  38.532  1.00  0.00     0.057 A 
ATOM     60  C   UNL A   1      39.886  33.450  39.669  1.00  0.00     0.134 A 
ATOM     61  C   UNL A   1      41.415  34.965  38.620  1.00  0.00     0.134 A 
ATOM     62  F   UNL A   1      39.094  32.367  39.647  1.00  0.00    -0.206 F 
ATOM     63  C   UNL A   1      39.921  34.211  40.838  1.00  0.00     0.040 A 
ATOM     64  C   UNL A   1      41.480  35.718  39.794  1.00  0.00     0.040 A 
ATOM     65  F   UNL A   1      42.149  35.368  37.572  1.00  0.00    -0.206 F 
ATOM     66  C   UNL A   1      40.726  35.345  40.905  1.00  0.00     0.006 A 
ENDBRANCH  45  59
BRANCH  46  67
ATOM     67  C   UNL A   1      40.051  28.547  30.064  1.00  0.00     0.057 A 
ATOM     68  C   UNL A   1      39.343  27.340  29.993  1.00  0.00     0.134 A 
ATOM     69  C   UNL A   1      40.744  28.953  28.917  1.00  0.00     0.134 A 
ATOM     70  F   UNL A   1      38.675  26.887  31.064  1.00  0.00    -0.206 F 
ATOM     71  C   UNL A   1      39.353  26.550  28.842  1.00  0.00     0.040 A 
ATOM     72  C   UNL A   1      40.740  28.185  27.750  1.00  0.00     0.040 A 
ATOM     73  F   UNL A   1      41.435  30.101  28.915  1.00  0.00    -0.206 F 
ATOM     74  C   UNL A   1      40.053  26.974  27.715  1.00  0.00     0.006 A 
ENDBRANCH  46  67
BRANCH  58  75
ATOM     75  C   UNL A   1      44.403  28.494  35.487  1.00  0.00     0.057 A 
ATOM     76  C   UNL A   1      45.701  28.870  35.123  1.00  0.00     0.134 A 
ATOM     77  C   UNL A   1      44.251  27.309  36.219  1.00  0.00     0.134 A 
ATOM     78  F   UNL A   1      45.910  29.988  34.411  1.00  0.00    -0.206 F 
ATOM     79  C   UNL A   1      46.806  28.085  35.454  1.00  0.00     0.040 A 
ATOM     80  C   UNL A   1      45.350  26.530  36.579  1.00  0.00     0.040 A 
ATOM     81  F   UNL A   1      43.034  26.898  36.606  1.00  0.00    -0.206 F 
ATOM     82  C   UNL A   1      46.632  26.915  36.192  1.00  0.00     0.006 A 
ENDBRANCH  58  75
ENDBRANCH  32  33
ENDBRANCH  24  27
ENDBRANCH  22  23
ENDBRANCH  21  22
ENDBRANCH  20  21
ENDBRANCH   3  20
TORSDOF 16
ENDMDL
MODEL 2
REMARK VINA RESULT:     -10.3      7.132     12.103
REMARK SMILES CC(C)CCOCC[N@@H+]1CC[C@@H](C(=O)NCCCNC(=O)c2ccc(-c3c4nc(c(-c5c(F)cccc5F)c5ccc([nH]5)c(-c5c(F)cccc5F)c5nc(c(-c6c(F)cccc6F)c6ccc3[nH]6)C=C5)C=C4)cc2)[C@@H]1C
REMARK SMILES IDX 13 1 14 2 15 3 12 5 9 6 10 7 76 8 11 10 77 11 8 12 7 13 6 14
REMARK SMILES IDX 5 15 4 16 2 17 1 18 3 19 16 20 17 21 18 22 19 23 20 24 21 26
REMARK SMILES IDX 22 27 23 28 75 29 24 30 74 31 25 32 26 33 27 34 68 35 28 36
REMARK SMILES IDX 73 37 67 38 69 39 29 40 72 41 66 42 65 43 30 45 56 46 39 47
REMARK SMILES IDX 55 48 40 49 43 50 54 51 70 52 41 53 42 54 53 56 71 57 44 58
REMARK SMILES IDX 31 59 32 60 37 61 33 62 34 63 36 64 38 65 35 66 57 67 58 68
REMARK SMILES IDX 63 69 59 70 60 71 62 72 64 73 61 74 45 75 46 76 51 77 47 78
REMARK SMILES IDX 48 79 50 80 52 81 49 82
REMARK H PARENT 15 4 9 9 19 25 69 44 43 55
REMARK Flexibility Score: inf
ROOT
ATOM      1  C   UNL A   1      36.046  22.920  23.533  1.00  0.00     0.229 C 
ATOM      2  O   UNL A   1      36.876  23.381  22.751  1.00  0.00    -0.275 OA
ATOM      3  N   UNL A   1      36.362  21.821  24.301  1.00  0.00    -0.356 N 
ATOM      4  H   UNL A   1      35.799  21.016  24.226  1.00  0.00     0.163 HD
ENDROOT
BRANCH   1   5
ATOM      5  C   UNL A   1      34.570  23.357  23.522  1.00  0.00     0.142 C 
ATOM      6  N   UNL A   1      32.957  22.251  24.804  1.00  0.00    -0.330 N 
ATOM      7  C   UNL A   1      32.768  23.637  25.151  1.00  0.00     0.263 C 
ATOM      8  C   UNL A   1      33.524  22.207  23.455  1.00  0.00     0.193 C 
ATOM      9  H   UNL A   1      33.642  21.786  25.400  1.00  0.00     0.348 HD
ATOM     10  C   UNL A   1      34.172  24.130  24.808  1.00  0.00     0.081 C 
ATOM     11  C   UNL A   1      32.523  22.530  22.330  1.00  0.00     0.076 C 
BRANCH   6  12
ATOM     12  C   UNL A   1      32.109  21.223  25.376  1.00  0.00     0.291 C 
BRANCH  12  13
ATOM     13  C   UNL A   1      32.333  19.727  24.905  1.00  0.00     0.221 C 
BRANCH  13  14
ATOM     14  O   UNL A   1      32.460  18.614  25.793  1.00  0.00    -0.376 OA
BRANCH  14  15
ATOM     15  C   UNL A   1      32.219  17.257  25.439  1.00  0.00     0.160 C 
BRANCH  15  16
ATOM     16  C   UNL A   1      33.357  16.254  25.109  1.00  0.00     0.031 C 
BRANCH  16  17
ATOM     17  C   UNL A   1      34.497  16.578  24.121  1.00  0.00    -0.015 C 
ATOM     18  C   UNL A   1      34.024  16.953  22.753  1.00  0.00     0.007 C 
ATOM     19  C   UNL A   1      35.450  17.675  24.628  1.00  0.00     0.007 C 
ENDBRANCH  16  17
ENDBRANCH  15  16
ENDBRANCH  14  15
ENDBRANCH  13  14
ENDBRANCH  12  13
ENDBRANCH   6  12
ENDBRANCH   1   5
BRANCH   3  20
ATOM     20  C   UNL A   1      37.499  21.799  25.227  1.00  0.00     0.117 C 
BRANCH  20  21
ATOM     21  C   UNL A   1      38.195  20.432  25.164  1.00  0.00     0.042 C 
BRANCH  21  22
ATOM     22  C   UNL A   1      39.363  20.284  26.127  1.00  0.00     0.118 C 
BRANCH  22  23
ATOM     23  N   UNL A   1      40.231  19.128  25.952  1.00  0.00    -0.352 N 
ATOM     24  C   UNL A   1      41.624  19.111  26.026  1.00  0.00     0.251 C 
ATOM     25  H   UNL A   1      39.789  18.269  25.761  1.00  0.00     0.163 HD
ATOM     26  O   UNL A   1      42.255  18.100  25.794  1.00  0.00    -0.269 OA
BRANCH  24  27
ATOM     27  C   UNL A   1      42.334  20.385  26.337  1.00  0.00     0.039 A 
ATOM     28  C   UNL A   1      42.902  21.133  25.302  1.00  0.00     0.014 A 
ATOM     29  C   UNL A   1      42.348  20.883  27.638  1.00  0.00     0.014 A 
ATOM     30  C   UNL A   1      43.363  22.432  25.559  1.00  0.00     0.010 A 
ATOM     31  C   UNL A   1      42.688  22.211  27.866  1.00  0.00     0.010 A 
ATOM     32  C   UNL A   1      43.195  23.009  26.829  1.00  0.00    -0.014 A 
BRANCH  32  33
ATOM     33  C   UNL A   1      43.536  24.432  27.117  1.00  0.00     0.031 A 
ATOM     34  C   UNL A   1      44.971  24.889  27.034  1.00  0.00     0.074 A 
ATOM     35  C   UNL A   1      42.587  25.285  27.557  1.00  0.00     0.049 A 
ATOM     36  N   UNL A   1      45.503  26.029  27.401  1.00  0.00    -0.248 NA
ATOM     37  C   UNL A   1      45.947  23.917  26.514  1.00  0.00     0.031 C 
ATOM     38  C   UNL A   1      41.171  24.961  27.752  1.00  0.00     0.029 A 
ATOM     39  N   UNL A   1      42.674  26.603  27.937  1.00  0.00    -0.354 N 
ATOM     40  C   UNL A   1      46.870  25.895  27.182  1.00  0.00     0.074 A 
ATOM     41  C   UNL A   1      47.095  24.543  26.722  1.00  0.00     0.031 C 
ATOM     42  C   UNL A   1      40.521  26.056  28.179  1.00  0.00     0.029 A 
ATOM     43  C   UNL A   1      41.474  27.149  28.333  1.00  0.00     0.049 A 
ATOM     44  H   UNL A   1      43.518  27.111  27.927  1.00  0.00     0.167 HD
ATOM     45  C   UNL A   1      47.848  26.823  27.313  1.00  0.00     0.037 A 
ATOM     46  C   UNL A   1      41.180  28.388  28.773  1.00  0.00     0.037 A 
ATOM     47  C   UNL A   1      47.618  28.185  27.713  1.00  0.00     0.049 A 
ATOM     48  C   UNL A   1      42.281  29.409  28.883  1.00  0.00     0.074 A 
ATOM     49  C   UNL A   1      48.534  29.216  27.824  1.00  0.00     0.029 A 
ATOM     50  N   UNL A   1      46.380  28.708  28.046  1.00  0.00    -0.354 N 
ATOM     51  N   UNL A   1      43.559  29.278  28.621  1.00  0.00    -0.248 NA
ATOM     52  C   UNL A   1      41.898  30.752  29.342  1.00  0.00     0.031 C 
ATOM     53  C   UNL A   1      47.851  30.362  28.246  1.00  0.00     0.029 A 
ATOM     54  C   UNL A   1      46.507  30.050  28.362  1.00  0.00     0.049 A 
ATOM     55  H   UNL A   1      45.536  28.202  28.058  1.00  0.00     0.167 HD
ATOM     56  C   UNL A   1      44.123  30.527  28.848  1.00  0.00     0.074 A 
ATOM     57  C   UNL A   1      43.048  31.406  29.255  1.00  0.00     0.031 C 
ATOM     58  C   UNL A   1      45.417  30.913  28.735  1.00  0.00     0.037 A 
BRANCH  45  59
ATOM     59  C   UNL A   1      49.251  26.403  26.980  1.00  0.00     0.057 A 
ATOM     60  C   UNL A   1      49.755  26.504  25.676  1.00  0.00     0.134 A 
ATOM     61  C   UNL A   1      50.118  25.932  27.973  1.00  0.00     0.134 A 
ATOM     62  F   UNL A   1      48.972  26.935  24.676  1.00  0.00    -0.206 F 
ATOM     63  C   UNL A   1      51.061  26.125  25.366  1.00  0.00     0.040 A 
ATOM     64  C   UNL A   1      51.436  25.577  27.680  1.00  0.00     0.040 A 
ATOM     65  F   UNL A   1      49.703  25.817  29.243  1.00  0.00    -0.206 F 
ATOM     66  C   UNL A   1      51.909  25.668  26.372  1.00  0.00     0.006 A 
ENDBRANCH  45  59
BRANCH  46  67
ATOM     67  C   UNL A   1      39.781  28.759  29.119  1.00  0.00     0.057 A 
ATOM     68  C   UNL A   1      39.308  28.633  30.431  1.00  0.00     0.134 A 
ATOM     69  C   UNL A   1      38.872  29.196  28.148  1.00  0.00     0.134 A 
ATOM     70  F   UNL A   1      40.124  28.199  31.403  1.00  0.00    -0.206 F 
ATOM     71  C   UNL A   1      37.976  28.895  30.760  1.00  0.00     0.040 A 
ATOM     72  C   UNL A   1      37.544  29.488  28.468  1.00  0.00     0.040 A 
ATOM     73  F   UNL A   1      39.262  29.345  26.874  1.00  0.00    -0.206 F 
ATOM     74  C   UNL A   1      37.090  29.326  29.775  1.00  0.00     0.006 A 
ENDBRANCH  46  67
BRANCH  58  75
ATOM     75  C   UNL A   1      45.730  32.356  28.998  1.00  0.00     0.057 A 
ATOM     76  C   UNL A   1      46.109  32.812  30.266  1.00  0.00     0.134 A 
ATOM     77  C   UNL A   1      45.696  33.291  27.955  1.00  0.00     0.134 A 
ATOM     78  F   UNL A   1      46.149  31.967  31.308  1.00  0.00    -0.206 F 
ATOM     79  C   UNL A   1      46.420  34.153  30.494  1.00  0.00     0.040 A 
ATOM     80  C   UNL A   1      46.030  34.629  28.166  1.00  0.00     0.040 A 
ATOM     81  F   UNL A   1      45.350  32.916  26.715  1.00  0.00    -0.206 F 
ATOM     82  C   UNL A   1      46.389  35.063  29.439  1.00  0.00     0.006 A 
ENDBRANCH  58  75
ENDBRANCH  32  33
ENDBRANCH  24  27
ENDBRANCH  22  23
ENDBRANCH  21  22
ENDBRANCH  20  21
ENDBRANCH   3  20
TORSDOF 16
ENDMDL
MODEL 3
REMARK VINA RESULT:     -10.1      4.707      7.370
REMARK SMILES CC(C)CCOCC[N@@H+]1CC[C@@H](C(=O)NCCCNC(=O)c2ccc(-c3c4nc(c(-c5c(F)cccc5F)c5ccc([nH]5)c(-c5c(F)cccc5F)c5nc(c(-c6c(F)cccc6F)c6ccc3[nH]6)C=C5)C=C4)cc2)[C@@H]1C
REMARK SMILES IDX 13 1 14 2 15 3 12 5 9 6 10 7 76 8 11 10 77 11 8 12 7 13 6 14
REMARK SMILES IDX 5 15 4 16 2 17 1 18 3 19 16 20 17 21 18 22 19 23 20 24 21 26
REMARK SMILES IDX 22 27 23 28 75 29 24 30 74 31 25 32 26 33 27 34 68 35 28 36
REMARK SMILES IDX 73 37 67 38 69 39 29 40 72 41 66 42 65 43 30 45 56 46 39 47
REMARK SMILES IDX 55 48 40 49 43 50 54 51 70 52 41 53 42 54 53 56 71 57 44 58
REMARK SMILES IDX 31 59 32 60 37 61 33 62 34 63 36 64 38 65 35 66 57 67 58 68
REMARK SMILES IDX 63 69 59 70 60 71 62 72 64 73 61 74 45 75 46 76 51 77 47 78
REMARK SMILES IDX 48 79 50 80 52 81 49 82
REMARK H PARENT 15 4 9 9 19 25 69 44 43 55
REMARK Flexibility Score: inf
ROOT
ATOM      1  C   UNL A   1      30.489  29.111  23.678  1.00  0.00     0.229 C 
ATOM      2  O   UNL A   1      29.646  29.986  23.489  1.00  0.00    -0.275 OA
ATOM      3  N   UNL A   1      31.697  29.434  24.255  1.00  0.00    -0.356 N 
ATOM      4  H   UNL A   1      32.525  29.234  23.760  1.00  0.00     0.163 HD
ENDROOT
BRANCH   1   5
ATOM      5  C   UNL A   1      30.365  27.701  23.074  1.00  0.00     0.142 C 
ATOM      6  N   UNL A   1      31.427  25.856  24.044  1.00  0.00    -0.330 N 
ATOM      7  C   UNL A   1      30.063  25.416  23.894  1.00  0.00     0.263 C 
ATOM      8  C   UNL A   1      31.680  26.871  23.018  1.00  0.00     0.193 C 
ATOM      9  H   UNL A   1      31.593  26.327  24.934  1.00  0.00     0.348 HD
ATOM     10  C   UNL A   1      29.401  26.792  23.884  1.00  0.00     0.081 C 
ATOM     11  C   UNL A   1      31.837  26.310  21.592  1.00  0.00     0.076 C 
BRANCH   6  12
ATOM     12  C   UNL A   1      32.435  24.969  24.592  1.00  0.00     0.291 C 
BRANCH  12  13
ATOM     13  C   UNL A   1      33.939  25.465  24.595  1.00  0.00     0.221 C 
BRANCH  13  14
ATOM     14  O   UNL A   1      35.072  24.598  24.702  1.00  0.00    -0.376 OA
BRANCH  14  15
ATOM     15  C   UNL A   1      35.191  23.331  24.067  1.00  0.00     0.160 C 
BRANCH  15  16
ATOM     16  C   UNL A   1      36.552  22.734  23.618  1.00  0.00     0.031 C 
BRANCH  16  17
ATOM     17  C   UNL A   1      37.469  21.934  24.568  1.00  0.00    -0.015 C 
ATOM     18  C   UNL A   1      37.896  22.696  25.782  1.00  0.00     0.007 C 
ATOM     19  C   UNL A   1      36.859  20.595  25.020  1.00  0.00     0.007 C 
ENDBRANCH  16  17
ENDBRANCH  15  16
ENDBRANCH  14  15
ENDBRANCH  13  14
ENDBRANCH  12  13
ENDBRANCH   6  12
ENDBRANCH   1   5
BRANCH   3  20
ATOM     20  C   UNL A   1      31.805  30.063  25.575  1.00  0.00     0.117 C 
BRANCH  20  21
ATOM     21  C   UNL A   1      32.382  29.061  26.584  1.00  0.00     0.042 C 
BRANCH  21  22
ATOM     22  C   UNL A   1      33.730  29.467  27.162  1.00  0.00     0.118 C 
BRANCH  22  23
ATOM     23  N   UNL A   1      33.773  30.676  27.973  1.00  0.00    -0.352 N 
ATOM     24  C   UNL A   1      34.846  31.129  28.738  1.00  0.00     0.251 C 
ATOM     25  H   UNL A   1      32.959  31.230  27.981  1.00  0.00     0.163 HD
ATOM     26  O   UNL A   1      34.751  32.119  29.435  1.00  0.00    -0.269 OA
BRANCH  24  27
ATOM     27  C   UNL A   1      36.107  30.333  28.736  1.00  0.00     0.039 A 
ATOM     28  C   UNL A   1      36.950  30.368  27.622  1.00  0.00     0.014 A 
ATOM     29  C   UNL A   1      36.500  29.634  29.877  1.00  0.00     0.014 A 
ATOM     30  C   UNL A   1      38.235  29.814  27.706  1.00  0.00     0.010 A 
ATOM     31  C   UNL A   1      37.813  29.196  30.001  1.00  0.00     0.010 A 
ATOM     32  C   UNL A   1      38.703  29.284  28.920  1.00  0.00    -0.014 A 
BRANCH  32  33
ATOM     33  C   UNL A   1      40.106  28.812  29.103  1.00  0.00     0.031 A 
ATOM     34  C   UNL A   1      41.143  29.750  29.670  1.00  0.00     0.074 A 
ATOM     35  C   UNL A   1      40.478  27.592  28.664  1.00  0.00     0.049 A 
ATOM     36  N   UNL A   1      42.442  29.599  29.757  1.00  0.00    -0.248 NA
ATOM     37  C   UNL A   1      40.661  31.052  30.160  1.00  0.00     0.031 C 
ATOM     38  C   UNL A   1      39.596  26.606  28.032  1.00  0.00     0.029 A 
ATOM     39  N   UNL A   1      41.705  26.973  28.669  1.00  0.00    -0.354 N 
ATOM     40  C   UNL A   1      42.926  30.792  30.282  1.00  0.00     0.074 A 
ATOM     41  C   UNL A   1      41.795  31.682  30.424  1.00  0.00     0.031 C 
ATOM     42  C   UNL A   1      40.302  25.500  27.744  1.00  0.00     0.029 A 
ATOM     43  C   UNL A   1      41.694  25.708  28.128  1.00  0.00     0.049 A 
ATOM     44  H   UNL A   1      42.519  27.397  29.027  1.00  0.00     0.167 HD
ATOM     45  C   UNL A   1      44.190  31.109  30.650  1.00  0.00     0.037 A 
ATOM     46  C   UNL A   1      42.693  24.820  27.956  1.00  0.00     0.037 A 
ATOM     47  C   UNL A   1      45.304  30.205  30.565  1.00  0.00     0.049 A 
ATOM     48  C   UNL A   1      44.084  25.187  28.401  1.00  0.00     0.074 A 
ATOM     49  C   UNL A   1      46.614  30.411  30.963  1.00  0.00     0.029 A 
ATOM     50  N   UNL A   1      45.234  28.914  30.066  1.00  0.00    -0.354 N 
ATOM     51  N   UNL A   1      44.513  26.301  28.943  1.00  0.00    -0.248 NA
ATOM     52  C   UNL A   1      45.130  24.171  28.215  1.00  0.00     0.031 C 
ATOM     53  C   UNL A   1      47.343  29.251  30.684  1.00  0.00     0.029 A 
ATOM     54  C   UNL A   1      46.478  28.311  30.147  1.00  0.00     0.049 A 
ATOM     55  H   UNL A   1      44.422  28.490  29.707  1.00  0.00     0.167 HD
ATOM     56  C   UNL A   1      45.864  26.105  29.197  1.00  0.00     0.074 A 
ATOM     57  C   UNL A   1      46.182  24.763  28.762  1.00  0.00     0.031 C 
ATOM     58  C   UNL A   1      46.765  26.961  29.737  1.00  0.00     0.037 A 
BRANCH  45  59
ATOM     59  C   UNL A   1      44.424  32.479  31.218  1.00  0.00     0.057 A 
ATOM     60  C   UNL A   1      44.350  32.723  32.597  1.00  0.00     0.134 A 
ATOM     61  C   UNL A   1      44.762  33.556  30.390  1.00  0.00     0.134 A 
ATOM     62  F   UNL A   1      44.018  31.738  33.444  1.00  0.00    -0.206 F 
ATOM     63  C   UNL A   1      44.578  33.993  33.128  1.00  0.00     0.040 A 
ATOM     64  C   UNL A   1      45.020  34.824  30.913  1.00  0.00     0.040 A 
ATOM     65  F   UNL A   1      44.856  33.391  29.062  1.00  0.00    -0.206 F 
ATOM     66  C   UNL A   1      44.923  35.047  32.285  1.00  0.00     0.006 A 
ENDBRANCH  45  59
BRANCH  46  67
ATOM     67  C   UNL A   1      42.427  23.481  27.365  1.00  0.00     0.057 A 
ATOM     68  C   UNL A   1      42.122  22.383  28.181  1.00  0.00     0.134 A 
ATOM     69  C   UNL A   1      42.517  23.252  25.987  1.00  0.00     0.134 A 
ATOM     70  F   UNL A   1      42.041  22.534  29.511  1.00  0.00    -0.206 F 
ATOM     71  C   UNL A   1      41.952  21.102  27.653  1.00  0.00     0.040 A 
ATOM     72  C   UNL A   1      42.321  21.980  25.444  1.00  0.00     0.040 A 
ATOM     73  F   UNL A   1      42.797  24.260  25.150  1.00  0.00    -0.206 F 
ATOM     74  C   UNL A   1      42.050  20.898  26.279  1.00  0.00     0.006 A 
ENDBRANCH  46  67
BRANCH  58  75
ATOM     75  C   UNL A   1      48.161  26.454  29.940  1.00  0.00     0.057 A 
ATOM     76  C   UNL A   1      49.167  26.653  28.988  1.00  0.00     0.134 A 
ATOM     77  C   UNL A   1      48.511  25.798  31.128  1.00  0.00     0.134 A 
ATOM     78  F   UNL A   1      48.892  27.264  27.826  1.00  0.00    -0.206 F 
ATOM     79  C   UNL A   1      50.469  26.196  29.199  1.00  0.00     0.040 A 
ATOM     80  C   UNL A   1      49.814  25.360  31.361  1.00  0.00     0.040 A 
ATOM     81  F   UNL A   1      47.595  25.584  32.084  1.00  0.00    -0.206 F 
ATOM     82  C   UNL A   1      50.796  25.555  30.392  1.00  0.00     0.006 A 
ENDBRANCH  58  75
ENDBRANCH  32  33
ENDBRANCH  24  27
ENDBRANCH  22  23
ENDBRANCH  21  22
ENDBRANCH  20  21
ENDBRANCH   3  20
TORSDOF 16
ENDMDL
