MODEL 1
REMARK VINA RESULT:     -13.2      0.000      0.000
REMARK SMILES C[C@@H](Oc1ccc(/C=C2\C(=O)[NH+]=C(NCCCNC(=O)c3ccc(-c4c5nc(c(-c6c(F)cccc6F)c6ccc([nH]6)c(-c6c(F)cccc6F)c6nc(c(-c7c(F)cccc7F)c7ccc4[nH]7)C=C6)C=C5)cc3)N(c3ccc4c(c3)OCO4)C2=O)cc1)C(=O)[O-]
REMARK SMILES IDX 15 1 14 2 8 3 9 4 10 5 85 6 11 7 12 8 75 9 86 10 13 11 7 14
REMARK SMILES IDX 4 15 5 16 88 17 6 18 87 19 3 20 2 21 1 22 89 23 90 24 91 25
REMARK SMILES IDX 76 26 77 27 81 28 78 29 80 30 79 31 82 32 84 33 83 34 16 35
REMARK SMILES IDX 17 36 18 37 19 38 20 40 21 41 22 42 74 43 23 44 73 45 24 46
REMARK SMILES IDX 25 47 26 48 67 49 27 50 72 51 66 52 68 53 28 54 71 55 65 56
REMARK SMILES IDX 64 57 29 59 55 60 38 61 54 62 39 63 42 64 53 65 69 66 40 67
REMARK SMILES IDX 41 68 52 70 70 71 43 72 30 73 31 74 36 75 32 76 33 77 35 78
REMARK SMILES IDX 37 79 34 80 56 81 57 82 62 83 58 84 59 85 61 86 63 87 60 88
REMARK SMILES IDX 44 89 45 90 50 91 46 92 47 93 49 94 51 95 48 96
REMARK H PARENT 12 12 14 13 18 39 68 58 42 69
REMARK Flexibility Score: inf
ROOT
ATOM      1  C   UNL A   1      37.181  20.723  24.767  1.00  0.00     0.199 C 
ENDROOT
BRANCH   1   2
ATOM      2  N   UNL A   1      35.804  20.278  24.856  1.00  0.00    -0.277 N 
ATOM      3  C   UNL A   1      31.795  23.740  25.095  1.00  0.00     0.031 C 
ATOM      4  C   UNL A   1      32.700  22.826  25.493  1.00  0.00     0.138 C 
ATOM      5  C   UNL A   1      34.006  23.091  26.122  1.00  0.00     0.321 C 
ATOM      6  C   UNL A   1      32.357  21.409  25.268  1.00  0.00     0.328 C 
ATOM      7  O   UNL A   1      34.173  23.992  26.928  1.00  0.00    -0.250 OA
ATOM      8  N   UNL A   1      35.009  22.260  25.711  1.00  0.00    -0.210 N 
ATOM      9  N   UNL A   1      33.464  20.574  25.178  1.00  0.00    -0.162 N 
ATOM     10  O   UNL A   1      31.186  21.048  25.152  1.00  0.00    -0.249 OA
ATOM     11  C   UNL A   1      34.761  21.065  25.277  1.00  0.00     0.366 C 
ATOM     12  H   UNL A   1      35.941  22.577  25.746  1.00  0.00     0.270 HD
ATOM     13  H   UNL A   1      35.604  19.349  24.597  1.00  0.00     0.260 HD
BRANCH   3  14
ATOM     14  C   UNL A   1      31.861  25.207  25.108  1.00  0.00    -0.024 A 
ATOM     15  C   UNL A   1      32.206  27.999  25.114  1.00  0.00     0.120 A 
ATOM     16  C   UNL A   1      31.319  27.402  26.005  1.00  0.00     0.047 A 
ATOM     17  C   UNL A   1      32.961  27.204  24.258  1.00  0.00     0.047 A 
ATOM     18  C   UNL A   1      31.156  26.013  26.011  1.00  0.00     0.012 A 
ATOM     19  C   UNL A   1      32.779  25.820  24.246  1.00  0.00     0.012 A 
BRANCH  15  20
ATOM     20  O   UNL A   1      32.411  29.343  25.222  1.00  0.00    -0.485 OA
BRANCH  20  21
ATOM     21  C   UNL A   1      32.274  29.860  26.554  1.00  0.00     0.216 C 
ATOM     22  C   UNL A   1      31.694  31.271  26.566  1.00  0.00     0.059 C 
BRANCH  21  23
ATOM     23  C   UNL A   1      33.663  29.930  27.177  1.00  0.00     0.082 C 
ATOM     24  O   UNL A   1      34.298  28.984  27.622  1.00  0.00    -0.546 OA
ATOM     25  O   UNL A   1      34.152  31.183  27.295  1.00  0.00    -0.546 OA
ENDBRANCH  21  23
ENDBRANCH  20  21
ENDBRANCH  15  20
ENDBRANCH   3  14
BRANCH   9  26
ATOM     26  C   UNL A   1      33.203  19.214  24.863  1.00  0.00     0.115 A 
ATOM     27  C   UNL A   1      33.399  18.746  23.546  1.00  0.00     0.048 A 
ATOM     28  C   UNL A   1      32.878  18.329  25.898  1.00  0.00     0.094 A 
ATOM     29  C   UNL A   1      33.325  17.376  23.269  1.00  0.00     0.054 A 
ATOM     30  C   UNL A   1      32.823  16.991  25.594  1.00  0.00     0.169 A 
ATOM     31  C   UNL A   1      33.057  16.525  24.321  1.00  0.00     0.166 A 
ATOM     32  O   UNL A   1      32.599  15.988  26.484  1.00  0.00    -0.453 OA
ATOM     33  O   UNL A   1      33.032  15.165  24.265  1.00  0.00    -0.454 OA
ATOM     34  C   UNL A   1      32.941  14.848  25.672  1.00  0.00     0.468 C 
ENDBRANCH   9  26
ENDBRANCH   1   2
BRANCH   1  35
ATOM     35  C   UNL A   1      38.141  19.565  25.004  1.00  0.00     0.059 C 
BRANCH  35  36
ATOM     36  C   UNL A   1      39.221  19.857  26.041  1.00  0.00     0.119 C 
BRANCH  36  37
ATOM     37  N   UNL A   1      40.362  18.955  25.947  1.00  0.00    -0.352 N 
ATOM     38  C   UNL A   1      41.707  19.199  26.056  1.00  0.00     0.251 C 
ATOM     39  H   UNL A   1      40.128  18.014  25.777  1.00  0.00     0.163 HD
ATOM     40  O   UNL A   1      42.501  18.305  25.774  1.00  0.00    -0.269 OA
BRANCH  38  41
ATOM     41  C   UNL A   1      42.214  20.521  26.484  1.00  0.00     0.039 A 
ATOM     42  C   UNL A   1      42.739  21.376  25.511  1.00  0.00     0.014 A 
ATOM     43  C   UNL A   1      42.212  20.913  27.825  1.00  0.00     0.014 A 
ATOM     44  C   UNL A   1      43.201  22.643  25.874  1.00  0.00     0.010 A 
ATOM     45  C   UNL A   1      42.598  22.208  28.175  1.00  0.00     0.010 A 
ATOM     46  C   UNL A   1      43.095  23.087  27.204  1.00  0.00    -0.014 A 
BRANCH  46  47
ATOM     47  C   UNL A   1      43.474  24.477  27.567  1.00  0.00     0.031 A 
ATOM     48  C   UNL A   1      44.908  24.926  27.527  1.00  0.00     0.074 A 
ATOM     49  C   UNL A   1      42.515  25.333  27.972  1.00  0.00     0.049 A 
ATOM     50  N   UNL A   1      45.413  26.103  27.803  1.00  0.00    -0.248 NA
ATOM     51  C   UNL A   1      45.912  23.918  27.151  1.00  0.00     0.031 C 
ATOM     52  C   UNL A   1      41.094  25.004  28.112  1.00  0.00     0.029 A 
ATOM     53  N   UNL A   1      42.587  26.653  28.339  1.00  0.00    -0.354 N 
ATOM     54  C   UNL A   1      46.787  25.977  27.637  1.00  0.00     0.074 A 
ATOM     55  C   UNL A   1      47.043  24.594  27.294  1.00  0.00     0.031 C 
ATOM     56  C   UNL A   1      40.425  26.102  28.496  1.00  0.00     0.029 A 
ATOM     57  C   UNL A   1      41.370  27.200  28.668  1.00  0.00     0.049 A 
ATOM     58  H   UNL A   1      43.430  27.161  28.364  1.00  0.00     0.167 HD
ATOM     59  C   UNL A   1      47.744  26.930  27.738  1.00  0.00     0.037 A 
ATOM     60  C   UNL A   1      41.049  28.446  29.065  1.00  0.00     0.037 A 
ATOM     61  C   UNL A   1      47.487  28.308  28.073  1.00  0.00     0.049 A 
ATOM     62  C   UNL A   1      42.131  29.482  29.172  1.00  0.00     0.074 A 
ATOM     63  C   UNL A   1      48.384  29.359  28.149  1.00  0.00     0.029 A 
ATOM     64  N   UNL A   1      46.241  28.825  28.394  1.00  0.00    -0.354 N 
ATOM     65  N   UNL A   1      43.415  29.366  28.938  1.00  0.00    -0.248 NA
ATOM     66  C   UNL A   1      41.715  30.828  29.590  1.00  0.00     0.031 C 
ATOM     67  C   UNL A   1      47.690  30.500  28.568  1.00  0.00     0.029 A 
ATOM     68  C   UNL A   1      46.350  30.175  28.693  1.00  0.00     0.049 A 
ATOM     69  H   UNL A   1      45.402  28.309  28.409  1.00  0.00     0.167 HD
ATOM     70  C   UNL A   1      43.956  30.628  29.149  1.00  0.00     0.074 A 
ATOM     71  C   UNL A   1      42.856  31.498  29.509  1.00  0.00     0.031 C 
ATOM     72  C   UNL A   1      45.248  31.031  29.053  1.00  0.00     0.037 A 
BRANCH  59  73
ATOM     73  C   UNL A   1      49.167  26.514  27.484  1.00  0.00     0.057 A 
ATOM     74  C   UNL A   1      49.734  26.560  26.202  1.00  0.00     0.134 A 
ATOM     75  C   UNL A   1      49.994  26.103  28.537  1.00  0.00     0.134 A 
ATOM     76  F   UNL A   1      48.996  26.936  25.145  1.00  0.00    -0.206 F 
ATOM     77  C   UNL A   1      51.059  26.187  25.973  1.00  0.00     0.040 A 
ATOM     78  C   UNL A   1      51.330  25.756  28.326  1.00  0.00     0.040 A 
ATOM     79  F   UNL A   1      49.521  26.043  29.791  1.00  0.00    -0.206 F 
ATOM     80  C   UNL A   1      51.864  25.792  27.040  1.00  0.00     0.006 A 
ENDBRANCH  59  73
BRANCH  60  81
ATOM     81  C   UNL A   1      39.634  28.790  29.362  1.00  0.00     0.057 A 
ATOM     82  C   UNL A   1      38.770  29.231  28.353  1.00  0.00     0.134 A 
ATOM     83  C   UNL A   1      39.117  28.698  30.659  1.00  0.00     0.134 A 
ATOM     84  F   UNL A   1      39.211  29.357  27.093  1.00  0.00    -0.206 F 
ATOM     85  C   UNL A   1      37.449  29.591  28.627  1.00  0.00     0.040 A 
ATOM     86  C   UNL A   1      37.791  29.026  30.943  1.00  0.00     0.040 A 
ATOM     87  F   UNL A   1      39.891  28.272  31.668  1.00  0.00    -0.206 F 
ATOM     88  C   UNL A   1      36.955  29.484  29.925  1.00  0.00     0.006 A 
ENDBRANCH  60  81
BRANCH  72  89
ATOM     89  C   UNL A   1      45.529  32.486  29.306  1.00  0.00     0.057 A 
ATOM     90  C   UNL A   1      45.857  32.971  30.579  1.00  0.00     0.134 A 
ATOM     91  C   UNL A   1      45.473  33.413  28.258  1.00  0.00     0.134 A 
ATOM     92  F   UNL A   1      45.916  32.138  31.630  1.00  0.00    -0.206 F 
ATOM     93  C   UNL A   1      46.077  34.330  30.808  1.00  0.00     0.040 A 
ATOM     94  C   UNL A   1      45.725  34.771  28.468  1.00  0.00     0.040 A 
ATOM     95  F   UNL A   1      45.176  33.017  27.011  1.00  0.00    -0.206 F 
ATOM     96  C   UNL A   1      46.017  35.234  29.748  1.00  0.00     0.006 A 
ENDBRANCH  72  89
ENDBRANCH  46  47
ENDBRANCH  38  41
ENDBRANCH  36  37
ENDBRANCH  35  36
ENDBRANCH   1  35
TORSDOF 14
ENDMDL
MODEL 2
REMARK VINA RESULT:     -13.0      0.491      5.899
REMARK SMILES C[C@@H](Oc1ccc(/C=C2\C(=O)[NH+]=C(NCCCNC(=O)c3ccc(-c4c5nc(c(-c6c(F)cccc6F)c6ccc([nH]6)c(-c6c(F)cccc6F)c6nc(c(-c7c(F)cccc7F)c7ccc4[nH]7)C=C6)C=C5)cc3)N(c3ccc4c(c3)OCO4)C2=O)cc1)C(=O)[O-]
REMARK SMILES IDX 15 1 14 2 8 3 9 4 10 5 85 6 11 7 12 8 75 9 86 10 13 11 7 14
REMARK SMILES IDX 4 15 5 16 88 17 6 18 87 19 3 20 2 21 1 22 89 23 90 24 91 25
REMARK SMILES IDX 76 26 77 27 81 28 78 29 80 30 79 31 82 32 84 33 83 34 16 35
REMARK SMILES IDX 17 36 18 37 19 38 20 40 21 41 22 42 74 43 23 44 73 45 24 46
REMARK SMILES IDX 25 47 26 48 67 49 27 50 72 51 66 52 68 53 28 54 71 55 65 56
REMARK SMILES IDX 64 57 29 59 55 60 38 61 54 62 39 63 42 64 53 65 69 66 40 67
REMARK SMILES IDX 41 68 52 70 70 71 43 72 30 73 31 74 36 75 32 76 33 77 35 78
REMARK SMILES IDX 37 79 34 80 56 81 57 82 62 83 58 84 59 85 61 86 63 87 60 88
REMARK SMILES IDX 44 89 45 90 50 91 46 92 47 93 49 94 51 95 48 96
REMARK H PARENT 12 12 14 13 18 39 68 58 42 69
REMARK Flexibility Score: inf
ROOT
ATOM      1  C   UNL A   1      37.301  20.602  24.761  1.00  0.00     0.199 C 
ENDROOT
BRANCH   1   2
ATOM      2  N   UNL A   1      35.930  20.139  24.849  1.00  0.00    -0.277 N 
ATOM      3  C   UNL A   1      31.870  23.548  24.953  1.00  0.00     0.031 C 
ATOM      4  C   UNL A   1      32.784  22.659  25.384  1.00  0.00     0.138 C 
ATOM      5  C   UNL A   1      34.079  22.961  26.018  1.00  0.00     0.321 C 
ATOM      6  C   UNL A   1      32.463  21.231  25.197  1.00  0.00     0.328 C 
ATOM      7  O   UNL A   1      34.226  23.887  26.799  1.00  0.00    -0.250 OA
ATOM      8  N   UNL A   1      35.098  22.133  25.640  1.00  0.00    -0.210 N 
ATOM      9  N   UNL A   1      33.583  20.410  25.140  1.00  0.00    -0.162 N 
ATOM     10  O   UNL A   1      31.299  20.850  25.080  1.00  0.00    -0.249 OA
ATOM     11  C   UNL A   1      34.872  20.923  25.238  1.00  0.00     0.366 C 
ATOM     12  H   UNL A   1      36.025  22.464  25.675  1.00  0.00     0.270 HD
ATOM     13  H   UNL A   1      35.745  19.201  24.615  1.00  0.00     0.260 HD
BRANCH   3  14
ATOM     14  C   UNL A   1      31.914  25.016  24.924  1.00  0.00    -0.024 A 
ATOM     15  C   UNL A   1      32.220  27.811  24.864  1.00  0.00     0.120 A 
ATOM     16  C   UNL A   1      31.295  27.228  25.725  1.00  0.00     0.047 A 
ATOM     17  C   UNL A   1      33.030  27.003  24.074  1.00  0.00     0.047 A 
ATOM     18  C   UNL A   1      31.152  25.837  25.764  1.00  0.00     0.012 A 
ATOM     19  C   UNL A   1      32.869  25.617  24.094  1.00  0.00     0.012 A 
BRANCH  15  20
ATOM     20  O   UNL A   1      32.400  29.162  24.942  1.00  0.00    -0.485 OA
BRANCH  20  21
ATOM     21  C   UNL A   1      32.352  29.691  26.275  1.00  0.00     0.216 C 
ATOM     22  C   UNL A   1      31.652  31.046  26.330  1.00  0.00     0.059 C 
BRANCH  21  23
ATOM     23  C   UNL A   1      33.785  29.896  26.753  1.00  0.00     0.082 C 
ATOM     24  O   UNL A   1      34.682  29.066  26.703  1.00  0.00    -0.546 OA
ATOM     25  O   UNL A   1      34.003  31.088  27.348  1.00  0.00    -0.546 OA
ENDBRANCH  21  23
ENDBRANCH  20  21
ENDBRANCH  15  20
ENDBRANCH   3  14
BRANCH   9  26
ATOM     26  C   UNL A   1      33.345  19.039  24.861  1.00  0.00     0.115 A 
ATOM     27  C   UNL A   1      33.813  18.473  23.657  1.00  0.00     0.048 A 
ATOM     28  C   UNL A   1      32.758  18.238  25.850  1.00  0.00     0.094 A 
ATOM     29  C   UNL A   1      33.748  17.089  23.458  1.00  0.00     0.054 A 
ATOM     30  C   UNL A   1      32.719  16.884  25.627  1.00  0.00     0.169 A 
ATOM     31  C   UNL A   1      33.215  16.322  24.473  1.00  0.00     0.166 A 
ATOM     32  O   UNL A   1      32.259  15.953  26.505  1.00  0.00    -0.453 OA
ATOM     33  O   UNL A   1      33.147  14.963  24.500  1.00  0.00    -0.454 OA
ATOM     34  C   UNL A   1      32.728  14.749  25.866  1.00  0.00     0.468 C 
ENDBRANCH   9  26
ENDBRANCH   1   2
BRANCH   1  35
ATOM     35  C   UNL A   1      38.275  19.466  25.043  1.00  0.00     0.059 C 
BRANCH  35  36
ATOM     36  C   UNL A   1      39.390  19.833  26.018  1.00  0.00     0.119 C 
BRANCH  36  37
ATOM     37  N   UNL A   1      40.503  18.893  25.993  1.00  0.00    -0.352 N 
ATOM     38  C   UNL A   1      41.854  19.102  26.104  1.00  0.00     0.251 C 
ATOM     39  H   UNL A   1      40.242  17.951  25.877  1.00  0.00     0.163 HD
ATOM     40  O   UNL A   1      42.623  18.170  25.887  1.00  0.00    -0.269 OA
BRANCH  38  41
ATOM     41  C   UNL A   1      42.396  20.432  26.459  1.00  0.00     0.039 A 
ATOM     42  C   UNL A   1      42.929  21.224  25.437  1.00  0.00     0.014 A 
ATOM     43  C   UNL A   1      42.421  20.891  27.778  1.00  0.00     0.014 A 
ATOM     44  C   UNL A   1      43.424  22.497  25.731  1.00  0.00     0.010 A 
ATOM     45  C   UNL A   1      42.841  22.192  28.057  1.00  0.00     0.010 A 
ATOM     46  C   UNL A   1      43.346  23.009  27.037  1.00  0.00    -0.014 A 
BRANCH  46  47
ATOM     47  C   UNL A   1      43.761  24.407  27.325  1.00  0.00     0.031 A 
ATOM     48  C   UNL A   1      42.754  25.448  27.727  1.00  0.00     0.074 A 
ATOM     49  C   UNL A   1      45.057  24.747  27.187  1.00  0.00     0.049 A 
ATOM     50  N   UNL A   1      42.944  26.710  28.022  1.00  0.00    -0.248 NA
ATOM     51  C   UNL A   1      41.345  25.026  27.782  1.00  0.00     0.031 C 
ATOM     52  C   UNL A   1      46.124  23.845  26.745  1.00  0.00     0.029 A 
ATOM     53  N   UNL A   1      45.701  25.940  27.404  1.00  0.00    -0.354 N 
ATOM     54  C   UNL A   1      41.685  27.231  28.295  1.00  0.00     0.074 A 
ATOM     55  C   UNL A   1      40.732  26.165  28.072  1.00  0.00     0.031 C 
ATOM     56  C   UNL A   1      47.293  24.506  26.762  1.00  0.00     0.029 A 
ATOM     57  C   UNL A   1      47.055  25.884  27.175  1.00  0.00     0.049 A 
ATOM     58  H   UNL A   1      45.237  26.757  27.695  1.00  0.00     0.167 HD
ATOM     59  C   UNL A   1      41.355  28.476  28.715  1.00  0.00     0.037 A 
ATOM     60  C   UNL A   1      48.000  26.836  27.285  1.00  0.00     0.037 A 
ATOM     61  C   UNL A   1      42.306  29.535  28.943  1.00  0.00     0.049 A 
ATOM     62  C   UNL A   1      47.606  28.210  27.749  1.00  0.00     0.074 A 
ATOM     63  C   UNL A   1      42.076  30.815  29.418  1.00  0.00     0.029 A 
ATOM     64  N   UNL A   1      43.669  29.439  28.706  1.00  0.00    -0.354 N 
ATOM     65  N   UNL A   1      46.422  28.665  28.077  1.00  0.00    -0.248 NA
ATOM     66  C   UNL A   1      48.686  29.199  27.869  1.00  0.00     0.031 C 
ATOM     67  C   UNL A   1      43.290  31.510  29.417  1.00  0.00     0.029 A 
ATOM     68  C   UNL A   1      44.289  30.645  29.000  1.00  0.00     0.049 A 
ATOM     69  H   UNL A   1      44.131  28.634  28.374  1.00  0.00     0.167 HD
ATOM     70  C   UNL A   1      46.617  29.984  28.470  1.00  0.00     0.074 A 
ATOM     71  C   UNL A   1      48.038  30.245  28.361  1.00  0.00     0.031 C 
ATOM     72  C   UNL A   1      45.703  30.895  28.885  1.00  0.00     0.037 A 
BRANCH  59  73
ATOM     73  C   UNL A   1      39.899  28.766  28.955  1.00  0.00     0.057 A 
ATOM     74  C   UNL A   1      39.302  28.562  30.207  1.00  0.00     0.134 A 
ATOM     75  C   UNL A   1      39.094  29.293  27.937  1.00  0.00     0.134 A 
ATOM     76  F   UNL A   1      40.011  28.050  31.225  1.00  0.00    -0.206 F 
ATOM     77  C   UNL A   1      37.953  28.845  30.429  1.00  0.00     0.040 A 
ATOM     78  C   UNL A   1      37.752  29.608  28.155  1.00  0.00     0.040 A 
ATOM     79  F   UNL A   1      39.602  29.521  26.716  1.00  0.00    -0.206 F 
ATOM     80  C   UNL A   1      37.176  29.378  29.403  1.00  0.00     0.006 A 
ENDBRANCH  59  73
BRANCH  60  81
ATOM     81  C   UNL A   1      49.418  26.515  26.978  1.00  0.00     0.057 A 
ATOM     82  C   UNL A   1      50.286  26.046  27.972  1.00  0.00     0.134 A 
ATOM     83  C   UNL A   1      49.941  26.679  25.690  1.00  0.00     0.134 A 
ATOM     84  F   UNL A   1      49.848  25.885  29.229  1.00  0.00    -0.206 F 
ATOM     85  C   UNL A   1      51.628  25.775  27.703  1.00  0.00     0.040 A 
ATOM     86  C   UNL A   1      51.274  26.384  25.400  1.00  0.00     0.040 A 
ATOM     87  F   UNL A   1      49.160  27.115  24.691  1.00  0.00    -0.206 F 
ATOM     88  C   UNL A   1      52.124  25.939  26.411  1.00  0.00     0.006 A 
ENDBRANCH  60  81
BRANCH  72  89
ATOM     89  C   UNL A   1      46.222  32.247  29.287  1.00  0.00     0.057 A 
ATOM     90  C   UNL A   1      46.625  32.530  30.600  1.00  0.00     0.134 A 
ATOM     91  C   UNL A   1      46.324  33.279  28.346  1.00  0.00     0.134 A 
ATOM     92  F   UNL A   1      46.542  31.591  31.554  1.00  0.00    -0.206 F 
ATOM     93  C   UNL A   1      47.068  33.802  30.969  1.00  0.00     0.040 A 
ATOM     94  C   UNL A   1      46.798  34.545  28.695  1.00  0.00     0.040 A 
ATOM     95  F   UNL A   1      45.967  33.075  27.069  1.00  0.00    -0.206 F 
ATOM     96  C   UNL A   1      47.161  34.812  30.014  1.00  0.00     0.006 A 
ENDBRANCH  72  89
ENDBRANCH  46  47
ENDBRANCH  38  41
ENDBRANCH  36  37
ENDBRANCH  35  36
ENDBRANCH   1  35
TORSDOF 14
ENDMDL
MODEL 3
REMARK VINA RESULT:     -12.7      4.861      8.479
REMARK SMILES C[C@@H](Oc1ccc(/C=C2\C(=O)[NH+]=C(NCCCNC(=O)c3ccc(-c4c5nc(c(-c6c(F)cccc6F)c6ccc([nH]6)c(-c6c(F)cccc6F)c6nc(c(-c7c(F)cccc7F)c7ccc4[nH]7)C=C6)C=C5)cc3)N(c3ccc4c(c3)OCO4)C2=O)cc1)C(=O)[O-]
REMARK SMILES IDX 15 1 14 2 8 3 9 4 10 5 85 6 11 7 12 8 75 9 86 10 13 11 7 14
REMARK SMILES IDX 4 15 5 16 88 17 6 18 87 19 3 20 2 21 1 22 89 23 90 24 91 25
REMARK SMILES IDX 76 26 77 27 81 28 78 29 80 30 79 31 82 32 84 33 83 34 16 35
REMARK SMILES IDX 17 36 18 37 19 38 20 40 21 41 22 42 74 43 23 44 73 45 24 46
REMARK SMILES IDX 25 47 26 48 67 49 27 50 72 51 66 52 68 53 28 54 71 55 65 56
REMARK SMILES IDX 64 57 29 59 55 60 38 61 54 62 39 63 42 64 53 65 69 66 40 67
REMARK SMILES IDX 41 68 52 70 70 71 43 72 30 73 31 74 36 75 32 76 33 77 35 78
REMARK SMILES IDX 37 79 34 80 56 81 57 82 62 83 58 84 59 85 61 86 63 87 60 88
REMARK SMILES IDX 44 89 45 90 50 91 46 92 47 93 49 94 51 95 48 96
REMARK H PARENT 12 12 14 13 18 39 68 58 42 69
REMARK Flexibility Score: inf
ROOT
ATOM      1  C   UNL A   1      36.554  24.030  25.348  1.00  0.00     0.199 C 
ENDROOT
BRANCH   1   2
ATOM      2  N   UNL A   1      35.320  23.272  25.284  1.00  0.00    -0.277 N 
ATOM      3  C   UNL A   1      30.782  25.514  23.702  1.00  0.00     0.031 C 
ATOM      4  C   UNL A   1      31.714  24.990  24.520  1.00  0.00     0.138 C 
ATOM      5  C   UNL A   1      32.727  25.728  25.294  1.00  0.00     0.321 C 
ATOM      6  C   UNL A   1      31.731  23.520  24.651  1.00  0.00     0.328 C 
ATOM      7  O   UNL A   1      32.493  26.804  25.820  1.00  0.00    -0.250 OA
ATOM      8  N   UNL A   1      33.948  25.118  25.351  1.00  0.00    -0.210 N 
ATOM      9  N   UNL A   1      32.967  23.008  25.030  1.00  0.00    -0.162 N 
ATOM     10  O   UNL A   1      30.729  22.847  24.412  1.00  0.00    -0.249 OA
ATOM     11  C   UNL A   1      34.067  23.833  25.241  1.00  0.00     0.366 C 
ATOM     12  H   UNL A   1      34.755  25.668  25.479  1.00  0.00     0.270 HD
ATOM     13  H   UNL A   1      35.384  22.289  25.270  1.00  0.00     0.260 HD
BRANCH   3  14
ATOM     14  C   UNL A   1      30.548  26.908  23.302  1.00  0.00    -0.024 A 
ATOM     15  C   UNL A   1      29.905  29.511  22.452  1.00  0.00     0.120 A 
ATOM     16  C   UNL A   1      31.190  29.011  22.262  1.00  0.00     0.047 A 
ATOM     17  C   UNL A   1      28.926  28.699  23.014  1.00  0.00     0.047 A 
ATOM     18  C   UNL A   1      31.506  27.712  22.673  1.00  0.00     0.012 A 
ATOM     19  C   UNL A   1      29.249  27.412  23.449  1.00  0.00     0.012 A 
BRANCH  15  20
ATOM     20  O   UNL A   1      29.617  30.741  21.935  1.00  0.00    -0.485 OA
BRANCH  20  21
ATOM     21  C   UNL A   1      28.215  31.004  21.776  1.00  0.00     0.216 C 
ATOM     22  C   UNL A   1      27.905  31.688  20.447  1.00  0.00     0.059 C 
BRANCH  21  23
ATOM     23  C   UNL A   1      27.785  31.951  22.890  1.00  0.00     0.082 C 
ATOM     24  O   UNL A   1      27.058  31.666  23.832  1.00  0.00    -0.546 OA
ATOM     25  O   UNL A   1      28.208  33.223  22.727  1.00  0.00    -0.546 OA
ENDBRANCH  21  23
ENDBRANCH  20  21
ENDBRANCH  15  20
ENDBRANCH   3  14
BRANCH   9  26
ATOM     26  C   UNL A   1      33.075  21.594  25.077  1.00  0.00     0.115 A 
ATOM     27  C   UNL A   1      33.160  20.934  26.322  1.00  0.00     0.048 A 
ATOM     28  C   UNL A   1      32.966  20.866  23.885  1.00  0.00     0.094 A 
ATOM     29  C   UNL A   1      33.078  19.538  26.384  1.00  0.00     0.054 A 
ATOM     30  C   UNL A   1      32.879  19.499  23.983  1.00  0.00     0.169 A 
ATOM     31  C   UNL A   1      32.916  18.854  25.198  1.00  0.00     0.166 A 
ATOM     32  O   UNL A   1      32.693  18.644  22.943  1.00  0.00    -0.453 OA
ATOM     33  O   UNL A   1      32.732  17.511  25.065  1.00  0.00    -0.454 OA
ATOM     34  C   UNL A   1      32.396  17.431  23.663  1.00  0.00     0.468 C 
ENDBRANCH   9  26
ENDBRANCH   1   2
BRANCH   1  35
ATOM     35  C   UNL A   1      37.744  23.108  25.573  1.00  0.00     0.059 C 
BRANCH  35  36
ATOM     36  C   UNL A   1      38.709  23.593  26.651  1.00  0.00     0.119 C 
BRANCH  36  37
ATOM     37  N   UNL A   1      40.094  23.638  26.200  1.00  0.00    -0.352 N 
ATOM     38  C   UNL A   1      41.077  24.568  26.424  1.00  0.00     0.251 C 
ATOM     39  H   UNL A   1      40.369  22.876  25.642  1.00  0.00     0.163 HD
ATOM     40  O   UNL A   1      42.132  24.482  25.801  1.00  0.00    -0.269 OA
BRANCH  38  41
ATOM     41  C   UNL A   1      40.880  25.677  27.382  1.00  0.00     0.039 A 
ATOM     42  C   UNL A   1      39.960  25.500  28.420  1.00  0.00     0.014 A 
ATOM     43  C   UNL A   1      41.554  26.894  27.252  1.00  0.00     0.014 A 
ATOM     44  C   UNL A   1      39.768  26.516  29.359  1.00  0.00     0.010 A 
ATOM     45  C   UNL A   1      41.422  27.874  28.235  1.00  0.00     0.010 A 
ATOM     46  C   UNL A   1      40.528  27.696  29.300  1.00  0.00    -0.014 A 
BRANCH  46  47
ATOM     47  C   UNL A   1      40.411  28.723  30.367  1.00  0.00     0.031 A 
ATOM     48  C   UNL A   1      39.368  29.804  30.292  1.00  0.00     0.074 A 
ATOM     49  C   UNL A   1      41.280  28.700  31.397  1.00  0.00     0.049 A 
ATOM     50  N   UNL A   1      39.121  30.772  31.139  1.00  0.00    -0.248 NA
ATOM     51  C   UNL A   1      38.504  29.814  29.101  1.00  0.00     0.031 C 
ATOM     52  C   UNL A   1      42.376  27.742  31.556  1.00  0.00     0.029 A 
ATOM     53  N   UNL A   1      41.380  29.504  32.505  1.00  0.00    -0.354 N 
ATOM     54  C   UNL A   1      38.079  31.506  30.584  1.00  0.00     0.074 A 
ATOM     55  C   UNL A   1      37.780  30.907  29.302  1.00  0.00     0.031 C 
ATOM     56  C   UNL A   1      43.011  27.988  32.713  1.00  0.00     0.029 A 
ATOM     57  C   UNL A   1      42.396  29.143  33.356  1.00  0.00     0.049 A 
ATOM     58  H   UNL A   1      40.780  30.267  32.674  1.00  0.00     0.167 HD
ATOM     59  C   UNL A   1      37.417  32.566  31.106  1.00  0.00     0.037 A 
ATOM     60  C   UNL A   1      42.791  29.682  34.525  1.00  0.00     0.037 A 
ATOM     61  C   UNL A   1      37.712  33.158  32.387  1.00  0.00     0.049 A 
ATOM     62  C   UNL A   1      42.041  30.861  35.079  1.00  0.00     0.074 A 
ATOM     63  C   UNL A   1      37.064  34.201  33.025  1.00  0.00     0.029 A 
ATOM     64  N   UNL A   1      38.745  32.761  33.223  1.00  0.00    -0.354 N 
ATOM     65  N   UNL A   1      41.010  31.495  34.579  1.00  0.00    -0.248 NA
ATOM     66  C   UNL A   1      42.507  31.390  36.368  1.00  0.00     0.031 C 
ATOM     67  C   UNL A   1      37.737  34.472  34.222  1.00  0.00     0.029 A 
ATOM     68  C   UNL A   1      38.768  33.556  34.360  1.00  0.00     0.049 A 
ATOM     69  H   UNL A   1      39.372  32.025  33.037  1.00  0.00     0.167 HD
ATOM     70  C   UNL A   1      40.683  32.479  35.505  1.00  0.00     0.074 A 
ATOM     71  C   UNL A   1      41.614  32.340  36.606  1.00  0.00     0.031 C 
ATOM     72  C   UNL A   1      39.701  33.412  35.449  1.00  0.00     0.037 A 
BRANCH  59  73
ATOM     73  C   UNL A   1      36.304  33.161  30.289  1.00  0.00     0.057 A 
ATOM     74  C   UNL A   1      34.956  32.904  30.576  1.00  0.00     0.134 A 
ATOM     75  C   UNL A   1      36.579  34.034  29.228  1.00  0.00     0.134 A 
ATOM     76  F   UNL A   1      34.620  32.069  31.572  1.00  0.00    -0.206 F 
ATOM     77  C   UNL A   1      33.926  33.469  29.823  1.00  0.00     0.040 A 
ATOM     78  C   UNL A   1      35.557  34.629  28.487  1.00  0.00     0.040 A 
ATOM     79  F   UNL A   1      37.846  34.332  28.902  1.00  0.00    -0.206 F 
ATOM     80  C   UNL A   1      34.226  34.342  28.779  1.00  0.00     0.006 A 
ENDBRANCH  59  73
BRANCH  60  81
ATOM     81  C   UNL A   1      43.936  29.093  35.266  1.00  0.00     0.057 A 
ATOM     82  C   UNL A   1      43.735  28.131  36.263  1.00  0.00     0.134 A 
ATOM     83  C   UNL A   1      45.254  29.485  35.005  1.00  0.00     0.134 A 
ATOM     84  F   UNL A   1      42.494  27.727  36.572  1.00  0.00    -0.206 F 
ATOM     85  C   UNL A   1      44.800  27.596  36.990  1.00  0.00     0.040 A 
ATOM     86  C   UNL A   1      46.332  28.938  35.703  1.00  0.00     0.040 A 
ATOM     87  F   UNL A   1      45.515  30.395  34.055  1.00  0.00    -0.206 F 
ATOM     88  C   UNL A   1      46.105  27.997  36.706  1.00  0.00     0.006 A 
ENDBRANCH  60  81
BRANCH  72  89
ATOM     89  C   UNL A   1      39.563  34.329  36.631  1.00  0.00     0.057 A 
ATOM     90  C   UNL A   1      38.881  33.947  37.795  1.00  0.00     0.134 A 
ATOM     91  C   UNL A   1      40.125  35.611  36.606  1.00  0.00     0.134 A 
ATOM     92  F   UNL A   1      38.308  32.737  37.881  1.00  0.00    -0.206 F 
ATOM     93  C   UNL A   1      38.726  34.823  38.871  1.00  0.00     0.040 A 
ATOM     94  C   UNL A   1      40.006  36.484  37.690  1.00  0.00     0.040 A 
ATOM     95  F   UNL A   1      40.801  36.039  35.530  1.00  0.00    -0.206 F 
ATOM     96  C   UNL A   1      39.294  36.094  38.822  1.00  0.00     0.006 A 
ENDBRANCH  72  89
ENDBRANCH  46  47
ENDBRANCH  38  41
ENDBRANCH  36  37
ENDBRANCH  35  36
ENDBRANCH   1  35
TORSDOF 14
ENDMDL
