MODEL 1
REMARK VINA RESULT:     -12.2      0.000      0.000
REMARK SMILES COC(=O)c1ccc(-c2ccc(C(=O)NCCCNC(=O)c3ccc(-c4c5nc(c(-c6c(F)cccc6F)c6ccc([nH]6)c(-c6c(F)cccc6F)c6nc(c(-c7c(F)cccc7F)c7ccc4[nH]7)C=C6)C=C5)cc3)cc2O)cc1F
REMARK SMILES IDX 16 1 15 2 13 3 14 4 12 6 9 7 10 8 77 9 11 10 76 11 8 12 5 13
REMARK SMILES IDX 6 14 80 15 7 16 79 17 81 18 3 19 4 20 2 21 1 22 78 23 17 25
REMARK SMILES IDX 18 26 19 27 20 28 21 30 22 31 23 32 75 33 24 34 74 35 25 36
REMARK SMILES IDX 26 37 27 38 68 39 28 40 73 41 67 42 69 43 29 44 72 45 66 46
REMARK SMILES IDX 65 47 30 49 56 50 39 51 55 52 40 53 43 54 54 55 70 56 41 57
REMARK SMILES IDX 42 58 53 60 71 61 44 62 31 63 32 64 37 65 33 66 34 67 36 68
REMARK SMILES IDX 38 69 35 70 57 71 58 72 63 73 59 74 60 75 62 76 64 77 61 78
REMARK SMILES IDX 45 79 46 80 51 81 47 82 48 83 50 84 52 85 49 86
REMARK H PARENT 15 5 78 24 19 29 69 48 43 59
REMARK Flexibility Score: inf
ROOT
ATOM      1  C   UNL A   1      35.987  20.507  24.988  1.00  0.00     0.118 C 
ENDROOT
BRANCH   1   2
ATOM      2  N   UNL A   1      34.771  19.750  25.210  1.00  0.00    -0.352 N 
ATOM      3  C   UNL A   1      33.444  20.084  25.165  1.00  0.00     0.251 C 
ATOM      4  O   UNL A   1      32.633  19.186  25.395  1.00  0.00    -0.269 OA
ATOM      5  H   UNL A   1      34.932  18.806  25.437  1.00  0.00     0.163 HD
BRANCH   3   6
ATOM      6  C   UNL A   1      32.939  21.442  24.815  1.00  0.00     0.043 A 
ATOM      7  C   UNL A   1      31.896  24.037  24.345  1.00  0.00     0.024 A 
ATOM      8  C   UNL A   1      32.029  23.546  25.649  1.00  0.00     0.013 A 
ATOM      9  C   UNL A   1      32.314  23.215  23.289  1.00  0.00     0.124 A 
ATOM     10  C   UNL A   1      32.532  22.261  25.879  1.00  0.00     0.015 A 
ATOM     11  C   UNL A   1      32.870  21.956  23.519  1.00  0.00     0.060 A 
BRANCH   7  12
ATOM     12  C   UNL A   1      31.362  25.380  24.099  1.00  0.00    -0.012 A 
ATOM     13  C   UNL A   1      30.344  27.924  23.473  1.00  0.00     0.095 A 
ATOM     14  C   UNL A   1      31.726  27.723  23.552  1.00  0.00     0.019 A 
ATOM     15  C   UNL A   1      29.477  26.857  23.702  1.00  0.00     0.138 A 
ATOM     16  C   UNL A   1      32.229  26.460  23.873  1.00  0.00     0.010 A 
ATOM     17  C   UNL A   1      29.977  25.597  24.018  1.00  0.00     0.049 A 
ATOM     18  F   UNL A   1      28.149  27.000  23.583  1.00  0.00    -0.206 F 
BRANCH  13  19
ATOM     19  C   UNL A   1      29.851  29.261  23.104  1.00  0.00     0.340 C 
ATOM     20  O   UNL A   1      29.801  30.194  23.886  1.00  0.00    -0.246 OA
BRANCH  19  21
ATOM     21  O   UNL A   1      29.388  29.248  21.831  1.00  0.00    -0.465 OA
ATOM     22  C   UNL A   1      28.191  30.001  21.646  1.00  0.00     0.282 C 
ENDBRANCH  19  21
ENDBRANCH  13  19
ENDBRANCH   7  12
BRANCH   9  23
ATOM     23  O   UNL A   1      32.184  23.665  22.001  1.00  0.00    -0.507 OA
ATOM     24  H   UNL A   1      31.331  23.787  21.631  1.00  0.00     0.293 HD
ENDBRANCH   9  23
ENDBRANCH   3   6
ENDBRANCH   1   2
BRANCH   1  25
ATOM     25  C   UNL A   1      37.202  19.580  24.951  1.00  0.00     0.042 C 
BRANCH  25  26
ATOM     26  C   UNL A   1      38.494  20.283  25.358  1.00  0.00     0.118 C 
BRANCH  26  27
ATOM     27  N   UNL A   1      39.555  19.327  25.638  1.00  0.00    -0.352 N 
ATOM     28  C   UNL A   1      40.855  19.531  26.016  1.00  0.00     0.251 C 
ATOM     29  H   UNL A   1      39.297  18.382  25.538  1.00  0.00     0.163 HD
ATOM     30  O   UNL A   1      41.657  18.606  25.923  1.00  0.00    -0.269 OA
BRANCH  28  31
ATOM     31  C   UNL A   1      41.297  20.839  26.543  1.00  0.00     0.039 A 
ATOM     32  C   UNL A   1      41.145  21.094  27.908  1.00  0.00     0.014 A 
ATOM     33  C   UNL A   1      41.779  21.841  25.696  1.00  0.00     0.014 A 
ATOM     34  C   UNL A   1      41.493  22.341  28.424  1.00  0.00     0.010 A 
ATOM     35  C   UNL A   1      42.210  23.054  26.225  1.00  0.00     0.010 A 
ATOM     36  C   UNL A   1      42.046  23.328  27.589  1.00  0.00    -0.014 A 
BRANCH  36  37
ATOM     37  C   UNL A   1      42.415  24.660  28.130  1.00  0.00     0.031 A 
ATOM     38  C   UNL A   1      43.853  24.978  28.442  1.00  0.00     0.074 A 
ATOM     39  C   UNL A   1      41.452  25.577  28.345  1.00  0.00     0.049 A 
ATOM     40  N   UNL A   1      44.366  26.084  28.919  1.00  0.00    -0.248 NA
ATOM     41  C   UNL A   1      44.843  23.914  28.207  1.00  0.00     0.031 C 
ATOM     42  C   UNL A   1      40.021  25.369  28.113  1.00  0.00     0.029 A 
ATOM     43  N   UNL A   1      41.530  26.870  28.796  1.00  0.00    -0.354 N 
ATOM     44  C   UNL A   1      45.730  25.846  29.040  1.00  0.00     0.074 A 
ATOM     45  C   UNL A   1      45.959  24.474  28.651  1.00  0.00     0.031 C 
ATOM     46  C   UNL A   1      39.363  26.510  28.375  1.00  0.00     0.029 A 
ATOM     47  C   UNL A   1      40.317  27.514  28.834  1.00  0.00     0.049 A 
ATOM     48  H   UNL A   1      42.375  27.296  29.065  1.00  0.00     0.167 HD
ATOM     49  C   UNL A   1      46.706  26.707  29.410  1.00  0.00     0.037 A 
ATOM     50  C   UNL A   1      40.009  28.775  29.194  1.00  0.00     0.037 A 
ATOM     51  C   UNL A   1      46.477  28.081  29.769  1.00  0.00     0.049 A 
ATOM     52  C   UNL A   1      41.116  29.702  29.618  1.00  0.00     0.074 A 
ATOM     53  C   UNL A   1      47.406  29.042  30.127  1.00  0.00     0.029 A 
ATOM     54  N   UNL A   1      45.233  28.692  29.804  1.00  0.00    -0.354 N 
ATOM     55  N   UNL A   1      42.406  29.474  29.684  1.00  0.00    -0.248 NA
ATOM     56  C   UNL A   1      40.726  31.063  30.009  1.00  0.00     0.031 C 
ATOM     57  C   UNL A   1      46.720  30.221  30.426  1.00  0.00     0.029 A 
ATOM     58  C   UNL A   1      45.370  30.014  30.192  1.00  0.00     0.049 A 
ATOM     59  H   UNL A   1      44.380  28.251  29.587  1.00  0.00     0.167 HD
ATOM     60  C   UNL A   1      42.983  30.673  30.085  1.00  0.00     0.074 A 
ATOM     61  C   UNL A   1      41.904  31.627  30.234  1.00  0.00     0.031 C 
ATOM     62  C   UNL A   1      44.288  30.957  30.313  1.00  0.00     0.037 A 
BRANCH  49  63
ATOM     63  C   UNL A   1      48.123  26.209  29.418  1.00  0.00     0.057 A 
ATOM     64  C   UNL A   1      48.695  25.689  30.585  1.00  0.00     0.134 A 
ATOM     65  C   UNL A   1      48.952  26.341  28.296  1.00  0.00     0.134 A 
ATOM     66  F   UNL A   1      47.958  25.539  31.697  1.00  0.00    -0.206 F 
ATOM     67  C   UNL A   1      50.046  25.345  30.645  1.00  0.00     0.040 A 
ATOM     68  C   UNL A   1      50.298  25.975  28.335  1.00  0.00     0.040 A 
ATOM     69  F   UNL A   1      48.463  26.819  27.142  1.00  0.00    -0.206 F 
ATOM     70  C   UNL A   1      50.853  25.488  29.518  1.00  0.00     0.006 A 
ENDBRANCH  49  63
BRANCH  50  71
ATOM     71  C   UNL A   1      38.603  29.250  29.127  1.00  0.00     0.057 A 
ATOM     72  C   UNL A   1      38.042  29.718  27.932  1.00  0.00     0.134 A 
ATOM     73  C   UNL A   1      37.782  29.240  30.260  1.00  0.00     0.134 A 
ATOM     74  F   UNL A   1      38.776  29.765  26.810  1.00  0.00    -0.206 F 
ATOM     75  C   UNL A   1      36.720  30.160  27.869  1.00  0.00     0.040 A 
ATOM     76  C   UNL A   1      36.450  29.650  30.205  1.00  0.00     0.040 A 
ATOM     77  F   UNL A   1      38.256  28.790  31.432  1.00  0.00    -0.206 F 
ATOM     78  C   UNL A   1      35.917  30.118  29.007  1.00  0.00     0.006 A 
ENDBRANCH  50  71
BRANCH  62  79
ATOM     79  C   UNL A   1      44.638  32.366  30.696  1.00  0.00     0.057 A 
ATOM     80  C   UNL A   1      44.647  32.753  32.042  1.00  0.00     0.134 A 
ATOM     81  C   UNL A   1      44.902  33.352  29.737  1.00  0.00     0.134 A 
ATOM     82  F   UNL A   1      44.387  31.861  33.011  1.00  0.00    -0.206 F 
ATOM     83  C   UNL A   1      44.896  34.073  32.421  1.00  0.00     0.040 A 
ATOM     84  C   UNL A   1      45.185  34.668  30.106  1.00  0.00     0.040 A 
ATOM     85  F   UNL A   1      44.916  33.045  28.432  1.00  0.00    -0.206 F 
ATOM     86  C   UNL A   1      45.174  35.033  31.451  1.00  0.00     0.006 A 
ENDBRANCH  62  79
ENDBRANCH  36  37
ENDBRANCH  28  31
ENDBRANCH  26  27
ENDBRANCH  25  26
ENDBRANCH   1  25
TORSDOF 14
ENDMDL
MODEL 2
REMARK VINA RESULT:     -12.1      4.298      9.448
REMARK SMILES COC(=O)c1ccc(-c2ccc(C(=O)NCCCNC(=O)c3ccc(-c4c5nc(c(-c6c(F)cccc6F)c6ccc([nH]6)c(-c6c(F)cccc6F)c6nc(c(-c7c(F)cccc7F)c7ccc4[nH]7)C=C6)C=C5)cc3)cc2O)cc1F
REMARK SMILES IDX 16 1 15 2 13 3 14 4 12 6 9 7 10 8 77 9 11 10 76 11 8 12 5 13
REMARK SMILES IDX 6 14 80 15 7 16 79 17 81 18 3 19 4 20 2 21 1 22 78 23 17 25
REMARK SMILES IDX 18 26 19 27 20 28 21 30 22 31 23 32 75 33 24 34 74 35 25 36
REMARK SMILES IDX 26 37 27 38 68 39 28 40 73 41 67 42 69 43 29 44 72 45 66 46
REMARK SMILES IDX 65 47 30 49 56 50 39 51 55 52 40 53 43 54 54 55 70 56 41 57
REMARK SMILES IDX 42 58 53 60 71 61 44 62 31 63 32 64 37 65 33 66 34 67 36 68
REMARK SMILES IDX 38 69 35 70 57 71 58 72 63 73 59 74 60 75 62 76 64 77 61 78
REMARK SMILES IDX 45 79 46 80 51 81 47 82 48 83 50 84 52 85 49 86
REMARK H PARENT 15 5 78 24 19 29 69 48 43 59
REMARK Flexibility Score: inf
ROOT
ATOM      1  C   UNL A   1      31.203  30.147  25.121  1.00  0.00     0.118 C 
ENDROOT
BRANCH   1   2
ATOM      2  N   UNL A   1      30.532  30.091  23.837  1.00  0.00    -0.352 N 
ATOM      3  C   UNL A   1      30.378  29.096  22.908  1.00  0.00     0.251 C 
ATOM      4  O   UNL A   1      29.724  29.369  21.901  1.00  0.00    -0.269 OA
ATOM      5  H   UNL A   1      30.100  30.938  23.583  1.00  0.00     0.163 HD
BRANCH   3   6
ATOM      6  C   UNL A   1      30.912  27.714  23.073  1.00  0.00     0.043 A 
ATOM      7  C   UNL A   1      31.805  25.068  23.561  1.00  0.00     0.024 A 
ATOM      8  C   UNL A   1      30.645  25.554  24.176  1.00  0.00     0.013 A 
ATOM      9  C   UNL A   1      32.491  25.921  22.685  1.00  0.00     0.124 A 
ATOM     10  C   UNL A   1      30.212  26.864  23.944  1.00  0.00     0.015 A 
ATOM     11  C   UNL A   1      32.029  27.208  22.408  1.00  0.00     0.060 A 
BRANCH   7  12
ATOM     12  C   UNL A   1      32.267  23.699  23.808  1.00  0.00    -0.012 A 
ATOM     13  C   UNL A   1      33.022  21.050  24.369  1.00  0.00     0.095 A 
ATOM     14  C   UNL A   1      33.392  22.082  25.239  1.00  0.00     0.019 A 
ATOM     15  C   UNL A   1      32.276  21.341  23.230  1.00  0.00     0.138 A 
ATOM     16  C   UNL A   1      33.024  23.399  24.952  1.00  0.00     0.010 A 
ATOM     17  C   UNL A   1      31.905  22.652  22.945  1.00  0.00     0.049 A 
ATOM     18  F   UNL A   1      31.859  20.371  22.402  1.00  0.00    -0.206 F 
BRANCH  13  19
ATOM     19  C   UNL A   1      33.403  19.672  24.719  1.00  0.00     0.340 C 
ATOM     20  O   UNL A   1      34.551  19.265  24.677  1.00  0.00    -0.246 OA
BRANCH  19  21
ATOM     21  O   UNL A   1      32.296  18.938  24.982  1.00  0.00    -0.465 OA
ATOM     22  C   UNL A   1      32.568  17.573  25.293  1.00  0.00     0.282 C 
ENDBRANCH  19  21
ENDBRANCH  13  19
ENDBRANCH   7  12
BRANCH   9  23
ATOM     23  O   UNL A   1      33.636  25.475  22.079  1.00  0.00    -0.507 OA
ATOM     24  H   UNL A   1      33.756  25.595  21.157  1.00  0.00     0.293 HD
ENDBRANCH   9  23
ENDBRANCH   3   6
ENDBRANCH   1   2
BRANCH   1  25
ATOM     25  C   UNL A   1      31.033  31.525  25.761  1.00  0.00     0.042 C 
BRANCH  25  26
ATOM     26  C   UNL A   1      32.094  31.820  26.817  1.00  0.00     0.118 C 
BRANCH  26  27
ATOM     27  N   UNL A   1      32.194  33.246  27.087  1.00  0.00    -0.352 N 
ATOM     28  C   UNL A   1      33.022  33.932  27.935  1.00  0.00     0.251 C 
ATOM     29  H   UNL A   1      31.563  33.808  26.581  1.00  0.00     0.163 HD
ATOM     30  O   UNL A   1      32.752  35.094  28.224  1.00  0.00    -0.269 OA
BRANCH  28  31
ATOM     31  C   UNL A   1      34.235  33.297  28.491  1.00  0.00     0.039 A 
ATOM     32  C   UNL A   1      34.106  32.066  29.138  1.00  0.00     0.014 A 
ATOM     33  C   UNL A   1      35.476  33.939  28.454  1.00  0.00     0.014 A 
ATOM     34  C   UNL A   1      35.221  31.472  29.728  1.00  0.00     0.010 A 
ATOM     35  C   UNL A   1      36.605  33.305  28.965  1.00  0.00     0.010 A 
ATOM     36  C   UNL A   1      36.486  32.079  29.631  1.00  0.00    -0.014 A 
BRANCH  36  37
ATOM     37  C   UNL A   1      37.676  31.455  30.262  1.00  0.00     0.031 A 
ATOM     38  C   UNL A   1      38.035  31.781  31.687  1.00  0.00     0.074 A 
ATOM     39  C   UNL A   1      38.433  30.602  29.546  1.00  0.00     0.049 A 
ATOM     40  N   UNL A   1      39.034  31.335  32.406  1.00  0.00    -0.248 NA
ATOM     41  C   UNL A   1      37.175  32.744  32.394  1.00  0.00     0.031 C 
ATOM     42  C   UNL A   1      38.203  30.238  28.146  1.00  0.00     0.029 A 
ATOM     43  N   UNL A   1      39.543  29.877  29.897  1.00  0.00    -0.354 N 
ATOM     44  C   UNL A   1      38.921  31.963  33.641  1.00  0.00     0.074 A 
ATOM     45  C   UNL A   1      37.799  32.868  33.557  1.00  0.00     0.031 C 
ATOM     46  C   UNL A   1      39.111  29.323  27.774  1.00  0.00     0.029 A 
ATOM     47  C   UNL A   1      40.013  29.067  28.892  1.00  0.00     0.049 A 
ATOM     48  H   UNL A   1      39.963  29.931  30.786  1.00  0.00     0.167 HD
ATOM     49  C   UNL A   1      39.666  31.773  34.754  1.00  0.00     0.037 A 
ATOM     50  C   UNL A   1      41.052  28.209  28.877  1.00  0.00     0.037 A 
ATOM     51  C   UNL A   1      40.765  30.849  34.842  1.00  0.00     0.049 A 
ATOM     52  C   UNL A   1      41.873  28.035  30.126  1.00  0.00     0.074 A 
ATOM     53  C   UNL A   1      41.561  30.563  35.937  1.00  0.00     0.029 A 
ATOM     54  N   UNL A   1      41.215  30.055  33.799  1.00  0.00    -0.354 N 
ATOM     55  N   UNL A   1      41.724  28.603  31.298  1.00  0.00    -0.248 NA
ATOM     56  C   UNL A   1      42.999  27.095  30.052  1.00  0.00     0.031 C 
ATOM     57  C   UNL A   1      42.523  29.630  35.544  1.00  0.00     0.029 A 
ATOM     58  C   UNL A   1      42.287  29.287  34.222  1.00  0.00     0.049 A 
ATOM     59  H   UNL A   1      40.830  30.039  32.893  1.00  0.00     0.167 HD
ATOM     60  C   UNL A   1      42.712  28.061  32.111  1.00  0.00     0.074 A 
ATOM     61  C   UNL A   1      43.443  27.109  31.301  1.00  0.00     0.031 C 
ATOM     62  C   UNL A   1      42.990  28.328  33.410  1.00  0.00     0.037 A 
BRANCH  49  63
ATOM     63  C   UNL A   1      39.307  32.553  35.987  1.00  0.00     0.057 A 
ATOM     64  C   UNL A   1      38.385  32.049  36.912  1.00  0.00     0.134 A 
ATOM     65  C   UNL A   1      39.797  33.847  36.203  1.00  0.00     0.134 A 
ATOM     66  F   UNL A   1      37.873  30.817  36.763  1.00  0.00    -0.206 F 
ATOM     67  C   UNL A   1      37.942  32.814  37.992  1.00  0.00     0.040 A 
ATOM     68  C   UNL A   1      39.383  34.613  37.294  1.00  0.00     0.040 A 
ATOM     69  F   UNL A   1      40.694  34.384  35.362  1.00  0.00    -0.206 F 
ATOM     70  C   UNL A   1      38.441  34.101  38.185  1.00  0.00     0.006 A 
ENDBRANCH  49  63
BRANCH  50  71
ATOM     71  C   UNL A   1      41.349  27.416  27.655  1.00  0.00     0.057 A 
ATOM     72  C   UNL A   1      40.835  26.126  27.474  1.00  0.00     0.134 A 
ATOM     73  C   UNL A   1      42.150  27.938  26.633  1.00  0.00     0.134 A 
ATOM     74  F   UNL A   1      40.068  25.562  28.419  1.00  0.00    -0.206 F 
ATOM     75  C   UNL A   1      41.111  25.384  26.324  1.00  0.00     0.040 A 
ATOM     76  C   UNL A   1      42.410  27.219  25.465  1.00  0.00     0.040 A 
ATOM     77  F   UNL A   1      42.661  29.174  26.741  1.00  0.00    -0.206 F 
ATOM     78  C   UNL A   1      41.893  25.935  25.312  1.00  0.00     0.006 A 
ENDBRANCH  50  71
BRANCH  62  79
ATOM     79  C   UNL A   1      44.097  27.549  34.060  1.00  0.00     0.057 A 
ATOM     80  C   UNL A   1      43.825  26.342  34.716  1.00  0.00     0.134 A 
ATOM     81  C   UNL A   1      45.415  28.021  34.093  1.00  0.00     0.134 A 
ATOM     82  F   UNL A   1      42.580  25.841  34.735  1.00  0.00    -0.206 F 
ATOM     83  C   UNL A   1      44.821  25.636  35.391  1.00  0.00     0.040 A 
ATOM     84  C   UNL A   1      46.427  27.307  34.737  1.00  0.00     0.040 A 
ATOM     85  F   UNL A   1      45.743  29.166  33.479  1.00  0.00    -0.206 F 
ATOM     86  C   UNL A   1      46.129  26.115  35.395  1.00  0.00     0.006 A 
ENDBRANCH  62  79
ENDBRANCH  36  37
ENDBRANCH  28  31
ENDBRANCH  26  27
ENDBRANCH  25  26
ENDBRANCH   1  25
TORSDOF 14
ENDMDL
MODEL 3
REMARK VINA RESULT:     -12.1      2.433      3.518
REMARK SMILES COC(=O)c1ccc(-c2ccc(C(=O)NCCCNC(=O)c3ccc(-c4c5nc(c(-c6c(F)cccc6F)c6ccc([nH]6)c(-c6c(F)cccc6F)c6nc(c(-c7c(F)cccc7F)c7ccc4[nH]7)C=C6)C=C5)cc3)cc2O)cc1F
REMARK SMILES IDX 16 1 15 2 13 3 14 4 12 6 9 7 10 8 77 9 11 10 76 11 8 12 5 13
REMARK SMILES IDX 6 14 80 15 7 16 79 17 81 18 3 19 4 20 2 21 1 22 78 23 17 25
REMARK SMILES IDX 18 26 19 27 20 28 21 30 22 31 23 32 75 33 24 34 74 35 25 36
REMARK SMILES IDX 26 37 27 38 68 39 28 40 73 41 67 42 69 43 29 44 72 45 66 46
REMARK SMILES IDX 65 47 30 49 56 50 39 51 55 52 40 53 43 54 54 55 70 56 41 57
REMARK SMILES IDX 42 58 53 60 71 61 44 62 31 63 32 64 37 65 33 66 34 67 36 68
REMARK SMILES IDX 38 69 35 70 57 71 58 72 63 73 59 74 60 75 62 76 64 77 61 78
REMARK SMILES IDX 45 79 46 80 51 81 47 82 48 83 50 84 52 85 49 86
REMARK H PARENT 15 5 78 24 19 29 69 48 43 59
REMARK Flexibility Score: inf
ROOT
ATOM      1  C   UNL A   1      34.524  22.603  26.287  1.00  0.00     0.118 C 
ENDROOT
BRANCH   1   2
ATOM      2  N   UNL A   1      33.535  21.623  25.885  1.00  0.00    -0.352 N 
ATOM      3  C   UNL A   1      32.274  21.732  25.359  1.00  0.00     0.251 C 
ATOM      4  O   UNL A   1      31.682  20.683  25.106  1.00  0.00    -0.269 OA
ATOM      5  H   UNL A   1      33.828  20.693  26.014  1.00  0.00     0.163 HD
BRANCH   3   6
ATOM      6  C   UNL A   1      31.615  23.031  25.042  1.00  0.00     0.043 A 
ATOM      7  C   UNL A   1      30.419  25.472  24.234  1.00  0.00     0.024 A 
ATOM      8  C   UNL A   1      30.744  24.490  23.291  1.00  0.00     0.013 A 
ATOM      9  C   UNL A   1      30.683  25.199  25.584  1.00  0.00     0.124 A 
ATOM     10  C   UNL A   1      31.346  23.291  23.690  1.00  0.00     0.015 A 
ATOM     11  C   UNL A   1      31.230  23.981  25.990  1.00  0.00     0.060 A 
BRANCH   7  12
ATOM     12  C   UNL A   1      29.796  26.733  23.820  1.00  0.00    -0.012 A 
ATOM     13  C   UNL A   1      28.596  29.094  22.878  1.00  0.00     0.095 A 
ATOM     14  C   UNL A   1      29.989  28.957  22.852  1.00  0.00     0.019 A 
ATOM     15  C   UNL A   1      27.810  28.054  23.369  1.00  0.00     0.138 A 
ATOM     16  C   UNL A   1      30.583  27.787  23.330  1.00  0.00     0.010 A 
ATOM     17  C   UNL A   1      28.401  26.885  23.842  1.00  0.00     0.049 A 
ATOM     18  F   UNL A   1      26.471  28.128  23.361  1.00  0.00    -0.206 F 
BRANCH  13  19
ATOM     19  C   UNL A   1      28.005  30.329  22.340  1.00  0.00     0.340 C 
ATOM     20  O   UNL A   1      27.356  31.109  23.015  1.00  0.00    -0.246 OA
BRANCH  19  21
ATOM     21  O   UNL A   1      28.208  30.395  21.003  1.00  0.00    -0.465 OA
ATOM     22  C   UNL A   1      27.822  31.638  20.420  1.00  0.00     0.282 C 
ENDBRANCH  19  21
ENDBRANCH  13  19
ENDBRANCH   7  12
BRANCH   9  23
ATOM     23  O   UNL A   1      30.386  26.147  26.527  1.00  0.00    -0.507 OA
ATOM     24  H   UNL A   1      29.566  26.116  26.982  1.00  0.00     0.293 HD
ENDBRANCH   9  23
ENDBRANCH   3   6
ENDBRANCH   1   2
BRANCH   1  25
ATOM     25  C   UNL A   1      35.357  23.056  25.088  1.00  0.00     0.042 C 
BRANCH  25  26
ATOM     26  C   UNL A   1      36.691  23.674  25.495  1.00  0.00     0.118 C 
BRANCH  26  27
ATOM     27  N   UNL A   1      37.654  22.655  25.884  1.00  0.00    -0.352 N 
ATOM     28  C   UNL A   1      38.941  22.777  26.334  1.00  0.00     0.251 C 
ATOM     29  H   UNL A   1      37.327  21.729  25.812  1.00  0.00     0.163 HD
ATOM     30  O   UNL A   1      39.671  21.789  26.334  1.00  0.00    -0.269 OA
BRANCH  28  31
ATOM     31  C   UNL A   1      39.455  24.072  26.827  1.00  0.00     0.039 A 
ATOM     32  C   UNL A   1      39.284  24.386  28.178  1.00  0.00     0.014 A 
ATOM     33  C   UNL A   1      40.023  25.009  25.960  1.00  0.00     0.014 A 
ATOM     34  C   UNL A   1      39.701  25.626  28.659  1.00  0.00     0.010 A 
ATOM     35  C   UNL A   1      40.520  26.211  26.458  1.00  0.00     0.010 A 
ATOM     36  C   UNL A   1      40.339  26.544  27.806  1.00  0.00    -0.014 A 
BRANCH  36  37
ATOM     37  C   UNL A   1      40.780  27.868  28.311  1.00  0.00     0.031 A 
ATOM     38  C   UNL A   1      42.243  28.222  28.327  1.00  0.00     0.074 A 
ATOM     39  C   UNL A   1      39.862  28.745  28.760  1.00  0.00     0.049 A 
ATOM     40  N   UNL A   1      42.818  29.327  28.729  1.00  0.00    -0.248 NA
ATOM     41  C   UNL A   1      43.188  27.200  27.847  1.00  0.00     0.031 C 
ATOM     42  C   UNL A   1      38.419  28.499  28.826  1.00  0.00     0.029 A 
ATOM     43  N   UNL A   1      40.001  30.024  29.236  1.00  0.00    -0.354 N 
ATOM     44  C   UNL A   1      44.182  29.131  28.552  1.00  0.00     0.074 A 
ATOM     45  C   UNL A   1      44.358  27.781  28.068  1.00  0.00     0.031 C 
ATOM     46  C   UNL A   1      37.803  29.607  29.266  1.00  0.00     0.029 A 
ATOM     47  C   UNL A   1      38.808  30.626  29.554  1.00  0.00     0.049 A 
ATOM     48  H   UNL A   1      40.873  30.469  29.339  1.00  0.00     0.167 HD
ATOM     49  C   UNL A   1      45.193  30.010  28.742  1.00  0.00     0.037 A 
ATOM     50  C   UNL A   1      38.552  31.864  30.021  1.00  0.00     0.037 A 
ATOM     51  C   UNL A   1      45.010  31.363  29.196  1.00  0.00     0.049 A 
ATOM     52  C   UNL A   1      39.700  32.812  30.240  1.00  0.00     0.074 A 
ATOM     53  C   UNL A   1      45.969  32.341  29.389  1.00  0.00     0.029 A 
ATOM     54  N   UNL A   1      43.787  31.931  29.517  1.00  0.00    -0.354 N 
ATOM     55  N   UNL A   1      40.979  32.624  30.024  1.00  0.00    -0.248 NA
ATOM     56  C   UNL A   1      39.367  34.145  30.758  1.00  0.00     0.031 C 
ATOM     57  C   UNL A   1      45.333  33.486  29.872  1.00  0.00     0.029 A 
ATOM     58  C   UNL A   1      43.969  33.243  29.919  1.00  0.00     0.049 A 
ATOM     59  H   UNL A   1      42.918  31.470  29.466  1.00  0.00     0.167 HD
ATOM     60  C   UNL A   1      41.598  33.827  30.343  1.00  0.00     0.074 A 
ATOM     61  C   UNL A   1      40.551  34.739  30.753  1.00  0.00     0.031 C 
ATOM     62  C   UNL A   1      42.915  34.146  30.302  1.00  0.00     0.037 A 
BRANCH  49  63
ATOM     63  C   UNL A   1      46.591  29.559  28.433  1.00  0.00     0.057 A 
ATOM     64  C   UNL A   1      47.411  29.021  29.433  1.00  0.00     0.134 A 
ATOM     65  C   UNL A   1      47.160  29.753  27.167  1.00  0.00     0.134 A 
ATOM     66  F   UNL A   1      46.930  28.812  30.669  1.00  0.00    -0.206 F 
ATOM     67  C   UNL A   1      48.752  28.720  29.194  1.00  0.00     0.040 A 
ATOM     68  C   UNL A   1      48.493  29.430  26.908  1.00  0.00     0.040 A 
ATOM     69  F   UNL A   1      46.426  30.251  26.161  1.00  0.00    -0.206 F 
ATOM     70  C   UNL A   1      49.297  28.925  27.928  1.00  0.00     0.006 A 
ENDBRANCH  49  63
BRANCH  50  71
ATOM     71  C   UNL A   1      37.151  32.295  30.269  1.00  0.00     0.057 A 
ATOM     72  C   UNL A   1      36.405  32.967  29.293  1.00  0.00     0.134 A 
ATOM     73  C   UNL A   1      36.523  32.035  31.492  1.00  0.00     0.134 A 
ATOM     74  F   UNL A   1      36.951  33.257  28.103  1.00  0.00    -0.206 F 
ATOM     75  C   UNL A   1      35.089  33.368  29.527  1.00  0.00     0.040 A 
ATOM     76  C   UNL A   1      35.197  32.403  31.728  1.00  0.00     0.040 A 
ATOM     77  F   UNL A   1      37.179  31.382  32.463  1.00  0.00    -0.206 F 
ATOM     78  C   UNL A   1      34.478  33.077  30.744  1.00  0.00     0.006 A 
ENDBRANCH  50  71
BRANCH  62  79
ATOM     79  C   UNL A   1      43.302  35.551  30.660  1.00  0.00     0.057 A 
ATOM     80  C   UNL A   1      43.430  36.527  29.663  1.00  0.00     0.134 A 
ATOM     81  C   UNL A   1      43.610  35.925  31.974  1.00  0.00     0.134 A 
ATOM     82  F   UNL A   1      43.165  36.232  28.381  1.00  0.00    -0.206 F 
ATOM     83  C   UNL A   1      43.860  37.821  29.958  1.00  0.00     0.040 A 
ATOM     84  C   UNL A   1      44.009  37.225  32.286  1.00  0.00     0.040 A 
ATOM     85  F   UNL A   1      43.501  35.040  32.976  1.00  0.00    -0.206 F 
ATOM     86  C   UNL A   1      44.143  38.175  31.276  1.00  0.00     0.006 A 
ENDBRANCH  62  79
ENDBRANCH  36  37
ENDBRANCH  28  31
ENDBRANCH  26  27
ENDBRANCH  25  26
ENDBRANCH   1  25
TORSDOF 14
ENDMDL
