MODEL 1
REMARK VINA RESULT:     -12.9      0.000      0.000
REMARK SMILES Cc1cc(=O)oc2cc(NC(=O)CC3(CC(=O)NCCCNC(=O)c4ccc(-c5c6nc(c(-c7c(F)cccc7F)c7ccc([nH]7)c(-c7c(F)cccc7F)c7nc(c(-c8c(F)cccc8F)c8ccc5[nH]8)C=C7)C=C6)cc4)CCCC3)ccc12
REMARK SMILES IDX 19 1 18 2 16 3 17 4 15 6 14 7 79 8 82 9 80 10 81 11 13 12
REMARK SMILES IDX 11 13 10 14 12 16 9 17 1 18 2 19 3 20 85 21 4 22 7 23 84 24
REMARK SMILES IDX 5 25 6 26 8 27 83 28 20 29 21 30 22 31 23 32 24 34 25 35
REMARK SMILES IDX 26 36 78 37 27 38 77 39 28 40 29 41 30 42 71 43 31 44 76 45
REMARK SMILES IDX 70 46 72 47 32 48 75 49 69 50 68 51 33 53 59 54 42 55 58 56
REMARK SMILES IDX 43 57 46 58 57 59 73 60 44 61 45 62 56 64 74 65 47 66 34 67
REMARK SMILES IDX 35 68 40 69 36 70 37 71 39 72 41 73 38 74 60 75 61 76 66 77
REMARK SMILES IDX 62 78 63 79 65 80 67 81 64 82 48 83 49 84 54 85 50 86 51 87
REMARK SMILES IDX 53 88 55 89 52 90
REMARK H PARENT 18 5 10 15 22 33 72 52 46 63
REMARK Flexibility Score: inf
ROOT
ATOM      1  C   UNL A   1      36.328  20.655  24.824  1.00  0.00     0.117 C 
ENDROOT
BRANCH   1   2
ATOM      2  N   UNL A   1      35.096  20.063  25.304  1.00  0.00    -0.356 N 
ATOM      3  C   UNL A   1      33.804  20.446  25.138  1.00  0.00     0.220 C 
ATOM      4  O   UNL A   1      32.938  19.759  25.683  1.00  0.00    -0.275 OA
ATOM      5  H   UNL A   1      35.215  19.247  25.842  1.00  0.00     0.163 HD
BRANCH   3   6
ATOM      6  C   UNL A   1      33.434  21.645  24.277  1.00  0.00     0.107 C 
BRANCH   6   7
ATOM      7  C   UNL A   1      33.001  22.975  24.974  1.00  0.00    -0.012 C 
ATOM      8  C   UNL A   1      33.638  24.131  24.164  1.00  0.00     0.008 C 
ATOM      9  C   UNL A   1      33.705  23.208  26.326  1.00  0.00     0.008 C 
ATOM     10  C   UNL A   1      35.100  24.201  24.610  1.00  0.00     0.001 C 
ATOM     11  C   UNL A   1      35.125  23.670  26.036  1.00  0.00     0.001 C 
BRANCH   7  12
ATOM     12  C   UNL A   1      31.455  23.041  25.185  1.00  0.00     0.108 C 
BRANCH  12  13
ATOM     13  C   UNL A   1      30.904  23.518  26.519  1.00  0.00     0.224 C 
ATOM     14  N   UNL A   1      30.907  24.828  26.911  1.00  0.00    -0.326 N 
ATOM     15  H   UNL A   1      30.590  24.974  27.831  1.00  0.00     0.169 HD
ATOM     16  O   UNL A   1      30.381  22.706  27.290  1.00  0.00    -0.275 OA
BRANCH  14  17
ATOM     17  C   UNL A   1      31.280  26.001  26.238  1.00  0.00     0.044 A 
ATOM     18  C   UNL A   1      33.975  28.931  22.898  1.00  0.00     0.045 C 
ATOM     19  C   UNL A   1      32.518  28.682  23.153  1.00  0.00    -0.033 A 
ATOM     20  C   UNL A   1      31.573  29.097  22.297  1.00  0.00     0.098 A 
ATOM     21  C   UNL A   1      32.097  27.892  24.314  1.00  0.00     0.021 A 
ATOM     22  C   UNL A   1      30.144  28.780  22.453  1.00  0.00     0.336 A 
ATOM     23  C   UNL A   1      30.776  27.453  24.384  1.00  0.00     0.140 A 
ATOM     24  C   UNL A   1      32.959  27.505  25.341  1.00  0.00     0.014 A 
ATOM     25  O   UNL A   1      29.310  29.256  21.693  1.00  0.00    -0.246 OA
ATOM     26  O   UNL A   1      29.810  27.887  23.457  1.00  0.00    -0.423 OA
ATOM     27  C   UNL A   1      30.351  26.525  25.338  1.00  0.00     0.074 A 
ATOM     28  C   UNL A   1      32.539  26.587  26.313  1.00  0.00     0.027 A 
ENDBRANCH  14  17
ENDBRANCH  12  13
ENDBRANCH   7  12
ENDBRANCH   6   7
ENDBRANCH   3   6
ENDBRANCH   1   2
BRANCH   1  29
ATOM     29  C   UNL A   1      37.490  19.678  24.964  1.00  0.00     0.042 C 
BRANCH  29  30
ATOM     30  C   UNL A   1      38.741  20.306  25.546  1.00  0.00     0.118 C 
BRANCH  30  31
ATOM     31  N   UNL A   1      39.813  19.339  25.709  1.00  0.00    -0.352 N 
ATOM     32  C   UNL A   1      41.121  19.534  26.073  1.00  0.00     0.251 C 
ATOM     33  H   UNL A   1      39.564  18.404  25.531  1.00  0.00     0.163 HD
ATOM     34  O   UNL A   1      41.933  18.616  25.928  1.00  0.00    -0.269 OA
BRANCH  32  35
ATOM     35  C   UNL A   1      41.574  20.835  26.613  1.00  0.00     0.039 A 
ATOM     36  C   UNL A   1      41.911  21.861  25.724  1.00  0.00     0.014 A 
ATOM     37  C   UNL A   1      41.700  21.044  27.989  1.00  0.00     0.014 A 
ATOM     38  C   UNL A   1      42.314  23.105  26.216  1.00  0.00     0.010 A 
ATOM     39  C   UNL A   1      41.993  22.312  28.477  1.00  0.00     0.010 A 
ATOM     40  C   UNL A   1      42.327  23.352  27.598  1.00  0.00    -0.014 A 
BRANCH  40  41
ATOM     41  C   UNL A   1      42.731  24.667  28.156  1.00  0.00     0.031 A 
ATOM     42  C   UNL A   1      41.690  25.730  28.388  1.00  0.00     0.074 A 
ATOM     43  C   UNL A   1      44.033  24.935  28.380  1.00  0.00     0.049 A 
ATOM     44  N   UNL A   1      41.846  26.979  28.745  1.00  0.00    -0.248 NA
ATOM     45  C   UNL A   1      40.289  25.345  28.151  1.00  0.00     0.031 C 
ATOM     46  C   UNL A   1      45.141  24.005  28.161  1.00  0.00     0.029 A 
ATOM     47  N   UNL A   1      44.644  26.079  28.830  1.00  0.00    -0.354 N 
ATOM     48  C   UNL A   1      40.570  27.531  28.749  1.00  0.00     0.074 A 
ATOM     49  C   UNL A   1      39.659  26.500  28.306  1.00  0.00     0.031 C 
ATOM     50  C   UNL A   1      46.294  24.607  28.496  1.00  0.00     0.029 A 
ATOM     51  C   UNL A   1      46.011  25.979  28.909  1.00  0.00     0.049 A 
ATOM     52  H   UNL A   1      44.148  26.895  29.073  1.00  0.00     0.167 HD
ATOM     53  C   UNL A   1      40.187  28.777  29.114  1.00  0.00     0.037 A 
ATOM     54  C   UNL A   1      46.935  26.893  29.260  1.00  0.00     0.037 A 
ATOM     55  C   UNL A   1      41.091  29.788  29.594  1.00  0.00     0.049 A 
ATOM     56  C   UNL A   1      46.486  28.273  29.657  1.00  0.00     0.074 A 
ATOM     57  C   UNL A   1      40.798  31.061  30.049  1.00  0.00     0.029 A 
ATOM     58  N   UNL A   1      42.466  29.637  29.682  1.00  0.00    -0.354 N 
ATOM     59  N   UNL A   1      45.272  28.765  29.710  1.00  0.00    -0.248 NA
ATOM     60  C   UNL A   1      47.537  29.226  30.046  1.00  0.00     0.031 C 
ATOM     61  C   UNL A   1      42.000  31.697  30.371  1.00  0.00     0.029 A 
ATOM     62  C   UNL A   1      43.038  30.802  30.166  1.00  0.00     0.049 A 
ATOM     63  H   UNL A   1      42.964  28.823  29.438  1.00  0.00     0.167 HD
ATOM     64  C   UNL A   1      45.407  30.068  30.168  1.00  0.00     0.074 A 
ATOM     65  C   UNL A   1      46.822  30.290  30.386  1.00  0.00     0.031 C 
ATOM     66  C   UNL A   1      44.447  30.998  30.393  1.00  0.00     0.037 A 
BRANCH  53  67
ATOM     67  C   UNL A   1      38.727  29.113  29.015  1.00  0.00     0.057 A 
ATOM     68  C   UNL A   1      37.867  29.013  30.116  1.00  0.00     0.134 A 
ATOM     69  C   UNL A   1      38.179  29.570  27.808  1.00  0.00     0.134 A 
ATOM     70  F   UNL A   1      38.324  28.569  31.298  1.00  0.00    -0.206 F 
ATOM     71  C   UNL A   1      36.510  29.328  30.016  1.00  0.00     0.040 A 
ATOM     72  C   UNL A   1      36.831  29.916  27.703  1.00  0.00     0.040 A 
ATOM     73  F   UNL A   1      38.947  29.694  26.715  1.00  0.00    -0.206 F 
ATOM     74  C   UNL A   1      35.991  29.788  28.807  1.00  0.00     0.006 A 
ENDBRANCH  53  67
BRANCH  54  75
ATOM     75  C   UNL A   1      48.375  26.531  29.272  1.00  0.00     0.057 A 
ATOM     76  C   UNL A   1      48.957  25.928  30.393  1.00  0.00     0.134 A 
ATOM     77  C   UNL A   1      49.204  26.782  28.171  1.00  0.00     0.134 A 
ATOM     78  F   UNL A   1      48.220  25.678  31.484  1.00  0.00    -0.206 F 
ATOM     79  C   UNL A   1      50.315  25.605  30.428  1.00  0.00     0.040 A 
ATOM     80  C   UNL A   1      50.558  26.442  28.184  1.00  0.00     0.040 A 
ATOM     81  F   UNL A   1      48.706  27.348  27.062  1.00  0.00    -0.206 F 
ATOM     82  C   UNL A   1      51.118  25.858  29.318  1.00  0.00     0.006 A 
ENDBRANCH  54  75
BRANCH  66  83
ATOM     83  C   UNL A   1      44.883  32.324  30.942  1.00  0.00     0.057 A 
ATOM     84  C   UNL A   1      45.208  33.401  30.110  1.00  0.00     0.134 A 
ATOM     85  C   UNL A   1      44.915  32.540  32.327  1.00  0.00     0.134 A 
ATOM     86  F   UNL A   1      45.207  33.254  28.776  1.00  0.00    -0.206 F 
ATOM     87  C   UNL A   1      45.567  34.643  30.635  1.00  0.00     0.040 A 
ATOM     88  C   UNL A   1      45.248  33.784  32.863  1.00  0.00     0.040 A 
ATOM     89  F   UNL A   1      44.606  31.550  33.178  1.00  0.00    -0.206 F 
ATOM     90  C   UNL A   1      45.579  34.840  32.015  1.00  0.00     0.006 A 
ENDBRANCH  66  83
ENDBRANCH  40  41
ENDBRANCH  32  35
ENDBRANCH  30  31
ENDBRANCH  29  30
ENDBRANCH   1  29
TORSDOF 14
ENDMDL
MODEL 2
REMARK VINA RESULT:     -12.7      0.473      6.099
REMARK SMILES Cc1cc(=O)oc2cc(NC(=O)CC3(CC(=O)NCCCNC(=O)c4ccc(-c5c6nc(c(-c7c(F)cccc7F)c7ccc([nH]7)c(-c7c(F)cccc7F)c7nc(c(-c8c(F)cccc8F)c8ccc5[nH]8)C=C7)C=C6)cc4)CCCC3)ccc12
REMARK SMILES IDX 19 1 18 2 16 3 17 4 15 6 14 7 79 8 82 9 80 10 81 11 13 12
REMARK SMILES IDX 11 13 10 14 12 16 9 17 1 18 2 19 3 20 85 21 4 22 7 23 84 24
REMARK SMILES IDX 5 25 6 26 8 27 83 28 20 29 21 30 22 31 23 32 24 34 25 35
REMARK SMILES IDX 26 36 78 37 27 38 77 39 28 40 29 41 30 42 71 43 31 44 76 45
REMARK SMILES IDX 70 46 72 47 32 48 75 49 69 50 68 51 33 53 59 54 42 55 58 56
REMARK SMILES IDX 43 57 46 58 57 59 73 60 44 61 45 62 56 64 74 65 47 66 34 67
REMARK SMILES IDX 35 68 40 69 36 70 37 71 39 72 41 73 38 74 60 75 61 76 66 77
REMARK SMILES IDX 62 78 63 79 65 80 67 81 64 82 48 83 49 84 54 85 50 86 51 87
REMARK SMILES IDX 53 88 55 89 52 90
REMARK H PARENT 18 5 10 15 22 33 72 52 46 63
REMARK Flexibility Score: inf
ROOT
ATOM      1  C   UNL A   1      36.534  20.356  24.675  1.00  0.00     0.117 C 
ENDROOT
BRANCH   1   2
ATOM      2  N   UNL A   1      35.300  19.847  25.236  1.00  0.00    -0.356 N 
ATOM      3  C   UNL A   1      34.030  20.321  25.160  1.00  0.00     0.220 C 
ATOM      4  O   UNL A   1      33.157  19.691  25.760  1.00  0.00    -0.275 OA
ATOM      5  H   UNL A   1      35.398  19.019  25.760  1.00  0.00     0.163 HD
BRANCH   3   6
ATOM      6  C   UNL A   1      33.687  21.551  24.333  1.00  0.00     0.107 C 
BRANCH   6   7
ATOM      7  C   UNL A   1      33.343  22.887  25.066  1.00  0.00    -0.012 C 
ATOM      8  C   UNL A   1      33.996  24.026  24.246  1.00  0.00     0.008 C 
ATOM      9  C   UNL A   1      34.113  23.067  26.390  1.00  0.00     0.008 C 
ATOM     10  C   UNL A   1      35.478  24.025  24.631  1.00  0.00     0.001 C 
ATOM     11  C   UNL A   1      35.538  23.471  26.047  1.00  0.00     0.001 C 
BRANCH   7  12
ATOM     12  C   UNL A   1      31.812  23.017  25.343  1.00  0.00     0.108 C 
BRANCH  12  13
ATOM     13  C   UNL A   1      31.339  23.528  26.695  1.00  0.00     0.224 C 
ATOM     14  N   UNL A   1      31.362  24.847  27.053  1.00  0.00    -0.326 N 
ATOM     15  H   UNL A   1      31.100  25.016  27.986  1.00  0.00     0.169 HD
ATOM     16  O   UNL A   1      30.864  22.735  27.515  1.00  0.00    -0.275 OA
BRANCH  14  17
ATOM     17  C   UNL A   1      31.693  26.004  26.329  1.00  0.00     0.044 A 
ATOM     18  C   UNL A   1      34.185  28.851  22.768  1.00  0.00     0.045 C 
ATOM     19  C   UNL A   1      32.745  28.605  23.111  1.00  0.00    -0.033 A 
ATOM     20  C   UNL A   1      31.752  28.997  22.299  1.00  0.00     0.098 A 
ATOM     21  C   UNL A   1      32.393  27.845  24.315  1.00  0.00     0.021 A 
ATOM     22  C   UNL A   1      30.335  28.680  22.545  1.00  0.00     0.336 A 
ATOM     23  C   UNL A   1      31.080  27.405  24.470  1.00  0.00     0.140 A 
ATOM     24  C   UNL A   1      33.313  27.487  25.301  1.00  0.00     0.014 A 
ATOM     25  O   UNL A   1      29.458  29.135  21.820  1.00  0.00    -0.246 OA
ATOM     26  O   UNL A   1      30.062  27.814  23.589  1.00  0.00    -0.423 OA
ATOM     27  C   UNL A   1      30.713  26.502  25.470  1.00  0.00     0.074 A 
ATOM     28  C   UNL A   1      32.952  26.593  26.319  1.00  0.00     0.027 A 
ENDBRANCH  14  17
ENDBRANCH  12  13
ENDBRANCH   7  12
ENDBRANCH   6   7
ENDBRANCH   3   6
ENDBRANCH   1   2
BRANCH   1  29
ATOM     29  C   UNL A   1      37.697  19.418  24.982  1.00  0.00     0.042 C 
BRANCH  29  30
ATOM     30  C   UNL A   1      38.833  20.089  25.730  1.00  0.00     0.118 C 
BRANCH  30  31
ATOM     31  N   UNL A   1      40.007  19.238  25.818  1.00  0.00    -0.352 N 
ATOM     32  C   UNL A   1      41.310  19.568  26.091  1.00  0.00     0.251 C 
ATOM     33  H   UNL A   1      39.843  18.281  25.657  1.00  0.00     0.163 HD
ATOM     34  O   UNL A   1      42.200  18.737  25.891  1.00  0.00    -0.269 OA
BRANCH  32  35
ATOM     35  C   UNL A   1      41.663  20.912  26.600  1.00  0.00     0.039 A 
ATOM     36  C   UNL A   1      42.125  21.879  25.702  1.00  0.00     0.014 A 
ATOM     37  C   UNL A   1      41.573  21.219  27.960  1.00  0.00     0.014 A 
ATOM     38  C   UNL A   1      42.437  23.162  26.159  1.00  0.00     0.010 A 
ATOM     39  C   UNL A   1      41.777  22.523  28.395  1.00  0.00     0.010 A 
ATOM     40  C   UNL A   1      42.234  23.505  27.505  1.00  0.00    -0.014 A 
BRANCH  40  41
ATOM     41  C   UNL A   1      42.537  24.863  28.022  1.00  0.00     0.031 A 
ATOM     42  C   UNL A   1      43.936  25.197  28.468  1.00  0.00     0.074 A 
ATOM     43  C   UNL A   1      41.548  25.769  28.164  1.00  0.00     0.049 A 
ATOM     44  N   UNL A   1      44.382  26.273  29.063  1.00  0.00    -0.248 NA
ATOM     45  C   UNL A   1      44.963  24.165  28.246  1.00  0.00     0.031 C 
ATOM     46  C   UNL A   1      40.145  25.557  27.805  1.00  0.00     0.029 A 
ATOM     47  N   UNL A   1      41.573  27.047  28.665  1.00  0.00    -0.354 N 
ATOM     48  C   UNL A   1      45.730  26.036  29.309  1.00  0.00     0.074 A 
ATOM     49  C   UNL A   1      46.016  24.695  28.851  1.00  0.00     0.031 C 
ATOM     50  C   UNL A   1      39.449  26.673  28.077  1.00  0.00     0.029 A 
ATOM     51  C   UNL A   1      40.345  27.660  28.672  1.00  0.00     0.049 A 
ATOM     52  H   UNL A   1      42.395  27.483  28.988  1.00  0.00     0.167 HD
ATOM     53  C   UNL A   1      46.652  26.869  29.845  1.00  0.00     0.037 A 
ATOM     54  C   UNL A   1      39.978  28.876  29.120  1.00  0.00     0.037 A 
ATOM     55  C   UNL A   1      46.374  28.216  30.262  1.00  0.00     0.049 A 
ATOM     56  C   UNL A   1      41.020  29.782  29.715  1.00  0.00     0.074 A 
ATOM     57  C   UNL A   1      47.251  29.164  30.759  1.00  0.00     0.029 A 
ATOM     58  N   UNL A   1      45.120  28.808  30.228  1.00  0.00    -0.354 N 
ATOM     59  N   UNL A   1      42.301  29.566  29.891  1.00  0.00    -0.248 NA
ATOM     60  C   UNL A   1      40.566  31.103  30.175  1.00  0.00     0.031 C 
ATOM     61  C   UNL A   1      46.520  30.315  31.067  1.00  0.00     0.029 A 
ATOM     62  C   UNL A   1      45.197  30.103  30.715  1.00  0.00     0.049 A 
ATOM     63  H   UNL A   1      44.297  28.374  29.907  1.00  0.00     0.167 HD
ATOM     64  C   UNL A   1      42.812  30.731  30.447  1.00  0.00     0.074 A 
ATOM     65  C   UNL A   1      41.704  31.655  30.574  1.00  0.00     0.031 C 
ATOM     66  C   UNL A   1      44.086  31.014  30.817  1.00  0.00     0.037 A 
BRANCH  53  67
ATOM     67  C   UNL A   1      48.051  26.347  30.003  1.00  0.00     0.057 A 
ATOM     68  C   UNL A   1      49.003  26.454  28.980  1.00  0.00     0.134 A 
ATOM     69  C   UNL A   1      48.462  25.755  31.205  1.00  0.00     0.134 A 
ATOM     70  F   UNL A   1      48.672  26.997  27.798  1.00  0.00    -0.206 F 
ATOM     71  C   UNL A   1      50.302  25.966  29.135  1.00  0.00     0.040 A 
ATOM     72  C   UNL A   1      49.766  25.291  31.383  1.00  0.00     0.040 A 
ATOM     73  F   UNL A   1      47.604  25.626  32.228  1.00  0.00    -0.206 F 
ATOM     74  C   UNL A   1      50.688  25.389  30.342  1.00  0.00     0.006 A 
ENDBRANCH  53  67
BRANCH  54  75
ATOM     75  C   UNL A   1      38.565  29.316  29.006  1.00  0.00     0.057 A 
ATOM     76  C   UNL A   1      37.711  29.293  30.115  1.00  0.00     0.134 A 
ATOM     77  C   UNL A   1      38.031  29.764  27.791  1.00  0.00     0.134 A 
ATOM     78  F   UNL A   1      38.158  28.857  31.301  1.00  0.00    -0.206 F 
ATOM     79  C   UNL A   1      36.373  29.679  30.016  1.00  0.00     0.040 A 
ATOM     80  C   UNL A   1      36.702  30.177  27.684  1.00  0.00     0.040 A 
ATOM     81  F   UNL A   1      38.799  29.822  26.693  1.00  0.00    -0.206 F 
ATOM     82  C   UNL A   1      35.867  30.128  28.798  1.00  0.00     0.006 A 
ENDBRANCH  54  75
BRANCH  66  83
ATOM     83  C   UNL A   1      44.362  32.388  31.350  1.00  0.00     0.057 A 
ATOM     84  C   UNL A   1      44.321  32.674  32.719  1.00  0.00     0.134 A 
ATOM     85  C   UNL A   1      44.736  33.422  30.481  1.00  0.00     0.134 A 
ATOM     86  F   UNL A   1      43.960  31.730  33.601  1.00  0.00    -0.206 F 
ATOM     87  C   UNL A   1      44.627  33.946  33.206  1.00  0.00     0.040 A 
ATOM     88  C   UNL A   1      45.069  34.690  30.957  1.00  0.00     0.040 A 
ATOM     89  F   UNL A   1      44.803  33.210  29.158  1.00  0.00    -0.206 F 
ATOM     90  C   UNL A   1      45.011  34.956  32.325  1.00  0.00     0.006 A 
ENDBRANCH  66  83
ENDBRANCH  40  41
ENDBRANCH  32  35
ENDBRANCH  30  31
ENDBRANCH  29  30
ENDBRANCH   1  29
TORSDOF 14
ENDMDL
MODEL 3
REMARK VINA RESULT:     -12.5      4.342      9.512
REMARK SMILES Cc1cc(=O)oc2cc(NC(=O)CC3(CC(=O)NCCCNC(=O)c4ccc(-c5c6nc(c(-c7c(F)cccc7F)c7ccc([nH]7)c(-c7c(F)cccc7F)c7nc(c(-c8c(F)cccc8F)c8ccc5[nH]8)C=C7)C=C6)cc4)CCCC3)ccc12
REMARK SMILES IDX 19 1 18 2 16 3 17 4 15 6 14 7 79 8 82 9 80 10 81 11 13 12
REMARK SMILES IDX 11 13 10 14 12 16 9 17 1 18 2 19 3 20 85 21 4 22 7 23 84 24
REMARK SMILES IDX 5 25 6 26 8 27 83 28 20 29 21 30 22 31 23 32 24 34 25 35
REMARK SMILES IDX 26 36 78 37 27 38 77 39 28 40 29 41 30 42 71 43 31 44 76 45
REMARK SMILES IDX 70 46 72 47 32 48 75 49 69 50 68 51 33 53 59 54 42 55 58 56
REMARK SMILES IDX 43 57 46 58 57 59 73 60 44 61 45 62 56 64 74 65 47 66 34 67
REMARK SMILES IDX 35 68 40 69 36 70 37 71 39 72 41 73 38 74 60 75 61 76 66 77
REMARK SMILES IDX 62 78 63 79 65 80 67 81 64 82 48 83 49 84 54 85 50 86 51 87
REMARK SMILES IDX 53 88 55 89 52 90
REMARK H PARENT 18 5 10 15 22 33 72 52 46 63
REMARK Flexibility Score: inf
ROOT
ATOM      1  C   UNL A   1      31.488  30.623  26.073  1.00  0.00     0.117 C 
ENDROOT
BRANCH   1   2
ATOM      2  N   UNL A   1      31.022  30.451  24.713  1.00  0.00    -0.356 N 
ATOM      3  C   UNL A   1      30.667  29.331  24.032  1.00  0.00     0.220 C 
ATOM      4  O   UNL A   1      30.321  29.472  22.857  1.00  0.00    -0.275 OA
ATOM      5  H   UNL A   1      30.951  31.285  24.195  1.00  0.00     0.163 HD
BRANCH   3   6
ATOM      6  C   UNL A   1      30.650  27.965  24.701  1.00  0.00     0.107 C 
BRANCH   6   7
ATOM      7  C   UNL A   1      31.679  26.882  24.241  1.00  0.00    -0.012 C 
ATOM      8  C   UNL A   1      32.248  26.234  25.527  1.00  0.00     0.008 C 
ATOM      9  C   UNL A   1      32.981  27.485  23.676  1.00  0.00     0.008 C 
ATOM     10  C   UNL A   1      33.295  27.212  26.064  1.00  0.00     0.001 C 
ATOM     11  C   UNL A   1      33.817  27.968  24.851  1.00  0.00     0.001 C 
BRANCH   7  12
ATOM     12  C   UNL A   1      31.064  25.912  23.185  1.00  0.00     0.108 C 
BRANCH  12  13
ATOM     13  C   UNL A   1      31.778  25.702  21.858  1.00  0.00     0.224 C 
ATOM     14  N   UNL A   1      32.801  24.812  21.685  1.00  0.00    -0.326 N 
ATOM     15  H   UNL A   1      33.217  24.844  20.794  1.00  0.00     0.169 HD
ATOM     16  O   UNL A   1      31.406  26.326  20.859  1.00  0.00    -0.275 OA
BRANCH  14  17
ATOM     17  C   UNL A   1      33.365  23.860  22.550  1.00  0.00     0.044 A 
ATOM     18  C   UNL A   1      34.526  21.656  27.110  1.00  0.00     0.045 C 
ATOM     19  C   UNL A   1      33.896  21.182  25.833  1.00  0.00    -0.033 A 
ATOM     20  C   UNL A   1      33.279  19.995  25.752  1.00  0.00     0.098 A 
ATOM     21  C   UNL A   1      33.866  22.058  24.657  1.00  0.00     0.021 A 
ATOM     22  C   UNL A   1      32.555  19.541  24.553  1.00  0.00     0.336 A 
ATOM     23  C   UNL A   1      33.052  21.707  23.581  1.00  0.00     0.140 A 
ATOM     24  C   UNL A   1      34.569  23.259  24.567  1.00  0.00     0.014 A 
ATOM     25  O   UNL A   1      32.082  18.412  24.498  1.00  0.00    -0.246 OA
ATOM     26  O   UNL A   1      32.397  20.463  23.533  1.00  0.00    -0.423 OA
ATOM     27  C   UNL A   1      32.802  22.584  22.523  1.00  0.00     0.074 A 
ATOM     28  C   UNL A   1      34.339  24.140  23.502  1.00  0.00     0.027 A 
ENDBRANCH  14  17
ENDBRANCH  12  13
ENDBRANCH   7  12
ENDBRANCH   6   7
ENDBRANCH   3   6
ENDBRANCH   1   2
BRANCH   1  29
ATOM     29  C   UNL A   1      31.404  32.086  26.495  1.00  0.00     0.042 C 
BRANCH  29  30
ATOM     30  C   UNL A   1      32.644  32.581  27.212  1.00  0.00     0.118 C 
BRANCH  30  31
ATOM     31  N   UNL A   1      32.521  33.968  27.625  1.00  0.00    -0.352 N 
ATOM     32  C   UNL A   1      33.172  34.646  28.624  1.00  0.00     0.251 C 
ATOM     33  H   UNL A   1      31.873  34.501  27.112  1.00  0.00     0.163 HD
ATOM     34  O   UNL A   1      32.759  35.757  28.970  1.00  0.00    -0.269 OA
BRANCH  32  35
ATOM     35  C   UNL A   1      34.344  34.055  29.306  1.00  0.00     0.039 A 
ATOM     36  C   UNL A   1      34.138  33.148  30.350  1.00  0.00     0.014 A 
ATOM     37  C   UNL A   1      35.647  34.409  28.945  1.00  0.00     0.014 A 
ATOM     38  C   UNL A   1      35.232  32.559  30.988  1.00  0.00     0.010 A 
ATOM     39  C   UNL A   1      36.730  33.740  29.503  1.00  0.00     0.010 A 
ATOM     40  C   UNL A   1      36.539  32.825  30.547  1.00  0.00    -0.014 A 
BRANCH  40  41
ATOM     41  C   UNL A   1      37.724  32.202  31.188  1.00  0.00     0.031 A 
ATOM     42  C   UNL A   1      38.462  31.098  30.477  1.00  0.00     0.074 A 
ATOM     43  C   UNL A   1      38.092  32.568  32.432  1.00  0.00     0.049 A 
ATOM     44  N   UNL A   1      39.436  30.340  30.908  1.00  0.00    -0.248 NA
ATOM     45  C   UNL A   1      38.019  30.782  29.108  1.00  0.00     0.031 C 
ATOM     46  C   UNL A   1      37.438  33.597  33.241  1.00  0.00     0.029 A 
ATOM     47  N   UNL A   1      39.100  32.103  33.238  1.00  0.00    -0.354 N 
ATOM     48  C   UNL A   1      39.702  29.444  29.878  1.00  0.00     0.074 A 
ATOM     49  C   UNL A   1      38.751  29.716  28.824  1.00  0.00     0.031 C 
ATOM     50  C   UNL A   1      38.074  33.699  34.420  1.00  0.00     0.029 A 
ATOM     51  C   UNL A   1      39.150  32.713  34.467  1.00  0.00     0.049 A 
ATOM     52  H   UNL A   1      39.729  31.397  32.961  1.00  0.00     0.167 HD
ATOM     53  C   UNL A   1      40.667  28.498  29.806  1.00  0.00     0.037 A 
ATOM     54  C   UNL A   1      39.960  32.494  35.519  1.00  0.00     0.037 A 
ATOM     55  C   UNL A   1      41.637  28.258  30.840  1.00  0.00     0.049 A 
ATOM     56  C   UNL A   1      41.023  31.433  35.417  1.00  0.00     0.074 A 
ATOM     57  C   UNL A   1      42.695  27.366  30.840  1.00  0.00     0.029 A 
ATOM     58  N   UNL A   1      41.668  28.916  32.060  1.00  0.00    -0.354 N 
ATOM     59  N   UNL A   1      41.298  30.632  34.417  1.00  0.00    -0.248 NA
ATOM     60  C   UNL A   1      41.889  31.247  36.591  1.00  0.00     0.031 C 
ATOM     61  C   UNL A   1      43.339  27.454  32.077  1.00  0.00     0.029 A 
ATOM     62  C   UNL A   1      42.714  28.436  32.829  1.00  0.00     0.049 A 
ATOM     63  H   UNL A   1      41.039  29.621  32.339  1.00  0.00     0.167 HD
ATOM     64  C   UNL A   1      42.387  29.872  34.824  1.00  0.00     0.074 A 
ATOM     65  C   UNL A   1      42.727  30.313  36.162  1.00  0.00     0.031 C 
ATOM     66  C   UNL A   1      43.049  28.899  34.151  1.00  0.00     0.037 A 
BRANCH  53  67
ATOM     67  C   UNL A   1      40.724  27.657  28.564  1.00  0.00     0.057 A 
ATOM     68  C   UNL A   1      41.509  28.017  27.461  1.00  0.00     0.134 A 
ATOM     69  C   UNL A   1      40.007  26.456  28.480  1.00  0.00     0.134 A 
ATOM     70  F   UNL A   1      42.211  29.162  27.469  1.00  0.00    -0.206 F 
ATOM     71  C   UNL A   1      41.557  27.229  26.309  1.00  0.00     0.040 A 
ATOM     72  C   UNL A   1      40.070  25.645  27.346  1.00  0.00     0.040 A 
ATOM     73  F   UNL A   1      39.239  26.048  29.502  1.00  0.00    -0.206 F 
ATOM     74  C   UNL A   1      40.841  26.035  26.252  1.00  0.00     0.006 A 
ENDBRANCH  53  67
BRANCH  54  75
ATOM     75  C   UNL A   1      39.815  33.305  36.754  1.00  0.00     0.057 A 
ATOM     76  C   UNL A   1      38.912  32.934  37.758  1.00  0.00     0.134 A 
ATOM     77  C   UNL A   1      40.564  34.470  36.960  1.00  0.00     0.134 A 
ATOM     78  F   UNL A   1      38.153  31.840  37.611  1.00  0.00    -0.206 F 
ATOM     79  C   UNL A   1      38.746  33.702  38.912  1.00  0.00     0.040 A 
ATOM     80  C   UNL A   1      40.426  35.233  38.121  1.00  0.00     0.040 A 
ATOM     81  F   UNL A   1      41.454  34.875  36.042  1.00  0.00    -0.206 F 
ATOM     82  C   UNL A   1      39.508  34.853  39.097  1.00  0.00     0.006 A 
ENDBRANCH  54  75
BRANCH  66  83
ATOM     83  C   UNL A   1      44.234  28.276  34.826  1.00  0.00     0.057 A 
ATOM     84  C   UNL A   1      44.119  27.119  35.605  1.00  0.00     0.134 A 
ATOM     85  C   UNL A   1      45.516  28.809  34.639  1.00  0.00     0.134 A 
ATOM     86  F   UNL A   1      42.918  26.567  35.831  1.00  0.00    -0.206 F 
ATOM     87  C   UNL A   1      45.238  26.522  36.189  1.00  0.00     0.040 A 
ATOM     88  C   UNL A   1      46.645  28.207  35.196  1.00  0.00     0.040 A 
ATOM     89  F   UNL A   1      45.694  29.912  33.896  1.00  0.00    -0.206 F 
ATOM     90  C   UNL A   1      46.506  27.061  35.977  1.00  0.00     0.006 A 
ENDBRANCH  66  83
ENDBRANCH  40  41
ENDBRANCH  32  35
ENDBRANCH  30  31
ENDBRANCH  29  30
ENDBRANCH   1  29
TORSDOF 14
ENDMDL
