MODEL 1
REMARK VINA RESULT:     -13.4      0.000      0.000
REMARK SMILES Cc1cc(C(=O)N[C@H]2C=C[C@H](C(=O)NCCCNC(=O)c3ccc(-c4c5nc(c(-c6c(F)cccc6F)c6ccc([nH]6)c(-c6c(F)cccc6F)c6nc(c(-c7c(F)cccc7F)c7ccc4[nH]7)C=C6)C=C5)cc3)C2)ccc1F
REMARK SMILES IDX 16 1 15 2 14 3 12 4 13 5 11 7 8 8 9 9 75 10 10 11 7 12 5 13
REMARK SMILES IDX 6 14 4 16 1 17 2 18 3 19 78 20 77 21 79 22 76 23 17 24 18 25
REMARK SMILES IDX 19 26 20 28 21 29 22 30 74 31 23 32 73 33 24 34 25 35 26 36
REMARK SMILES IDX 67 37 27 38 72 39 66 40 68 41 28 42 71 43 65 44 64 45 29 47
REMARK SMILES IDX 55 48 38 49 54 50 39 51 42 52 53 53 69 54 40 55 41 56 52 58
REMARK SMILES IDX 70 59 43 60 30 61 31 62 36 63 32 64 33 65 35 66 37 67 34 68
REMARK SMILES IDX 56 69 57 70 62 71 58 72 59 73 61 74 63 75 60 76 44 77 45 78
REMARK SMILES IDX 50 79 46 80 47 81 49 82 51 83 48 84
REMARK H PARENT 14 6 7 15 18 27 68 46 42 57
REMARK Flexibility Score: inf
ROOT
ATOM      1  C   UNL A   1      33.393  29.214  26.986  1.00  0.00     0.042 C 
ENDROOT
BRANCH   1   2
ATOM      2  C   UNL A   1      32.885  29.794  25.667  1.00  0.00     0.117 C 
BRANCH   2   3
ATOM      3  N   UNL A   1      33.095  28.872  24.566  1.00  0.00    -0.356 N 
ATOM      4  C   UNL A   1      32.292  27.933  24.007  1.00  0.00     0.227 C 
ATOM      5  O   UNL A   1      32.830  27.191  23.176  1.00  0.00    -0.274 OA
ATOM      6  H   UNL A   1      33.985  28.940  24.149  1.00  0.00     0.163 HD
BRANCH   4   7
ATOM      7  C   UNL A   1      30.778  27.799  24.288  1.00  0.00     0.103 C 
ATOM      8  C   UNL A   1      30.632  25.645  25.333  1.00  0.00     0.106 C 
ATOM      9  C   UNL A   1      29.817  25.664  24.077  1.00  0.00    -0.006 C 
ATOM     10  C   UNL A   1      30.641  27.136  25.669  1.00  0.00     0.047 C 
ATOM     11  C   UNL A   1      29.920  26.864  23.485  1.00  0.00    -0.016 C 
BRANCH   8  12
ATOM     12  N   UNL A   1      30.050  24.797  26.332  1.00  0.00    -0.346 N 
ATOM     13  C   UNL A   1      30.403  23.525  26.721  1.00  0.00     0.251 C 
ATOM     14  O   UNL A   1      29.750  22.984  27.612  1.00  0.00    -0.269 OA
ATOM     15  H   UNL A   1      29.283  25.183  26.813  1.00  0.00     0.164 HD
BRANCH  13  16
ATOM     16  C   UNL A   1      31.591  22.815  26.164  1.00  0.00     0.040 A 
ATOM     17  C   UNL A   1      32.579  20.004  23.782  1.00  0.00     0.047 C 
ATOM     18  C   UNL A   1      32.670  21.133  24.764  1.00  0.00    -0.015 A 
ATOM     19  C   UNL A   1      31.518  21.669  25.360  1.00  0.00     0.020 A 
ATOM     20  C   UNL A   1      33.911  21.682  25.089  1.00  0.00     0.126 A 
ATOM     21  C   UNL A   1      34.013  22.763  25.958  1.00  0.00     0.040 A 
ATOM     22  F   UNL A   1      35.029  21.165  24.561  1.00  0.00    -0.207 F 
ATOM     23  C   UNL A   1      32.854  23.338  26.484  1.00  0.00     0.017 A 
ENDBRANCH  13  16
ENDBRANCH   8  12
ENDBRANCH   4   7
ENDBRANCH   2   3
ENDBRANCH   1   2
BRANCH   1  24
ATOM     24  C   UNL A   1      34.909  29.255  27.023  1.00  0.00     0.118 C 
BRANCH  24  25
ATOM     25  N   UNL A   1      35.417  30.594  27.334  1.00  0.00    -0.352 N 
ATOM     26  C   UNL A   1      36.551  30.941  28.036  1.00  0.00     0.251 C 
ATOM     27  H   UNL A   1      34.876  31.345  26.997  1.00  0.00     0.163 HD
ATOM     28  O   UNL A   1      36.755  32.097  28.380  1.00  0.00    -0.269 OA
BRANCH  26  29
ATOM     29  C   UNL A   1      37.527  29.888  28.349  1.00  0.00     0.039 A 
ATOM     30  C   UNL A   1      37.463  29.156  29.542  1.00  0.00     0.014 A 
ATOM     31  C   UNL A   1      38.543  29.664  27.428  1.00  0.00     0.014 A 
ATOM     32  C   UNL A   1      38.430  28.182  29.796  1.00  0.00     0.010 A 
ATOM     33  C   UNL A   1      39.369  28.590  27.583  1.00  0.00     0.010 A 
ATOM     34  C   UNL A   1      39.382  27.919  28.809  1.00  0.00    -0.014 A 
BRANCH  34  35
ATOM     35  C   UNL A   1      40.597  27.145  28.993  1.00  0.00     0.031 A 
ATOM     36  C   UNL A   1      40.709  25.732  28.629  1.00  0.00     0.074 A 
ATOM     37  C   UNL A   1      41.685  27.898  29.267  1.00  0.00     0.049 A 
ATOM     38  N   UNL A   1      41.634  24.952  29.073  1.00  0.00    -0.248 NA
ATOM     39  C   UNL A   1      39.786  25.078  27.709  1.00  0.00     0.031 C 
ATOM     40  C   UNL A   1      43.092  27.588  29.091  1.00  0.00     0.029 A 
ATOM     41  N   UNL A   1      41.685  29.168  29.850  1.00  0.00    -0.354 N 
ATOM     42  C   UNL A   1      41.637  23.831  28.275  1.00  0.00     0.074 A 
ATOM     43  C   UNL A   1      40.407  23.907  27.515  1.00  0.00     0.031 C 
ATOM     44  C   UNL A   1      43.819  28.498  29.769  1.00  0.00     0.029 A 
ATOM     45  C   UNL A   1      42.890  29.315  30.540  1.00  0.00     0.049 A 
ATOM     46  H   UNL A   1      40.967  29.837  29.786  1.00  0.00     0.167 HD
ATOM     47  C   UNL A   1      42.764  23.063  28.207  1.00  0.00     0.037 A 
ATOM     48  C   UNL A   1      42.842  29.379  31.905  1.00  0.00     0.037 A 
ATOM     49  C   UNL A   1      43.832  23.632  29.032  1.00  0.00     0.049 A 
ATOM     50  C   UNL A   1      43.467  28.167  32.551  1.00  0.00     0.074 A 
ATOM     51  C   UNL A   1      44.910  24.444  28.712  1.00  0.00     0.029 A 
ATOM     52  N   UNL A   1      43.685  23.708  30.415  1.00  0.00    -0.354 N 
ATOM     53  N   UNL A   1      43.630  27.024  31.946  1.00  0.00    -0.248 NA
ATOM     54  C   UNL A   1      43.989  28.157  33.914  1.00  0.00     0.031 C 
ATOM     55  C   UNL A   1      45.358  25.073  29.900  1.00  0.00     0.029 A 
ATOM     56  C   UNL A   1      44.572  24.627  30.947  1.00  0.00     0.049 A 
ATOM     57  H   UNL A   1      43.039  23.181  30.940  1.00  0.00     0.167 HD
ATOM     58  C   UNL A   1      44.282  26.153  32.772  1.00  0.00     0.074 A 
ATOM     59  C   UNL A   1      44.483  26.908  33.996  1.00  0.00     0.031 C 
ATOM     60  C   UNL A   1      44.613  24.889  32.379  1.00  0.00     0.037 A 
BRANCH  47  61
ATOM     61  C   UNL A   1      42.988  22.024  27.130  1.00  0.00     0.057 A 
ATOM     62  C   UNL A   1      42.275  20.808  27.120  1.00  0.00     0.134 A 
ATOM     63  C   UNL A   1      43.923  22.155  26.090  1.00  0.00     0.134 A 
ATOM     64  F   UNL A   1      41.271  20.567  27.971  1.00  0.00    -0.206 F 
ATOM     65  C   UNL A   1      42.556  19.764  26.227  1.00  0.00     0.040 A 
ATOM     66  C   UNL A   1      44.248  21.104  25.218  1.00  0.00     0.040 A 
ATOM     67  F   UNL A   1      44.538  23.323  25.853  1.00  0.00    -0.206 F 
ATOM     68  C   UNL A   1      43.573  19.895  25.295  1.00  0.00     0.006 A 
ENDBRANCH  47  61
BRANCH  48  69
ATOM     69  C   UNL A   1      41.640  30.119  32.398  1.00  0.00     0.057 A 
ATOM     70  C   UNL A   1      40.560  29.363  32.893  1.00  0.00     0.134 A 
ATOM     71  C   UNL A   1      41.706  31.459  32.803  1.00  0.00     0.134 A 
ATOM     72  F   UNL A   1      40.438  28.068  32.558  1.00  0.00    -0.206 F 
ATOM     73  C   UNL A   1      39.659  29.876  33.833  1.00  0.00     0.040 A 
ATOM     74  C   UNL A   1      40.809  31.983  33.746  1.00  0.00     0.040 A 
ATOM     75  F   UNL A   1      42.713  32.246  32.395  1.00  0.00    -0.206 F 
ATOM     76  C   UNL A   1      39.806  31.182  34.290  1.00  0.00     0.006 A 
ENDBRANCH  48  69
BRANCH  60  77
ATOM     77  C   UNL A   1      45.095  23.797  33.292  1.00  0.00     0.057 A 
ATOM     78  C   UNL A   1      46.379  23.763  33.849  1.00  0.00     0.134 A 
ATOM     79  C   UNL A   1      44.193  22.826  33.782  1.00  0.00     0.134 A 
ATOM     80  F   UNL A   1      47.301  24.686  33.544  1.00  0.00    -0.206 F 
ATOM     81  C   UNL A   1      46.755  22.805  34.799  1.00  0.00     0.040 A 
ATOM     82  C   UNL A   1      44.540  21.905  34.771  1.00  0.00     0.040 A 
ATOM     83  F   UNL A   1      42.928  22.751  33.343  1.00  0.00    -0.206 F 
ATOM     84  C   UNL A   1      45.831  21.885  35.276  1.00  0.00     0.006 A 
ENDBRANCH  60  77
ENDBRANCH  34  35
ENDBRANCH  26  29
ENDBRANCH  24  25
ENDBRANCH   1  24
TORSDOF 12
ENDMDL
MODEL 2
REMARK VINA RESULT:     -13.1      1.766      2.531
REMARK SMILES Cc1cc(C(=O)N[C@H]2C=C[C@H](C(=O)NCCCNC(=O)c3ccc(-c4c5nc(c(-c6c(F)cccc6F)c6ccc([nH]6)c(-c6c(F)cccc6F)c6nc(c(-c7c(F)cccc7F)c7ccc4[nH]7)C=C6)C=C5)cc3)C2)ccc1F
REMARK SMILES IDX 16 1 15 2 14 3 12 4 13 5 11 7 8 8 9 9 75 10 10 11 7 12 5 13
REMARK SMILES IDX 6 14 4 16 1 17 2 18 3 19 78 20 77 21 79 22 76 23 17 24 18 25
REMARK SMILES IDX 19 26 20 28 21 29 22 30 74 31 23 32 73 33 24 34 25 35 26 36
REMARK SMILES IDX 67 37 27 38 72 39 66 40 68 41 28 42 71 43 65 44 64 45 29 47
REMARK SMILES IDX 55 48 38 49 54 50 39 51 42 52 53 53 69 54 40 55 41 56 52 58
REMARK SMILES IDX 70 59 43 60 30 61 31 62 36 63 32 64 33 65 35 66 37 67 34 68
REMARK SMILES IDX 56 69 57 70 62 71 58 72 59 73 61 74 63 75 60 76 44 77 45 78
REMARK SMILES IDX 50 79 46 80 47 81 49 82 51 83 48 84
REMARK H PARENT 14 6 7 15 18 27 68 46 42 57
REMARK Flexibility Score: inf
ROOT
ATOM      1  C   UNL A   1      32.200  28.692  27.447  1.00  0.00     0.042 C 
ENDROOT
BRANCH   1   2
ATOM      2  C   UNL A   1      31.718  27.943  26.205  1.00  0.00     0.117 C 
BRANCH   2   3
ATOM      3  N   UNL A   1      31.188  26.636  26.546  1.00  0.00    -0.356 N 
ATOM      4  C   UNL A   1      30.289  25.834  25.924  1.00  0.00     0.227 C 
ATOM      5  O   UNL A   1      29.923  24.839  26.561  1.00  0.00    -0.274 OA
ATOM      6  H   UNL A   1      31.548  26.263  27.384  1.00  0.00     0.163 HD
BRANCH   4   7
ATOM      7  C   UNL A   1      29.776  26.052  24.482  1.00  0.00     0.103 C 
ATOM      8  C   UNL A   1      31.653  25.372  23.153  1.00  0.00     0.106 C 
ATOM      9  C   UNL A   1      31.321  26.806  22.878  1.00  0.00    -0.006 C 
ATOM     10  C   UNL A   1      30.294  24.871  23.644  1.00  0.00     0.047 C 
ATOM     11  C   UNL A   1      30.284  27.188  23.641  1.00  0.00    -0.016 C 
BRANCH   8  12
ATOM     12  N   UNL A   1      32.163  24.711  21.987  1.00  0.00    -0.346 N 
ATOM     13  C   UNL A   1      33.143  23.753  21.876  1.00  0.00     0.251 C 
ATOM     14  O   UNL A   1      33.419  23.325  20.756  1.00  0.00    -0.269 OA
ATOM     15  H   UNL A   1      31.748  24.985  21.137  1.00  0.00     0.164 HD
BRANCH  13  16
ATOM     16  C   UNL A   1      33.822  23.156  23.063  1.00  0.00     0.040 A 
ATOM     17  C   UNL A   1      36.741  23.703  25.457  1.00  0.00     0.047 C 
ATOM     18  C   UNL A   1      35.537  23.100  24.797  1.00  0.00    -0.015 A 
ATOM     19  C   UNL A   1      35.027  23.628  23.601  1.00  0.00     0.020 A 
ATOM     20  C   UNL A   1      34.892  22.007  25.378  1.00  0.00     0.126 A 
ATOM     21  C   UNL A   1      33.745  21.466  24.809  1.00  0.00     0.040 A 
ATOM     22  F   UNL A   1      35.381  21.463  26.501  1.00  0.00    -0.207 F 
ATOM     23  C   UNL A   1      33.202  22.048  23.662  1.00  0.00     0.017 A 
ENDBRANCH  13  16
ENDBRANCH   8  12
ENDBRANCH   4   7
ENDBRANCH   2   3
ENDBRANCH   1   2
BRANCH   1  24
ATOM     24  C   UNL A   1      33.630  29.159  27.250  1.00  0.00     0.118 C 
BRANCH  24  25
ATOM     25  N   UNL A   1      33.811  30.561  27.637  1.00  0.00    -0.352 N 
ATOM     26  C   UNL A   1      34.830  31.124  28.373  1.00  0.00     0.251 C 
ATOM     27  H   UNL A   1      33.110  31.182  27.330  1.00  0.00     0.163 HD
ATOM     28  O   UNL A   1      34.759  32.276  28.778  1.00  0.00    -0.269 OA
BRANCH  26  29
ATOM     29  C   UNL A   1      36.025  30.312  28.646  1.00  0.00     0.039 A 
ATOM     30  C   UNL A   1      36.229  29.698  29.889  1.00  0.00     0.014 A 
ATOM     31  C   UNL A   1      36.968  30.201  27.632  1.00  0.00     0.014 A 
ATOM     32  C   UNL A   1      37.392  28.956  30.099  1.00  0.00     0.010 A 
ATOM     33  C   UNL A   1      38.004  29.325  27.768  1.00  0.00     0.010 A 
ATOM     34  C   UNL A   1      38.274  28.787  29.030  1.00  0.00    -0.014 A 
BRANCH  34  35
ATOM     35  C   UNL A   1      39.632  28.282  29.127  1.00  0.00     0.031 A 
ATOM     36  C   UNL A   1      40.022  26.944  28.679  1.00  0.00     0.074 A 
ATOM     37  C   UNL A   1      40.548  29.235  29.406  1.00  0.00     0.049 A 
ATOM     38  N   UNL A   1      41.109  26.359  29.046  1.00  0.00    -0.248 NA
ATOM     39  C   UNL A   1      39.216  26.154  27.756  1.00  0.00     0.031 C 
ATOM     40  C   UNL A   1      41.979  29.241  29.164  1.00  0.00     0.029 A 
ATOM     41  N   UNL A   1      40.307  30.446  30.061  1.00  0.00    -0.354 N 
ATOM     42  C   UNL A   1      41.312  25.304  28.185  1.00  0.00     0.074 A 
ATOM     43  C   UNL A   1      40.060  25.154  27.474  1.00  0.00     0.031 C 
ATOM     44  C   UNL A   1      42.528  30.250  29.867  1.00  0.00     0.029 A 
ATOM     45  C   UNL A   1      41.485  30.813  30.715  1.00  0.00     0.049 A 
ATOM     46  H   UNL A   1      39.462  30.950  30.060  1.00  0.00     0.167 HD
ATOM     47  C   UNL A   1      42.571  24.798  28.035  1.00  0.00     0.037 A 
ATOM     48  C   UNL A   1      41.487  30.799  32.083  1.00  0.00     0.037 A 
ATOM     49  C   UNL A   1      43.532  25.540  28.854  1.00  0.00     0.049 A 
ATOM     50  C   UNL A   1      42.382  29.718  32.637  1.00  0.00     0.074 A 
ATOM     51  C   UNL A   1      44.399  26.577  28.544  1.00  0.00     0.029 A 
ATOM     52  N   UNL A   1      43.436  25.516  30.243  1.00  0.00    -0.354 N 
ATOM     53  N   UNL A   1      42.754  28.666  31.962  1.00  0.00    -0.248 NA
ATOM     54  C   UNL A   1      42.957  29.753  33.978  1.00  0.00     0.031 C 
ATOM     55  C   UNL A   1      44.759  27.229  29.750  1.00  0.00     0.029 A 
ATOM     56  C   UNL A   1      44.133  26.575  30.796  1.00  0.00     0.049 A 
ATOM     57  H   UNL A   1      42.941  24.839  30.760  1.00  0.00     0.167 HD
ATOM     58  C   UNL A   1      43.612  27.915  32.714  1.00  0.00     0.074 A 
ATOM     59  C   UNL A   1      43.705  28.635  33.972  1.00  0.00     0.031 C 
ATOM     60  C   UNL A   1      44.183  26.771  32.238  1.00  0.00     0.037 A 
BRANCH  47  61
ATOM     61  C   UNL A   1      42.959  23.884  26.894  1.00  0.00     0.057 A 
ATOM     62  C   UNL A   1      43.036  22.486  27.062  1.00  0.00     0.134 A 
ATOM     63  C   UNL A   1      43.302  24.331  25.607  1.00  0.00     0.134 A 
ATOM     64  F   UNL A   1      42.637  21.885  28.190  1.00  0.00    -0.206 F 
ATOM     65  C   UNL A   1      43.530  21.622  26.074  1.00  0.00     0.040 A 
ATOM     66  C   UNL A   1      43.840  23.486  24.623  1.00  0.00     0.040 A 
ATOM     67  F   UNL A   1      43.096  25.603  25.237  1.00  0.00    -0.206 F 
ATOM     68  C   UNL A   1      43.971  22.126  24.861  1.00  0.00     0.006 A 
ENDBRANCH  47  61
BRANCH  48  69
ATOM     69  C   UNL A   1      40.180  31.241  32.659  1.00  0.00     0.057 A 
ATOM     70  C   UNL A   1      39.312  30.251  33.158  1.00  0.00     0.134 A 
ATOM     71  C   UNL A   1      39.978  32.547  33.127  1.00  0.00     0.134 A 
ATOM     72  F   UNL A   1      39.454  28.974  32.764  1.00  0.00    -0.206 F 
ATOM     73  C   UNL A   1      38.370  30.519  34.156  1.00  0.00     0.040 A 
ATOM     74  C   UNL A   1      39.036  32.826  34.128  1.00  0.00     0.040 A 
ATOM     75  F   UNL A   1      40.771  33.548  32.719  1.00  0.00    -0.206 F 
ATOM     76  C   UNL A   1      38.256  31.806  34.671  1.00  0.00     0.006 A 
ENDBRANCH  48  69
BRANCH  60  77
ATOM     77  C   UNL A   1      44.926  25.763  33.070  1.00  0.00     0.057 A 
ATOM     78  C   UNL A   1      46.316  25.592  33.024  1.00  0.00     0.134 A 
ATOM     79  C   UNL A   1      44.259  25.049  34.090  1.00  0.00     0.134 A 
ATOM     80  F   UNL A   1      47.079  26.284  32.167  1.00  0.00    -0.206 F 
ATOM     81  C   UNL A   1      46.992  24.740  33.904  1.00  0.00     0.040 A 
ATOM     82  C   UNL A   1      44.931  24.243  35.010  1.00  0.00     0.040 A 
ATOM     83  F   UNL A   1      42.930  25.129  34.257  1.00  0.00    -0.206 F 
ATOM     84  C   UNL A   1      46.303  24.076  34.912  1.00  0.00     0.006 A 
ENDBRANCH  60  77
ENDBRANCH  34  35
ENDBRANCH  26  29
ENDBRANCH  24  25
ENDBRANCH   1  24
TORSDOF 12
ENDMDL
MODEL 3
REMARK VINA RESULT:     -13.1      4.068      9.419
REMARK SMILES Cc1cc(C(=O)N[C@H]2C=C[C@H](C(=O)NCCCNC(=O)c3ccc(-c4c5nc(c(-c6c(F)cccc6F)c6ccc([nH]6)c(-c6c(F)cccc6F)c6nc(c(-c7c(F)cccc7F)c7ccc4[nH]7)C=C6)C=C5)cc3)C2)ccc1F
REMARK SMILES IDX 16 1 15 2 14 3 12 4 13 5 11 7 8 8 9 9 75 10 10 11 7 12 5 13
REMARK SMILES IDX 6 14 4 16 1 17 2 18 3 19 78 20 77 21 79 22 76 23 17 24 18 25
REMARK SMILES IDX 19 26 20 28 21 29 22 30 74 31 23 32 73 33 24 34 25 35 26 36
REMARK SMILES IDX 67 37 27 38 72 39 66 40 68 41 28 42 71 43 65 44 64 45 29 47
REMARK SMILES IDX 55 48 38 49 54 50 39 51 42 52 53 53 69 54 40 55 41 56 52 58
REMARK SMILES IDX 70 59 43 60 30 61 31 62 36 63 32 64 33 65 35 66 37 67 34 68
REMARK SMILES IDX 56 69 57 70 62 71 58 72 59 73 61 74 63 75 60 76 44 77 45 78
REMARK SMILES IDX 50 79 46 80 47 81 49 82 51 83 48 84
REMARK H PARENT 14 6 7 15 18 27 68 46 42 57
REMARK Flexibility Score: inf
ROOT
ATOM      1  C   UNL A   1      37.336  23.071  24.989  1.00  0.00     0.042 C 
ENDROOT
BRANCH   1   2
ATOM      2  C   UNL A   1      36.822  21.724  25.493  1.00  0.00     0.117 C 
BRANCH   2   3
ATOM      3  N   UNL A   1      35.803  21.892  26.513  1.00  0.00    -0.356 N 
ATOM      4  C   UNL A   1      34.449  21.848  26.453  1.00  0.00     0.227 C 
ATOM      5  O   UNL A   1      33.854  22.197  27.481  1.00  0.00    -0.274 OA
ATOM      6  H   UNL A   1      36.161  22.071  27.412  1.00  0.00     0.163 HD
BRANCH   4   7
ATOM      7  C   UNL A   1      33.644  21.332  25.240  1.00  0.00     0.103 C 
ATOM      8  C   UNL A   1      32.353  23.255  24.617  1.00  0.00     0.106 C 
ATOM      9  C   UNL A   1      31.445  22.121  24.977  1.00  0.00    -0.006 C 
ATOM     10  C   UNL A   1      33.606  22.478  24.214  1.00  0.00     0.047 C 
ATOM     11  C   UNL A   1      32.172  21.055  25.347  1.00  0.00    -0.016 C 
BRANCH   8  12
ATOM     12  N   UNL A   1      31.789  24.082  23.589  1.00  0.00    -0.346 N 
ATOM     13  C   UNL A   1      31.678  25.451  23.523  1.00  0.00     0.251 C 
ATOM     14  O   UNL A   1      31.149  25.947  22.529  1.00  0.00    -0.269 OA
ATOM     15  H   UNL A   1      31.428  23.595  22.813  1.00  0.00     0.164 HD
BRANCH  13  16
ATOM     16  C   UNL A   1      32.244  26.355  24.566  1.00  0.00     0.040 A 
ATOM     17  C   UNL A   1      31.360  28.114  27.833  1.00  0.00     0.047 C 
ATOM     18  C   UNL A   1      32.126  27.647  26.632  1.00  0.00    -0.015 A 
ATOM     19  C   UNL A   1      31.499  26.913  25.614  1.00  0.00     0.020 A 
ATOM     20  C   UNL A   1      33.490  27.923  26.519  1.00  0.00     0.126 A 
ATOM     21  C   UNL A   1      34.229  27.455  25.438  1.00  0.00     0.040 A 
ATOM     22  F   UNL A   1      34.104  28.653  27.460  1.00  0.00    -0.207 F 
ATOM     23  C   UNL A   1      33.611  26.660  24.470  1.00  0.00     0.017 A 
ENDBRANCH  13  16
ENDBRANCH   8  12
ENDBRANCH   4   7
ENDBRANCH   2   3
ENDBRANCH   1   2
BRANCH   1  24
ATOM     24  C   UNL A   1      37.806  23.918  26.156  1.00  0.00     0.118 C 
BRANCH  24  25
ATOM     25  N   UNL A   1      38.935  23.306  26.863  1.00  0.00    -0.352 N 
ATOM     26  C   UNL A   1      39.979  23.925  27.515  1.00  0.00     0.251 C 
ATOM     27  H   UNL A   1      38.948  22.321  26.873  1.00  0.00     0.163 HD
ATOM     28  O   UNL A   1      40.950  23.292  27.903  1.00  0.00    -0.269 OA
BRANCH  26  29
ATOM     29  C   UNL A   1      39.891  25.373  27.754  1.00  0.00     0.039 A 
ATOM     30  C   UNL A   1      40.385  26.303  26.829  1.00  0.00     0.014 A 
ATOM     31  C   UNL A   1      39.326  25.791  28.953  1.00  0.00     0.014 A 
ATOM     32  C   UNL A   1      40.293  27.665  27.118  1.00  0.00     0.010 A 
ATOM     33  C   UNL A   1      39.063  27.114  29.150  1.00  0.00     0.010 A 
ATOM     34  C   UNL A   1      39.638  28.053  28.288  1.00  0.00    -0.014 A 
BRANCH  34  35
ATOM     35  C   UNL A   1      39.674  29.380  28.876  1.00  0.00     0.031 A 
ATOM     36  C   UNL A   1      38.607  30.366  28.694  1.00  0.00     0.074 A 
ATOM     37  C   UNL A   1      40.630  29.532  29.820  1.00  0.00     0.049 A 
ATOM     38  N   UNL A   1      38.756  31.627  28.914  1.00  0.00    -0.248 NA
ATOM     39  C   UNL A   1      37.264  30.004  28.259  1.00  0.00     0.031 C 
ATOM     40  C   UNL A   1      40.715  30.494  30.903  1.00  0.00     0.029 A 
ATOM     41  N   UNL A   1      41.812  28.794  29.923  1.00  0.00    -0.354 N 
ATOM     42  C   UNL A   1      37.497  32.178  28.978  1.00  0.00     0.074 A 
ATOM     43  C   UNL A   1      36.612  31.157  28.459  1.00  0.00     0.031 C 
ATOM     44  C   UNL A   1      41.967  30.468  31.400  1.00  0.00     0.029 A 
ATOM     45  C   UNL A   1      42.766  29.611  30.534  1.00  0.00     0.049 A 
ATOM     46  H   UNL A   1      41.948  27.867  29.621  1.00  0.00     0.167 HD
ATOM     47  C   UNL A   1      37.320  33.362  29.635  1.00  0.00     0.037 A 
ATOM     48  C   UNL A   1      43.831  30.022  29.781  1.00  0.00     0.037 A 
ATOM     49  C   UNL A   1      38.583  33.836  30.205  1.00  0.00     0.049 A 
ATOM     50  C   UNL A   1      43.798  31.508  29.518  1.00  0.00     0.074 A 
ATOM     51  C   UNL A   1      39.117  33.725  31.480  1.00  0.00     0.029 A 
ATOM     52  N   UNL A   1      39.640  34.189  29.371  1.00  0.00    -0.354 N 
ATOM     53  N   UNL A   1      42.718  32.235  29.594  1.00  0.00    -0.248 NA
ATOM     54  C   UNL A   1      44.980  32.296  29.185  1.00  0.00     0.031 C 
ATOM     55  C   UNL A   1      40.515  33.934  31.394  1.00  0.00     0.029 A 
ATOM     56  C   UNL A   1      40.832  34.195  30.074  1.00  0.00     0.049 A 
ATOM     57  H   UNL A   1      39.552  34.404  28.413  1.00  0.00     0.167 HD
ATOM     58  C   UNL A   1      43.028  33.546  29.367  1.00  0.00     0.074 A 
ATOM     59  C   UNL A   1      44.458  33.534  29.111  1.00  0.00     0.031 C 
ATOM     60  C   UNL A   1      42.088  34.534  29.420  1.00  0.00     0.037 A 
BRANCH  47  61
ATOM     61  C   UNL A   1      35.959  33.878  30.047  1.00  0.00     0.057 A 
ATOM     62  C   UNL A   1      35.047  34.390  29.102  1.00  0.00     0.134 A 
ATOM     63  C   UNL A   1      35.502  33.925  31.375  1.00  0.00     0.134 A 
ATOM     64  F   UNL A   1      35.277  34.319  27.785  1.00  0.00    -0.206 F 
ATOM     65  C   UNL A   1      33.840  35.009  29.459  1.00  0.00     0.040 A 
ATOM     66  C   UNL A   1      34.318  34.580  31.753  1.00  0.00     0.040 A 
ATOM     67  F   UNL A   1      36.168  33.305  32.360  1.00  0.00    -0.206 F 
ATOM     68  C   UNL A   1      33.489  35.139  30.792  1.00  0.00     0.006 A 
ENDBRANCH  47  61
BRANCH  48  69
ATOM     69  C   UNL A   1      44.296  28.969  28.827  1.00  0.00     0.057 A 
ATOM     70  C   UNL A   1      43.929  29.100  27.474  1.00  0.00     0.134 A 
ATOM     71  C   UNL A   1      45.401  28.152  29.103  1.00  0.00     0.134 A 
ATOM     72  F   UNL A   1      42.887  29.876  27.133  1.00  0.00    -0.206 F 
ATOM     73  C   UNL A   1      44.689  28.544  26.439  1.00  0.00     0.040 A 
ATOM     74  C   UNL A   1      46.169  27.591  28.072  1.00  0.00     0.040 A 
ATOM     75  F   UNL A   1      45.831  27.988  30.362  1.00  0.00    -0.206 F 
ATOM     76  C   UNL A   1      45.836  27.817  26.737  1.00  0.00     0.006 A 
ENDBRANCH  48  69
BRANCH  60  77
ATOM     77  C   UNL A   1      42.288  35.945  28.941  1.00  0.00     0.057 A 
ATOM     78  C   UNL A   1      43.039  36.901  29.637  1.00  0.00     0.134 A 
ATOM     79  C   UNL A   1      41.863  36.327  27.649  1.00  0.00     0.134 A 
ATOM     80  F   UNL A   1      43.582  36.631  30.832  1.00  0.00    -0.206 F 
ATOM     81  C   UNL A   1      43.316  38.164  29.103  1.00  0.00     0.040 A 
ATOM     82  C   UNL A   1      42.185  37.562  27.084  1.00  0.00     0.040 A 
ATOM     83  F   UNL A   1      41.146  35.505  26.868  1.00  0.00    -0.206 F 
ATOM     84  C   UNL A   1      42.905  38.492  27.817  1.00  0.00     0.006 A 
ENDBRANCH  60  77
ENDBRANCH  34  35
ENDBRANCH  26  29
ENDBRANCH  24  25
ENDBRANCH   1  24
TORSDOF 12
ENDMDL
