MODEL 1
REMARK VINA RESULT:     -10.9      0.000      0.000
REMARK SMILES O=C(NCCCNC(=O)c1ccc(CNC(=O)c2cnns2)o1)c1ccc(-c2c3nc(c(-c4c(F)cccc4F)c4ccc([nH]4)c(-c4c(F)cccc4F)c4nc(c(-c5c(F)cccc5F)c5ccc2[nH]5)C=C4)C=C3)cc1
REMARK SMILES IDX 5 1 4 2 3 3 1 4 2 5 24 7 25 8 77 9 26 10 76 11 27 12 28 13
REMARK SMILES IDX 29 14 70 15 30 16 75 17 69 18 71 19 31 20 74 21 68 22 67 23
REMARK SMILES IDX 32 25 58 26 41 27 57 28 42 29 45 30 56 31 72 32 43 33 44 34
REMARK SMILES IDX 55 36 73 37 46 38 33 39 34 40 39 41 35 42 36 43 38 44 40 45
REMARK SMILES IDX 37 46 59 47 60 48 65 49 61 50 62 51 64 52 66 53 63 54 47 55
REMARK SMILES IDX 48 56 53 57 49 58 50 59 52 60 54 61 51 62 6 63 7 64 8 65
REMARK SMILES IDX 9 67 10 68 11 69 23 70 12 71 13 72 14 73 15 74 16 75 17 77
REMARK SMILES IDX 18 78 19 79 22 80 20 81 21 82
REMARK H PARENT 3 6 71 24 45 35 7 66 15 76
REMARK Flexibility Score: inf
ROOT
ATOM      1  C   UNL A   1      35.222  33.537  28.013  1.00  0.00     0.042 C 
ENDROOT
BRANCH   1   2
ATOM      2  C   UNL A   1      35.098  32.455  29.081  1.00  0.00     0.118 C 
BRANCH   2   3
ATOM      3  N   UNL A   1      34.430  31.257  28.588  1.00  0.00    -0.352 N 
ATOM      4  O   UNL A   1      34.206  29.244  27.615  1.00  0.00    -0.269 OA
ATOM      5  C   UNL A   1      34.942  30.050  28.178  1.00  0.00     0.251 C 
ATOM      6  H   UNL A   1      33.448  31.324  28.541  1.00  0.00     0.163 HD
BRANCH   5   7
ATOM      7  C   UNL A   1      36.368  29.712  28.394  1.00  0.00     0.039 A 
ATOM      8  C   UNL A   1      37.318  29.922  27.395  1.00  0.00     0.014 A 
ATOM      9  C   UNL A   1      36.771  29.228  29.645  1.00  0.00     0.014 A 
ATOM     10  C   UNL A   1      38.633  29.513  27.591  1.00  0.00     0.010 A 
ATOM     11  C   UNL A   1      38.113  28.899  29.872  1.00  0.00     0.010 A 
ATOM     12  C   UNL A   1      39.050  29.010  28.836  1.00  0.00    -0.014 A 
BRANCH  12  13
ATOM     13  C   UNL A   1      40.484  28.668  29.021  1.00  0.00     0.031 A 
ATOM     14  C   UNL A   1      41.037  27.340  28.585  1.00  0.00     0.074 A 
ATOM     15  C   UNL A   1      41.308  29.608  29.522  1.00  0.00     0.049 A 
ATOM     16  N   UNL A   1      42.282  26.934  28.572  1.00  0.00    -0.248 NA
ATOM     17  C   UNL A   1      40.075  26.334  28.111  1.00  0.00     0.031 C 
ATOM     18  C   UNL A   1      40.883  30.923  30.013  1.00  0.00     0.029 A 
ATOM     19  N   UNL A   1      42.671  29.627  29.662  1.00  0.00    -0.354 N 
ATOM     20  C   UNL A   1      42.253  25.628  28.102  1.00  0.00     0.074 A 
ATOM     21  C   UNL A   1      40.864  25.297  27.864  1.00  0.00     0.031 C 
ATOM     22  C   UNL A   1      41.968  31.644  30.330  1.00  0.00     0.029 A 
ATOM     23  C   UNL A   1      43.159  30.832  30.107  1.00  0.00     0.049 A 
ATOM     24  H   UNL A   1      43.245  28.852  29.463  1.00  0.00     0.167 HD
ATOM     25  C   UNL A   1      43.291  24.786  27.879  1.00  0.00     0.037 A 
ATOM     26  C   UNL A   1      44.424  31.245  30.302  1.00  0.00     0.037 A 
ATOM     27  C   UNL A   1      44.674  25.119  28.099  1.00  0.00     0.049 A 
ATOM     28  C   UNL A   1      45.555  30.307  30.004  1.00  0.00     0.074 A 
ATOM     29  C   UNL A   1      45.796  24.331  27.900  1.00  0.00     0.029 A 
ATOM     30  N   UNL A   1      45.127  26.346  28.560  1.00  0.00    -0.354 N 
ATOM     31  N   UNL A   1      45.508  29.080  29.547  1.00  0.00    -0.248 NA
ATOM     32  C   UNL A   1      46.913  30.811  30.250  1.00  0.00     0.031 C 
ATOM     33  C   UNL A   1      46.926  25.076  28.260  1.00  0.00     0.029 A 
ATOM     34  C   UNL A   1      46.509  26.336  28.655  1.00  0.00     0.049 A 
ATOM     35  H   UNL A   1      44.551  27.112  28.786  1.00  0.00     0.167 HD
ATOM     36  C   UNL A   1      46.827  28.659  29.459  1.00  0.00     0.074 A 
ATOM     37  C   UNL A   1      47.652  29.777  29.873  1.00  0.00     0.031 C 
ATOM     38  C   UNL A   1      47.311  27.452  29.083  1.00  0.00     0.037 A 
BRANCH  25  39
ATOM     39  C   UNL A   1      42.971  23.412  27.370  1.00  0.00     0.057 A 
ATOM     40  C   UNL A   1      42.551  22.391  28.232  1.00  0.00     0.134 A 
ATOM     41  C   UNL A   1      43.032  23.121  26.001  1.00  0.00     0.134 A 
ATOM     42  F   UNL A   1      42.484  22.601  29.554  1.00  0.00    -0.206 F 
ATOM     43  C   UNL A   1      42.212  21.124  27.750  1.00  0.00     0.040 A 
ATOM     44  C   UNL A   1      42.680  21.865  25.507  1.00  0.00     0.040 A 
ATOM     45  F   UNL A   1      43.423  24.057  25.124  1.00  0.00    -0.206 F 
ATOM     46  C   UNL A   1      42.269  20.861  26.383  1.00  0.00     0.006 A 
ENDBRANCH  25  39
BRANCH  26  47
ATOM     47  C   UNL A   1      44.680  32.622  30.790  1.00  0.00     0.057 A 
ATOM     48  C   UNL A   1      44.809  33.692  29.900  1.00  0.00     0.134 A 
ATOM     49  C   UNL A   1      44.778  32.899  32.159  1.00  0.00     0.134 A 
ATOM     50  F   UNL A   1      44.739  33.484  28.578  1.00  0.00    -0.206 F 
ATOM     51  C   UNL A   1      45.037  34.993  30.354  1.00  0.00     0.040 A 
ATOM     52  C   UNL A   1      44.983  34.195  32.627  1.00  0.00     0.040 A 
ATOM     53  F   UNL A   1      44.653  31.913  33.059  1.00  0.00    -0.206 F 
ATOM     54  C   UNL A   1      45.118  35.247  31.722  1.00  0.00     0.006 A 
ENDBRANCH  26  47
BRANCH  38  55
ATOM     55  C   UNL A   1      48.798  27.284  29.118  1.00  0.00     0.057 A 
ATOM     56  C   UNL A   1      49.595  27.614  28.013  1.00  0.00     0.134 A 
ATOM     57  C   UNL A   1      49.441  26.795  30.261  1.00  0.00     0.134 A 
ATOM     58  F   UNL A   1      49.034  28.072  26.884  1.00  0.00    -0.206 F 
ATOM     59  C   UNL A   1      50.979  27.442  28.037  1.00  0.00     0.040 A 
ATOM     60  C   UNL A   1      50.825  26.636  30.303  1.00  0.00     0.040 A 
ATOM     61  F   UNL A   1      48.732  26.465  31.351  1.00  0.00    -0.206 F 
ATOM     62  C   UNL A   1      51.598  26.954  29.187  1.00  0.00     0.006 A 
ENDBRANCH  38  55
ENDBRANCH  12  13
ENDBRANCH   5   7
ENDBRANCH   2   3
ENDBRANCH   1   2
BRANCH   1  63
ATOM     63  C   UNL A   1      35.339  34.950  28.577  1.00  0.00     0.118 C 
BRANCH  63  64
ATOM     64  N   UNL A   1      34.129  35.731  28.324  1.00  0.00    -0.349 N 
ATOM     65  C   UNL A   1      33.122  36.043  29.187  1.00  0.00     0.286 C 
ATOM     66  H   UNL A   1      34.029  36.078  27.407  1.00  0.00     0.163 HD
ATOM     67  O   UNL A   1      32.055  36.444  28.696  1.00  0.00    -0.266 OA
BRANCH  65  68
ATOM     68  C   UNL A   1      33.329  35.903  30.607  1.00  0.00     0.191 A 
ATOM     69  C   UNL A   1      33.421  36.838  31.631  1.00  0.00     0.056 A 
ATOM     70  O   UNL A   1      33.441  34.650  31.139  1.00  0.00    -0.454 OA
ATOM     71  C   UNL A   1      33.624  36.116  32.829  1.00  0.00     0.048 A 
ATOM     72  C   UNL A   1      33.632  34.781  32.481  1.00  0.00     0.124 A 
BRANCH  72  73
ATOM     73  C   UNL A   1      33.816  33.528  33.249  1.00  0.00     0.191 C 
BRANCH  73  74
ATOM     74  N   UNL A   1      34.669  33.807  34.398  1.00  0.00    -0.344 N 
ATOM     75  C   UNL A   1      35.988  33.531  34.569  1.00  0.00     0.265 C 
ATOM     76  H   UNL A   1      34.228  34.258  35.153  1.00  0.00     0.164 HD
ATOM     77  O   UNL A   1      36.445  33.651  35.717  1.00  0.00    -0.268 OA
BRANCH  75  78
ATOM     78  C   UNL A   1      36.795  33.141  33.453  1.00  0.00     0.133 A 
ATOM     79  C   UNL A   1      37.132  31.896  32.939  1.00  0.00     0.163 A 
ATOM     80  S   UNL A   1      37.504  34.309  32.422  1.00  0.00    -0.007 S 
ATOM     81  N   UNL A   1      37.957  31.916  31.831  1.00  0.00    -0.146 NA
ATOM     82  N   UNL A   1      38.241  33.155  31.457  1.00  0.00    -0.090 NA
ENDBRANCH  75  78
ENDBRANCH  73  74
ENDBRANCH  72  73
ENDBRANCH  65  68
ENDBRANCH  63  64
ENDBRANCH   1  63
TORSDOF 13
ENDMDL
MODEL 2
REMARK VINA RESULT:     -10.8      5.702     10.887
REMARK SMILES O=C(NCCCNC(=O)c1ccc(CNC(=O)c2cnns2)o1)c1ccc(-c2c3nc(c(-c4c(F)cccc4F)c4ccc([nH]4)c(-c4c(F)cccc4F)c4nc(c(-c5c(F)cccc5F)c5ccc2[nH]5)C=C4)C=C3)cc1
REMARK SMILES IDX 5 1 4 2 3 3 1 4 2 5 24 7 25 8 77 9 26 10 76 11 27 12 28 13
REMARK SMILES IDX 29 14 70 15 30 16 75 17 69 18 71 19 31 20 74 21 68 22 67 23
REMARK SMILES IDX 32 25 58 26 41 27 57 28 42 29 45 30 56 31 72 32 43 33 44 34
REMARK SMILES IDX 55 36 73 37 46 38 33 39 34 40 39 41 35 42 36 43 38 44 40 45
REMARK SMILES IDX 37 46 59 47 60 48 65 49 61 50 62 51 64 52 66 53 63 54 47 55
REMARK SMILES IDX 48 56 53 57 49 58 50 59 52 60 54 61 51 62 6 63 7 64 8 65
REMARK SMILES IDX 9 67 10 68 11 69 23 70 12 71 13 72 14 73 15 74 16 75 17 77
REMARK SMILES IDX 18 78 19 79 22 80 20 81 21 82
REMARK H PARENT 3 6 71 24 45 35 7 66 15 76
REMARK Flexibility Score: inf
ROOT
ATOM      1  C   UNL A   1      39.095  21.091  25.369  1.00  0.00     0.042 C 
ENDROOT
BRANCH   1   2
ATOM      2  C   UNL A   1      39.299  19.782  26.125  1.00  0.00     0.118 C 
BRANCH   2   3
ATOM      3  N   UNL A   1      40.580  19.155  25.820  1.00  0.00    -0.352 N 
ATOM      4  O   UNL A   1      42.778  19.008  25.381  1.00  0.00    -0.269 OA
ATOM      5  C   UNL A   1      41.857  19.658  25.869  1.00  0.00     0.251 C 
ATOM      6  H   UNL A   1      40.519  18.216  25.531  1.00  0.00     0.163 HD
BRANCH   5   7
ATOM      7  C   UNL A   1      42.138  20.973  26.490  1.00  0.00     0.039 A 
ATOM      8  C   UNL A   1      42.443  22.088  25.710  1.00  0.00     0.014 A 
ATOM      9  C   UNL A   1      42.036  21.106  27.880  1.00  0.00     0.014 A 
ATOM     10  C   UNL A   1      42.790  23.288  26.321  1.00  0.00     0.010 A 
ATOM     11  C   UNL A   1      42.299  22.338  28.490  1.00  0.00     0.010 A 
ATOM     12  C   UNL A   1      42.710  23.433  27.717  1.00  0.00    -0.014 A 
BRANCH  12  13
ATOM     13  C   UNL A   1      43.008  24.760  28.314  1.00  0.00     0.031 A 
ATOM     14  C   UNL A   1      44.419  25.200  28.583  1.00  0.00     0.074 A 
ATOM     15  C   UNL A   1      41.984  25.606  28.541  1.00  0.00     0.049 A 
ATOM     16  N   UNL A   1      44.851  26.368  28.991  1.00  0.00    -0.248 NA
ATOM     17  C   UNL A   1      45.484  24.207  28.378  1.00  0.00     0.031 C 
ATOM     18  C   UNL A   1      40.567  25.280  28.353  1.00  0.00     0.029 A 
ATOM     19  N   UNL A   1      41.972  26.918  28.935  1.00  0.00    -0.354 N 
ATOM     20  C   UNL A   1      46.230  26.248  29.103  1.00  0.00     0.074 A 
ATOM     21  C   UNL A   1      46.563  24.886  28.745  1.00  0.00     0.031 C 
ATOM     22  C   UNL A   1      39.832  26.382  28.560  1.00  0.00     0.029 A 
ATOM     23  C   UNL A   1      40.718  27.478  28.937  1.00  0.00     0.049 A 
ATOM     24  H   UNL A   1      42.784  27.412  29.193  1.00  0.00     0.167 HD
ATOM     25  C   UNL A   1      47.135  27.190  29.461  1.00  0.00     0.037 A 
ATOM     26  C   UNL A   1      40.322  28.736  29.198  1.00  0.00     0.037 A 
ATOM     27  C   UNL A   1      46.806  28.550  29.802  1.00  0.00     0.049 A 
ATOM     28  C   UNL A   1      41.350  29.770  29.548  1.00  0.00     0.074 A 
ATOM     29  C   UNL A   1      47.656  29.577  30.176  1.00  0.00     0.029 A 
ATOM     30  N   UNL A   1      45.523  29.076  29.801  1.00  0.00    -0.354 N 
ATOM     31  N   UNL A   1      42.651  29.640  29.635  1.00  0.00    -0.248 NA
ATOM     32  C   UNL A   1      40.855  31.123  29.837  1.00  0.00     0.031 C 
ATOM     33  C   UNL A   1      46.884  30.720  30.421  1.00  0.00     0.029 A 
ATOM     34  C   UNL A   1      45.558  30.410  30.171  1.00  0.00     0.049 A 
ATOM     35  H   UNL A   1      44.707  28.574  29.571  1.00  0.00     0.167 HD
ATOM     36  C   UNL A   1      43.131  30.889  29.998  1.00  0.00     0.074 A 
ATOM     37  C   UNL A   1      41.985  31.773  30.076  1.00  0.00     0.031 C 
ATOM     38  C   UNL A   1      44.406  31.268  30.257  1.00  0.00     0.037 A 
BRANCH  25  39
ATOM     39  C   UNL A   1      48.577  26.782  29.507  1.00  0.00     0.057 A 
ATOM     40  C   UNL A   1      49.428  26.975  28.413  1.00  0.00     0.134 A 
ATOM     41  C   UNL A   1      49.132  26.239  30.673  1.00  0.00     0.134 A 
ATOM     42  F   UNL A   1      48.956  27.478  27.263  1.00  0.00    -0.206 F 
ATOM     43  C   UNL A   1      50.782  26.634  28.473  1.00  0.00     0.040 A 
ATOM     44  C   UNL A   1      50.486  25.910  30.751  1.00  0.00     0.040 A 
ATOM     45  F   UNL A   1      48.370  26.032  31.757  1.00  0.00    -0.206 F 
ATOM     46  C   UNL A   1      51.315  26.106  29.648  1.00  0.00     0.006 A 
ENDBRANCH  25  39
BRANCH  26  47
ATOM     47  C   UNL A   1      38.883  29.085  29.120  1.00  0.00     0.057 A 
ATOM     48  C   UNL A   1      38.062  29.027  30.250  1.00  0.00     0.134 A 
ATOM     49  C   UNL A   1      38.303  29.504  27.916  1.00  0.00     0.134 A 
ATOM     50  F   UNL A   1      38.559  28.618  31.426  1.00  0.00    -0.206 F 
ATOM     51  C   UNL A   1      36.709  29.366  30.186  1.00  0.00     0.040 A 
ATOM     52  C   UNL A   1      36.960  29.867  27.843  1.00  0.00     0.040 A 
ATOM     53  F   UNL A   1      39.044  29.587  26.802  1.00  0.00    -0.206 F 
ATOM     54  C   UNL A   1      36.157  29.795  28.980  1.00  0.00     0.006 A 
ENDBRANCH  26  47
BRANCH  38  55
ATOM     55  C   UNL A   1      44.614  32.696  30.659  1.00  0.00     0.057 A 
ATOM     56  C   UNL A   1      44.824  33.699  29.704  1.00  0.00     0.134 A 
ATOM     57  C   UNL A   1      44.598  33.073  32.007  1.00  0.00     0.134 A 
ATOM     58  F   UNL A   1      44.864  33.395  28.398  1.00  0.00    -0.206 F 
ATOM     59  C   UNL A   1      45.035  35.026  30.077  1.00  0.00     0.040 A 
ATOM     60  C   UNL A   1      44.791  34.399  32.392  1.00  0.00     0.040 A 
ATOM     61  F   UNL A   1      44.399  32.158  32.968  1.00  0.00    -0.206 F 
ATOM     62  C   UNL A   1      45.016  35.379  31.426  1.00  0.00     0.006 A 
ENDBRANCH  38  55
ENDBRANCH  12  13
ENDBRANCH   5   7
ENDBRANCH   2   3
ENDBRANCH   1   2
BRANCH   1  63
ATOM     63  C   UNL A   1      37.706  21.696  25.546  1.00  0.00     0.118 C 
BRANCH  63  64
ATOM     64  N   UNL A   1      37.336  22.538  24.409  1.00  0.00    -0.349 N 
ATOM     65  C   UNL A   1      36.114  22.690  23.824  1.00  0.00     0.286 C 
ATOM     66  H   UNL A   1      38.068  23.064  24.012  1.00  0.00     0.163 HD
ATOM     67  O   UNL A   1      36.084  23.204  22.695  1.00  0.00    -0.266 OA
BRANCH  65  68
ATOM     68  C   UNL A   1      34.930  22.262  24.524  1.00  0.00     0.191 A 
ATOM     69  C   UNL A   1      33.957  22.965  25.226  1.00  0.00     0.056 A 
ATOM     70  O   UNL A   1      34.608  20.934  24.531  1.00  0.00    -0.454 OA
ATOM     71  C   UNL A   1      33.023  22.015  25.698  1.00  0.00     0.048 A 
ATOM     72  C   UNL A   1      33.462  20.786  25.252  1.00  0.00     0.124 A 
BRANCH  72  73
ATOM     73  C   UNL A   1      32.957  19.403  25.414  1.00  0.00     0.191 C 
BRANCH  73  74
ATOM     74  N   UNL A   1      32.496  18.920  24.118  1.00  0.00    -0.344 N 
ATOM     75  C   UNL A   1      32.809  17.764  23.477  1.00  0.00     0.265 C 
ATOM     76  H   UNL A   1      31.872  19.513  23.642  1.00  0.00     0.164 HD
ATOM     77  O   UNL A   1      32.480  17.673  22.283  1.00  0.00    -0.268 OA
BRANCH  75  78
ATOM     78  C   UNL A   1      33.470  16.705  24.178  1.00  0.00     0.133 A 
ATOM     79  C   UNL A   1      34.813  16.382  24.324  1.00  0.00     0.163 A 
ATOM     80  S   UNL A   1      32.587  15.572  25.109  1.00  0.00    -0.007 S 
ATOM     81  N   UNL A   1      35.073  15.259  25.084  1.00  0.00    -0.146 NA
ATOM     82  N   UNL A   1      33.958  14.721  25.558  1.00  0.00    -0.090 NA
ENDBRANCH  75  78
ENDBRANCH  73  74
ENDBRANCH  72  73
ENDBRANCH  65  68
ENDBRANCH  63  64
ENDBRANCH   1  63
TORSDOF 13
ENDMDL
MODEL 3
REMARK VINA RESULT:     -10.8      5.047     10.152
REMARK SMILES O=C(NCCCNC(=O)c1ccc(CNC(=O)c2cnns2)o1)c1ccc(-c2c3nc(c(-c4c(F)cccc4F)c4ccc([nH]4)c(-c4c(F)cccc4F)c4nc(c(-c5c(F)cccc5F)c5ccc2[nH]5)C=C4)C=C3)cc1
REMARK SMILES IDX 5 1 4 2 3 3 1 4 2 5 24 7 25 8 77 9 26 10 76 11 27 12 28 13
REMARK SMILES IDX 29 14 70 15 30 16 75 17 69 18 71 19 31 20 74 21 68 22 67 23
REMARK SMILES IDX 32 25 58 26 41 27 57 28 42 29 45 30 56 31 72 32 43 33 44 34
REMARK SMILES IDX 55 36 73 37 46 38 33 39 34 40 39 41 35 42 36 43 38 44 40 45
REMARK SMILES IDX 37 46 59 47 60 48 65 49 61 50 62 51 64 52 66 53 63 54 47 55
REMARK SMILES IDX 48 56 53 57 49 58 50 59 52 60 54 61 51 62 6 63 7 64 8 65
REMARK SMILES IDX 9 67 10 68 11 69 23 70 12 71 13 72 14 73 15 74 16 75 17 77
REMARK SMILES IDX 18 78 19 79 22 80 20 81 21 82
REMARK H PARENT 3 6 71 24 45 35 7 66 15 76
REMARK Flexibility Score: inf
ROOT
ATOM      1  C   UNL A   1      31.405  32.298  26.687  1.00  0.00     0.042 C 
ENDROOT
BRANCH   1   2
ATOM      2  C   UNL A   1      32.698  33.038  27.016  1.00  0.00     0.118 C 
BRANCH   2   3
ATOM      3  N   UNL A   1      32.457  34.328  27.652  1.00  0.00    -0.352 N 
ATOM      4  O   UNL A   1      32.547  35.923  29.231  1.00  0.00    -0.269 OA
ATOM      5  C   UNL A   1      33.041  34.905  28.753  1.00  0.00     0.251 C 
ATOM      6  H   UNL A   1      31.762  34.875  27.221  1.00  0.00     0.163 HD
BRANCH   5   7
ATOM      7  C   UNL A   1      34.246  34.314  29.379  1.00  0.00     0.039 A 
ATOM      8  C   UNL A   1      34.144  33.458  30.475  1.00  0.00     0.014 A 
ATOM      9  C   UNL A   1      35.503  34.577  28.820  1.00  0.00     0.014 A 
ATOM     10  C   UNL A   1      35.295  32.989  31.099  1.00  0.00     0.010 A 
ATOM     11  C   UNL A   1      36.657  34.032  29.394  1.00  0.00     0.010 A 
ATOM     12  C   UNL A   1      36.564  33.257  30.559  1.00  0.00    -0.014 A 
BRANCH  12  13
ATOM     13  C   UNL A   1      37.757  32.661  31.214  1.00  0.00     0.031 A 
ATOM     14  C   UNL A   1      38.223  33.122  32.565  1.00  0.00     0.074 A 
ATOM     15  C   UNL A   1      38.377  31.632  30.603  1.00  0.00     0.049 A 
ATOM     16  N   UNL A   1      39.174  32.627  33.319  1.00  0.00    -0.248 NA
ATOM     17  C   UNL A   1      37.548  34.292  33.146  1.00  0.00     0.031 C 
ATOM     18  C   UNL A   1      38.038  31.117  29.272  1.00  0.00     0.029 A 
ATOM     19  N   UNL A   1      39.386  30.809  31.030  1.00  0.00    -0.354 N 
ATOM     20  C   UNL A   1      39.219  33.428  34.453  1.00  0.00     0.074 A 
ATOM     21  C   UNL A   1      38.218  34.459  34.280  1.00  0.00     0.031 C 
ATOM     22  C   UNL A   1      38.773  30.024  29.025  1.00  0.00     0.029 A 
ATOM     23  C   UNL A   1      39.663  29.786  30.156  1.00  0.00     0.049 A 
ATOM     24  H   UNL A   1      39.865  30.938  31.880  1.00  0.00     0.167 HD
ATOM     25  C   UNL A   1      40.014  33.306  35.543  1.00  0.00     0.037 A 
ATOM     26  C   UNL A   1      40.528  28.761  30.257  1.00  0.00     0.037 A 
ATOM     27  C   UNL A   1      40.999  32.272  35.724  1.00  0.00     0.049 A 
ATOM     28  C   UNL A   1      41.363  28.625  31.494  1.00  0.00     0.074 A 
ATOM     29  C   UNL A   1      41.851  32.067  36.797  1.00  0.00     0.029 A 
ATOM     30  N   UNL A   1      41.257  31.259  34.812  1.00  0.00    -0.354 N 
ATOM     31  N   UNL A   1      41.382  29.385  32.562  1.00  0.00    -0.248 NA
ATOM     32  C   UNL A   1      42.299  27.493  31.539  1.00  0.00     0.031 C 
ATOM     33  C   UNL A   1      42.639  30.942  36.523  1.00  0.00     0.029 A 
ATOM     34  C   UNL A   1      42.257  30.431  35.295  1.00  0.00     0.049 A 
ATOM     35  H   UNL A   1      40.797  31.146  33.949  1.00  0.00     0.167 HD
ATOM     36  C   UNL A   1      42.335  28.830  33.403  1.00  0.00     0.074 A 
ATOM     37  C   UNL A   1      42.845  27.648  32.738  1.00  0.00     0.031 C 
ATOM     38  C   UNL A   1      42.760  29.268  34.612  1.00  0.00     0.037 A 
BRANCH  25  39
ATOM     39  C   UNL A   1      39.856  34.326  36.632  1.00  0.00     0.057 A 
ATOM     40  C   UNL A   1      39.015  34.102  37.728  1.00  0.00     0.134 A 
ATOM     41  C   UNL A   1      40.590  35.519  36.610  1.00  0.00     0.134 A 
ATOM     42  F   UNL A   1      38.275  32.986  37.802  1.00  0.00    -0.206 F 
ATOM     43  C   UNL A   1      38.902  35.034  38.762  1.00  0.00     0.040 A 
ATOM     44  C   UNL A   1      40.499  36.450  37.645  1.00  0.00     0.040 A 
ATOM     45  F   UNL A   1      41.416  35.791  35.589  1.00  0.00    -0.206 F 
ATOM     46  C   UNL A   1      39.652  36.209  38.725  1.00  0.00     0.006 A 
ENDBRANCH  25  39
BRANCH  26  47
ATOM     47  C   UNL A   1      40.628  27.773  29.155  1.00  0.00     0.057 A 
ATOM     48  C   UNL A   1      39.786  26.658  29.104  1.00  0.00     0.134 A 
ATOM     49  C   UNL A   1      41.552  27.938  28.116  1.00  0.00     0.134 A 
ATOM     50  F   UNL A   1      38.891  26.441  30.079  1.00  0.00    -0.206 F 
ATOM     51  C   UNL A   1      39.866  25.732  28.062  1.00  0.00     0.040 A 
ATOM     52  C   UNL A   1      41.628  27.033  27.059  1.00  0.00     0.040 A 
ATOM     53  F   UNL A   1      42.379  28.993  28.108  1.00  0.00    -0.206 F 
ATOM     54  C   UNL A   1      40.785  25.923  27.032  1.00  0.00     0.006 A 
ENDBRANCH  26  47
BRANCH  38  55
ATOM     55  C   UNL A   1      43.836  28.467  35.277  1.00  0.00     0.057 A 
ATOM     56  C   UNL A   1      43.528  27.435  36.173  1.00  0.00     0.134 A 
ATOM     57  C   UNL A   1      45.188  28.722  35.017  1.00  0.00     0.134 A 
ATOM     58  F   UNL A   1      42.251  27.154  36.472  1.00  0.00    -0.206 F 
ATOM     59  C   UNL A   1      44.529  26.698  36.806  1.00  0.00     0.040 A 
ATOM     60  C   UNL A   1      46.197  27.981  35.631  1.00  0.00     0.040 A 
ATOM     61  F   UNL A   1      45.546  29.695  34.166  1.00  0.00    -0.206 F 
ATOM     62  C   UNL A   1      45.869  26.969  36.533  1.00  0.00     0.006 A 
ENDBRANCH  38  55
ENDBRANCH  12  13
ENDBRANCH   5   7
ENDBRANCH   2   3
ENDBRANCH   1   2
BRANCH   1  63
ATOM     63  C   UNL A   1      31.474  30.795  26.937  1.00  0.00     0.118 C 
BRANCH  63  64
ATOM     64  N   UNL A   1      32.811  30.266  26.671  1.00  0.00    -0.349 N 
ATOM     65  C   UNL A   1      33.159  29.111  26.037  1.00  0.00     0.286 C 
ATOM     66  H   UNL A   1      33.560  30.818  26.993  1.00  0.00     0.163 HD
ATOM     67  O   UNL A   1      34.321  28.705  26.191  1.00  0.00    -0.266 OA
BRANCH  65  68
ATOM     68  C   UNL A   1      32.187  28.421  25.226  1.00  0.00     0.191 A 
ATOM     69  C   UNL A   1      31.644  27.144  25.309  1.00  0.00     0.056 A 
ATOM     70  O   UNL A   1      31.618  29.077  24.172  1.00  0.00    -0.454 OA
ATOM     71  C   UNL A   1      30.728  27.017  24.239  1.00  0.00     0.048 A 
ATOM     72  C   UNL A   1      30.746  28.223  23.570  1.00  0.00     0.124 A 
BRANCH  72  73
ATOM     73  C   UNL A   1      30.043  28.732  22.369  1.00  0.00     0.191 C 
BRANCH  73  74
ATOM     74  N   UNL A   1      28.610  28.535  22.549  1.00  0.00    -0.344 N 
ATOM     75  C   UNL A   1      27.644  29.462  22.778  1.00  0.00     0.265 C 
ATOM     76  H   UNL A   1      28.300  27.603  22.497  1.00  0.00     0.164 HD
ATOM     77  O   UNL A   1      26.530  29.041  23.130  1.00  0.00    -0.268 OA
BRANCH  75  78
ATOM     78  C   UNL A   1      27.920  30.854  22.595  1.00  0.00     0.133 A 
ATOM     79  C   UNL A   1      28.192  31.876  23.495  1.00  0.00     0.163 A 
ATOM     80  S   UNL A   1      28.028  31.536  21.028  1.00  0.00    -0.007 S 
ATOM     81  N   UNL A   1      28.403  33.120  22.934  1.00  0.00    -0.146 NA
ATOM     82  N   UNL A   1      28.332  33.077  21.612  1.00  0.00    -0.090 NA
ENDBRANCH  75  78
ENDBRANCH  73  74
ENDBRANCH  72  73
ENDBRANCH  65  68
ENDBRANCH  63  64
ENDBRANCH   1  63
TORSDOF 13
ENDMDL
