MODEL 1
REMARK VINA RESULT:     -10.9      0.000      0.000
REMARK SMILES C[C@H]([NH2+]CC1(O)CCCC1)[C@H](C)C(=O)NCCCNC(=O)c1ccc(-c2c3nc(c(-c4c(F)cccc4F)c4ccc([nH]4)c(-c4c(F)cccc4F)c4nc(c(-c5c(F)cccc5F)c5ccc2[nH]5)C=C4)C=C3)cc1
REMARK SMILES IDX 13 1 14 2 15 3 11 5 12 6 2 7 1 8 3 9 4 12 5 13 7 14 10 15
REMARK SMILES IDX 8 16 9 17 6 18 16 20 17 21 18 22 19 23 20 24 21 26 22 27
REMARK SMILES IDX 23 28 75 29 24 30 74 31 25 32 26 33 27 34 68 35 28 36 73 37
REMARK SMILES IDX 67 38 69 39 29 40 72 41 66 42 65 43 30 45 56 46 39 47 55 48
REMARK SMILES IDX 40 49 43 50 54 51 70 52 41 53 42 54 53 56 71 57 44 58 31 59
REMARK SMILES IDX 32 60 37 61 33 62 34 63 36 64 38 65 35 66 57 67 58 68 63 69
REMARK SMILES IDX 59 70 60 71 62 72 64 73 61 74 45 75 46 76 51 77 47 78 48 79
REMARK SMILES IDX 50 80 52 81 49 82
REMARK H PARENT 15 4 3 10 3 11 6 19 19 25 69 44 43 55
REMARK Flexibility Score: inf
ROOT
ATOM      1  C   UNL A   1      35.303  22.393  26.087  1.00  0.00     0.228 C 
ATOM      2  O   UNL A   1      35.451  23.613  26.218  1.00  0.00    -0.275 OA
ATOM      3  N   UNL A   1      36.303  21.726  25.457  1.00  0.00    -0.356 N 
ATOM      4  H   UNL A   1      37.101  22.272  25.273  1.00  0.00     0.163 HD
ENDROOT
BRANCH   1   5
ATOM      5  C   UNL A   1      34.047  21.706  26.612  1.00  0.00     0.133 C 
ATOM      6  C   UNL A   1      33.484  22.518  27.783  1.00  0.00     0.024 C 
BRANCH   5   7
ATOM      7  C   UNL A   1      32.968  21.343  25.552  1.00  0.00     0.191 C 
ATOM      8  C   UNL A   1      31.718  22.234  25.669  1.00  0.00     0.076 C 
BRANCH   7   9
ATOM      9  N   UNL A   1      32.570  19.928  25.437  1.00  0.00    -0.341 N 
ATOM     10  H   UNL A   1      31.626  19.836  25.811  1.00  0.00     0.346 HD
ATOM     11  H   UNL A   1      33.272  19.399  25.954  1.00  0.00     0.346 HD
BRANCH   9  12
ATOM     12  C   UNL A   1      32.573  19.373  24.068  1.00  0.00     0.296 C 
BRANCH  12  13
ATOM     13  C   UNL A   1      32.966  17.871  24.011  1.00  0.00     0.113 C 
ATOM     14  C   UNL A   1      32.336  17.081  25.167  1.00  0.00     0.041 C 
ATOM     15  C   UNL A   1      34.458  17.578  24.204  1.00  0.00     0.041 C 
ATOM     16  C   UNL A   1      33.172  15.805  25.282  1.00  0.00     0.003 C 
ATOM     17  C   UNL A   1      34.514  16.108  24.619  1.00  0.00     0.003 C 
BRANCH  13  18
ATOM     18  O   UNL A   1      32.516  17.328  22.765  1.00  0.00    -0.384 OA
ATOM     19  H   UNL A   1      32.550  18.017  22.082  1.00  0.00     0.211 HD
ENDBRANCH  13  18
ENDBRANCH  12  13
ENDBRANCH   9  12
ENDBRANCH   7   9
ENDBRANCH   5   7
ENDBRANCH   1   5
BRANCH   3  20
ATOM     20  C   UNL A   1      36.403  20.352  25.008  1.00  0.00     0.117 C 
BRANCH  20  21
ATOM     21  C   UNL A   1      37.830  19.995  24.626  1.00  0.00     0.042 C 
BRANCH  21  22
ATOM     22  C   UNL A   1      38.841  20.262  25.730  1.00  0.00     0.118 C 
BRANCH  22  23
ATOM     23  N   UNL A   1      39.827  19.195  25.858  1.00  0.00    -0.352 N 
ATOM     24  C   UNL A   1      41.181  19.273  26.064  1.00  0.00     0.251 C 
ATOM     25  H   UNL A   1      39.467  18.282  25.784  1.00  0.00     0.163 HD
ATOM     26  O   UNL A   1      41.877  18.265  25.945  1.00  0.00    -0.269 OA
BRANCH  24  27
ATOM     27  C   UNL A   1      41.806  20.565  26.409  1.00  0.00     0.039 A 
ATOM     28  C   UNL A   1      42.218  21.415  25.381  1.00  0.00     0.014 A 
ATOM     29  C   UNL A   1      41.985  20.939  27.743  1.00  0.00     0.014 A 
ATOM     30  C   UNL A   1      42.745  22.669  25.692  1.00  0.00     0.010 A 
ATOM     31  C   UNL A   1      42.419  22.223  28.049  1.00  0.00     0.010 A 
ATOM     32  C   UNL A   1      42.812  23.100  27.027  1.00  0.00    -0.014 A 
BRANCH  32  33
ATOM     33  C   UNL A   1      43.298  24.457  27.381  1.00  0.00     0.031 A 
ATOM     34  C   UNL A   1      42.323  25.517  27.814  1.00  0.00     0.074 A 
ATOM     35  C   UNL A   1      44.606  24.752  27.250  1.00  0.00     0.049 A 
ATOM     36  N   UNL A   1      42.542  26.777  28.094  1.00  0.00    -0.248 NA
ATOM     37  C   UNL A   1      40.911  25.116  27.919  1.00  0.00     0.031 C 
ATOM     38  C   UNL A   1      45.644  23.824  26.795  1.00  0.00     0.029 A 
ATOM     39  N   UNL A   1      45.285  25.921  27.479  1.00  0.00    -0.354 N 
ATOM     40  C   UNL A   1      41.298  27.318  28.392  1.00  0.00     0.074 A 
ATOM     41  C   UNL A   1      40.322  26.269  28.199  1.00  0.00     0.031 C 
ATOM     42  C   UNL A   1      46.830  24.451  26.807  1.00  0.00     0.029 A 
ATOM     43  C   UNL A   1      46.633  25.834  27.228  1.00  0.00     0.049 A 
ATOM     44  H   UNL A   1      44.848  26.746  27.793  1.00  0.00     0.167 HD
ATOM     45  C   UNL A   1      40.998  28.569  28.817  1.00  0.00     0.037 A 
ATOM     46  C   UNL A   1      47.600  26.766  27.321  1.00  0.00     0.037 A 
ATOM     47  C   UNL A   1      41.974  29.605  29.027  1.00  0.00     0.049 A 
ATOM     48  C   UNL A   1      47.237  28.154  27.773  1.00  0.00     0.074 A 
ATOM     49  C   UNL A   1      41.779  30.889  29.505  1.00  0.00     0.029 A 
ATOM     50  N   UNL A   1      43.330  29.474  28.769  1.00  0.00    -0.354 N 
ATOM     51  N   UNL A   1      46.067  28.634  28.115  1.00  0.00    -0.248 NA
ATOM     52  C   UNL A   1      48.334  29.129  27.855  1.00  0.00     0.031 C 
ATOM     53  C   UNL A   1      43.011  31.551  29.488  1.00  0.00     0.029 A 
ATOM     54  C   UNL A   1      43.982  30.663  29.054  1.00  0.00     0.049 A 
ATOM     55  H   UNL A   1      43.766  28.658  28.433  1.00  0.00     0.167 HD
ATOM     56  C   UNL A   1      46.290  29.954  28.484  1.00  0.00     0.074 A 
ATOM     57  C   UNL A   1      47.710  30.195  28.336  1.00  0.00     0.031 C 
ATOM     58  C   UNL A   1      45.399  30.884  28.909  1.00  0.00     0.037 A 
BRANCH  45  59
ATOM     59  C   UNL A   1      39.552  28.878  29.086  1.00  0.00     0.057 A 
ATOM     60  C   UNL A   1      38.694  29.336  28.078  1.00  0.00     0.134 A 
ATOM     61  C   UNL A   1      39.005  28.693  30.362  1.00  0.00     0.134 A 
ATOM     62  F   UNL A   1      39.156  29.547  26.835  1.00  0.00    -0.206 F 
ATOM     63  C   UNL A   1      37.354  29.632  28.335  1.00  0.00     0.040 A 
ATOM     64  C   UNL A   1      37.660  28.955  30.625  1.00  0.00     0.040 A 
ATOM     65  F   UNL A   1      39.767  28.250  31.373  1.00  0.00    -0.206 F 
ATOM     66  C   UNL A   1      36.832  29.435  29.612  1.00  0.00     0.006 A 
ENDBRANCH  45  59
BRANCH  46  67
ATOM     67  C   UNL A   1      49.008  26.415  27.004  1.00  0.00     0.057 A 
ATOM     68  C   UNL A   1      49.878  25.960  28.001  1.00  0.00     0.134 A 
ATOM     69  C   UNL A   1      49.520  26.534  25.706  1.00  0.00     0.134 A 
ATOM     70  F   UNL A   1      49.450  25.841  29.267  1.00  0.00    -0.206 F 
ATOM     71  C   UNL A   1      51.213  25.658  27.726  1.00  0.00     0.040 A 
ATOM     72  C   UNL A   1      50.845  26.209  25.411  1.00  0.00     0.040 A 
ATOM     73  F   UNL A   1      48.735  26.956  24.703  1.00  0.00    -0.206 F 
ATOM     74  C   UNL A   1      51.698  25.777  26.426  1.00  0.00     0.006 A 
ENDBRANCH  46  67
BRANCH  58  75
ATOM     75  C   UNL A   1      45.940  32.233  29.282  1.00  0.00     0.057 A 
ATOM     76  C   UNL A   1      46.402  32.518  30.573  1.00  0.00     0.134 A 
ATOM     77  C   UNL A   1      46.034  33.251  28.322  1.00  0.00     0.134 A 
ATOM     78  F   UNL A   1      46.328  31.592  31.541  1.00  0.00    -0.206 F 
ATOM     79  C   UNL A   1      46.915  33.774  30.903  1.00  0.00     0.040 A 
ATOM     80  C   UNL A   1      46.571  34.499  28.633  1.00  0.00     0.040 A 
ATOM     81  F   UNL A   1      45.617  33.041  27.064  1.00  0.00    -0.206 F 
ATOM     82  C   UNL A   1      47.007  34.766  29.929  1.00  0.00     0.006 A 
ENDBRANCH  58  75
ENDBRANCH  32  33
ENDBRANCH  24  27
ENDBRANCH  22  23
ENDBRANCH  21  22
ENDBRANCH  20  21
ENDBRANCH   3  20
TORSDOF 15
ENDMDL
MODEL 2
REMARK VINA RESULT:     -10.9      6.605     11.436
REMARK SMILES C[C@H]([NH2+]CC1(O)CCCC1)[C@H](C)C(=O)NCCCNC(=O)c1ccc(-c2c3nc(c(-c4c(F)cccc4F)c4ccc([nH]4)c(-c4c(F)cccc4F)c4nc(c(-c5c(F)cccc5F)c5ccc2[nH]5)C=C4)C=C3)cc1
REMARK SMILES IDX 13 1 14 2 15 3 11 5 12 6 2 7 1 8 3 9 4 12 5 13 7 14 10 15
REMARK SMILES IDX 8 16 9 17 6 18 16 20 17 21 18 22 19 23 20 24 21 26 22 27
REMARK SMILES IDX 23 28 75 29 24 30 74 31 25 32 26 33 27 34 68 35 28 36 73 37
REMARK SMILES IDX 67 38 69 39 29 40 72 41 66 42 65 43 30 45 56 46 39 47 55 48
REMARK SMILES IDX 40 49 43 50 54 51 70 52 41 53 42 54 53 56 71 57 44 58 31 59
REMARK SMILES IDX 32 60 37 61 33 62 34 63 36 64 38 65 35 66 57 67 58 68 63 69
REMARK SMILES IDX 59 70 60 71 62 72 64 73 61 74 45 75 46 76 51 77 47 78 48 79
REMARK SMILES IDX 50 80 52 81 49 82
REMARK H PARENT 15 4 3 10 3 11 6 19 19 25 69 44 43 55
REMARK Flexibility Score: inf
ROOT
ATOM      1  C   UNL A   1      31.701  28.307  26.711  1.00  0.00     0.228 C 
ATOM      2  O   UNL A   1      31.485  27.564  27.674  1.00  0.00    -0.275 OA
ATOM      3  N   UNL A   1      31.672  29.641  26.957  1.00  0.00    -0.356 N 
ATOM      4  H   UNL A   1      31.595  29.876  27.909  1.00  0.00     0.163 HD
ENDROOT
BRANCH   1   5
ATOM      5  C   UNL A   1      31.978  27.721  25.330  1.00  0.00     0.133 C 
ATOM      6  C   UNL A   1      32.827  26.454  25.484  1.00  0.00     0.024 C 
BRANCH   5   7
ATOM      7  C   UNL A   1      30.740  27.513  24.412  1.00  0.00     0.191 C 
ATOM      8  C   UNL A   1      30.820  26.194  23.621  1.00  0.00     0.076 C 
BRANCH   7   9
ATOM      9  N   UNL A   1      30.363  28.618  23.512  1.00  0.00    -0.341 N 
ATOM     10  H   UNL A   1      31.054  28.663  22.763  1.00  0.00     0.346 HD
ATOM     11  H   UNL A   1      30.333  29.454  24.095  1.00  0.00     0.346 HD
BRANCH   9  12
ATOM     12  C   UNL A   1      29.026  28.510  22.893  1.00  0.00     0.296 C 
BRANCH  12  13
ATOM     13  C   UNL A   1      28.299  29.875  22.750  1.00  0.00     0.113 C 
ATOM     14  C   UNL A   1      28.503  30.478  21.353  1.00  0.00     0.041 C 
ATOM     15  C   UNL A   1      28.824  30.993  23.657  1.00  0.00     0.041 C 
ATOM     16  C   UNL A   1      28.190  31.967  21.511  1.00  0.00     0.003 C 
ATOM     17  C   UNL A   1      28.347  32.285  22.996  1.00  0.00     0.003 C 
BRANCH  13  18
ATOM     18  O   UNL A   1      26.900  29.673  22.980  1.00  0.00    -0.384 OA
ATOM     19  H   UNL A   1      26.482  29.347  22.167  1.00  0.00     0.211 HD
ENDBRANCH  13  18
ENDBRANCH  12  13
ENDBRANCH   9  12
ENDBRANCH   7   9
ENDBRANCH   5   7
ENDBRANCH   1   5
BRANCH   3  20
ATOM     20  C   UNL A   1      31.734  30.780  26.063  1.00  0.00     0.117 C 
BRANCH  20  21
ATOM     21  C   UNL A   1      31.450  32.079  26.799  1.00  0.00     0.042 C 
BRANCH  21  22
ATOM     22  C   UNL A   1      32.707  32.825  27.224  1.00  0.00     0.118 C 
BRANCH  22  23
ATOM     23  N   UNL A   1      32.441  34.212  27.584  1.00  0.00    -0.352 N 
ATOM     24  C   UNL A   1      32.993  34.982  28.576  1.00  0.00     0.251 C 
ATOM     25  H   UNL A   1      31.762  34.665  27.033  1.00  0.00     0.163 HD
ATOM     26  O   UNL A   1      32.495  36.073  28.852  1.00  0.00    -0.269 OA
BRANCH  24  27
ATOM     27  C   UNL A   1      34.168  34.496  29.325  1.00  0.00     0.039 A 
ATOM     28  C   UNL A   1      33.979  33.909  30.579  1.00  0.00     0.014 A 
ATOM     29  C   UNL A   1      35.454  34.615  28.794  1.00  0.00     0.014 A 
ATOM     30  C   UNL A   1      35.073  33.382  31.266  1.00  0.00     0.010 A 
ATOM     31  C   UNL A   1      36.527  34.005  29.432  1.00  0.00     0.010 A 
ATOM     32  C   UNL A   1      36.350  33.388  30.680  1.00  0.00    -0.014 A 
BRANCH  32  33
ATOM     33  C   UNL A   1      37.516  32.767  31.355  1.00  0.00     0.031 A 
ATOM     34  C   UNL A   1      38.189  31.568  30.747  1.00  0.00     0.074 A 
ATOM     35  C   UNL A   1      37.928  33.243  32.547  1.00  0.00     0.049 A 
ATOM     36  N   UNL A   1      39.172  30.842  31.217  1.00  0.00    -0.248 NA
ATOM     37  C   UNL A   1      37.669  31.104  29.450  1.00  0.00     0.031 C 
ATOM     38  C   UNL A   1      37.329  34.371  33.263  1.00  0.00     0.029 A 
ATOM     39  N   UNL A   1      38.943  32.829  33.371  1.00  0.00    -0.354 N 
ATOM     40  C   UNL A   1      39.376  29.833  30.285  1.00  0.00     0.074 A 
ATOM     41  C   UNL A   1      38.377  30.001  29.254  1.00  0.00     0.031 C 
ATOM     42  C   UNL A   1      38.006  34.577  34.403  1.00  0.00     0.029 A 
ATOM     43  C   UNL A   1      39.057  33.572  34.521  1.00  0.00     0.049 A 
ATOM     44  H   UNL A   1      39.534  32.070  33.160  1.00  0.00     0.167 HD
ATOM     45  C   UNL A   1      40.329  28.871  30.273  1.00  0.00     0.037 A 
ATOM     46  C   UNL A   1      39.909  33.453  35.556  1.00  0.00     0.037 A 
ATOM     47  C   UNL A   1      41.334  28.719  31.292  1.00  0.00     0.049 A 
ATOM     48  C   UNL A   1      40.944  32.361  35.530  1.00  0.00     0.074 A 
ATOM     49  C   UNL A   1      42.375  27.809  31.347  1.00  0.00     0.029 A 
ATOM     50  N   UNL A   1      41.421  29.498  32.436  1.00  0.00    -0.354 N 
ATOM     51  N   UNL A   1      41.168  31.455  34.610  1.00  0.00    -0.248 NA
ATOM     52  C   UNL A   1      41.847  32.280  36.687  1.00  0.00     0.031 C 
ATOM     53  C   UNL A   1      43.061  28.005  32.550  1.00  0.00     0.029 A 
ATOM     54  C   UNL A   1      42.483  29.073  33.217  1.00  0.00     0.049 A 
ATOM     55  H   UNL A   1      40.816  30.241  32.661  1.00  0.00     0.167 HD
ATOM     56  C   UNL A   1      42.256  30.717  35.060  1.00  0.00     0.074 A 
ATOM     57  C   UNL A   1      42.653  31.291  36.329  1.00  0.00     0.031 C 
ATOM     58  C   UNL A   1      42.871  29.661  34.474  1.00  0.00     0.037 A 
BRANCH  45  59
ATOM     59  C   UNL A   1      40.326  27.912  29.117  1.00  0.00     0.057 A 
ATOM     60  C   UNL A   1      39.544  26.750  29.121  1.00  0.00     0.134 A 
ATOM     61  C   UNL A   1      41.098  28.164  27.975  1.00  0.00     0.134 A 
ATOM     62  F   UNL A   1      38.791  26.441  30.189  1.00  0.00    -0.206 F 
ATOM     63  C   UNL A   1      39.553  25.856  28.048  1.00  0.00     0.040 A 
ATOM     64  C   UNL A   1      41.092  27.295  26.883  1.00  0.00     0.040 A 
ATOM     65  F   UNL A   1      41.865  29.262  27.899  1.00  0.00    -0.206 F 
ATOM     66  C   UNL A   1      40.325  26.132  26.921  1.00  0.00     0.006 A 
ENDBRANCH  45  59
BRANCH  46  67
ATOM     67  C   UNL A   1      39.840  34.406  36.693  1.00  0.00     0.057 A 
ATOM     68  C   UNL A   1      40.522  35.627  36.651  1.00  0.00     0.134 A 
ATOM     69  C   UNL A   1      39.104  34.118  37.849  1.00  0.00     0.134 A 
ATOM     70  F   UNL A   1      41.258  35.952  35.578  1.00  0.00    -0.206 F 
ATOM     71  C   UNL A   1      40.494  36.518  37.725  1.00  0.00     0.040 A 
ATOM     72  C   UNL A   1      39.044  35.012  38.919  1.00  0.00     0.040 A 
ATOM     73  F   UNL A   1      38.420  32.968  37.949  1.00  0.00    -0.206 F 
ATOM     74  C   UNL A   1      39.749  36.214  38.861  1.00  0.00     0.006 A 
ENDBRANCH  46  67
BRANCH  58  75
ATOM     75  C   UNL A   1      44.063  29.083  35.180  1.00  0.00     0.057 A 
ATOM     76  C   UNL A   1      45.367  29.522  34.918  1.00  0.00     0.134 A 
ATOM     77  C   UNL A   1      43.898  28.098  36.164  1.00  0.00     0.134 A 
ATOM     78  F   UNL A   1      45.596  30.452  33.979  1.00  0.00    -0.206 F 
ATOM     79  C   UNL A   1      46.466  28.985  35.591  1.00  0.00     0.040 A 
ATOM     80  C   UNL A   1      44.985  27.576  36.864  1.00  0.00     0.040 A 
ATOM     81  F   UNL A   1      42.674  27.640  36.470  1.00  0.00    -0.206 F 
ATOM     82  C   UNL A   1      46.275  28.014  36.572  1.00  0.00     0.006 A 
ENDBRANCH  58  75
ENDBRANCH  32  33
ENDBRANCH  24  27
ENDBRANCH  22  23
ENDBRANCH  21  22
ENDBRANCH  20  21
ENDBRANCH   3  20
TORSDOF 15
ENDMDL
MODEL 3
REMARK VINA RESULT:     -10.8      6.095     10.192
REMARK SMILES C[C@H]([NH2+]CC1(O)CCCC1)[C@H](C)C(=O)NCCCNC(=O)c1ccc(-c2c3nc(c(-c4c(F)cccc4F)c4ccc([nH]4)c(-c4c(F)cccc4F)c4nc(c(-c5c(F)cccc5F)c5ccc2[nH]5)C=C4)C=C3)cc1
REMARK SMILES IDX 13 1 14 2 15 3 11 5 12 6 2 7 1 8 3 9 4 12 5 13 7 14 10 15
REMARK SMILES IDX 8 16 9 17 6 18 16 20 17 21 18 22 19 23 20 24 21 26 22 27
REMARK SMILES IDX 23 28 75 29 24 30 74 31 25 32 26 33 27 34 68 35 28 36 73 37
REMARK SMILES IDX 67 38 69 39 29 40 72 41 66 42 65 43 30 45 56 46 39 47 55 48
REMARK SMILES IDX 40 49 43 50 54 51 70 52 41 53 42 54 53 56 71 57 44 58 31 59
REMARK SMILES IDX 32 60 37 61 33 62 34 63 36 64 38 65 35 66 57 67 58 68 63 69
REMARK SMILES IDX 59 70 60 71 62 72 64 73 61 74 45 75 46 76 51 77 47 78 48 79
REMARK SMILES IDX 50 80 52 81 49 82
REMARK H PARENT 15 4 3 10 3 11 6 19 19 25 69 44 43 55
REMARK Flexibility Score: inf
ROOT
ATOM      1  C   UNL A   1      31.727  28.291  26.940  1.00  0.00     0.228 C 
ATOM      2  O   UNL A   1      31.420  27.575  27.899  1.00  0.00    -0.275 OA
ATOM      3  N   UNL A   1      31.657  29.631  27.138  1.00  0.00    -0.356 N 
ATOM      4  H   UNL A   1      31.479  29.894  28.069  1.00  0.00     0.163 HD
ENDROOT
BRANCH   1   5
ATOM      5  C   UNL A   1      32.154  27.667  25.615  1.00  0.00     0.133 C 
ATOM      6  C   UNL A   1      33.408  26.816  25.843  1.00  0.00     0.024 C 
BRANCH   5   7
ATOM      7  C   UNL A   1      31.048  26.915  24.822  1.00  0.00     0.191 C 
ATOM      8  C   UNL A   1      31.241  25.388  24.863  1.00  0.00     0.076 C 
BRANCH   7   9
ATOM      9  N   UNL A   1      30.779  27.352  23.440  1.00  0.00    -0.341 N 
ATOM     10  H   UNL A   1      29.796  27.169  23.238  1.00  0.00     0.346 HD
ATOM     11  H   UNL A   1      31.426  26.827  22.852  1.00  0.00     0.346 HD
BRANCH   9  12
ATOM     12  C   UNL A   1      31.043  28.778  23.158  1.00  0.00     0.296 C 
BRANCH  12  13
ATOM     13  C   UNL A   1      29.796  29.547  22.642  1.00  0.00     0.113 C 
ATOM     14  C   UNL A   1      29.495  30.777  23.509  1.00  0.00     0.041 C 
ATOM     15  C   UNL A   1      28.474  28.775  22.719  1.00  0.00     0.041 C 
ATOM     16  C   UNL A   1      28.033  31.122  23.221  1.00  0.00     0.003 C 
ATOM     17  C   UNL A   1      27.392  29.852  22.666  1.00  0.00     0.003 C 
BRANCH  13  18
ATOM     18  O   UNL A   1      30.042  29.964  21.294  1.00  0.00    -0.384 OA
ATOM     19  H   UNL A   1      29.261  29.776  20.750  1.00  0.00     0.211 HD
ENDBRANCH  13  18
ENDBRANCH  12  13
ENDBRANCH   9  12
ENDBRANCH   7   9
ENDBRANCH   5   7
ENDBRANCH   1   5
BRANCH   3  20
ATOM     20  C   UNL A   1      31.800  30.743  26.220  1.00  0.00     0.117 C 
BRANCH  20  21
ATOM     21  C   UNL A   1      31.588  32.075  26.922  1.00  0.00     0.042 C 
BRANCH  21  22
ATOM     22  C   UNL A   1      32.863  32.890  27.078  1.00  0.00     0.118 C 
BRANCH  22  23
ATOM     23  N   UNL A   1      32.625  34.190  27.695  1.00  0.00    -0.352 N 
ATOM     24  C   UNL A   1      33.194  34.748  28.811  1.00  0.00     0.251 C 
ATOM     25  H   UNL A   1      31.954  34.751  27.243  1.00  0.00     0.163 HD
ATOM     26  O   UNL A   1      32.719  35.777  29.291  1.00  0.00    -0.269 OA
BRANCH  24  27
ATOM     27  C   UNL A   1      34.361  34.107  29.448  1.00  0.00     0.039 A 
ATOM     28  C   UNL A   1      34.152  33.196  30.486  1.00  0.00     0.014 A 
ATOM     29  C   UNL A   1      35.659  34.401  29.024  1.00  0.00     0.014 A 
ATOM     30  C   UNL A   1      35.242  32.530  31.049  1.00  0.00     0.010 A 
ATOM     31  C   UNL A   1      36.731  33.668  29.517  1.00  0.00     0.010 A 
ATOM     32  C   UNL A   1      36.536  32.730  30.541  1.00  0.00    -0.014 A 
BRANCH  32  33
ATOM     33  C   UNL A   1      37.702  31.980  31.071  1.00  0.00     0.031 A 
ATOM     34  C   UNL A   1      38.270  32.324  32.419  1.00  0.00     0.074 A 
ATOM     35  C   UNL A   1      38.287  31.034  30.310  1.00  0.00     0.049 A 
ATOM     36  N   UNL A   1      39.324  31.835  33.023  1.00  0.00    -0.248 NA
ATOM     37  C   UNL A   1      37.579  33.377  33.180  1.00  0.00     0.031 C 
ATOM     38  C   UNL A   1      37.859  30.641  28.966  1.00  0.00     0.029 A 
ATOM     39  N   UNL A   1      39.377  30.238  30.556  1.00  0.00    -0.354 N 
ATOM     40  C   UNL A   1      39.429  32.530  34.221  1.00  0.00     0.074 A 
ATOM     41  C   UNL A   1      38.372  33.515  34.233  1.00  0.00     0.031 C 
ATOM     42  C   UNL A   1      38.657  29.659  28.520  1.00  0.00     0.029 A 
ATOM     43  C   UNL A   1      39.678  29.382  29.524  1.00  0.00     0.049 A 
ATOM     44  H   UNL A   1      39.894  30.275  31.394  1.00  0.00     0.167 HD
ATOM     45  C   UNL A   1      40.309  32.344  35.233  1.00  0.00     0.037 A 
ATOM     46  C   UNL A   1      40.670  28.481  29.400  1.00  0.00     0.037 A 
ATOM     47  C   UNL A   1      41.348  31.349  35.226  1.00  0.00     0.049 A 
ATOM     48  C   UNL A   1      41.649  28.309  30.530  1.00  0.00     0.074 A 
ATOM     49  C   UNL A   1      42.259  31.045  36.223  1.00  0.00     0.029 A 
ATOM     50  N   UNL A   1      41.616  30.496  34.166  1.00  0.00    -0.354 N 
ATOM     51  N   UNL A   1      41.696  28.927  31.685  1.00  0.00    -0.248 NA
ATOM     52  C   UNL A   1      42.710  27.311  30.338  1.00  0.00     0.031 C 
ATOM     53  C   UNL A   1      43.109  30.043  35.746  1.00  0.00     0.029 A 
ATOM     54  C   UNL A   1      42.694  29.683  34.474  1.00  0.00     0.049 A 
ATOM     55  H   UNL A   1      41.115  30.473  33.319  1.00  0.00     0.167 HD
ATOM     56  C   UNL A   1      42.769  28.371  32.370  1.00  0.00     0.074 A 
ATOM     57  C   UNL A   1      43.337  27.358  31.505  1.00  0.00     0.031 C 
ATOM     58  C   UNL A   1      43.242  28.671  33.605  1.00  0.00     0.037 A 
BRANCH  45  59
ATOM     59  C   UNL A   1      40.178  33.237  36.434  1.00  0.00     0.057 A 
ATOM     60  C   UNL A   1      40.937  34.406  36.573  1.00  0.00     0.134 A 
ATOM     61  C   UNL A   1      39.265  32.938  37.453  1.00  0.00     0.134 A 
ATOM     62  F   UNL A   1      41.839  34.746  35.639  1.00  0.00    -0.206 F 
ATOM     63  C   UNL A   1      40.818  35.228  37.696  1.00  0.00     0.040 A 
ATOM     64  C   UNL A   1      39.114  33.767  38.566  1.00  0.00     0.040 A 
ATOM     65  F   UNL A   1      38.500  31.837  37.383  1.00  0.00    -0.206 F 
ATOM     66  C   UNL A   1      39.899  34.911  38.694  1.00  0.00     0.006 A 
ENDBRANCH  45  59
BRANCH  46  67
ATOM     67  C   UNL A   1      40.776  27.652  28.173  1.00  0.00     0.057 A 
ATOM     68  C   UNL A   1      40.166  26.394  28.098  1.00  0.00     0.134 A 
ATOM     69  C   UNL A   1      41.494  28.087  27.052  1.00  0.00     0.134 A 
ATOM     70  F   UNL A   1      39.479  25.915  29.146  1.00  0.00    -0.206 F 
ATOM     71  C   UNL A   1      40.284  25.589  26.965  1.00  0.00     0.040 A 
ATOM     72  C   UNL A   1      41.597  27.304  25.901  1.00  0.00     0.040 A 
ATOM     73  F   UNL A   1      42.094  29.287  27.055  1.00  0.00    -0.206 F 
ATOM     74  C   UNL A   1      40.998  26.046  25.859  1.00  0.00     0.006 A 
ENDBRANCH  46  67
BRANCH  58  75
ATOM     75  C   UNL A   1      44.404  27.868  34.109  1.00  0.00     0.057 A 
ATOM     76  C   UNL A   1      45.727  28.302  33.962  1.00  0.00     0.134 A 
ATOM     77  C   UNL A   1      44.192  26.659  34.787  1.00  0.00     0.134 A 
ATOM     78  F   UNL A   1      46.000  29.443  33.311  1.00  0.00    -0.206 F 
ATOM     79  C   UNL A   1      46.800  27.551  34.448  1.00  0.00     0.040 A 
ATOM     80  C   UNL A   1      45.253  25.915  35.303  1.00  0.00     0.040 A 
ATOM     81  F   UNL A   1      42.948  26.190  34.971  1.00  0.00    -0.206 F 
ATOM     82  C   UNL A   1      46.562  26.357  35.127  1.00  0.00     0.006 A 
ENDBRANCH  58  75
ENDBRANCH  32  33
ENDBRANCH  24  27
ENDBRANCH  22  23
ENDBRANCH  21  22
ENDBRANCH  20  21
ENDBRANCH   3  20
TORSDOF 15
ENDMDL
