MODEL 1
REMARK VINA RESULT:     -11.1      0.000      0.000
REMARK SMILES COC[C@@H](C)Nc1ccc([N+](=O)[O-])c(C(=O)NCCCNC(=O)c2ccc(-c3c4nc(c(-c5c(F)cccc5F)c5ccc([nH]5)c(-c5c(F)cccc5F)c5nc(c(-c6c(F)cccc6F)c6ccc3[nH]6)C=C5)C=C4)cc2)c1
REMARK SMILES IDX 18 1 17 2 15 3 16 4 14 6 7 7 8 8 78 9 9 10 10 11 6 12 4 14
REMARK SMILES IDX 5 15 3 16 2 17 1 18 11 19 12 20 13 21 19 22 20 23 21 24
REMARK SMILES IDX 22 25 23 27 24 28 25 29 77 30 26 31 76 32 27 33 28 34 29 35
REMARK SMILES IDX 70 36 30 37 75 38 69 39 71 40 31 41 74 42 68 43 67 44 32 46
REMARK SMILES IDX 58 47 41 48 57 49 42 50 45 51 56 52 72 53 43 54 44 55 55 57
REMARK SMILES IDX 73 58 46 59 33 60 34 61 39 62 35 63 36 64 38 65 40 66 37 67
REMARK SMILES IDX 59 68 60 69 65 70 61 71 62 72 64 73 66 74 63 75 47 76 48 77
REMARK SMILES IDX 53 78 49 79 50 80 52 81 54 82 51 83
REMARK H PARENT 17 5 6 13 21 26 71 45 45 56
REMARK Flexibility Score: inf
ROOT
ATOM      1  C   UNL A   1      37.117  21.490  24.320  1.00  0.00     0.118 C 
ENDROOT
BRANCH   1   2
ATOM      2  N   UNL A   1      36.325  22.204  25.317  1.00  0.00    -0.352 N 
ATOM      3  C   UNL A   1      34.983  22.403  25.555  1.00  0.00     0.258 C 
ATOM      4  O   UNL A   1      34.717  23.236  26.420  1.00  0.00    -0.269 OA
ATOM      5  H   UNL A   1      36.890  22.656  25.985  1.00  0.00     0.163 HD
BRANCH   3   6
ATOM      6  C   UNL A   1      33.879  21.774  24.773  1.00  0.00     0.119 A 
ATOM      7  C   UNL A   1      32.801  19.680  24.079  1.00  0.00     0.036 A 
ATOM      8  C   UNL A   1      32.303  20.328  22.946  1.00  0.00     0.033 A 
ATOM      9  C   UNL A   1      33.463  20.468  25.026  1.00  0.00     0.046 A 
ATOM     10  C   UNL A   1      32.482  21.703  22.775  1.00  0.00     0.088 A 
ATOM     11  C   UNL A   1      33.275  22.413  23.688  1.00  0.00     0.282 A 
BRANCH   7  12
ATOM     12  N   UNL A   1      32.597  18.323  24.248  1.00  0.00    -0.380 N 
ATOM     13  H   UNL A   1      31.673  18.017  24.393  1.00  0.00     0.160 HD
BRANCH  12  14
ATOM     14  C   UNL A   1      33.657  17.302  24.226  1.00  0.00     0.102 C 
ATOM     15  C   UNL A   1      33.917  16.866  22.780  1.00  0.00     0.033 C 
BRANCH  14  16
ATOM     16  C   UNL A   1      33.245  16.120  25.131  1.00  0.00     0.184 C 
BRANCH  16  17
ATOM     17  O   UNL A   1      34.282  15.159  25.334  1.00  0.00    -0.383 OA
ATOM     18  C   UNL A   1      35.586  15.708  25.444  1.00  0.00     0.194 C 
ENDBRANCH  16  17
ENDBRANCH  14  16
ENDBRANCH  12  14
ENDBRANCH   7  12
BRANCH  11  19
ATOM     19  N   UNL A   1      33.286  23.860  23.556  1.00  0.00     0.063 N 
ATOM     20  O   UNL A   1      34.064  24.340  22.720  1.00  0.00    -0.258 OA
ATOM     21  O   UNL A   1      32.411  24.484  24.172  1.00  0.00    -0.258 OA
ENDBRANCH  11  19
ENDBRANCH   3   6
ENDBRANCH   1   2
BRANCH   1  22
ATOM     22  C   UNL A   1      37.826  20.265  24.875  1.00  0.00     0.042 C 
BRANCH  22  23
ATOM     23  C   UNL A   1      38.949  20.586  25.845  1.00  0.00     0.118 C 
BRANCH  23  24
ATOM     24  N   UNL A   1      39.972  19.547  25.878  1.00  0.00    -0.352 N 
ATOM     25  C   UNL A   1      41.328  19.623  26.084  1.00  0.00     0.251 C 
ATOM     26  H   UNL A   1      39.631  18.636  25.725  1.00  0.00     0.163 HD
ATOM     27  O   UNL A   1      42.033  18.651  25.834  1.00  0.00    -0.269 OA
BRANCH  25  28
ATOM     28  C   UNL A   1      41.949  20.873  26.575  1.00  0.00     0.039 A 
ATOM     29  C   UNL A   1      42.425  21.804  25.647  1.00  0.00     0.014 A 
ATOM     30  C   UNL A   1      42.081  21.125  27.941  1.00  0.00     0.014 A 
ATOM     31  C   UNL A   1      42.937  23.026  26.091  1.00  0.00     0.010 A 
ATOM     32  C   UNL A   1      42.495  22.378  28.379  1.00  0.00     0.010 A 
ATOM     33  C   UNL A   1      42.921  23.346  27.458  1.00  0.00    -0.014 A 
BRANCH  33  34
ATOM     34  C   UNL A   1      43.308  24.694  27.945  1.00  0.00     0.031 A 
ATOM     35  C   UNL A   1      42.256  25.727  28.244  1.00  0.00     0.074 A 
ATOM     36  C   UNL A   1      44.615  25.016  28.025  1.00  0.00     0.049 A 
ATOM     37  N   UNL A   1      42.404  26.983  28.578  1.00  0.00    -0.248 NA
ATOM     38  C   UNL A   1      40.852  25.301  28.123  1.00  0.00     0.031 C 
ATOM     39  C   UNL A   1      45.728  24.120  27.706  1.00  0.00     0.029 A 
ATOM     40  N   UNL A   1      45.228  26.192  28.381  1.00  0.00    -0.354 N 
ATOM     41  C   UNL A   1      41.120  27.499  28.691  1.00  0.00     0.074 A 
ATOM     42  C   UNL A   1      40.204  26.436  28.342  1.00  0.00     0.031 C 
ATOM     43  C   UNL A   1      46.886  24.770  27.898  1.00  0.00     0.029 A 
ATOM     44  C   UNL A   1      46.599  26.142  28.303  1.00  0.00     0.049 A 
ATOM     45  H   UNL A   1      44.733  26.994  28.663  1.00  0.00     0.167 HD
ATOM     46  C   UNL A   1      40.739  28.742  29.069  1.00  0.00     0.037 A 
ATOM     47  C   UNL A   1      47.524  27.097  28.517  1.00  0.00     0.037 A 
ATOM     48  C   UNL A   1      41.654  29.790  29.439  1.00  0.00     0.049 A 
ATOM     49  C   UNL A   1      47.072  28.473  28.923  1.00  0.00     0.074 A 
ATOM     50  C   UNL A   1      41.366  31.058  29.914  1.00  0.00     0.029 A 
ATOM     51  N   UNL A   1      43.036  29.696  29.365  1.00  0.00    -0.354 N 
ATOM     52  N   UNL A   1      45.854  28.921  29.110  1.00  0.00    -0.248 NA
ATOM     53  C   UNL A   1      48.122  29.476  29.149  1.00  0.00     0.031 C 
ATOM     54  C   UNL A   1      42.570  31.750  30.069  1.00  0.00     0.029 A 
ATOM     55  C   UNL A   1      43.612  30.895  29.749  1.00  0.00     0.049 A 
ATOM     56  H   UNL A   1      43.533  28.895  29.081  1.00  0.00     0.167 HD
ATOM     57  C   UNL A   1      45.992  30.248  29.494  1.00  0.00     0.074 A 
ATOM     58  C   UNL A   1      47.413  30.526  29.536  1.00  0.00     0.031 C 
ATOM     59  C   UNL A   1      45.029  31.156  29.784  1.00  0.00     0.037 A 
BRANCH  46  60
ATOM     60  C   UNL A   1      39.268  29.043  29.106  1.00  0.00     0.057 A 
ATOM     61  C   UNL A   1      38.565  29.446  27.964  1.00  0.00     0.134 A 
ATOM     62  C   UNL A   1      38.535  28.874  30.288  1.00  0.00     0.134 A 
ATOM     63  F   UNL A   1      39.207  29.636  26.802  1.00  0.00    -0.206 F 
ATOM     64  C   UNL A   1      37.190  29.689  27.999  1.00  0.00     0.040 A 
ATOM     65  C   UNL A   1      37.156  29.087  30.330  1.00  0.00     0.040 A 
ATOM     66  F   UNL A   1      39.143  28.484  31.418  1.00  0.00    -0.206 F 
ATOM     67  C   UNL A   1      36.480  29.502  29.183  1.00  0.00     0.006 A 
ENDBRANCH  46  60
BRANCH  47  68
ATOM     68  C   UNL A   1      48.968  26.792  28.347  1.00  0.00     0.057 A 
ATOM     69  C   UNL A   1      49.611  26.991  27.120  1.00  0.00     0.134 A 
ATOM     70  C   UNL A   1      49.737  26.282  29.401  1.00  0.00     0.134 A 
ATOM     71  F   UNL A   1      48.926  27.461  26.067  1.00  0.00    -0.206 F 
ATOM     72  C   UNL A   1      50.958  26.672  26.939  1.00  0.00     0.040 A 
ATOM     73  C   UNL A   1      51.091  25.987  29.243  1.00  0.00     0.040 A 
ATOM     74  F   UNL A   1      49.183  26.078  30.606  1.00  0.00    -0.206 F 
ATOM     75  C   UNL A   1      51.703  26.172  28.005  1.00  0.00     0.006 A 
ENDBRANCH  47  68
BRANCH  59  76
ATOM     76  C   UNL A   1      45.478  32.529  30.190  1.00  0.00     0.057 A 
ATOM     77  C   UNL A   1      45.760  32.849  31.525  1.00  0.00     0.134 A 
ATOM     78  C   UNL A   1      45.675  33.530  29.230  1.00  0.00     0.134 A 
ATOM     79  F   UNL A   1      45.579  31.940  32.494  1.00  0.00    -0.206 F 
ATOM     80  C   UNL A   1      46.201  34.121  31.892  1.00  0.00     0.040 A 
ATOM     81  C   UNL A   1      46.144  34.796  29.581  1.00  0.00     0.040 A 
ATOM     82  F   UNL A   1      45.432  33.288  27.933  1.00  0.00    -0.206 F 
ATOM     83  C   UNL A   1      46.403  35.097  30.917  1.00  0.00     0.006 A 
ENDBRANCH  59  76
ENDBRANCH  33  34
ENDBRANCH  25  28
ENDBRANCH  23  24
ENDBRANCH  22  23
ENDBRANCH   1  22
TORSDOF 15
ENDMDL
MODEL 2
REMARK VINA RESULT:     -11.1      5.468     10.051
REMARK SMILES COC[C@@H](C)Nc1ccc([N+](=O)[O-])c(C(=O)NCCCNC(=O)c2ccc(-c3c4nc(c(-c5c(F)cccc5F)c5ccc([nH]5)c(-c5c(F)cccc5F)c5nc(c(-c6c(F)cccc6F)c6ccc3[nH]6)C=C5)C=C4)cc2)c1
REMARK SMILES IDX 18 1 17 2 15 3 16 4 14 6 7 7 8 8 78 9 9 10 10 11 6 12 4 14
REMARK SMILES IDX 5 15 3 16 2 17 1 18 11 19 12 20 13 21 19 22 20 23 21 24
REMARK SMILES IDX 22 25 23 27 24 28 25 29 77 30 26 31 76 32 27 33 28 34 29 35
REMARK SMILES IDX 70 36 30 37 75 38 69 39 71 40 31 41 74 42 68 43 67 44 32 46
REMARK SMILES IDX 58 47 41 48 57 49 42 50 45 51 56 52 72 53 43 54 44 55 55 57
REMARK SMILES IDX 73 58 46 59 33 60 34 61 39 62 35 63 36 64 38 65 40 66 37 67
REMARK SMILES IDX 59 68 60 69 65 70 61 71 62 72 64 73 66 74 63 75 47 76 48 77
REMARK SMILES IDX 53 78 49 79 50 80 52 81 54 82 51 83
REMARK H PARENT 17 5 6 13 21 26 71 45 45 56
REMARK Flexibility Score: inf
ROOT
ATOM      1  C   UNL A   1      31.740  30.489  26.505  1.00  0.00     0.118 C 
ENDROOT
BRANCH   1   2
ATOM      2  N   UNL A   1      32.343  30.084  25.239  1.00  0.00    -0.352 N 
ATOM      3  C   UNL A   1      32.060  29.156  24.262  1.00  0.00     0.258 C 
ATOM      4  O   UNL A   1      32.935  28.999  23.412  1.00  0.00    -0.269 OA
ATOM      5  H   UNL A   1      33.154  30.603  25.032  1.00  0.00     0.163 HD
BRANCH   3   6
ATOM      6  C   UNL A   1      30.850  28.283  24.244  1.00  0.00     0.119 A 
ATOM      7  C   UNL A   1      29.940  26.044  24.672  1.00  0.00     0.036 A 
ATOM      8  C   UNL A   1      28.920  26.297  23.751  1.00  0.00     0.033 A 
ATOM      9  C   UNL A   1      30.795  27.104  24.986  1.00  0.00     0.046 A 
ATOM     10  C   UNL A   1      28.785  27.558  23.166  1.00  0.00     0.088 A 
ATOM     11  C   UNL A   1      29.757  28.539  23.413  1.00  0.00     0.282 A 
BRANCH   7  12
ATOM     12  N   UNL A   1      30.047  24.798  25.262  1.00  0.00    -0.380 N 
ATOM     13  H   UNL A   1      29.263  24.456  25.749  1.00  0.00     0.160 HD
BRANCH  12  14
ATOM     14  C   UNL A   1      31.246  23.944  25.216  1.00  0.00     0.102 C 
ATOM     15  C   UNL A   1      31.319  23.239  23.857  1.00  0.00     0.033 C 
BRANCH  14  16
ATOM     16  C   UNL A   1      31.207  22.947  26.395  1.00  0.00     0.184 C 
BRANCH  16  17
ATOM     17  O   UNL A   1      31.971  23.363  27.528  1.00  0.00    -0.383 OA
ATOM     18  C   UNL A   1      32.952  22.431  27.957  1.00  0.00     0.194 C 
ENDBRANCH  16  17
ENDBRANCH  14  16
ENDBRANCH  12  14
ENDBRANCH   7  12
BRANCH  11  19
ATOM     19  N   UNL A   1      29.477  29.876  22.916  1.00  0.00     0.063 N 
ATOM     20  O   UNL A   1      29.329  30.768  23.763  1.00  0.00    -0.258 OA
ATOM     21  O   UNL A   1      29.563  30.046  21.692  1.00  0.00    -0.258 OA
ENDBRANCH  11  19
ENDBRANCH   3   6
ENDBRANCH   1   2
BRANCH   1  22
ATOM     22  C   UNL A   1      31.575  31.994  26.643  1.00  0.00     0.042 C 
BRANCH  22  23
ATOM     23  C   UNL A   1      32.785  32.698  27.232  1.00  0.00     0.118 C 
BRANCH  23  24
ATOM     24  N   UNL A   1      32.493  34.070  27.629  1.00  0.00    -0.352 N 
ATOM     25  C   UNL A   1      33.038  34.860  28.612  1.00  0.00     0.251 C 
ATOM     26  H   UNL A   1      31.783  34.505  27.102  1.00  0.00     0.163 HD
ATOM     27  O   UNL A   1      32.479  35.905  28.928  1.00  0.00    -0.269 OA
BRANCH  25  28
ATOM     28  C   UNL A   1      34.274  34.448  29.314  1.00  0.00     0.039 A 
ATOM     29  C   UNL A   1      34.172  33.859  30.578  1.00  0.00     0.014 A 
ATOM     30  C   UNL A   1      35.530  34.654  28.744  1.00  0.00     0.014 A 
ATOM     31  C   UNL A   1      35.321  33.387  31.218  1.00  0.00     0.010 A 
ATOM     32  C   UNL A   1      36.659  34.096  29.333  1.00  0.00     0.010 A 
ATOM     33  C   UNL A   1      36.567  33.449  30.573  1.00  0.00    -0.014 A 
BRANCH  33  34
ATOM     34  C   UNL A   1      37.775  32.814  31.156  1.00  0.00     0.031 A 
ATOM     35  C   UNL A   1      38.373  31.588  30.522  1.00  0.00     0.074 A 
ATOM     36  C   UNL A   1      38.277  33.290  32.314  1.00  0.00     0.049 A 
ATOM     37  N   UNL A   1      39.360  30.840  30.943  1.00  0.00    -0.248 NA
ATOM     38  C   UNL A   1      37.763  31.124  29.265  1.00  0.00     0.031 C 
ATOM     39  C   UNL A   1      37.750  34.438  33.056  1.00  0.00     0.029 A 
ATOM     40  N   UNL A   1      39.330  32.857  33.081  1.00  0.00    -0.354 N 
ATOM     41  C   UNL A   1      39.478  29.812  30.016  1.00  0.00     0.074 A 
ATOM     42  C   UNL A   1      38.431  30.004  29.037  1.00  0.00     0.031 C 
ATOM     43  C   UNL A   1      38.491  34.628  34.158  1.00  0.00     0.029 A 
ATOM     44  C   UNL A   1      39.512  33.590  34.229  1.00  0.00     0.049 A 
ATOM     45  H   UNL A   1      39.899  32.094  32.832  1.00  0.00     0.167 HD
ATOM     46  C   UNL A   1      40.388  28.811  29.975  1.00  0.00     0.037 A 
ATOM     47  C   UNL A   1      40.391  33.433  35.237  1.00  0.00     0.037 A 
ATOM     48  C   UNL A   1      41.443  28.639  30.940  1.00  0.00     0.049 A 
ATOM     49  C   UNL A   1      41.383  32.304  35.172  1.00  0.00     0.074 A 
ATOM     50  C   UNL A   1      42.464  27.704  30.942  1.00  0.00     0.029 A 
ATOM     51  N   UNL A   1      41.606  29.412  32.080  1.00  0.00    -0.354 N 
ATOM     52  N   UNL A   1      41.537  31.391  34.243  1.00  0.00    -0.248 NA
ATOM     53  C   UNL A   1      42.323  32.182  36.295  1.00  0.00     0.031 C 
ATOM     54  C   UNL A   1      43.208  27.873  32.113  1.00  0.00     0.029 A 
ATOM     55  C   UNL A   1      42.689  28.951  32.812  1.00  0.00     0.049 A 
ATOM     56  H   UNL A   1      41.037  30.175  32.331  1.00  0.00     0.167 HD
ATOM     57  C   UNL A   1      42.602  30.602  34.659  1.00  0.00     0.074 A 
ATOM     58  C   UNL A   1      43.070  31.157  35.912  1.00  0.00     0.031 C 
ATOM     59  C   UNL A   1      43.141  29.514  34.058  1.00  0.00     0.037 A 
BRANCH  46  60
ATOM     60  C   UNL A   1      40.289  27.819  28.852  1.00  0.00     0.057 A 
ATOM     61  C   UNL A   1      40.974  27.998  27.643  1.00  0.00     0.134 A 
ATOM     62  C   UNL A   1      39.544  26.643  29.002  1.00  0.00     0.134 A 
ATOM     63  F   UNL A   1      41.698  29.107  27.429  1.00  0.00    -0.206 F 
ATOM     64  C   UNL A   1      40.904  27.054  26.616  1.00  0.00     0.040 A 
ATOM     65  C   UNL A   1      39.488  25.678  27.994  1.00  0.00     0.040 A 
ATOM     66  F   UNL A   1      38.868  26.403  30.136  1.00  0.00    -0.206 F 
ATOM     67  C   UNL A   1      40.166  25.886  26.794  1.00  0.00     0.006 A 
ENDBRANCH  46  60
BRANCH  47  68
ATOM     68  C   UNL A   1      40.374  34.363  36.395  1.00  0.00     0.057 A 
ATOM     69  C   UNL A   1      39.578  34.107  37.517  1.00  0.00     0.134 A 
ATOM     70  C   UNL A   1      41.142  35.535  36.404  1.00  0.00     0.134 A 
ATOM     71  F   UNL A   1      38.807  33.011  37.563  1.00  0.00    -0.206 F 
ATOM     72  C   UNL A   1      39.525  34.993  38.595  1.00  0.00     0.040 A 
ATOM     73  C   UNL A   1      41.122  36.414  37.487  1.00  0.00     0.040 A 
ATOM     74  F   UNL A   1      41.935  35.833  35.364  1.00  0.00    -0.206 F 
ATOM     75  C   UNL A   1      40.303  36.150  38.583  1.00  0.00     0.006 A 
ENDBRANCH  47  68
BRANCH  59  76
ATOM     76  C   UNL A   1      44.310  28.863  34.737  1.00  0.00     0.057 A 
ATOM     77  C   UNL A   1      45.627  29.280  34.501  1.00  0.00     0.134 A 
ATOM     78  C   UNL A   1      44.114  27.838  35.672  1.00  0.00     0.134 A 
ATOM     79  F   UNL A   1      45.884  30.246  33.607  1.00  0.00    -0.206 F 
ATOM     80  C   UNL A   1      46.708  28.686  35.154  1.00  0.00     0.040 A 
ATOM     81  C   UNL A   1      45.184  27.258  36.353  1.00  0.00     0.040 A 
ATOM     82  F   UNL A   1      42.879  27.398  35.952  1.00  0.00    -0.206 F 
ATOM     83  C   UNL A   1      46.487  27.677  36.091  1.00  0.00     0.006 A 
ENDBRANCH  59  76
ENDBRANCH  33  34
ENDBRANCH  25  28
ENDBRANCH  23  24
ENDBRANCH  22  23
ENDBRANCH   1  22
TORSDOF 15
ENDMDL
MODEL 3
REMARK VINA RESULT:     -11.1      1.266      6.940
REMARK SMILES COC[C@@H](C)Nc1ccc([N+](=O)[O-])c(C(=O)NCCCNC(=O)c2ccc(-c3c4nc(c(-c5c(F)cccc5F)c5ccc([nH]5)c(-c5c(F)cccc5F)c5nc(c(-c6c(F)cccc6F)c6ccc3[nH]6)C=C5)C=C4)cc2)c1
REMARK SMILES IDX 18 1 17 2 15 3 16 4 14 6 7 7 8 8 78 9 9 10 10 11 6 12 4 14
REMARK SMILES IDX 5 15 3 16 2 17 1 18 11 19 12 20 13 21 19 22 20 23 21 24
REMARK SMILES IDX 22 25 23 27 24 28 25 29 77 30 26 31 76 32 27 33 28 34 29 35
REMARK SMILES IDX 70 36 30 37 75 38 69 39 71 40 31 41 74 42 68 43 67 44 32 46
REMARK SMILES IDX 58 47 41 48 57 49 42 50 45 51 56 52 72 53 43 54 44 55 55 57
REMARK SMILES IDX 73 58 46 59 33 60 34 61 39 62 35 63 36 64 38 65 40 66 37 67
REMARK SMILES IDX 59 68 60 69 65 70 61 71 62 72 64 73 66 74 63 75 47 76 48 77
REMARK SMILES IDX 53 78 49 79 50 80 52 81 54 82 51 83
REMARK H PARENT 17 5 6 13 21 26 71 45 45 56
REMARK Flexibility Score: inf
ROOT
ATOM      1  C   UNL A   1      37.265  20.971  24.676  1.00  0.00     0.118 C 
ENDROOT
BRANCH   1   2
ATOM      2  N   UNL A   1      36.239  21.182  25.693  1.00  0.00    -0.352 N 
ATOM      3  C   UNL A   1      34.870  21.319  25.701  1.00  0.00     0.258 C 
ATOM      4  O   UNL A   1      34.379  21.668  26.774  1.00  0.00    -0.269 OA
ATOM      5  H   UNL A   1      36.622  21.240  26.599  1.00  0.00     0.163 HD
BRANCH   3   6
ATOM      6  C   UNL A   1      33.995  21.187  24.499  1.00  0.00     0.119 A 
ATOM      7  C   UNL A   1      32.802  22.358  22.701  1.00  0.00     0.036 A 
ATOM      8  C   UNL A   1      31.914  21.283  22.609  1.00  0.00     0.033 A 
ATOM      9  C   UNL A   1      33.898  22.210  23.557  1.00  0.00     0.046 A 
ATOM     10  C   UNL A   1      32.119  20.123  23.359  1.00  0.00     0.088 A 
ATOM     11  C   UNL A   1      33.156  20.088  24.304  1.00  0.00     0.282 A 
BRANCH   7  12
ATOM     12  N   UNL A   1      32.601  23.491  21.935  1.00  0.00    -0.380 N 
ATOM     13  H   UNL A   1      32.547  23.377  20.959  1.00  0.00     0.160 HD
BRANCH  12  14
ATOM     14  C   UNL A   1      32.461  24.856  22.469  1.00  0.00     0.102 C 
ATOM     15  C   UNL A   1      31.081  25.012  23.116  1.00  0.00     0.033 C 
BRANCH  14  16
ATOM     16  C   UNL A   1      32.696  25.875  21.332  1.00  0.00     0.184 C 
BRANCH  16  17
ATOM     17  O   UNL A   1      33.868  26.673  21.506  1.00  0.00    -0.383 OA
ATOM     18  C   UNL A   1      33.654  27.900  22.187  1.00  0.00     0.194 C 
ENDBRANCH  16  17
ENDBRANCH  14  16
ENDBRANCH  12  14
ENDBRANCH   7  12
BRANCH  11  19
ATOM     19  N   UNL A   1      33.425  18.805  24.930  1.00  0.00     0.063 N 
ATOM     20  O   UNL A   1      32.585  18.390  25.740  1.00  0.00    -0.258 OA
ATOM     21  O   UNL A   1      34.387  18.160  24.490  1.00  0.00    -0.258 OA
ENDBRANCH  11  19
ENDBRANCH   3   6
ENDBRANCH   1   2
BRANCH   1  22
ATOM     22  C   UNL A   1      38.209  19.823  24.997  1.00  0.00     0.042 C 
BRANCH  22  23
ATOM     23  C   UNL A   1      39.258  20.158  26.042  1.00  0.00     0.118 C 
BRANCH  23  24
ATOM     24  N   UNL A   1      40.378  19.224  26.026  1.00  0.00    -0.352 N 
ATOM     25  C   UNL A   1      41.731  19.436  26.133  1.00  0.00     0.251 C 
ATOM     26  H   UNL A   1      40.119  18.279  25.921  1.00  0.00     0.163 HD
ATOM     27  O   UNL A   1      42.509  18.529  25.857  1.00  0.00    -0.269 OA
BRANCH  25  28
ATOM     28  C   UNL A   1      42.259  20.755  26.548  1.00  0.00     0.039 A 
ATOM     29  C   UNL A   1      42.686  21.654  25.566  1.00  0.00     0.014 A 
ATOM     30  C   UNL A   1      42.352  21.104  27.895  1.00  0.00     0.014 A 
ATOM     31  C   UNL A   1      43.107  22.934  25.934  1.00  0.00     0.010 A 
ATOM     32  C   UNL A   1      42.674  22.408  28.254  1.00  0.00     0.010 A 
ATOM     33  C   UNL A   1      43.048  23.341  27.277  1.00  0.00    -0.014 A 
BRANCH  33  34
ATOM     34  C   UNL A   1      43.335  24.741  27.678  1.00  0.00     0.031 A 
ATOM     35  C   UNL A   1      44.751  25.189  27.918  1.00  0.00     0.074 A 
ATOM     36  C   UNL A   1      42.309  25.582  27.918  1.00  0.00     0.049 A 
ATOM     37  N   UNL A   1      45.187  26.337  28.370  1.00  0.00    -0.248 NA
ATOM     38  C   UNL A   1      45.815  24.210  27.644  1.00  0.00     0.031 C 
ATOM     39  C   UNL A   1      40.890  25.247  27.777  1.00  0.00     0.029 A 
ATOM     40  N   UNL A   1      42.300  26.885  28.349  1.00  0.00    -0.354 N 
ATOM     41  C   UNL A   1      46.568  26.212  28.449  1.00  0.00     0.074 A 
ATOM     42  C   UNL A   1      46.895  24.862  28.047  1.00  0.00     0.031 C 
ATOM     43  C   UNL A   1      40.150  26.320  28.096  1.00  0.00     0.029 A 
ATOM     44  C   UNL A   1      41.037  27.401  28.514  1.00  0.00     0.049 A 
ATOM     45  H   UNL A   1      43.119  27.400  28.526  1.00  0.00     0.167 HD
ATOM     46  C   UNL A   1      47.482  27.145  28.807  1.00  0.00     0.037 A 
ATOM     47  C   UNL A   1      40.634  28.603  28.967  1.00  0.00     0.037 A 
ATOM     48  C   UNL A   1      47.153  28.495  29.183  1.00  0.00     0.049 A 
ATOM     49  C   UNL A   1      41.670  29.616  29.370  1.00  0.00     0.074 A 
ATOM     50  C   UNL A   1      48.011  29.538  29.485  1.00  0.00     0.029 A 
ATOM     51  N   UNL A   1      45.863  28.986  29.321  1.00  0.00    -0.354 N 
ATOM     52  N   UNL A   1      42.977  29.512  29.356  1.00  0.00    -0.248 NA
ATOM     53  C   UNL A   1      41.177  30.913  29.853  1.00  0.00     0.031 C 
ATOM     54  C   UNL A   1      47.240  30.642  29.863  1.00  0.00     0.029 A 
ATOM     55  C   UNL A   1      45.902  30.306  29.740  1.00  0.00     0.049 A 
ATOM     56  H   UNL A   1      45.041  28.472  29.146  1.00  0.00     0.167 HD
ATOM     57  C   UNL A   1      43.461  30.733  29.806  1.00  0.00     0.074 A 
ATOM     58  C   UNL A   1      42.308  31.570  30.063  1.00  0.00     0.031 C 
ATOM     59  C   UNL A   1      44.745  31.125  29.993  1.00  0.00     0.037 A 
BRANCH  46  60
ATOM     60  C   UNL A   1      48.929  26.744  28.809  1.00  0.00     0.057 A 
ATOM     61  C   UNL A   1      49.742  26.896  27.678  1.00  0.00     0.134 A 
ATOM     62  C   UNL A   1      49.531  26.250  29.973  1.00  0.00     0.134 A 
ATOM     63  F   UNL A   1      49.228  27.354  26.527  1.00  0.00    -0.206 F 
ATOM     64  C   UNL A   1      51.096  26.552  27.700  1.00  0.00     0.040 A 
ATOM     65  C   UNL A   1      50.889  25.929  30.016  1.00  0.00     0.040 A 
ATOM     66  F   UNL A   1      48.813  26.085  31.095  1.00  0.00    -0.206 F 
ATOM     67  C   UNL A   1      51.674  26.075  28.874  1.00  0.00     0.006 A 
ENDBRANCH  46  60
BRANCH  47  68
ATOM     68  C   UNL A   1      39.185  28.917  29.069  1.00  0.00     0.057 A 
ATOM     69  C   UNL A   1      38.475  29.424  27.975  1.00  0.00     0.134 A 
ATOM     70  C   UNL A   1      38.479  28.730  30.265  1.00  0.00     0.134 A 
ATOM     71  F   UNL A   1      39.098  29.640  26.808  1.00  0.00    -0.206 F 
ATOM     72  C   UNL A   1      37.123  29.758  28.071  1.00  0.00     0.040 A 
ATOM     73  C   UNL A   1      37.121  29.032  30.367  1.00  0.00     0.040 A 
ATOM     74  F   UNL A   1      39.099  28.238  31.348  1.00  0.00    -0.206 F 
ATOM     75  C   UNL A   1      36.441  29.558  29.270  1.00  0.00     0.006 A 
ENDBRANCH  47  68
BRANCH  59  76
ATOM     76  C   UNL A   1      44.971  32.527  30.480  1.00  0.00     0.057 A 
ATOM     77  C   UNL A   1      45.108  32.821  31.842  1.00  0.00     0.134 A 
ATOM     78  C   UNL A   1      45.099  33.586  29.573  1.00  0.00     0.134 A 
ATOM     79  F   UNL A   1      44.982  31.855  32.763  1.00  0.00    -0.206 F 
ATOM     80  C   UNL A   1      45.343  34.124  32.286  1.00  0.00     0.040 A 
ATOM     81  C   UNL A   1      45.363  34.887  30.002  1.00  0.00     0.040 A 
ATOM     82  F   UNL A   1      44.988  33.372  28.253  1.00  0.00    -0.206 F 
ATOM     83  C   UNL A   1      45.480  35.160  31.364  1.00  0.00     0.006 A 
ENDBRANCH  59  76
ENDBRANCH  33  34
ENDBRANCH  25  28
ENDBRANCH  23  24
ENDBRANCH  22  23
ENDBRANCH   1  22
TORSDOF 15
ENDMDL
