MODEL 1
REMARK VINA RESULT:     -13.2      0.000      0.000
REMARK SMILES COc1cc(/C=C2/N=C(c3ccccc3)OC2=O)ccc1OCC(=O)NCCCNC(=O)c1ccc(-c2c3nc(c(-c4c(F)cccc4F)c4ccc([nH]4)c(-c4c(F)cccc4F)c4nc(c(-c5c(F)cccc5F)c5ccc2[nH]5)C=C4)C=C3)cc1
REMARK SMILES IDX 27 1 26 2 24 3 25 4 23 6 22 7 21 8 3 9 4 10 5 11 20 12 19 13
REMARK SMILES IDX 2 14 1 15 6 16 7 17 8 18 17 19 9 20 16 21 18 22 10 23 11 24
REMARK SMILES IDX 15 25 12 26 14 27 13 28 28 29 29 30 30 31 31 32 32 34 33 35
REMARK SMILES IDX 34 36 86 37 35 38 85 39 36 40 37 41 38 42 79 43 39 44 84 45
REMARK SMILES IDX 78 46 80 47 40 48 83 49 77 50 76 51 41 53 67 54 50 55 66 56
REMARK SMILES IDX 51 57 54 58 65 59 81 60 52 61 53 62 64 64 82 65 55 66 42 67
REMARK SMILES IDX 43 68 48 69 44 70 45 71 47 72 49 73 46 74 68 75 69 76 74 77
REMARK SMILES IDX 70 78 71 79 73 80 75 81 72 82 56 83 57 84 62 85 58 86 59 87
REMARK SMILES IDX 61 88 63 89 60 90
REMARK H PARENT 26 5 30 33 80 52 54 63
REMARK Flexibility Score: inf
ROOT
ATOM      1  C   UNL A   1      31.571  30.685  25.969  1.00  0.00     0.117 C 
ENDROOT
BRANCH   1   2
ATOM      2  N   UNL A   1      30.902  30.493  24.698  1.00  0.00    -0.353 N 
ATOM      3  C   UNL A   1      30.747  29.342  23.982  1.00  0.00     0.257 C 
ATOM      4  O   UNL A   1      29.942  29.358  23.048  1.00  0.00    -0.271 OA
ATOM      5  H   UNL A   1      30.509  31.302  24.297  1.00  0.00     0.163 HD
BRANCH   3   6
ATOM      6  C   UNL A   1      31.493  28.070  24.398  1.00  0.00     0.329 C 
BRANCH   6   7
ATOM      7  O   UNL A   1      32.821  27.940  23.926  1.00  0.00    -0.480 OA
BRANCH   7   8
ATOM      8  C   UNL A   1      33.471  26.740  23.946  1.00  0.00     0.161 A 
ATOM      9  C   UNL A   1      33.862  25.926  22.878  1.00  0.00     0.161 A 
ATOM     10  C   UNL A   1      34.449  24.672  23.127  1.00  0.00     0.058 A 
ATOM     11  C   UNL A   1      34.647  24.225  24.441  1.00  0.00    -0.019 A 
ATOM     12  C   UNL A   1      33.709  26.294  25.254  1.00  0.00     0.051 A 
ATOM     13  C   UNL A   1      34.299  25.056  25.505  1.00  0.00     0.012 A 
BRANCH   9  14
ATOM     14  O   UNL A   1      33.514  26.236  21.592  1.00  0.00    -0.493 OA
ATOM     15  C   UNL A   1      32.196  25.807  21.253  1.00  0.00     0.278 C 
ENDBRANCH   9  14
BRANCH  11  16
ATOM     16  C   UNL A   1      35.092  22.857  24.710  1.00  0.00     0.044 C 
ATOM     17  C   UNL A   1      34.271  21.797  24.751  1.00  0.00     0.153 C 
ATOM     18  N   UNL A   1      34.699  20.505  24.944  1.00  0.00    -0.205 NA
ATOM     19  C   UNL A   1      32.792  21.813  24.508  1.00  0.00     0.363 C 
ATOM     20  C   UNL A   1      33.622  19.820  24.730  1.00  0.00     0.231 C 
ATOM     21  O   UNL A   1      32.477  20.490  24.473  1.00  0.00    -0.402 OA
ATOM     22  O   UNL A   1      32.019  22.738  24.369  1.00  0.00    -0.244 OA
BRANCH  20  23
ATOM     23  C   UNL A   1      33.470  18.366  24.735  1.00  0.00     0.037 A 
ATOM     24  C   UNL A   1      32.689  17.754  25.718  1.00  0.00     0.014 A 
ATOM     25  C   UNL A   1      34.152  17.593  23.788  1.00  0.00     0.014 A 
ATOM     26  C   UNL A   1      32.589  16.362  25.750  1.00  0.00     0.001 A 
ATOM     27  C   UNL A   1      34.063  16.202  23.838  1.00  0.00     0.001 A 
ATOM     28  C   UNL A   1      33.281  15.589  24.817  1.00  0.00     0.000 A 
ENDBRANCH  20  23
ENDBRANCH  11  16
ENDBRANCH   7   8
ENDBRANCH   6   7
ENDBRANCH   3   6
ENDBRANCH   1   2
BRANCH   1  29
ATOM     29  C   UNL A   1      31.318  32.056  26.581  1.00  0.00     0.042 C 
BRANCH  29  30
ATOM     30  C   UNL A   1      32.531  32.685  27.256  1.00  0.00     0.118 C 
BRANCH  30  31
ATOM     31  N   UNL A   1      32.332  34.089  27.595  1.00  0.00    -0.352 N 
ATOM     32  C   UNL A   1      32.979  34.889  28.504  1.00  0.00     0.251 C 
ATOM     33  H   UNL A   1      31.616  34.537  27.090  1.00  0.00     0.163 HD
ATOM     34  O   UNL A   1      32.530  36.001  28.766  1.00  0.00    -0.269 OA
BRANCH  32  35
ATOM     35  C   UNL A   1      34.199  34.410  29.185  1.00  0.00     0.039 A 
ATOM     36  C   UNL A   1      34.090  33.867  30.468  1.00  0.00     0.014 A 
ATOM     37  C   UNL A   1      35.449  34.511  28.571  1.00  0.00     0.014 A 
ATOM     38  C   UNL A   1      35.226  33.356  31.102  1.00  0.00     0.010 A 
ATOM     39  C   UNL A   1      36.559  33.920  29.162  1.00  0.00     0.010 A 
ATOM     40  C   UNL A   1      36.461  33.341  30.437  1.00  0.00    -0.014 A 
BRANCH  40  41
ATOM     41  C   UNL A   1      37.671  32.739  31.055  1.00  0.00     0.031 A 
ATOM     42  C   UNL A   1      38.297  31.516  30.442  1.00  0.00     0.074 A 
ATOM     43  C   UNL A   1      38.159  33.243  32.205  1.00  0.00     0.049 A 
ATOM     44  N   UNL A   1      39.285  30.781  30.884  1.00  0.00    -0.248 NA
ATOM     45  C   UNL A   1      37.716  31.039  29.176  1.00  0.00     0.031 C 
ATOM     46  C   UNL A   1      37.618  34.402  32.919  1.00  0.00     0.029 A 
ATOM     47  N   UNL A   1      39.213  32.837  32.984  1.00  0.00    -0.354 N 
ATOM     48  C   UNL A   1      39.429  29.750  29.964  1.00  0.00     0.074 A 
ATOM     49  C   UNL A   1      38.392  29.919  28.972  1.00  0.00     0.031 C 
ATOM     50  C   UNL A   1      38.356  34.624  34.019  1.00  0.00     0.029 A 
ATOM     51  C   UNL A   1      39.391  33.599  34.113  1.00  0.00     0.049 A 
ATOM     52  H   UNL A   1      39.788  32.071  32.755  1.00  0.00     0.167 HD
ATOM     53  C   UNL A   1      40.359  28.766  29.935  1.00  0.00     0.037 A 
ATOM     54  C   UNL A   1      40.278  33.476  35.119  1.00  0.00     0.037 A 
ATOM     55  C   UNL A   1      41.403  28.612  30.914  1.00  0.00     0.049 A 
ATOM     56  C   UNL A   1      41.284  32.358  35.077  1.00  0.00     0.074 A 
ATOM     57  C   UNL A   1      42.423  27.678  30.946  1.00  0.00     0.029 A 
ATOM     58  N   UNL A   1      41.558  29.414  32.035  1.00  0.00    -0.354 N 
ATOM     59  N   UNL A   1      41.447  31.424  34.170  1.00  0.00    -0.248 NA
ATOM     60  C   UNL A   1      42.232  32.277  36.195  1.00  0.00     0.031 C 
ATOM     61  C   UNL A   1      43.162  27.881  32.116  1.00  0.00     0.029 A 
ATOM     62  C   UNL A   1      42.643  28.981  32.779  1.00  0.00     0.049 A 
ATOM     63  H   UNL A   1      40.982  30.178  32.267  1.00  0.00     0.167 HD
ATOM     64  C   UNL A   1      42.536  30.672  34.588  1.00  0.00     0.074 A 
ATOM     65  C   UNL A   1      43.002  31.264  35.825  1.00  0.00     0.031 C 
ATOM     66  C   UNL A   1      43.104  29.590  34.000  1.00  0.00     0.037 A 
BRANCH  53  67
ATOM     67  C   UNL A   1      40.287  27.776  28.806  1.00  0.00     0.057 A 
ATOM     68  C   UNL A   1      40.977  27.976  27.602  1.00  0.00     0.134 A 
ATOM     69  C   UNL A   1      39.548  26.594  28.936  1.00  0.00     0.134 A 
ATOM     70  F   UNL A   1      41.695  29.092  27.406  1.00  0.00    -0.206 F 
ATOM     71  C   UNL A   1      40.910  27.050  26.560  1.00  0.00     0.040 A 
ATOM     72  C   UNL A   1      39.500  25.646  27.912  1.00  0.00     0.040 A 
ATOM     73  F   UNL A   1      38.869  26.335  30.064  1.00  0.00    -0.206 F 
ATOM     74  C   UNL A   1      40.177  25.877  26.717  1.00  0.00     0.006 A 
ENDBRANCH  53  67
BRANCH  54  75
ATOM     75  C   UNL A   1      40.269  34.443  36.248  1.00  0.00     0.057 A 
ATOM     76  C   UNL A   1      39.483  34.218  37.385  1.00  0.00     0.134 A 
ATOM     77  C   UNL A   1      41.024  35.621  36.212  1.00  0.00     0.134 A 
ATOM     78  F   UNL A   1      38.723  33.116  37.473  1.00  0.00    -0.206 F 
ATOM     79  C   UNL A   1      39.426  35.141  38.431  1.00  0.00     0.040 A 
ATOM     80  C   UNL A   1      41.000  36.539  37.263  1.00  0.00     0.040 A 
ATOM     81  F   UNL A   1      41.805  35.893  35.156  1.00  0.00    -0.206 F 
ATOM     82  C   UNL A   1      40.191  36.304  38.373  1.00  0.00     0.006 A 
ENDBRANCH  54  75
BRANCH  66  83
ATOM     83  C   UNL A   1      44.323  29.007  34.656  1.00  0.00     0.057 A 
ATOM     84  C   UNL A   1      44.240  27.971  35.595  1.00  0.00     0.134 A 
ATOM     85  C   UNL A   1      45.601  29.460  34.304  1.00  0.00     0.134 A 
ATOM     86  F   UNL A   1      43.047  27.498  35.984  1.00  0.00    -0.206 F 
ATOM     87  C   UNL A   1      45.385  27.426  36.179  1.00  0.00     0.040 A 
ATOM     88  C   UNL A   1      46.753  28.901  34.857  1.00  0.00     0.040 A 
ATOM     89  F   UNL A   1      45.752  30.443  33.403  1.00  0.00    -0.206 F 
ATOM     90  C   UNL A   1      46.646  27.885  35.804  1.00  0.00     0.006 A 
ENDBRANCH  66  83
ENDBRANCH  40  41
ENDBRANCH  32  35
ENDBRANCH  30  31
ENDBRANCH  29  30
ENDBRANCH   1  29
TORSDOF 15
ENDMDL
MODEL 2
REMARK VINA RESULT:     -13.1      4.621     10.618
REMARK SMILES COc1cc(/C=C2/N=C(c3ccccc3)OC2=O)ccc1OCC(=O)NCCCNC(=O)c1ccc(-c2c3nc(c(-c4c(F)cccc4F)c4ccc([nH]4)c(-c4c(F)cccc4F)c4nc(c(-c5c(F)cccc5F)c5ccc2[nH]5)C=C4)C=C3)cc1
REMARK SMILES IDX 27 1 26 2 24 3 25 4 23 6 22 7 21 8 3 9 4 10 5 11 20 12 19 13
REMARK SMILES IDX 2 14 1 15 6 16 7 17 8 18 17 19 9 20 16 21 18 22 10 23 11 24
REMARK SMILES IDX 15 25 12 26 14 27 13 28 28 29 29 30 30 31 31 32 32 34 33 35
REMARK SMILES IDX 34 36 86 37 35 38 85 39 36 40 37 41 38 42 79 43 39 44 84 45
REMARK SMILES IDX 78 46 80 47 40 48 83 49 77 50 76 51 41 53 67 54 50 55 66 56
REMARK SMILES IDX 51 57 54 58 65 59 81 60 52 61 53 62 64 64 82 65 55 66 42 67
REMARK SMILES IDX 43 68 48 69 44 70 45 71 47 72 49 73 46 74 68 75 69 76 74 77
REMARK SMILES IDX 70 78 71 79 73 80 75 81 72 82 56 83 57 84 62 85 58 86 59 87
REMARK SMILES IDX 61 88 63 89 60 90
REMARK H PARENT 26 5 30 33 80 52 54 63
REMARK Flexibility Score: inf
ROOT
ATOM      1  C   UNL A   1      36.601  20.533  25.002  1.00  0.00     0.117 C 
ENDROOT
BRANCH   1   2
ATOM      2  N   UNL A   1      35.459  19.641  25.001  1.00  0.00    -0.353 N 
ATOM      3  C   UNL A   1      34.139  19.946  24.837  1.00  0.00     0.257 C 
ATOM      4  O   UNL A   1      33.360  19.012  24.633  1.00  0.00    -0.271 OA
ATOM      5  H   UNL A   1      35.662  18.687  25.137  1.00  0.00     0.163 HD
BRANCH   3   6
ATOM      6  C   UNL A   1      33.682  21.409  24.830  1.00  0.00     0.329 C 
BRANCH   6   7
ATOM      7  O   UNL A   1      33.625  22.054  26.088  1.00  0.00    -0.480 OA
BRANCH   7   8
ATOM      8  C   UNL A   1      33.218  23.352  26.206  1.00  0.00     0.161 A 
ATOM      9  C   UNL A   1      32.094  23.873  26.855  1.00  0.00     0.161 A 
ATOM     10  C   UNL A   1      31.813  25.249  26.780  1.00  0.00     0.058 A 
ATOM     11  C   UNL A   1      32.649  26.110  26.056  1.00  0.00    -0.019 A 
ATOM     12  C   UNL A   1      34.065  24.232  25.516  1.00  0.00     0.051 A 
ATOM     13  C   UNL A   1      33.794  25.598  25.446  1.00  0.00     0.012 A 
BRANCH   9  14
ATOM     14  O   UNL A   1      31.153  23.046  27.406  1.00  0.00    -0.493 OA
ATOM     15  C   UNL A   1      29.864  23.201  26.817  1.00  0.00     0.278 C 
ENDBRANCH   9  14
BRANCH  11  16
ATOM     16  C   UNL A   1      32.273  27.506  25.825  1.00  0.00     0.044 C 
ATOM     17  C   UNL A   1      31.518  27.916  24.796  1.00  0.00     0.153 C 
ATOM     18  N   UNL A   1      31.115  29.217  24.614  1.00  0.00    -0.205 NA
ATOM     19  C   UNL A   1      30.914  27.044  23.737  1.00  0.00     0.363 C 
ATOM     20  C   UNL A   1      30.280  29.116  23.630  1.00  0.00     0.231 C 
ATOM     21  O   UNL A   1      30.103  27.903  23.062  1.00  0.00    -0.402 OA
ATOM     22  O   UNL A   1      31.071  25.865  23.493  1.00  0.00    -0.244 OA
BRANCH  20  23
ATOM     23  C   UNL A   1      29.478  30.178  23.024  1.00  0.00     0.037 A 
ATOM     24  C   UNL A   1      29.124  30.095  21.676  1.00  0.00     0.014 A 
ATOM     25  C   UNL A   1      29.116  31.296  23.785  1.00  0.00     0.014 A 
ATOM     26  C   UNL A   1      28.402  31.136  21.088  1.00  0.00     0.001 A 
ATOM     27  C   UNL A   1      28.411  32.340  23.187  1.00  0.00     0.001 A 
ATOM     28  C   UNL A   1      28.055  32.259  21.840  1.00  0.00     0.000 A 
ENDBRANCH  20  23
ENDBRANCH  11  16
ENDBRANCH   7   8
ENDBRANCH   6   7
ENDBRANCH   3   6
ENDBRANCH   1   2
BRANCH   1  29
ATOM     29  C   UNL A   1      37.923  19.816  24.771  1.00  0.00     0.042 C 
BRANCH  29  30
ATOM     30  C   UNL A   1      39.046  20.231  25.715  1.00  0.00     0.118 C 
BRANCH  30  31
ATOM     31  N   UNL A   1      40.074  19.209  25.865  1.00  0.00    -0.352 N 
ATOM     32  C   UNL A   1      41.412  19.323  26.148  1.00  0.00     0.251 C 
ATOM     33  H   UNL A   1      39.757  18.285  25.742  1.00  0.00     0.163 HD
ATOM     34  O   UNL A   1      42.143  18.341  26.046  1.00  0.00    -0.269 OA
BRANCH  32  35
ATOM     35  C   UNL A   1      41.983  20.624  26.552  1.00  0.00     0.039 A 
ATOM     36  C   UNL A   1      42.370  21.531  25.562  1.00  0.00     0.014 A 
ATOM     37  C   UNL A   1      42.151  20.945  27.901  1.00  0.00     0.014 A 
ATOM     38  C   UNL A   1      42.856  22.789  25.927  1.00  0.00     0.010 A 
ATOM     39  C   UNL A   1      42.547  22.227  28.262  1.00  0.00     0.010 A 
ATOM     40  C   UNL A   1      42.909  23.162  27.279  1.00  0.00    -0.014 A 
BRANCH  40  41
ATOM     41  C   UNL A   1      43.352  24.517  27.697  1.00  0.00     0.031 A 
ATOM     42  C   UNL A   1      42.331  25.558  28.070  1.00  0.00     0.074 A 
ATOM     43  C   UNL A   1      44.660  24.835  27.666  1.00  0.00     0.049 A 
ATOM     44  N   UNL A   1      42.505  26.823  28.356  1.00  0.00    -0.248 NA
ATOM     45  C   UNL A   1      40.924  25.125  28.096  1.00  0.00     0.031 C 
ATOM     46  C   UNL A   1      45.745  23.926  27.285  1.00  0.00     0.029 A 
ATOM     47  N   UNL A   1      45.302  26.015  27.947  1.00  0.00    -0.354 N 
ATOM     48  C   UNL A   1      41.234  27.337  28.577  1.00  0.00     0.074 A 
ATOM     49  C   UNL A   1      40.294  26.266  28.334  1.00  0.00     0.031 C 
ATOM     50  C   UNL A   1      46.916  24.577  27.376  1.00  0.00     0.029 A 
ATOM     51  C   UNL A   1      46.664  25.958  27.776  1.00  0.00     0.049 A 
ATOM     52  H   UNL A   1      44.830  26.827  28.244  1.00  0.00     0.167 HD
ATOM     53  C   UNL A   1      40.882  28.584  28.972  1.00  0.00     0.037 A 
ATOM     54  C   UNL A   1      47.602  26.915  27.910  1.00  0.00     0.037 A 
ATOM     55  C   UNL A   1      41.821  29.643  29.233  1.00  0.00     0.049 A 
ATOM     56  C   UNL A   1      47.182  28.299  28.324  1.00  0.00     0.074 A 
ATOM     57  C   UNL A   1      41.569  30.926  29.685  1.00  0.00     0.029 A 
ATOM     58  N   UNL A   1      43.194  29.541  29.061  1.00  0.00    -0.354 N 
ATOM     59  N   UNL A   1      45.982  28.757  28.588  1.00  0.00    -0.248 NA
ATOM     60  C   UNL A   1      48.248  29.300  28.464  1.00  0.00     0.031 C 
ATOM     61  C   UNL A   1      42.784  31.617  29.734  1.00  0.00     0.029 A 
ATOM     62  C   UNL A   1      43.800  30.746  29.376  1.00  0.00     0.049 A 
ATOM     63  H   UNL A   1      43.667  28.731  28.762  1.00  0.00     0.167 HD
ATOM     64  C   UNL A   1      46.153  30.084  28.961  1.00  0.00     0.074 A 
ATOM     65  C   UNL A   1      47.573  30.355  28.899  1.00  0.00     0.031 C 
ATOM     66  C   UNL A   1      45.218  30.996  29.325  1.00  0.00     0.037 A 
BRANCH  53  67
ATOM     67  C   UNL A   1      39.417  28.870  29.147  1.00  0.00     0.057 A 
ATOM     68  C   UNL A   1      38.768  28.686  30.376  1.00  0.00     0.134 A 
ATOM     69  C   UNL A   1      38.653  29.367  28.083  1.00  0.00     0.134 A 
ATOM     70  F   UNL A   1      39.437  28.202  31.433  1.00  0.00    -0.206 F 
ATOM     71  C   UNL A   1      37.408  28.959  30.532  1.00  0.00     0.040 A 
ATOM     72  C   UNL A   1      37.299  29.674  28.237  1.00  0.00     0.040 A 
ATOM     73  F   UNL A   1      39.211  29.574  26.881  1.00  0.00    -0.206 F 
ATOM     74  C   UNL A   1      36.672  29.462  29.463  1.00  0.00     0.006 A 
ENDBRANCH  53  67
BRANCH  54  75
ATOM     75  C   UNL A   1      49.033  26.600  27.665  1.00  0.00     0.057 A 
ATOM     76  C   UNL A   1      49.597  26.744  26.391  1.00  0.00     0.134 A 
ATOM     77  C   UNL A   1      49.867  26.129  28.686  1.00  0.00     0.134 A 
ATOM     78  F   UNL A   1      48.845  27.173  25.366  1.00  0.00    -0.206 F 
ATOM     79  C   UNL A   1      50.926  26.404  26.134  1.00  0.00     0.040 A 
ATOM     80  C   UNL A   1      51.207  25.814  28.451  1.00  0.00     0.040 A 
ATOM     81  F   UNL A   1      49.393  25.977  29.932  1.00  0.00    -0.206 F 
ATOM     82  C   UNL A   1      51.737  25.942  27.169  1.00  0.00     0.006 A 
ENDBRANCH  54  75
BRANCH  66  83
ATOM     83  C   UNL A   1      45.703  32.357  29.736  1.00  0.00     0.057 A 
ATOM     84  C   UNL A   1      45.975  32.679  31.071  1.00  0.00     0.134 A 
ATOM     85  C   UNL A   1      45.945  33.343  28.770  1.00  0.00     0.134 A 
ATOM     86  F   UNL A   1      45.755  31.785  32.046  1.00  0.00    -0.206 F 
ATOM     87  C   UNL A   1      46.446  33.943  31.433  1.00  0.00     0.040 A 
ATOM     88  C   UNL A   1      46.445  34.598  29.117  1.00  0.00     0.040 A 
ATOM     89  F   UNL A   1      45.716  33.097  27.471  1.00  0.00    -0.206 F 
ATOM     90  C   UNL A   1      46.691  34.903  30.453  1.00  0.00     0.006 A 
ENDBRANCH  66  83
ENDBRANCH  40  41
ENDBRANCH  32  35
ENDBRANCH  30  31
ENDBRANCH  29  30
ENDBRANCH   1  29
TORSDOF 15
ENDMDL
MODEL 3
REMARK VINA RESULT:     -13.1      3.951      9.890
REMARK SMILES COc1cc(/C=C2/N=C(c3ccccc3)OC2=O)ccc1OCC(=O)NCCCNC(=O)c1ccc(-c2c3nc(c(-c4c(F)cccc4F)c4ccc([nH]4)c(-c4c(F)cccc4F)c4nc(c(-c5c(F)cccc5F)c5ccc2[nH]5)C=C4)C=C3)cc1
REMARK SMILES IDX 27 1 26 2 24 3 25 4 23 6 22 7 21 8 3 9 4 10 5 11 20 12 19 13
REMARK SMILES IDX 2 14 1 15 6 16 7 17 8 18 17 19 9 20 16 21 18 22 10 23 11 24
REMARK SMILES IDX 15 25 12 26 14 27 13 28 28 29 29 30 30 31 31 32 32 34 33 35
REMARK SMILES IDX 34 36 86 37 35 38 85 39 36 40 37 41 38 42 79 43 39 44 84 45
REMARK SMILES IDX 78 46 80 47 40 48 83 49 77 50 76 51 41 53 67 54 50 55 66 56
REMARK SMILES IDX 51 57 54 58 65 59 81 60 52 61 53 62 64 64 82 65 55 66 42 67
REMARK SMILES IDX 43 68 48 69 44 70 45 71 47 72 49 73 46 74 68 75 69 76 74 77
REMARK SMILES IDX 70 78 71 79 73 80 75 81 72 82 56 83 57 84 62 85 58 86 59 87
REMARK SMILES IDX 61 88 63 89 60 90
REMARK H PARENT 26 5 30 33 80 52 54 63
REMARK Flexibility Score: inf
ROOT
ATOM      1  C   UNL A   1      36.621  20.330  24.895  1.00  0.00     0.117 C 
ENDROOT
BRANCH   1   2
ATOM      2  N   UNL A   1      35.395  19.567  25.014  1.00  0.00    -0.353 N 
ATOM      3  C   UNL A   1      34.106  20.004  24.912  1.00  0.00     0.257 C 
ATOM      4  O   UNL A   1      33.222  19.150  24.808  1.00  0.00    -0.271 OA
ATOM      5  H   UNL A   1      35.506  18.605  25.192  1.00  0.00     0.163 HD
BRANCH   3   6
ATOM      6  C   UNL A   1      33.805  21.505  24.848  1.00  0.00     0.329 C 
BRANCH   6   7
ATOM      7  O   UNL A   1      33.958  22.228  26.055  1.00  0.00    -0.480 OA
BRANCH   7   8
ATOM      8  C   UNL A   1      33.450  23.486  26.202  1.00  0.00     0.161 A 
ATOM      9  C   UNL A   1      32.239  23.892  26.772  1.00  0.00     0.161 A 
ATOM     10  C   UNL A   1      31.867  25.248  26.743  1.00  0.00     0.058 A 
ATOM     11  C   UNL A   1      32.700  26.204  26.145  1.00  0.00    -0.019 A 
ATOM     12  C   UNL A   1      34.289  24.460  25.640  1.00  0.00     0.051 A 
ATOM     13  C   UNL A   1      33.928  25.806  25.617  1.00  0.00     0.012 A 
BRANCH   9  14
ATOM     14  O   UNL A   1      31.315  22.973  27.191  1.00  0.00    -0.493 OA
ATOM     15  C   UNL A   1      30.412  22.582  26.158  1.00  0.00     0.278 C 
ENDBRANCH   9  14
BRANCH  11  16
ATOM     16  C   UNL A   1      32.246  27.582  25.954  1.00  0.00     0.044 C 
ATOM     17  C   UNL A   1      31.576  28.006  24.871  1.00  0.00     0.153 C 
ATOM     18  N   UNL A   1      31.098  29.285  24.720  1.00  0.00    -0.205 NA
ATOM     19  C   UNL A   1      31.158  27.165  23.704  1.00  0.00     0.363 C 
ATOM     20  C   UNL A   1      30.384  29.191  23.646  1.00  0.00     0.231 C 
ATOM     21  O   UNL A   1      30.361  28.008  22.993  1.00  0.00    -0.402 OA
ATOM     22  O   UNL A   1      31.428  26.018  23.412  1.00  0.00    -0.244 OA
BRANCH  20  23
ATOM     23  C   UNL A   1      29.573  30.232  23.015  1.00  0.00     0.037 A 
ATOM     24  C   UNL A   1      29.176  31.346  23.758  1.00  0.00     0.014 A 
ATOM     25  C   UNL A   1      29.157  30.080  21.688  1.00  0.00     0.014 A 
ATOM     26  C   UNL A   1      28.360  32.312  23.167  1.00  0.00     0.001 A 
ATOM     27  C   UNL A   1      28.326  31.040  21.109  1.00  0.00     0.001 A 
ATOM     28  C   UNL A   1      27.929  32.154  21.849  1.00  0.00     0.000 A 
ENDBRANCH  20  23
ENDBRANCH  11  16
ENDBRANCH   7   8
ENDBRANCH   6   7
ENDBRANCH   3   6
ENDBRANCH   1   2
BRANCH   1  29
ATOM     29  C   UNL A   1      37.873  19.464  24.928  1.00  0.00     0.042 C 
BRANCH  29  30
ATOM     30  C   UNL A   1      39.069  20.101  25.626  1.00  0.00     0.118 C 
BRANCH  30  31
ATOM     31  N   UNL A   1      40.195  19.188  25.778  1.00  0.00    -0.352 N 
ATOM     32  C   UNL A   1      41.499  19.429  26.133  1.00  0.00     0.251 C 
ATOM     33  H   UNL A   1      39.987  18.243  25.594  1.00  0.00     0.163 HD
ATOM     34  O   UNL A   1      42.337  18.538  26.021  1.00  0.00    -0.269 OA
BRANCH  32  35
ATOM     35  C   UNL A   1      41.904  20.760  26.629  1.00  0.00     0.039 A 
ATOM     36  C   UNL A   1      42.406  21.697  25.722  1.00  0.00     0.014 A 
ATOM     37  C   UNL A   1      41.808  21.080  27.985  1.00  0.00     0.014 A 
ATOM     38  C   UNL A   1      42.739  22.980  26.164  1.00  0.00     0.010 A 
ATOM     39  C   UNL A   1      42.051  22.382  28.406  1.00  0.00     0.010 A 
ATOM     40  C   UNL A   1      42.524  23.345  27.502  1.00  0.00    -0.014 A 
BRANCH  40  41
ATOM     41  C   UNL A   1      42.799  24.722  27.987  1.00  0.00     0.031 A 
ATOM     42  C   UNL A   1      44.195  25.109  28.394  1.00  0.00     0.074 A 
ATOM     43  C   UNL A   1      41.786  25.596  28.135  1.00  0.00     0.049 A 
ATOM     44  N   UNL A   1      44.621  26.218  28.942  1.00  0.00    -0.248 NA
ATOM     45  C   UNL A   1      45.249  24.101  28.184  1.00  0.00     0.031 C 
ATOM     46  C   UNL A   1      40.382  25.330  27.812  1.00  0.00     0.029 A 
ATOM     47  N   UNL A   1      41.777  26.885  28.608  1.00  0.00    -0.354 N 
ATOM     48  C   UNL A   1      45.981  26.035  29.156  1.00  0.00     0.074 A 
ATOM     49  C   UNL A   1      46.300  24.689  28.737  1.00  0.00     0.031 C 
ATOM     50  C   UNL A   1      39.654  26.427  28.078  1.00  0.00     0.029 A 
ATOM     51  C   UNL A   1      40.528  27.456  28.632  1.00  0.00     0.049 A 
ATOM     52  H   UNL A   1      42.590  27.355  28.903  1.00  0.00     0.167 HD
ATOM     53  C   UNL A   1      46.889  26.918  29.636  1.00  0.00     0.037 A 
ATOM     54  C   UNL A   1      40.129  28.667  29.065  1.00  0.00     0.037 A 
ATOM     55  C   UNL A   1      46.572  28.265  30.034  1.00  0.00     0.049 A 
ATOM     56  C   UNL A   1      41.154  29.621  29.619  1.00  0.00     0.074 A 
ATOM     57  C   UNL A   1      47.428  29.254  30.486  1.00  0.00     0.029 A 
ATOM     58  N   UNL A   1      45.297  28.810  30.029  1.00  0.00    -0.354 N 
ATOM     59  N   UNL A   1      42.447  29.456  29.761  1.00  0.00    -0.248 NA
ATOM     60  C   UNL A   1      40.664  30.931  30.069  1.00  0.00     0.031 C 
ATOM     61  C   UNL A   1      46.663  30.379  30.807  1.00  0.00     0.029 A 
ATOM     62  C   UNL A   1      45.340  30.115  30.493  1.00  0.00     0.049 A 
ATOM     63  H   UNL A   1      44.482  28.340  29.738  1.00  0.00     0.167 HD
ATOM     64  C   UNL A   1      42.929  30.651  30.280  1.00  0.00     0.074 A 
ATOM     65  C   UNL A   1      41.790  31.535  30.417  1.00  0.00     0.031 C 
ATOM     66  C   UNL A   1      44.200  30.988  30.610  1.00  0.00     0.037 A 
BRANCH  53  67
ATOM     67  C   UNL A   1      48.313  26.454  29.757  1.00  0.00     0.057 A 
ATOM     68  C   UNL A   1      49.233  26.609  28.711  1.00  0.00     0.134 A 
ATOM     69  C   UNL A   1      48.779  25.877  30.945  1.00  0.00     0.134 A 
ATOM     70  F   UNL A   1      48.851  27.144  27.542  1.00  0.00    -0.206 F 
ATOM     71  C   UNL A   1      50.556  26.180  28.833  1.00  0.00     0.040 A 
ATOM     72  C   UNL A   1      50.108  25.473  31.089  1.00  0.00     0.040 A 
ATOM     73  F   UNL A   1      47.954  25.704  31.989  1.00  0.00    -0.206 F 
ATOM     74  C   UNL A   1      50.999  25.618  30.027  1.00  0.00     0.006 A 
ENDBRANCH  53  67
BRANCH  54  75
ATOM     75  C   UNL A   1      38.698  29.058  28.984  1.00  0.00     0.057 A 
ATOM     76  C   UNL A   1      38.164  29.604  27.810  1.00  0.00     0.134 A 
ATOM     77  C   UNL A   1      37.835  28.919  30.077  1.00  0.00     0.134 A 
ATOM     78  F   UNL A   1      38.944  29.780  26.732  1.00  0.00    -0.206 F 
ATOM     79  C   UNL A   1      36.835  30.022  27.734  1.00  0.00     0.040 A 
ATOM     80  C   UNL A   1      36.496  29.305  30.007  1.00  0.00     0.040 A 
ATOM     81  F   UNL A   1      38.280  28.395  31.229  1.00  0.00    -0.206 F 
ATOM     82  C   UNL A   1      35.995  29.869  28.835  1.00  0.00     0.006 A 
ENDBRANCH  54  75
BRANCH  66  83
ATOM     83  C   UNL A   1      44.438  32.387  31.101  1.00  0.00     0.057 A 
ATOM     84  C   UNL A   1      44.449  32.707  32.464  1.00  0.00     0.134 A 
ATOM     85  C   UNL A   1      44.707  33.420  30.192  1.00  0.00     0.134 A 
ATOM     86  F   UNL A   1      44.189  31.768  33.386  1.00  0.00    -0.206 F 
ATOM     87  C   UNL A   1      44.694  34.009  32.904  1.00  0.00     0.040 A 
ATOM     88  C   UNL A   1      44.985  34.718  30.622  1.00  0.00     0.040 A 
ATOM     89  F   UNL A   1      44.723  33.180  28.872  1.00  0.00    -0.206 F 
ATOM     90  C   UNL A   1      44.972  35.017  31.982  1.00  0.00     0.006 A 
ENDBRANCH  66  83
ENDBRANCH  40  41
ENDBRANCH  32  35
ENDBRANCH  30  31
ENDBRANCH  29  30
ENDBRANCH   1  29
TORSDOF 15
ENDMDL
