MODEL 1
REMARK VINA RESULT:     -12.7      0.000      0.000
REMARK SMILES C[N@H+]1[C@H]2CC[C@@H]1[C@@H](C(=O)NCCCNC(=O)c1ccc(-c3c4nc(c(-c5c(F)cccc5F)c5ccc([nH]5)c(-c5c(F)cccc5F)c5nc(c(-c6c(F)cccc6F)c6ccc3[nH]6)C=C5)C=C4)cc1)[C@@H](OC(=O)c1ccccc1)C2
REMARK SMILES IDX 11 1 10 2 8 3 9 4 7 6 1 7 2 8 3 9 6 10 4 12 81 13 5 14 71 15
REMARK SMILES IDX 72 16 73 17 74 18 75 19 76 20 80 21 77 22 79 23 78 24 12 25
REMARK SMILES IDX 13 26 14 27 15 28 16 30 17 31 18 32 70 33 19 34 69 35 20 36
REMARK SMILES IDX 21 37 22 38 63 39 23 40 68 41 62 42 64 43 24 44 67 45 61 46
REMARK SMILES IDX 60 47 25 49 51 50 34 51 50 52 35 53 38 54 49 55 65 56 36 57
REMARK SMILES IDX 37 58 48 60 66 61 39 62 26 63 27 64 32 65 28 66 29 67 31 68
REMARK SMILES IDX 33 69 30 70 52 71 53 72 58 73 54 74 55 75 57 76 59 77 56 78
REMARK SMILES IDX 40 79 41 80 46 81 42 82 43 83 45 84 47 85 44 86
REMARK H PARENT 10 5 2 11 14 29 64 48 38 59
REMARK Flexibility Score: inf
ROOT
ATOM      1  C   UNL A   1      31.524  30.434  26.356  1.00  0.00     0.117 C 
ENDROOT
BRANCH   1   2
ATOM      2  N   UNL A   1      32.177  29.886  25.173  1.00  0.00    -0.355 N 
ATOM      3  C   UNL A   1      31.876  28.858  24.330  1.00  0.00     0.232 C 
ATOM      4  O   UNL A   1      32.378  28.952  23.198  1.00  0.00    -0.274 OA
ATOM      5  H   UNL A   1      33.008  30.356  24.934  1.00  0.00     0.163 HD
BRANCH   3   6
ATOM      6  C   UNL A   1      31.050  27.596  24.653  1.00  0.00     0.177 C 
ATOM      7  C   UNL A   1      34.032  25.637  25.245  1.00  0.00     0.333 C 
ATOM      8  N   UNL A   1      32.767  25.979  24.638  1.00  0.00    -0.332 N 
ATOM      9  C   UNL A   1      32.065  25.037  23.771  1.00  0.00     0.188 C 
ATOM     10  C   UNL A   1      31.769  26.546  25.515  1.00  0.00     0.200 C 
ATOM     11  H   UNL A   1      33.189  26.674  24.021  1.00  0.00     0.348 HD
ATOM     12  C   UNL A   1      31.218  24.274  24.769  1.00  0.00     0.071 C 
ATOM     13  C   UNL A   1      31.192  25.862  22.759  1.00  0.00     0.111 C 
ATOM     14  C   UNL A   1      30.911  25.309  25.861  1.00  0.00     0.072 C 
ATOM     15  C   UNL A   1      30.357  26.987  23.425  1.00  0.00     0.201 C 
BRANCH  15  16
ATOM     16  O   UNL A   1      29.751  28.074  22.654  1.00  0.00    -0.457 OA
BRANCH  16  17
ATOM     17  C   UNL A   1      28.526  28.577  22.897  1.00  0.00     0.338 C 
ATOM     18  O   UNL A   1      27.567  27.957  23.334  1.00  0.00    -0.246 OA
BRANCH  17  19
ATOM     19  C   UNL A   1      28.407  30.017  22.523  1.00  0.00     0.060 A 
ATOM     20  C   UNL A   1      28.747  30.969  23.502  1.00  0.00     0.015 A 
ATOM     21  C   UNL A   1      28.028  30.460  21.251  1.00  0.00     0.015 A 
ATOM     22  C   UNL A   1      28.749  32.334  23.206  1.00  0.00     0.001 A 
ATOM     23  C   UNL A   1      28.038  31.833  20.955  1.00  0.00     0.001 A 
ATOM     24  C   UNL A   1      28.407  32.766  21.928  1.00  0.00     0.000 A 
ENDBRANCH  17  19
ENDBRANCH  16  17
ENDBRANCH  15  16
ENDBRANCH   3   6
ENDBRANCH   1   2
BRANCH   1  25
ATOM     25  C   UNL A   1      31.497  31.941  26.500  1.00  0.00     0.042 C 
BRANCH  25  26
ATOM     26  C   UNL A   1      32.671  32.484  27.268  1.00  0.00     0.118 C 
BRANCH  26  27
ATOM     27  N   UNL A   1      32.530  33.923  27.450  1.00  0.00    -0.352 N 
ATOM     28  C   UNL A   1      33.039  34.703  28.465  1.00  0.00     0.251 C 
ATOM     29  H   UNL A   1      32.006  34.397  26.764  1.00  0.00     0.163 HD
ATOM     30  O   UNL A   1      32.527  35.784  28.733  1.00  0.00    -0.269 OA
BRANCH  28  31
ATOM     31  C   UNL A   1      34.204  34.215  29.238  1.00  0.00     0.039 A 
ATOM     32  C   UNL A   1      34.010  33.509  30.427  1.00  0.00     0.014 A 
ATOM     33  C   UNL A   1      35.498  34.457  28.772  1.00  0.00     0.014 A 
ATOM     34  C   UNL A   1      35.114  32.981  31.102  1.00  0.00     0.010 A 
ATOM     35  C   UNL A   1      36.577  33.829  29.371  1.00  0.00     0.010 A 
ATOM     36  C   UNL A   1      36.401  33.096  30.552  1.00  0.00    -0.014 A 
BRANCH  36  37
ATOM     37  C   UNL A   1      37.594  32.478  31.183  1.00  0.00     0.031 A 
ATOM     38  C   UNL A   1      38.273  31.315  30.513  1.00  0.00     0.074 A 
ATOM     39  C   UNL A   1      37.995  32.892  32.401  1.00  0.00     0.049 A 
ATOM     40  N   UNL A   1      39.231  30.545  30.960  1.00  0.00    -0.248 NA
ATOM     41  C   UNL A   1      37.782  30.942  29.175  1.00  0.00     0.031 C 
ATOM     42  C   UNL A   1      37.382  33.974  33.173  1.00  0.00     0.029 A 
ATOM     43  N   UNL A   1      39.001  32.434  33.215  1.00  0.00    -0.354 N 
ATOM     44  C   UNL A   1      39.438  29.589  29.973  1.00  0.00     0.074 A 
ATOM     45  C   UNL A   1      38.468  29.836  28.931  1.00  0.00     0.031 C 
ATOM     46  C   UNL A   1      38.037  34.111  34.337  1.00  0.00     0.029 A 
ATOM     47  C   UNL A   1      39.077  33.092  34.418  1.00  0.00     0.049 A 
ATOM     48  H   UNL A   1      39.609  31.703  32.959  1.00  0.00     0.167 HD
ATOM     49  C   UNL A   1      40.372  28.610  29.928  1.00  0.00     0.037 A 
ATOM     50  C   UNL A   1      39.880  32.880  35.479  1.00  0.00     0.037 A 
ATOM     51  C   UNL A   1      41.349  28.389  30.959  1.00  0.00     0.049 A 
ATOM     52  C   UNL A   1      40.890  31.767  35.417  1.00  0.00     0.074 A 
ATOM     53  C   UNL A   1      42.388  27.475  30.980  1.00  0.00     0.029 A 
ATOM     54  N   UNL A   1      41.402  29.085  32.158  1.00  0.00    -0.354 N 
ATOM     55  N   UNL A   1      41.133  30.925  34.441  1.00  0.00    -0.248 NA
ATOM     56  C   UNL A   1      41.733  31.570  36.604  1.00  0.00     0.031 C 
ATOM     57  C   UNL A   1      43.030  27.576  32.217  1.00  0.00     0.029 A 
ATOM     58  C   UNL A   1      42.430  28.592  32.944  1.00  0.00     0.049 A 
ATOM     59  H   UNL A   1      40.799  29.821  32.412  1.00  0.00     0.167 HD
ATOM     60  C   UNL A   1      42.165  30.112  34.889  1.00  0.00     0.074 A 
ATOM     61  C   UNL A   1      42.518  30.576  36.215  1.00  0.00     0.031 C 
ATOM     62  C   UNL A   1      42.763  29.069  34.262  1.00  0.00     0.037 A 
BRANCH  49  63
ATOM     63  C   UNL A   1      40.377  27.706  28.729  1.00  0.00     0.057 A 
ATOM     64  C   UNL A   1      41.121  28.003  27.579  1.00  0.00     0.134 A 
ATOM     65  C   UNL A   1      39.656  26.504  28.736  1.00  0.00     0.134 A 
ATOM     66  F   UNL A   1      41.825  29.143  27.499  1.00  0.00    -0.206 F 
ATOM     67  C   UNL A   1      41.124  27.155  26.470  1.00  0.00     0.040 A 
ATOM     68  C   UNL A   1      39.677  25.633  27.645  1.00  0.00     0.040 A 
ATOM     69  F   UNL A   1      38.927  26.153  29.806  1.00  0.00    -0.206 F 
ATOM     70  C   UNL A   1      40.406  25.961  26.505  1.00  0.00     0.006 A 
ENDBRANCH  49  63
BRANCH  50  71
ATOM     71  C   UNL A   1      39.761  33.737  36.686  1.00  0.00     0.057 A 
ATOM     72  C   UNL A   1      38.918  33.381  37.745  1.00  0.00     0.134 A 
ATOM     73  C   UNL A   1      40.482  34.931  36.813  1.00  0.00     0.134 A 
ATOM     74  F   UNL A   1      38.186  32.259  37.677  1.00  0.00    -0.206 F 
ATOM     75  C   UNL A   1      38.781  34.188  38.876  1.00  0.00     0.040 A 
ATOM     76  C   UNL A   1      40.378  35.733  37.951  1.00  0.00     0.040 A 
ATOM     77  F   UNL A   1      41.313  35.328  35.837  1.00  0.00    -0.206 F 
ATOM     78  C   UNL A   1      39.518  35.366  38.984  1.00  0.00     0.006 A 
ENDBRANCH  50  71
BRANCH  62  79
ATOM     79  C   UNL A   1      43.866  28.365  34.996  1.00  0.00     0.057 A 
ATOM     80  C   UNL A   1      45.193  28.806  34.930  1.00  0.00     0.134 A 
ATOM     81  C   UNL A   1      43.587  27.274  35.831  1.00  0.00     0.134 A 
ATOM     82  F   UNL A   1      45.527  29.837  34.138  1.00  0.00    -0.206 F 
ATOM     83  C   UNL A   1      46.206  28.182  35.657  1.00  0.00     0.040 A 
ATOM     84  C   UNL A   1      44.587  26.660  36.585  1.00  0.00     0.040 A 
ATOM     85  F   UNL A   1      42.335  26.807  35.947  1.00  0.00    -0.206 F 
ATOM     86  C   UNL A   1      45.902  27.111  36.496  1.00  0.00     0.006 A 
ENDBRANCH  62  79
ENDBRANCH  36  37
ENDBRANCH  28  31
ENDBRANCH  26  27
ENDBRANCH  25  26
ENDBRANCH   1  25
TORSDOF 13
ENDMDL
MODEL 2
REMARK VINA RESULT:     -12.7      5.472     10.443
REMARK SMILES C[N@H+]1[C@H]2CC[C@@H]1[C@@H](C(=O)NCCCNC(=O)c1ccc(-c3c4nc(c(-c5c(F)cccc5F)c5ccc([nH]5)c(-c5c(F)cccc5F)c5nc(c(-c6c(F)cccc6F)c6ccc3[nH]6)C=C5)C=C4)cc1)[C@@H](OC(=O)c1ccccc1)C2
REMARK SMILES IDX 11 1 10 2 8 3 9 4 7 6 1 7 2 8 3 9 6 10 4 12 81 13 5 14 71 15
REMARK SMILES IDX 72 16 73 17 74 18 75 19 76 20 80 21 77 22 79 23 78 24 12 25
REMARK SMILES IDX 13 26 14 27 15 28 16 30 17 31 18 32 70 33 19 34 69 35 20 36
REMARK SMILES IDX 21 37 22 38 63 39 23 40 68 41 62 42 64 43 24 44 67 45 61 46
REMARK SMILES IDX 60 47 25 49 51 50 34 51 50 52 35 53 38 54 49 55 65 56 36 57
REMARK SMILES IDX 37 58 48 60 66 61 39 62 26 63 27 64 32 65 28 66 29 67 31 68
REMARK SMILES IDX 33 69 30 70 52 71 53 72 58 73 54 74 55 75 57 76 59 77 56 78
REMARK SMILES IDX 40 79 41 80 46 81 42 82 43 83 45 84 47 85 44 86
REMARK H PARENT 10 5 2 11 14 29 64 48 38 59
REMARK Flexibility Score: inf
ROOT
ATOM      1  C   UNL A   1      36.121  20.140  24.670  1.00  0.00     0.117 C 
ENDROOT
BRANCH   1   2
ATOM      2  N   UNL A   1      35.868  21.269  25.557  1.00  0.00    -0.355 N 
ATOM      3  C   UNL A   1      34.909  22.237  25.588  1.00  0.00     0.232 C 
ATOM      4  O   UNL A   1      34.726  22.751  26.704  1.00  0.00    -0.274 OA
ATOM      5  H   UNL A   1      36.527  21.350  26.284  1.00  0.00     0.163 HD
BRANCH   3   6
ATOM      6  C   UNL A   1      34.097  22.786  24.397  1.00  0.00     0.177 C 
ATOM      7  C   UNL A   1      33.943  26.092  25.857  1.00  0.00     0.333 C 
ATOM      8  N   UNL A   1      33.432  24.865  25.290  1.00  0.00    -0.332 N 
ATOM      9  C   UNL A   1      32.022  24.725  24.938  1.00  0.00     0.188 C 
ATOM     10  C   UNL A   1      34.184  24.307  24.191  1.00  0.00     0.200 C 
ATOM     11  H   UNL A   1      33.561  24.346  26.159  1.00  0.00     0.348 HD
ATOM     12  C   UNL A   1      32.013  25.224  23.506  1.00  0.00     0.071 C 
ATOM     13  C   UNL A   1      31.642  23.205  25.039  1.00  0.00     0.111 C 
ATOM     14  C   UNL A   1      33.396  24.831  22.969  1.00  0.00     0.072 C 
ATOM     15  C   UNL A   1      32.655  22.258  24.344  1.00  0.00     0.201 C 
BRANCH  15  16
ATOM     16  O   UNL A   1      32.684  20.817  24.601  1.00  0.00    -0.457 OA
BRANCH  16  17
ATOM     17  C   UNL A   1      32.496  19.880  23.653  1.00  0.00     0.338 C 
ATOM     18  O   UNL A   1      32.036  20.069  22.535  1.00  0.00    -0.246 OA
BRANCH  17  19
ATOM     19  C   UNL A   1      32.863  18.509  24.113  1.00  0.00     0.060 A 
ATOM     20  C   UNL A   1      33.523  17.673  23.193  1.00  0.00     0.015 A 
ATOM     21  C   UNL A   1      32.632  18.037  25.411  1.00  0.00     0.015 A 
ATOM     22  C   UNL A   1      33.980  16.408  23.571  1.00  0.00     0.001 A 
ATOM     23  C   UNL A   1      33.100  16.769  25.789  1.00  0.00     0.001 A 
ATOM     24  C   UNL A   1      33.781  15.961  24.874  1.00  0.00     0.000 A 
ENDBRANCH  17  19
ENDBRANCH  16  17
ENDBRANCH  15  16
ENDBRANCH   3   6
ENDBRANCH   1   2
BRANCH   1  25
ATOM     25  C   UNL A   1      37.308  19.256  24.992  1.00  0.00     0.042 C 
BRANCH  25  26
ATOM     26  C   UNL A   1      38.530  20.032  25.405  1.00  0.00     0.118 C 
BRANCH  26  27
ATOM     27  N   UNL A   1      39.628  19.119  25.701  1.00  0.00    -0.352 N 
ATOM     28  C   UNL A   1      40.926  19.435  26.033  1.00  0.00     0.251 C 
ATOM     29  H   UNL A   1      39.415  18.158  25.659  1.00  0.00     0.163 HD
ATOM     30  O   UNL A   1      41.827  18.622  25.855  1.00  0.00    -0.269 OA
BRANCH  28  31
ATOM     31  C   UNL A   1      41.225  20.772  26.594  1.00  0.00     0.039 A 
ATOM     32  C   UNL A   1      41.290  20.953  27.978  1.00  0.00     0.014 A 
ATOM     33  C   UNL A   1      41.448  21.851  25.737  1.00  0.00     0.014 A 
ATOM     34  C   UNL A   1      41.657  22.199  28.493  1.00  0.00     0.010 A 
ATOM     35  C   UNL A   1      41.932  23.046  26.243  1.00  0.00     0.010 A 
ATOM     36  C   UNL A   1      42.028  23.241  27.627  1.00  0.00    -0.014 A 
BRANCH  36  37
ATOM     37  C   UNL A   1      42.509  24.554  28.123  1.00  0.00     0.031 A 
ATOM     38  C   UNL A   1      41.521  25.657  28.388  1.00  0.00     0.074 A 
ATOM     39  C   UNL A   1      43.832  24.783  28.232  1.00  0.00     0.049 A 
ATOM     40  N   UNL A   1      41.740  26.913  28.684  1.00  0.00    -0.248 NA
ATOM     41  C   UNL A   1      40.094  25.313  28.264  1.00  0.00     0.031 C 
ATOM     42  C   UNL A   1      44.887  23.808  27.952  1.00  0.00     0.029 A 
ATOM     43  N   UNL A   1      44.516  25.919  28.585  1.00  0.00    -0.354 N 
ATOM     44  C   UNL A   1      40.486  27.507  28.758  1.00  0.00     0.074 A 
ATOM     45  C   UNL A   1      39.514  26.494  28.417  1.00  0.00     0.031 C 
ATOM     46  C   UNL A   1      46.083  24.380  28.164  1.00  0.00     0.029 A 
ATOM     47  C   UNL A   1      45.882  25.775  28.540  1.00  0.00     0.049 A 
ATOM     48  H   UNL A   1      44.071  26.757  28.846  1.00  0.00     0.167 HD
ATOM     49  C   UNL A   1      40.173  28.777  29.106  1.00  0.00     0.037 A 
ATOM     50  C   UNL A   1      46.862  26.673  28.753  1.00  0.00     0.037 A 
ATOM     51  C   UNL A   1      41.148  29.770  29.469  1.00  0.00     0.049 A 
ATOM     52  C   UNL A   1      46.489  28.086  29.109  1.00  0.00     0.074 A 
ATOM     53  C   UNL A   1      40.935  31.064  29.911  1.00  0.00     0.029 A 
ATOM     54  N   UNL A   1      42.521  29.582  29.423  1.00  0.00    -0.354 N 
ATOM     55  N   UNL A   1      45.297  28.614  29.259  1.00  0.00    -0.248 NA
ATOM     56  C   UNL A   1      47.595  29.032  29.319  1.00  0.00     0.031 C 
ATOM     57  C   UNL A   1      42.181  31.677  30.072  1.00  0.00     0.029 A 
ATOM     58  C   UNL A   1      43.170  30.750  29.788  1.00  0.00     0.049 A 
ATOM     59  H   UNL A   1      42.968  28.741  29.169  1.00  0.00     0.167 HD
ATOM     60  C   UNL A   1      45.509  29.943  29.597  1.00  0.00     0.074 A 
ATOM     61  C   UNL A   1      46.944  30.137  29.653  1.00  0.00     0.031 C 
ATOM     62  C   UNL A   1      44.599  30.920  29.834  1.00  0.00     0.037 A 
BRANCH  49  63
ATOM     63  C   UNL A   1      38.721  29.162  29.107  1.00  0.00     0.057 A 
ATOM     64  C   UNL A   1      37.936  29.093  30.266  1.00  0.00     0.134 A 
ATOM     65  C   UNL A   1      38.108  29.641  27.942  1.00  0.00     0.134 A 
ATOM     66  F   UNL A   1      38.456  28.632  31.414  1.00  0.00    -0.206 F 
ATOM     67  C   UNL A   1      36.589  29.457  30.260  1.00  0.00     0.040 A 
ATOM     68  C   UNL A   1      36.770  30.038  27.931  1.00  0.00     0.040 A 
ATOM     69  F   UNL A   1      38.801  29.740  26.798  1.00  0.00    -0.206 F 
ATOM     70  C   UNL A   1      36.004  29.939  29.091  1.00  0.00     0.006 A 
ENDBRANCH  49  63
BRANCH  50  71
ATOM     71  C   UNL A   1      48.285  26.267  28.633  1.00  0.00     0.057 A 
ATOM     72  C   UNL A   1      48.965  26.363  27.413  1.00  0.00     0.134 A 
ATOM     73  C   UNL A   1      49.002  25.771  29.730  1.00  0.00     0.134 A 
ATOM     74  F   UNL A   1      48.331  26.813  26.321  1.00  0.00    -0.206 F 
ATOM     75  C   UNL A   1      50.297  25.964  27.283  1.00  0.00     0.040 A 
ATOM     76  C   UNL A   1      50.342  25.396  29.622  1.00  0.00     0.040 A 
ATOM     77  F   UNL A   1      48.412  25.658  30.930  1.00  0.00    -0.206 F 
ATOM     78  C   UNL A   1      50.991  25.484  28.392  1.00  0.00     0.006 A 
ENDBRANCH  50  71
BRANCH  62  79
ATOM     79  C   UNL A   1      45.125  32.282  30.184  1.00  0.00     0.057 A 
ATOM     80  C   UNL A   1      45.442  32.631  31.502  1.00  0.00     0.134 A 
ATOM     81  C   UNL A   1      45.377  33.229  29.183  1.00  0.00     0.134 A 
ATOM     82  F   UNL A   1      45.211  31.773  32.507  1.00  0.00    -0.206 F 
ATOM     83  C   UNL A   1      45.981  33.879  31.815  1.00  0.00     0.040 A 
ATOM     84  C   UNL A   1      45.943  34.469  29.481  1.00  0.00     0.040 A 
ATOM     85  F   UNL A   1      45.105  32.954  27.899  1.00  0.00    -0.206 F 
ATOM     86  C   UNL A   1      46.243  34.798  30.800  1.00  0.00     0.006 A 
ENDBRANCH  62  79
ENDBRANCH  36  37
ENDBRANCH  28  31
ENDBRANCH  26  27
ENDBRANCH  25  26
ENDBRANCH   1  25
TORSDOF 13
ENDMDL
MODEL 3
REMARK VINA RESULT:     -12.6      5.517     10.442
REMARK SMILES C[N@H+]1[C@H]2CC[C@@H]1[C@@H](C(=O)NCCCNC(=O)c1ccc(-c3c4nc(c(-c5c(F)cccc5F)c5ccc([nH]5)c(-c5c(F)cccc5F)c5nc(c(-c6c(F)cccc6F)c6ccc3[nH]6)C=C5)C=C4)cc1)[C@@H](OC(=O)c1ccccc1)C2
REMARK SMILES IDX 11 1 10 2 8 3 9 4 7 6 1 7 2 8 3 9 6 10 4 12 81 13 5 14 71 15
REMARK SMILES IDX 72 16 73 17 74 18 75 19 76 20 80 21 77 22 79 23 78 24 12 25
REMARK SMILES IDX 13 26 14 27 15 28 16 30 17 31 18 32 70 33 19 34 69 35 20 36
REMARK SMILES IDX 21 37 22 38 63 39 23 40 68 41 62 42 64 43 24 44 67 45 61 46
REMARK SMILES IDX 60 47 25 49 51 50 34 51 50 52 35 53 38 54 49 55 65 56 36 57
REMARK SMILES IDX 37 58 48 60 66 61 39 62 26 63 27 64 32 65 28 66 29 67 31 68
REMARK SMILES IDX 33 69 30 70 52 71 53 72 58 73 54 74 55 75 57 76 59 77 56 78
REMARK SMILES IDX 40 79 41 80 46 81 42 82 43 83 45 84 47 85 44 86
REMARK H PARENT 10 5 2 11 14 29 64 48 38 59
REMARK Flexibility Score: inf
ROOT
ATOM      1  C   UNL A   1      36.315  20.316  25.015  1.00  0.00     0.117 C 
ENDROOT
BRANCH   1   2
ATOM      2  N   UNL A   1      35.871  21.443  25.827  1.00  0.00    -0.355 N 
ATOM      3  C   UNL A   1      34.863  22.352  25.695  1.00  0.00     0.232 C 
ATOM      4  O   UNL A   1      34.492  22.872  26.759  1.00  0.00    -0.274 OA
ATOM      5  H   UNL A   1      36.412  21.576  26.638  1.00  0.00     0.163 HD
BRANCH   3   6
ATOM      6  C   UNL A   1      34.202  22.830  24.386  1.00  0.00     0.177 C 
ATOM      7  C   UNL A   1      33.574  26.120  25.751  1.00  0.00     0.333 C 
ATOM      8  N   UNL A   1      33.251  24.854  25.134  1.00  0.00    -0.332 N 
ATOM      9  C   UNL A   1      31.926  24.602  24.575  1.00  0.00     0.188 C 
ATOM     10  C   UNL A   1      34.202  24.352  24.170  1.00  0.00     0.200 C 
ATOM     11  H   UNL A   1      33.287  24.351  26.021  1.00  0.00     0.348 HD
ATOM     12  C   UNL A   1      32.096  25.092  23.150  1.00  0.00     0.071 C 
ATOM     13  C   UNL A   1      31.653  23.058  24.643  1.00  0.00     0.111 C 
ATOM     14  C   UNL A   1      33.571  24.807  22.835  1.00  0.00     0.072 C 
ATOM     15  C   UNL A   1      32.830  22.190  24.125  1.00  0.00     0.201 C 
BRANCH  15  16
ATOM     16  O   UNL A   1      32.930  20.757  24.406  1.00  0.00    -0.457 OA
BRANCH  16  17
ATOM     17  C   UNL A   1      32.637  19.792  23.515  1.00  0.00     0.338 C 
ATOM     18  O   UNL A   1      32.155  19.961  22.403  1.00  0.00    -0.246 OA
BRANCH  17  19
ATOM     19  C   UNL A   1      32.914  18.420  24.033  1.00  0.00     0.060 A 
ATOM     20  C   UNL A   1      33.648  17.552  23.205  1.00  0.00     0.015 A 
ATOM     21  C   UNL A   1      32.529  17.979  25.304  1.00  0.00     0.015 A 
ATOM     22  C   UNL A   1      34.025  16.283  23.650  1.00  0.00     0.001 A 
ATOM     23  C   UNL A   1      32.917  16.706  25.752  1.00  0.00     0.001 A 
ATOM     24  C   UNL A   1      33.672  15.864  24.929  1.00  0.00     0.000 A 
ENDBRANCH  17  19
ENDBRANCH  16  17
ENDBRANCH  15  16
ENDBRANCH   3   6
ENDBRANCH   1   2
BRANCH   1  25
ATOM     25  C   UNL A   1      37.776  20.277  24.620  1.00  0.00     0.042 C 
BRANCH  25  26
ATOM     26  C   UNL A   1      38.706  20.611  25.755  1.00  0.00     0.118 C 
BRANCH  26  27
ATOM     27  N   UNL A   1      39.655  19.524  25.962  1.00  0.00    -0.352 N 
ATOM     28  C   UNL A   1      41.020  19.610  26.125  1.00  0.00     0.251 C 
ATOM     29  H   UNL A   1      39.274  18.617  25.989  1.00  0.00     0.163 HD
ATOM     30  O   UNL A   1      41.736  18.645  25.880  1.00  0.00    -0.269 OA
BRANCH  28  31
ATOM     31  C   UNL A   1      41.615  20.886  26.586  1.00  0.00     0.039 A 
ATOM     32  C   UNL A   1      42.078  21.819  25.656  1.00  0.00     0.014 A 
ATOM     33  C   UNL A   1      41.706  21.156  27.952  1.00  0.00     0.014 A 
ATOM     34  C   UNL A   1      42.559  23.054  26.101  1.00  0.00     0.010 A 
ATOM     35  C   UNL A   1      42.063  22.423  28.384  1.00  0.00     0.010 A 
ATOM     36  C   UNL A   1      42.509  23.382  27.465  1.00  0.00    -0.014 A 
BRANCH  36  37
ATOM     37  C   UNL A   1      42.924  24.711  27.979  1.00  0.00     0.031 A 
ATOM     38  C   UNL A   1      41.882  25.757  28.267  1.00  0.00     0.074 A 
ATOM     39  C   UNL A   1      44.235  25.008  28.082  1.00  0.00     0.049 A 
ATOM     40  N   UNL A   1      42.038  27.018  28.581  1.00  0.00    -0.248 NA
ATOM     41  C   UNL A   1      40.474  25.341  28.148  1.00  0.00     0.031 C 
ATOM     42  C   UNL A   1      45.337  24.094  27.779  1.00  0.00     0.029 A 
ATOM     43  N   UNL A   1      44.862  26.173  28.447  1.00  0.00    -0.354 N 
ATOM     44  C   UNL A   1      40.756  27.545  28.673  1.00  0.00     0.074 A 
ATOM     45  C   UNL A   1      39.835  26.487  28.323  1.00  0.00     0.031 C 
ATOM     46  C   UNL A   1      46.503  24.724  27.991  1.00  0.00     0.029 A 
ATOM     47  C   UNL A   1      46.233  26.101  28.390  1.00  0.00     0.049 A 
ATOM     48  H   UNL A   1      44.375  26.982  28.724  1.00  0.00     0.167 HD
ATOM     49  C   UNL A   1      40.380  28.791  29.042  1.00  0.00     0.037 A 
ATOM     50  C   UNL A   1      47.166  27.046  28.609  1.00  0.00     0.037 A 
ATOM     51  C   UNL A   1      41.304  29.829  29.414  1.00  0.00     0.049 A 
ATOM     52  C   UNL A   1      46.722  28.432  28.989  1.00  0.00     0.074 A 
ATOM     53  C   UNL A   1      41.028  31.103  29.876  1.00  0.00     0.029 A 
ATOM     54  N   UNL A   1      42.685  29.713  29.355  1.00  0.00    -0.354 N 
ATOM     55  N   UNL A   1      45.506  28.894  29.156  1.00  0.00    -0.248 NA
ATOM     56  C   UNL A   1      47.779  29.431  29.206  1.00  0.00     0.031 C 
ATOM     57  C   UNL A   1      42.240  31.778  30.038  1.00  0.00     0.029 A 
ATOM     58  C   UNL A   1      43.275  30.908  29.733  1.00  0.00     0.049 A 
ATOM     59  H   UNL A   1      43.173  28.901  29.085  1.00  0.00     0.167 HD
ATOM     60  C   UNL A   1      45.651  30.228  29.513  1.00  0.00     0.074 A 
ATOM     61  C   UNL A   1      47.074  30.496  29.561  1.00  0.00     0.031 C 
ATOM     62  C   UNL A   1      44.693  31.152  29.771  1.00  0.00     0.037 A 
BRANCH  49  63
ATOM     63  C   UNL A   1      38.910  29.100  29.059  1.00  0.00     0.057 A 
ATOM     64  C   UNL A   1      38.140  28.979  30.224  1.00  0.00     0.134 A 
ATOM     65  C   UNL A   1      38.262  29.557  27.904  1.00  0.00     0.134 A 
ATOM     66  F   UNL A   1      38.694  28.535  31.363  1.00  0.00    -0.206 F 
ATOM     67  C   UNL A   1      36.775  29.272  30.234  1.00  0.00     0.040 A 
ATOM     68  C   UNL A   1      36.904  29.884  27.909  1.00  0.00     0.040 A 
ATOM     69  F   UNL A   1      38.938  29.702  26.755  1.00  0.00    -0.206 F 
ATOM     70  C   UNL A   1      36.155  29.733  29.074  1.00  0.00     0.006 A 
ENDBRANCH  49  63
BRANCH  50  71
ATOM     71  C   UNL A   1      48.608  26.716  28.473  1.00  0.00     0.057 A 
ATOM     72  C   UNL A   1      49.339  26.207  29.553  1.00  0.00     0.134 A 
ATOM     73  C   UNL A   1      49.293  26.901  27.265  1.00  0.00     0.134 A 
ATOM     74  F   UNL A   1      48.746  26.024  30.742  1.00  0.00    -0.206 F 
ATOM     75  C   UNL A   1      50.699  25.914  29.444  1.00  0.00     0.040 A 
ATOM     76  C   UNL A   1      50.645  26.584  27.133  1.00  0.00     0.040 A 
ATOM     77  F   UNL A   1      48.650  27.380  26.188  1.00  0.00    -0.206 F 
ATOM     78  C   UNL A   1      51.355  26.096  28.229  1.00  0.00     0.006 A 
ENDBRANCH  50  71
BRANCH  62  79
ATOM     79  C   UNL A   1      45.150  32.534  30.138  1.00  0.00     0.057 A 
ATOM     80  C   UNL A   1      45.302  33.538  29.175  1.00  0.00     0.134 A 
ATOM     81  C   UNL A   1      45.375  32.880  31.477  1.00  0.00     0.134 A 
ATOM     82  F   UNL A   1      45.114  33.266  27.874  1.00  0.00    -0.206 F 
ATOM     83  C   UNL A   1      45.674  34.835  29.527  1.00  0.00     0.040 A 
ATOM     84  C   UNL A   1      45.718  34.181  31.844  1.00  0.00     0.040 A 
ATOM     85  F   UNL A   1      45.237  31.967  32.450  1.00  0.00    -0.206 F 
ATOM     86  C   UNL A   1      45.873  35.162  30.868  1.00  0.00     0.006 A 
ENDBRANCH  62  79
ENDBRANCH  36  37
ENDBRANCH  28  31
ENDBRANCH  26  27
ENDBRANCH  25  26
ENDBRANCH   1  25
TORSDOF 13
ENDMDL
