MODEL 1
REMARK VINA RESULT:     -11.8      0.000      0.000
REMARK SMILES CCc1[nH]nc(-n2cccc2)c1C(=O)NCCCNC(=O)c1ccc(-c2c3nc(c(-c4c(F)cccc4F)c4ccc([nH]4)c(-c4c(F)cccc4F)c4nc(c(-c5c(F)cccc5F)c5ccc2[nH]5)C=C4)C=C3)cc1
REMARK SMILES IDX 17 1 16 2 15 3 13 4 14 5 12 7 3 8 4 9 5 10 6 12 2 13 1 14
REMARK SMILES IDX 7 15 8 16 11 17 9 18 10 19 18 20 19 21 20 22 21 24 22 25
REMARK SMILES IDX 23 26 75 27 24 28 74 29 25 30 26 31 27 32 68 33 28 34 73 35
REMARK SMILES IDX 67 36 69 37 29 38 72 39 66 40 65 41 30 43 56 44 39 45 55 46
REMARK SMILES IDX 40 47 43 48 54 49 70 50 41 51 42 52 53 54 71 55 44 56 31 57
REMARK SMILES IDX 32 58 37 59 33 60 34 61 36 62 38 63 35 64 57 65 58 66 63 67
REMARK SMILES IDX 59 68 60 69 62 70 64 71 61 72 45 73 46 74 51 75 47 76 48 77
REMARK SMILES IDX 50 78 52 79 49 80
REMARK H PARENT 15 6 4 11 19 23 69 42 43 53
REMARK Flexibility Score: inf
ROOT
ATOM      1  C   UNL A   1      37.588  19.902  25.016  1.00  0.00     0.042 C 
ENDROOT
BRANCH   1   2
ATOM      2  C   UNL A   1      36.566  20.992  24.692  1.00  0.00     0.118 C 
BRANCH   2   3
ATOM      3  N   UNL A   1      35.541  21.058  25.694  1.00  0.00    -0.352 N 
ATOM      4  C   UNL A   1      34.190  20.872  25.713  1.00  0.00     0.256 C 
ATOM      5  O   UNL A   1      33.755  20.904  26.867  1.00  0.00    -0.269 OA
ATOM      6  H   UNL A   1      35.897  21.295  26.580  1.00  0.00     0.163 HD
BRANCH   4   7
ATOM      7  C   UNL A   1      33.308  20.610  24.563  1.00  0.00     0.105 A 
ATOM      8  C   UNL A   1      32.591  21.416  23.657  1.00  0.00     0.050 A 
ATOM      9  N   UNL A   1      32.035  20.557  22.742  1.00  0.00    -0.280 N 
ATOM     10  N   UNL A   1      32.366  19.284  22.904  1.00  0.00    -0.156 NA
ATOM     11  H   UNL A   1      31.438  20.863  22.022  1.00  0.00     0.190 HD
ATOM     12  C   UNL A   1      33.048  19.285  24.052  1.00  0.00     0.171 A 
BRANCH   8  13
ATOM     13  C   UNL A   1      32.347  22.883  23.494  1.00  0.00     0.053 C 
ATOM     14  C   UNL A   1      31.078  23.458  24.106  1.00  0.00     0.011 C 
ENDBRANCH   8  13
BRANCH  12  15
ATOM     15  N   UNL A   1      33.437  18.001  24.551  1.00  0.00    -0.307 N 
ATOM     16  C   UNL A   1      34.644  17.349  24.380  1.00  0.00     0.093 A 
ATOM     17  C   UNL A   1      32.663  17.203  25.377  1.00  0.00     0.093 A 
ATOM     18  C   UNL A   1      34.578  16.108  24.973  1.00  0.00     0.020 A 
ATOM     19  C   UNL A   1      33.314  16.008  25.590  1.00  0.00     0.020 A 
ENDBRANCH  12  15
ENDBRANCH   4   7
ENDBRANCH   2   3
ENDBRANCH   1   2
BRANCH   1  20
ATOM     20  C   UNL A   1      38.774  20.450  25.787  1.00  0.00     0.118 C 
BRANCH  20  21
ATOM     21  N   UNL A   1      39.790  19.414  25.905  1.00  0.00    -0.352 N 
ATOM     22  C   UNL A   1      41.146  19.514  26.048  1.00  0.00     0.251 C 
ATOM     23  H   UNL A   1      39.444  18.492  25.877  1.00  0.00     0.163 HD
ATOM     24  O   UNL A   1      41.851  18.546  25.810  1.00  0.00    -0.269 OA
BRANCH  22  25
ATOM     25  C   UNL A   1      41.753  20.786  26.465  1.00  0.00     0.039 A 
ATOM     26  C   UNL A   1      42.168  21.667  25.463  1.00  0.00     0.014 A 
ATOM     27  C   UNL A   1      41.963  21.077  27.818  1.00  0.00     0.014 A 
ATOM     28  C   UNL A   1      42.742  22.875  25.820  1.00  0.00     0.010 A 
ATOM     29  C   UNL A   1      42.482  22.305  28.182  1.00  0.00     0.010 A 
ATOM     30  C   UNL A   1      42.868  23.196  27.178  1.00  0.00    -0.014 A 
BRANCH  30  31
ATOM     31  C   UNL A   1      43.294  24.556  27.537  1.00  0.00     0.031 A 
ATOM     32  C   UNL A   1      42.070  25.479  27.711  1.00  0.00     0.074 A 
ATOM     33  C   UNL A   1      44.649  24.739  27.608  1.00  0.00     0.049 A 
ATOM     34  N   UNL A   1      41.938  26.748  27.486  1.00  0.00    -0.248 NA
ATOM     35  C   UNL A   1      40.765  24.883  28.125  1.00  0.00     0.031 C 
ATOM     36  C   UNL A   1      45.654  23.657  27.466  1.00  0.00     0.029 A 
ATOM     37  N   UNL A   1      45.468  25.830  27.808  1.00  0.00    -0.354 N 
ATOM     38  C   UNL A   1      40.649  27.137  27.929  1.00  0.00     0.074 A 
ATOM     39  C   UNL A   1      39.930  25.925  28.175  1.00  0.00     0.031 C 
ATOM     40  C   UNL A   1      46.910  24.149  27.490  1.00  0.00     0.029 A 
ATOM     41  C   UNL A   1      46.861  25.587  27.645  1.00  0.00     0.049 A 
ATOM     42  H   UNL A   1      45.113  26.716  28.046  1.00  0.00     0.167 HD
ATOM     43  C   UNL A   1      40.325  28.435  28.216  1.00  0.00     0.037 A 
ATOM     44  C   UNL A   1      47.892  26.489  27.577  1.00  0.00     0.037 A 
ATOM     45  C   UNL A   1      41.455  29.263  27.959  1.00  0.00     0.049 A 
ATOM     46  C   UNL A   1      47.269  27.782  27.882  1.00  0.00     0.074 A 
ATOM     47  C   UNL A   1      42.048  29.661  26.791  1.00  0.00     0.029 A 
ATOM     48  N   UNL A   1      42.337  29.428  29.001  1.00  0.00    -0.354 N 
ATOM     49  N   UNL A   1      46.868  28.138  29.065  1.00  0.00    -0.248 NA
ATOM     50  C   UNL A   1      46.941  28.688  26.777  1.00  0.00     0.031 C 
ATOM     51  C   UNL A   1      43.420  29.551  27.090  1.00  0.00     0.029 A 
ATOM     52  C   UNL A   1      43.601  29.393  28.471  1.00  0.00     0.049 A 
ATOM     53  H   UNL A   1      42.105  29.549  29.950  1.00  0.00     0.167 HD
ATOM     54  C   UNL A   1      45.941  29.107  28.772  1.00  0.00     0.074 A 
ATOM     55  C   UNL A   1      46.272  29.615  27.457  1.00  0.00     0.031 C 
ATOM     56  C   UNL A   1      44.704  29.038  29.332  1.00  0.00     0.037 A 
BRANCH  43  57
ATOM     57  C   UNL A   1      39.188  29.080  28.964  1.00  0.00     0.057 A 
ATOM     58  C   UNL A   1      39.057  28.798  30.347  1.00  0.00     0.134 A 
ATOM     59  C   UNL A   1      38.058  29.625  28.350  1.00  0.00     0.134 A 
ATOM     60  F   UNL A   1      40.097  28.333  31.060  1.00  0.00    -0.206 F 
ATOM     61  C   UNL A   1      37.841  28.894  31.027  1.00  0.00     0.040 A 
ATOM     62  C   UNL A   1      36.844  29.773  29.038  1.00  0.00     0.040 A 
ATOM     63  F   UNL A   1      38.054  29.946  27.051  1.00  0.00    -0.206 F 
ATOM     64  C   UNL A   1      36.719  29.361  30.363  1.00  0.00     0.006 A 
ENDBRANCH  43  57
BRANCH  44  65
ATOM     65  C   UNL A   1      49.353  26.523  27.187  1.00  0.00     0.057 A 
ATOM     66  C   UNL A   1      50.433  26.805  28.026  1.00  0.00     0.134 A 
ATOM     67  C   UNL A   1      49.742  26.159  25.865  1.00  0.00     0.134 A 
ATOM     68  F   UNL A   1      50.250  27.300  29.255  1.00  0.00    -0.206 F 
ATOM     69  C   UNL A   1      51.773  26.610  27.629  1.00  0.00     0.040 A 
ATOM     70  C   UNL A   1      51.061  25.915  25.471  1.00  0.00     0.040 A 
ATOM     71  F   UNL A   1      48.850  26.013  24.876  1.00  0.00    -0.206 F 
ATOM     72  C   UNL A   1      52.088  26.119  26.365  1.00  0.00     0.006 A 
ENDBRANCH  44  65
BRANCH  56  73
ATOM     73  C   UNL A   1      44.642  28.225  30.621  1.00  0.00     0.057 A 
ATOM     74  C   UNL A   1      45.400  28.617  31.734  1.00  0.00     0.134 A 
ATOM     75  C   UNL A   1      43.978  26.997  30.760  1.00  0.00     0.134 A 
ATOM     76  F   UNL A   1      46.044  29.795  31.729  1.00  0.00    -0.206 F 
ATOM     77  C   UNL A   1      45.537  27.815  32.877  1.00  0.00     0.040 A 
ATOM     78  C   UNL A   1      44.097  26.182  31.897  1.00  0.00     0.040 A 
ATOM     79  F   UNL A   1      43.186  26.534  29.796  1.00  0.00    -0.206 F 
ATOM     80  C   UNL A   1      44.894  26.585  32.957  1.00  0.00     0.006 A 
ENDBRANCH  56  73
ENDBRANCH  30  31
ENDBRANCH  22  25
ENDBRANCH  20  21
ENDBRANCH   1  20
TORSDOF 12
ENDMDL
MODEL 2
REMARK VINA RESULT:     -11.7      5.988     10.991
REMARK SMILES CCc1[nH]nc(-n2cccc2)c1C(=O)NCCCNC(=O)c1ccc(-c2c3nc(c(-c4c(F)cccc4F)c4ccc([nH]4)c(-c4c(F)cccc4F)c4nc(c(-c5c(F)cccc5F)c5ccc2[nH]5)C=C4)C=C3)cc1
REMARK SMILES IDX 17 1 16 2 15 3 13 4 14 5 12 7 3 8 4 9 5 10 6 12 2 13 1 14
REMARK SMILES IDX 7 15 8 16 11 17 9 18 10 19 18 20 19 21 20 22 21 24 22 25
REMARK SMILES IDX 23 26 75 27 24 28 74 29 25 30 26 31 27 32 68 33 28 34 73 35
REMARK SMILES IDX 67 36 69 37 29 38 72 39 66 40 65 41 30 43 56 44 39 45 55 46
REMARK SMILES IDX 40 47 43 48 54 49 70 50 41 51 42 52 53 54 71 55 44 56 31 57
REMARK SMILES IDX 32 58 37 59 33 60 34 61 36 62 38 63 35 64 57 65 58 66 63 67
REMARK SMILES IDX 59 68 60 69 62 70 64 71 61 72 45 73 46 74 51 75 47 76 48 77
REMARK SMILES IDX 50 78 52 79 49 80
REMARK H PARENT 15 6 4 11 19 23 69 42 43 53
REMARK Flexibility Score: inf
ROOT
ATOM      1  C   UNL A   1      31.473  31.630  26.547  1.00  0.00     0.042 C 
ENDROOT
BRANCH   1   2
ATOM      2  C   UNL A   1      31.596  30.122  26.327  1.00  0.00     0.118 C 
BRANCH   2   3
ATOM      3  N   UNL A   1      32.239  29.829  25.078  1.00  0.00    -0.352 N 
ATOM      4  C   UNL A   1      31.893  29.155  23.944  1.00  0.00     0.256 C 
ATOM      5  O   UNL A   1      32.748  29.298  23.066  1.00  0.00    -0.269 OA
ATOM      6  H   UNL A   1      33.147  30.204  25.026  1.00  0.00     0.163 HD
BRANCH   4   7
ATOM      7  C   UNL A   1      30.662  28.383  23.703  1.00  0.00     0.105 A 
ATOM      8  C   UNL A   1      30.298  27.029  23.833  1.00  0.00     0.050 A 
ATOM      9  N   UNL A   1      28.957  26.966  23.543  1.00  0.00    -0.280 N 
ATOM     10  N   UNL A   1      28.386  28.139  23.309  1.00  0.00    -0.156 NA
ATOM     11  H   UNL A   1      28.460  26.118  23.513  1.00  0.00     0.190 HD
ATOM     12  C   UNL A   1      29.415  28.989  23.302  1.00  0.00     0.171 A 
BRANCH   8  13
ATOM     13  C   UNL A   1      31.004  25.763  24.202  1.00  0.00     0.053 C 
ATOM     14  C   UNL A   1      30.562  24.481  23.510  1.00  0.00     0.011 C 
ENDBRANCH   8  13
BRANCH  12  15
ATOM     15  N   UNL A   1      29.108  30.342  22.947  1.00  0.00    -0.307 N 
ATOM     16  C   UNL A   1      28.973  31.433  23.784  1.00  0.00     0.093 A 
ATOM     17  C   UNL A   1      28.960  30.808  21.651  1.00  0.00     0.093 A 
ATOM     18  C   UNL A   1      28.613  32.535  23.040  1.00  0.00     0.020 A 
ATOM     19  C   UNL A   1      28.587  32.134  21.688  1.00  0.00     0.020 A 
ENDBRANCH  12  15
ENDBRANCH   4   7
ENDBRANCH   2   3
ENDBRANCH   1   2
BRANCH   1  20
ATOM     20  C   UNL A   1      32.765  32.233  27.066  1.00  0.00     0.118 C 
BRANCH  20  21
ATOM     21  N   UNL A   1      32.535  33.624  27.425  1.00  0.00    -0.352 N 
ATOM     22  C   UNL A   1      33.084  34.385  28.420  1.00  0.00     0.251 C 
ATOM     23  H   UNL A   1      31.879  34.093  26.860  1.00  0.00     0.163 HD
ATOM     24  O   UNL A   1      32.535  35.422  28.759  1.00  0.00    -0.269 OA
BRANCH  22  25
ATOM     25  C   UNL A   1      34.315  33.947  29.093  1.00  0.00     0.039 A 
ATOM     26  C   UNL A   1      34.183  33.172  30.248  1.00  0.00     0.014 A 
ATOM     27  C   UNL A   1      35.573  34.343  28.627  1.00  0.00     0.014 A 
ATOM     28  C   UNL A   1      35.321  32.740  30.906  1.00  0.00     0.010 A 
ATOM     29  C   UNL A   1      36.714  33.868  29.245  1.00  0.00     0.010 A 
ATOM     30  C   UNL A   1      36.578  33.068  30.382  1.00  0.00    -0.014 A 
BRANCH  30  31
ATOM     31  C   UNL A   1      37.768  32.440  30.976  1.00  0.00     0.031 A 
ATOM     32  C   UNL A   1      38.117  31.133  30.233  1.00  0.00     0.074 A 
ATOM     33  C   UNL A   1      38.292  33.097  32.056  1.00  0.00     0.049 A 
ATOM     34  N   UNL A   1      38.658  30.040  30.671  1.00  0.00    -0.248 NA
ATOM     35  C   UNL A   1      37.733  30.988  28.798  1.00  0.00     0.031 C 
ATOM     36  C   UNL A   1      37.814  34.409  32.556  1.00  0.00     0.029 A 
ATOM     37  N   UNL A   1      39.305  32.830  32.951  1.00  0.00    -0.354 N 
ATOM     38  C   UNL A   1      38.880  29.189  29.559  1.00  0.00     0.074 A 
ATOM     39  C   UNL A   1      38.162  29.767  28.465  1.00  0.00     0.031 C 
ATOM     40  C   UNL A   1      38.458  34.765  33.688  1.00  0.00     0.029 A 
ATOM     41  C   UNL A   1      39.411  33.736  34.045  1.00  0.00     0.049 A 
ATOM     42  H   UNL A   1      39.914  32.065  32.842  1.00  0.00     0.167 HD
ATOM     43  C   UNL A   1      39.778  28.156  29.585  1.00  0.00     0.037 A 
ATOM     44  C   UNL A   1      40.165  33.628  35.185  1.00  0.00     0.037 A 
ATOM     45  C   UNL A   1      40.372  28.089  30.877  1.00  0.00     0.049 A 
ATOM     46  C   UNL A   1      40.994  32.438  34.965  1.00  0.00     0.074 A 
ATOM     47  C   UNL A   1      39.873  27.697  32.091  1.00  0.00     0.029 A 
ATOM     48  N   UNL A   1      41.499  28.853  31.069  1.00  0.00    -0.354 N 
ATOM     49  N   UNL A   1      41.998  32.388  34.144  1.00  0.00    -0.248 NA
ATOM     50  C   UNL A   1      40.597  31.174  35.596  1.00  0.00     0.031 C 
ATOM     51  C   UNL A   1      40.404  28.665  32.968  1.00  0.00     0.029 A 
ATOM     52  C   UNL A   1      41.411  29.396  32.324  1.00  0.00     0.049 A 
ATOM     53  H   UNL A   1      42.232  28.986  30.425  1.00  0.00     0.167 HD
ATOM     54  C   UNL A   1      42.098  31.041  33.896  1.00  0.00     0.074 A 
ATOM     55  C   UNL A   1      41.483  30.366  35.020  1.00  0.00     0.031 C 
ATOM     56  C   UNL A   1      42.154  30.601  32.611  1.00  0.00     0.037 A 
BRANCH  43  57
ATOM     57  C   UNL A   1      40.424  27.317  28.515  1.00  0.00     0.057 A 
ATOM     58  C   UNL A   1      41.259  27.968  27.572  1.00  0.00     0.134 A 
ATOM     59  C   UNL A   1      39.988  26.039  28.154  1.00  0.00     0.134 A 
ATOM     60  F   UNL A   1      41.793  29.172  27.836  1.00  0.00    -0.206 F 
ATOM     61  C   UNL A   1      41.502  27.456  26.296  1.00  0.00     0.040 A 
ATOM     62  C   UNL A   1      40.270  25.493  26.892  1.00  0.00     0.040 A 
ATOM     63  F   UNL A   1      39.204  25.314  28.960  1.00  0.00    -0.206 F 
ATOM     64  C   UNL A   1      40.984  26.220  25.942  1.00  0.00     0.006 A 
ENDBRANCH  43  57
BRANCH  44  65
ATOM     65  C   UNL A   1      40.278  34.285  36.543  1.00  0.00     0.057 A 
ATOM     66  C   UNL A   1      41.366  35.015  37.027  1.00  0.00     0.134 A 
ATOM     67  C   UNL A   1      39.167  34.263  37.434  1.00  0.00     0.134 A 
ATOM     68  F   UNL A   1      42.540  35.023  36.389  1.00  0.00    -0.206 F 
ATOM     69  C   UNL A   1      41.303  35.767  38.220  1.00  0.00     0.040 A 
ATOM     70  C   UNL A   1      39.071  35.039  38.594  1.00  0.00     0.040 A 
ATOM     71  F   UNL A   1      38.099  33.482  37.221  1.00  0.00    -0.206 F 
ATOM     72  C   UNL A   1      40.139  35.818  38.982  1.00  0.00     0.006 A 
ENDBRANCH  44  65
BRANCH  56  73
ATOM     73  C   UNL A   1      42.641  31.643  31.611  1.00  0.00     0.057 A 
ATOM     74  C   UNL A   1      43.926  32.193  31.740  1.00  0.00     0.134 A 
ATOM     75  C   UNL A   1      41.844  32.228  30.615  1.00  0.00     0.134 A 
ATOM     76  F   UNL A   1      44.788  31.684  32.632  1.00  0.00    -0.206 F 
ATOM     77  C   UNL A   1      44.361  33.286  30.975  1.00  0.00     0.040 A 
ATOM     78  C   UNL A   1      42.264  33.317  29.835  1.00  0.00     0.040 A 
ATOM     79  F   UNL A   1      40.623  31.767  30.355  1.00  0.00    -0.206 F 
ATOM     80  C   UNL A   1      43.525  33.862  30.025  1.00  0.00     0.006 A 
ENDBRANCH  56  73
ENDBRANCH  30  31
ENDBRANCH  22  25
ENDBRANCH  20  21
ENDBRANCH   1  20
TORSDOF 12
ENDMDL
MODEL 3
REMARK VINA RESULT:     -11.5      5.104      8.467
REMARK SMILES CCc1[nH]nc(-n2cccc2)c1C(=O)NCCCNC(=O)c1ccc(-c2c3nc(c(-c4c(F)cccc4F)c4ccc([nH]4)c(-c4c(F)cccc4F)c4nc(c(-c5c(F)cccc5F)c5ccc2[nH]5)C=C4)C=C3)cc1
REMARK SMILES IDX 17 1 16 2 15 3 13 4 14 5 12 7 3 8 4 9 5 10 6 12 2 13 1 14
REMARK SMILES IDX 7 15 8 16 11 17 9 18 10 19 18 20 19 21 20 22 21 24 22 25
REMARK SMILES IDX 23 26 75 27 24 28 74 29 25 30 26 31 27 32 68 33 28 34 73 35
REMARK SMILES IDX 67 36 69 37 29 38 72 39 66 40 65 41 30 43 56 44 39 45 55 46
REMARK SMILES IDX 40 47 43 48 54 49 70 50 41 51 42 52 53 54 71 55 44 56 31 57
REMARK SMILES IDX 32 58 37 59 33 60 34 61 36 62 38 63 35 64 57 65 58 66 63 67
REMARK SMILES IDX 59 68 60 69 62 70 64 71 61 72 45 73 46 74 51 75 47 76 48 77
REMARK SMILES IDX 50 78 52 79 49 80
REMARK H PARENT 15 6 4 11 19 23 69 42 43 53
REMARK Flexibility Score: inf
ROOT
ATOM      1  C   UNL A   1      33.047  28.394  26.032  1.00  0.00     0.042 C 
ENDROOT
BRANCH   1   2
ATOM      2  C   UNL A   1      31.837  29.160  25.497  1.00  0.00     0.118 C 
BRANCH   2   3
ATOM      3  N   UNL A   1      31.884  29.276  24.068  1.00  0.00    -0.352 N 
ATOM      4  C   UNL A   1      31.010  29.049  23.047  1.00  0.00     0.256 C 
ATOM      5  O   UNL A   1      31.474  29.436  21.972  1.00  0.00    -0.269 OA
ATOM      6  H   UNL A   1      32.758  29.596  23.747  1.00  0.00     0.163 HD
BRANCH   4   7
ATOM      7  C   UNL A   1      29.657  28.475  23.140  1.00  0.00     0.105 A 
ATOM      8  C   UNL A   1      29.128  27.247  23.583  1.00  0.00     0.050 A 
ATOM      9  N   UNL A   1      27.762  27.371  23.505  1.00  0.00    -0.280 N 
ATOM     10  N   UNL A   1      27.335  28.569  23.130  1.00  0.00    -0.156 NA
ATOM     11  H   UNL A   1      27.149  26.630  23.712  1.00  0.00     0.190 HD
ATOM     12  C   UNL A   1      28.460  29.212  22.810  1.00  0.00     0.171 A 
BRANCH   8  13
ATOM     13  C   UNL A   1      29.696  25.959  24.087  1.00  0.00     0.053 C 
ATOM     14  C   UNL A   1      30.162  25.913  25.535  1.00  0.00     0.011 C 
ENDBRANCH   8  13
BRANCH  12  15
ATOM     15  N   UNL A   1      28.296  30.518  22.246  1.00  0.00    -0.307 N 
ATOM     16  C   UNL A   1      28.024  30.852  20.933  1.00  0.00     0.093 A 
ATOM     17  C   UNL A   1      28.314  31.701  22.966  1.00  0.00     0.093 A 
ATOM     18  C   UNL A   1      28.008  32.223  20.807  1.00  0.00     0.020 A 
ATOM     19  C   UNL A   1      28.210  32.763  22.094  1.00  0.00     0.020 A 
ENDBRANCH  12  15
ENDBRANCH   4   7
ENDBRANCH   2   3
ENDBRANCH   1   2
BRANCH   1  20
ATOM     20  C   UNL A   1      33.366  28.772  27.467  1.00  0.00     0.118 C 
BRANCH  20  21
ATOM     21  N   UNL A   1      33.382  30.222  27.589  1.00  0.00    -0.352 N 
ATOM     22  C   UNL A   1      34.294  31.052  28.180  1.00  0.00     0.251 C 
ATOM     23  H   UNL A   1      32.612  30.679  27.179  1.00  0.00     0.163 HD
ATOM     24  O   UNL A   1      33.976  32.198  28.457  1.00  0.00    -0.269 OA
BRANCH  22  25
ATOM     25  C   UNL A   1      35.641  30.561  28.501  1.00  0.00     0.039 A 
ATOM     26  C   UNL A   1      36.572  30.492  27.461  1.00  0.00     0.014 A 
ATOM     27  C   UNL A   1      35.963  30.123  29.791  1.00  0.00     0.014 A 
ATOM     28  C   UNL A   1      37.851  30.036  27.727  1.00  0.00     0.010 A 
ATOM     29  C   UNL A   1      37.254  29.723  30.076  1.00  0.00     0.010 A 
ATOM     30  C   UNL A   1      38.190  29.683  29.040  1.00  0.00    -0.014 A 
BRANCH  30  31
ATOM     31  C   UNL A   1      39.599  29.392  29.343  1.00  0.00     0.031 A 
ATOM     32  C   UNL A   1      40.332  30.674  29.792  1.00  0.00     0.074 A 
ATOM     33  C   UNL A   1      39.980  28.093  29.140  1.00  0.00     0.049 A 
ATOM     34  N   UNL A   1      41.567  31.032  29.636  1.00  0.00    -0.248 NA
ATOM     35  C   UNL A   1      39.551  31.765  30.448  1.00  0.00     0.031 C 
ATOM     36  C   UNL A   1      39.057  26.994  28.764  1.00  0.00     0.029 A 
ATOM     37  N   UNL A   1      41.180  27.417  29.199  1.00  0.00    -0.354 N 
ATOM     38  C   UNL A   1      41.762  32.244  30.345  1.00  0.00     0.074 A 
ATOM     39  C   UNL A   1      40.458  32.713  30.698  1.00  0.00     0.031 C 
ATOM     40  C   UNL A   1      39.729  25.845  28.543  1.00  0.00     0.029 A 
ATOM     41  C   UNL A   1      41.144  26.068  28.747  1.00  0.00     0.049 A 
ATOM     42  H   UNL A   1      42.004  27.840  29.531  1.00  0.00     0.167 HD
ATOM     43  C   UNL A   1      43.000  32.685  30.729  1.00  0.00     0.037 A 
ATOM     44  C   UNL A   1      42.189  25.215  28.494  1.00  0.00     0.037 A 
ATOM     45  C   UNL A   1      43.985  31.764  30.271  1.00  0.00     0.049 A 
ATOM     46  C   UNL A   1      43.376  25.941  28.959  1.00  0.00     0.074 A 
ATOM     47  C   UNL A   1      44.463  31.491  29.017  1.00  0.00     0.029 A 
ATOM     48  N   UNL A   1      44.279  30.719  31.113  1.00  0.00    -0.354 N 
ATOM     49  N   UNL A   1      43.670  26.135  30.208  1.00  0.00    -0.248 NA
ATOM     50  C   UNL A   1      44.222  26.618  27.971  1.00  0.00     0.031 C 
ATOM     51  C   UNL A   1      44.558  30.085  29.025  1.00  0.00     0.029 A 
ATOM     52  C   UNL A   1      44.429  29.601  30.334  1.00  0.00     0.049 A 
ATOM     53  H   UNL A   1      44.366  30.764  32.093  1.00  0.00     0.167 HD
ATOM     54  C   UNL A   1      44.492  27.233  30.140  1.00  0.00     0.074 A 
ATOM     55  C   UNL A   1      45.041  27.259  28.800  1.00  0.00     0.031 C 
ATOM     56  C   UNL A   1      44.243  28.304  30.940  1.00  0.00     0.037 A 
BRANCH  43  57
ATOM     57  C   UNL A   1      43.470  33.723  31.713  1.00  0.00     0.057 A 
ATOM     58  C   UNL A   1      43.152  33.536  33.082  1.00  0.00     0.134 A 
ATOM     59  C   UNL A   1      43.865  35.015  31.357  1.00  0.00     0.134 A 
ATOM     60  F   UNL A   1      42.823  32.322  33.556  1.00  0.00    -0.206 F 
ATOM     61  C   UNL A   1      43.070  34.592  33.992  1.00  0.00     0.040 A 
ATOM     62  C   UNL A   1      43.836  36.075  32.277  1.00  0.00     0.040 A 
ATOM     63  F   UNL A   1      44.203  35.322  30.099  1.00  0.00    -0.206 F 
ATOM     64  C   UNL A   1      43.390  35.876  33.581  1.00  0.00     0.006 A 
ENDBRANCH  43  57
BRANCH  44  65
ATOM     65  C   UNL A   1      42.436  23.887  27.814  1.00  0.00     0.057 A 
ATOM     66  C   UNL A   1      42.652  22.658  28.441  1.00  0.00     0.134 A 
ATOM     67  C   UNL A   1      42.375  23.797  26.393  1.00  0.00     0.134 A 
ATOM     68  F   UNL A   1      42.879  22.575  29.755  1.00  0.00    -0.206 F 
ATOM     69  C   UNL A   1      42.666  21.437  27.731  1.00  0.00     0.040 A 
ATOM     70  C   UNL A   1      42.339  22.594  25.680  1.00  0.00     0.040 A 
ATOM     71  F   UNL A   1      42.340  24.885  25.612  1.00  0.00    -0.206 F 
ATOM     72  C   UNL A   1      42.462  21.399  26.354  1.00  0.00     0.006 A 
ENDBRANCH  44  65
BRANCH  56  73
ATOM     73  C   UNL A   1      43.432  27.979  32.190  1.00  0.00     0.057 A 
ATOM     74  C   UNL A   1      43.925  27.058  33.126  1.00  0.00     0.134 A 
ATOM     75  C   UNL A   1      42.125  28.429  32.434  1.00  0.00     0.134 A 
ATOM     76  F   UNL A   1      45.178  26.592  33.015  1.00  0.00    -0.206 F 
ATOM     77  C   UNL A   1      43.150  26.574  34.191  1.00  0.00     0.040 A 
ATOM     78  C   UNL A   1      41.336  27.962  33.497  1.00  0.00     0.040 A 
ATOM     79  F   UNL A   1      41.557  29.342  31.650  1.00  0.00    -0.206 F 
ATOM     80  C   UNL A   1      41.845  27.016  34.374  1.00  0.00     0.006 A 
ENDBRANCH  56  73
ENDBRANCH  30  31
ENDBRANCH  22  25
ENDBRANCH  20  21
ENDBRANCH   1  20
TORSDOF 12
ENDMDL
