MODEL 1
REMARK VINA RESULT:     -12.8      0.000      0.000
REMARK SMILES CC(C)[C@H](NC(=O)[C@H]1CC(=O)N(c2ccc(F)cc2)C1)C(=O)N1CCC[C@@H]1C(=O)NCCCNC(=O)c1ccc(-c2c3nc(c(-c4c(F)cccc4F)c4ccc([nH]4)c(-c4c(F)cccc4F)c4nc(c(-c5c(F)cccc5F)c5ccc2[nH]5)C=C4)C=C3)cc1
REMARK SMILES IDX 28 1 29 2 30 3 27 5 23 6 24 7 25 8 26 9 21 10 22 11 4 12
REMARK SMILES IDX 2 13 1 14 3 15 5 16 6 17 7 19 8 20 9 21 20 22 10 23 12 24
REMARK SMILES IDX 11 25 13 26 14 27 19 28 15 29 18 30 16 31 17 32 31 33 32 34
REMARK SMILES IDX 33 35 34 36 35 37 36 39 37 40 38 41 90 42 39 43 89 44 40 45
REMARK SMILES IDX 41 46 42 47 83 48 43 49 88 50 82 51 84 52 44 53 87 54 81 55
REMARK SMILES IDX 80 56 45 58 71 59 54 60 70 61 55 62 58 63 69 64 85 65 56 66
REMARK SMILES IDX 57 67 68 69 86 70 59 71 46 72 47 73 52 74 48 75 49 76 51 77
REMARK SMILES IDX 53 78 50 79 72 80 73 81 78 82 74 83 75 84 77 85 79 86 76 87
REMARK SMILES IDX 60 88 61 89 66 90 62 91 63 92 65 93 67 94 64 95
REMARK H PARENT 30 4 5 18 34 38 84 57 58 68
REMARK Flexibility Score: inf
ROOT
ATOM      1  C   UNL A   1      35.282  21.535  25.870  1.00  0.00     0.242 C 
ATOM      2  O   UNL A   1      34.586  21.860  26.838  1.00  0.00    -0.273 OA
ATOM      3  N   UNL A   1      36.606  21.853  25.937  1.00  0.00    -0.354 N 
ATOM      4  H   UNL A   1      36.901  22.202  26.809  1.00  0.00     0.163 HD
ENDROOT
BRANCH   1   5
ATOM      5  C   UNL A   1      34.634  20.985  24.587  1.00  0.00     0.174 C 
ATOM      6  N   UNL A   1      33.582  21.821  23.991  1.00  0.00    -0.329 N 
ATOM      7  C   UNL A   1      32.517  20.954  23.518  1.00  0.00     0.120 C 
ATOM      8  C   UNL A   1      32.520  19.781  24.477  1.00  0.00     0.024 C 
ATOM      9  C   UNL A   1      33.984  19.619  24.857  1.00  0.00     0.037 C 
BRANCH   6  10
ATOM     10  C   UNL A   1      33.950  22.959  23.277  1.00  0.00     0.246 C 
ATOM     11  O   UNL A   1      35.114  23.119  22.901  1.00  0.00    -0.272 OA
BRANCH  10  12
ATOM     12  C   UNL A   1      32.936  24.159  23.240  1.00  0.00     0.174 C 
BRANCH  12  13
ATOM     13  C   UNL A   1      33.436  25.297  22.306  1.00  0.00     0.015 C 
ATOM     14  C   UNL A   1      32.612  25.619  21.055  1.00  0.00     0.010 C 
ATOM     15  C   UNL A   1      33.617  26.612  23.079  1.00  0.00     0.010 C 
ENDBRANCH  12  13
BRANCH  12  16
ATOM     16  N   UNL A   1      32.610  24.650  24.617  1.00  0.00    -0.344 N 
ATOM     17  C   UNL A   1      31.383  24.594  25.216  1.00  0.00     0.226 C 
ATOM     18  H   UNL A   1      33.345  25.050  25.137  1.00  0.00     0.164 HD
ATOM     19  O   UNL A   1      31.113  23.554  25.823  1.00  0.00    -0.275 OA
BRANCH  17  20
ATOM     20  C   UNL A   1      30.565  25.864  25.462  1.00  0.00     0.107 C 
ATOM     21  C   UNL A   1      31.202  27.107  26.072  1.00  0.00     0.116 C 
ATOM     22  C   UNL A   1      29.955  26.328  24.135  1.00  0.00     0.139 C 
ATOM     23  C   UNL A   1      30.913  28.242  25.127  1.00  0.00     0.227 C 
ATOM     24  N   UNL A   1      30.091  27.755  24.124  1.00  0.00    -0.312 N 
ATOM     25  O   UNL A   1      31.316  29.376  25.275  1.00  0.00    -0.274 OA
BRANCH  24  26
ATOM     26  C   UNL A   1      29.493  28.584  23.167  1.00  0.00     0.044 A 
ATOM     27  C   UNL A   1      30.281  29.320  22.276  1.00  0.00     0.029 A 
ATOM     28  C   UNL A   1      28.110  28.790  23.217  1.00  0.00     0.029 A 
ATOM     29  C   UNL A   1      29.689  30.268  21.441  1.00  0.00     0.041 A 
ATOM     30  C   UNL A   1      27.527  29.770  22.411  1.00  0.00     0.041 A 
ATOM     31  C   UNL A   1      28.321  30.499  21.532  1.00  0.00     0.123 A 
ATOM     32  F   UNL A   1      27.762  31.454  20.778  1.00  0.00    -0.207 F 
ENDBRANCH  24  26
ENDBRANCH  17  20
ENDBRANCH  12  16
ENDBRANCH  10  12
ENDBRANCH   6  10
ENDBRANCH   1   5
BRANCH   3  33
ATOM     33  C   UNL A   1      37.650  21.765  24.938  1.00  0.00     0.117 C 
BRANCH  33  34
ATOM     34  C   UNL A   1      38.332  20.409  24.938  1.00  0.00     0.042 C 
BRANCH  34  35
ATOM     35  C   UNL A   1      39.125  20.158  26.213  1.00  0.00     0.118 C 
BRANCH  35  36
ATOM     36  N   UNL A   1      40.309  19.336  25.977  1.00  0.00    -0.352 N 
ATOM     37  C   UNL A   1      41.637  19.677  25.944  1.00  0.00     0.251 C 
ATOM     38  H   UNL A   1      40.123  18.382  25.816  1.00  0.00     0.163 HD
ATOM     39  O   UNL A   1      42.451  18.906  25.450  1.00  0.00    -0.269 OA
BRANCH  37  40
ATOM     40  C   UNL A   1      42.086  20.978  26.475  1.00  0.00     0.039 A 
ATOM     41  C   UNL A   1      42.438  21.989  25.578  1.00  0.00     0.014 A 
ATOM     42  C   UNL A   1      42.172  21.198  27.850  1.00  0.00     0.014 A 
ATOM     43  C   UNL A   1      42.787  23.249  26.062  1.00  0.00     0.010 A 
ATOM     44  C   UNL A   1      42.416  22.477  28.329  1.00  0.00     0.010 A 
ATOM     45  C   UNL A   1      42.725  23.515  27.440  1.00  0.00    -0.014 A 
BRANCH  45  46
ATOM     46  C   UNL A   1      42.973  24.873  27.978  1.00  0.00     0.031 A 
ATOM     47  C   UNL A   1      44.359  25.274  28.395  1.00  0.00     0.074 A 
ATOM     48  C   UNL A   1      41.933  25.707  28.167  1.00  0.00     0.049 A 
ATOM     49  N   UNL A   1      44.756  26.374  28.981  1.00  0.00    -0.248 NA
ATOM     50  C   UNL A   1      45.436  24.300  28.153  1.00  0.00     0.031 C 
ATOM     51  C   UNL A   1      40.536  25.405  27.849  1.00  0.00     0.029 A 
ATOM     52  N   UNL A   1      41.889  26.979  28.679  1.00  0.00    -0.354 N 
ATOM     53  C   UNL A   1      46.119  26.215  29.193  1.00  0.00     0.074 A 
ATOM     54  C   UNL A   1      46.473  24.894  28.727  1.00  0.00     0.031 C 
ATOM     55  C   UNL A   1      39.778  26.473  28.139  1.00  0.00     0.029 A 
ATOM     56  C   UNL A   1      40.626  27.518  28.704  1.00  0.00     0.049 A 
ATOM     57  H   UNL A   1      42.686  27.459  28.999  1.00  0.00     0.167 HD
ATOM     58  C   UNL A   1      47.001  27.105  29.704  1.00  0.00     0.037 A 
ATOM     59  C   UNL A   1      40.199  28.719  29.137  1.00  0.00     0.037 A 
ATOM     60  C   UNL A   1      46.648  28.433  30.129  1.00  0.00     0.049 A 
ATOM     61  C   UNL A   1      41.199  29.692  29.692  1.00  0.00     0.074 A 
ATOM     62  C   UNL A   1      47.478  29.432  30.606  1.00  0.00     0.029 A 
ATOM     63  N   UNL A   1      45.361  28.949  30.120  1.00  0.00    -0.354 N 
ATOM     64  N   UNL A   1      42.494  29.548  29.843  1.00  0.00    -0.248 NA
ATOM     65  C   UNL A   1      40.684  30.995  30.136  1.00  0.00     0.031 C 
ATOM     66  C   UNL A   1      46.688  30.539  30.924  1.00  0.00     0.029 A 
ATOM     67  C   UNL A   1      45.372  30.248  30.598  1.00  0.00     0.049 A 
ATOM     68  H   UNL A   1      44.559  28.464  29.818  1.00  0.00     0.167 HD
ATOM     69  C   UNL A   1      42.951  30.745  30.374  1.00  0.00     0.074 A 
ATOM     70  C   UNL A   1      41.797  31.610  30.510  1.00  0.00     0.031 C 
ATOM     71  C   UNL A   1      44.213  31.096  30.717  1.00  0.00     0.037 A 
BRANCH  58  72
ATOM     72  C   UNL A   1      48.437  26.683  29.811  1.00  0.00     0.057 A 
ATOM     73  C   UNL A   1      48.899  25.993  30.939  1.00  0.00     0.134 A 
ATOM     74  C   UNL A   1      49.376  27.009  28.823  1.00  0.00     0.134 A 
ATOM     75  F   UNL A   1      48.054  25.652  31.923  1.00  0.00    -0.206 F 
ATOM     76  C   UNL A   1      50.245  25.654  31.085  1.00  0.00     0.040 A 
ATOM     77  C   UNL A   1      50.718  26.652  28.946  1.00  0.00     0.040 A 
ATOM     78  F   UNL A   1      48.995  27.657  27.712  1.00  0.00    -0.206 F 
ATOM     79  C   UNL A   1      51.159  25.981  30.086  1.00  0.00     0.006 A 
ENDBRANCH  58  72
BRANCH  59  80
ATOM     80  C   UNL A   1      38.763  29.075  29.017  1.00  0.00     0.057 A 
ATOM     81  C   UNL A   1      38.214  29.522  27.811  1.00  0.00     0.134 A 
ATOM     82  C   UNL A   1      37.914  29.006  30.127  1.00  0.00     0.134 A 
ATOM     83  F   UNL A   1      38.979  29.621  26.713  1.00  0.00    -0.206 F 
ATOM     84  C   UNL A   1      36.874  29.903  27.714  1.00  0.00     0.040 A 
ATOM     85  C   UNL A   1      36.568  29.363  30.041  1.00  0.00     0.040 A 
ATOM     86  F   UNL A   1      38.380  28.573  31.308  1.00  0.00    -0.206 F 
ATOM     87  C   UNL A   1      36.045  29.820  28.832  1.00  0.00     0.006 A 
ENDBRANCH  59  80
BRANCH  71  88
ATOM     88  C   UNL A   1      44.428  32.480  31.251  1.00  0.00     0.057 A 
ATOM     89  C   UNL A   1      44.282  32.746  32.618  1.00  0.00     0.134 A 
ATOM     90  C   UNL A   1      44.695  33.562  30.404  1.00  0.00     0.134 A 
ATOM     91  F   UNL A   1      44.015  31.754  33.481  1.00  0.00    -0.206 F 
ATOM     92  C   UNL A   1      44.376  34.043  33.122  1.00  0.00     0.040 A 
ATOM     93  C   UNL A   1      44.816  34.861  30.900  1.00  0.00     0.040 A 
ATOM     94  F   UNL A   1      44.856  33.371  29.086  1.00  0.00    -0.206 F 
ATOM     95  C   UNL A   1      44.645  35.105  32.262  1.00  0.00     0.006 A 
ENDBRANCH  71  88
ENDBRANCH  45  46
ENDBRANCH  37  40
ENDBRANCH  35  36
ENDBRANCH  34  35
ENDBRANCH  33  34
ENDBRANCH   3  33
TORSDOF 16
ENDMDL
MODEL 2
REMARK VINA RESULT:     -12.6      1.639      5.987
REMARK SMILES CC(C)[C@H](NC(=O)[C@H]1CC(=O)N(c2ccc(F)cc2)C1)C(=O)N1CCC[C@@H]1C(=O)NCCCNC(=O)c1ccc(-c2c3nc(c(-c4c(F)cccc4F)c4ccc([nH]4)c(-c4c(F)cccc4F)c4nc(c(-c5c(F)cccc5F)c5ccc2[nH]5)C=C4)C=C3)cc1
REMARK SMILES IDX 28 1 29 2 30 3 27 5 23 6 24 7 25 8 26 9 21 10 22 11 4 12
REMARK SMILES IDX 2 13 1 14 3 15 5 16 6 17 7 19 8 20 9 21 20 22 10 23 12 24
REMARK SMILES IDX 11 25 13 26 14 27 19 28 15 29 18 30 16 31 17 32 31 33 32 34
REMARK SMILES IDX 33 35 34 36 35 37 36 39 37 40 38 41 90 42 39 43 89 44 40 45
REMARK SMILES IDX 41 46 42 47 83 48 43 49 88 50 82 51 84 52 44 53 87 54 81 55
REMARK SMILES IDX 80 56 45 58 71 59 54 60 70 61 55 62 58 63 69 64 85 65 56 66
REMARK SMILES IDX 57 67 68 69 86 70 59 71 46 72 47 73 52 74 48 75 49 76 51 77
REMARK SMILES IDX 53 78 50 79 72 80 73 81 78 82 74 83 75 84 77 85 79 86 76 87
REMARK SMILES IDX 60 88 61 89 66 90 62 91 63 92 65 93 67 94 64 95
REMARK H PARENT 30 4 5 18 34 38 84 57 58 68
REMARK Flexibility Score: inf
ROOT
ATOM      1  C   UNL A   1      35.246  21.534  25.804  1.00  0.00     0.242 C 
ATOM      2  O   UNL A   1      34.634  21.986  26.777  1.00  0.00    -0.273 OA
ATOM      3  N   UNL A   1      36.593  21.749  25.778  1.00  0.00    -0.354 N 
ATOM      4  H   UNL A   1      36.962  22.137  26.605  1.00  0.00     0.163 HD
ENDROOT
BRANCH   1   5
ATOM      5  C   UNL A   1      34.486  20.943  24.603  1.00  0.00     0.174 C 
ATOM      6  N   UNL A   1      33.430  21.792  24.034  1.00  0.00    -0.329 N 
ATOM      7  C   UNL A   1      32.299  20.949  23.686  1.00  0.00     0.120 C 
ATOM      8  C   UNL A   1      32.322  19.832  24.710  1.00  0.00     0.024 C 
ATOM      9  C   UNL A   1      33.802  19.625  24.998  1.00  0.00     0.037 C 
BRANCH   6  10
ATOM     10  C   UNL A   1      33.793  22.871  23.230  1.00  0.00     0.246 C 
ATOM     11  O   UNL A   1      34.930  22.952  22.758  1.00  0.00    -0.272 OA
BRANCH  10  12
ATOM     12  C   UNL A   1      32.836  24.118  23.204  1.00  0.00     0.174 C 
BRANCH  12  13
ATOM     13  C   UNL A   1      33.366  25.221  22.245  1.00  0.00     0.015 C 
ATOM     14  C   UNL A   1      32.521  25.578  21.018  1.00  0.00     0.010 C 
ATOM     15  C   UNL A   1      33.642  26.529  23.001  1.00  0.00     0.010 C 
ENDBRANCH  12  13
BRANCH  12  16
ATOM     16  N   UNL A   1      32.567  24.638  24.583  1.00  0.00    -0.344 N 
ATOM     17  C   UNL A   1      31.354  24.644  25.212  1.00  0.00     0.226 C 
ATOM     18  H   UNL A   1      33.331  25.009  25.080  1.00  0.00     0.164 HD
ATOM     19  O   UNL A   1      31.052  23.623  25.838  1.00  0.00    -0.275 OA
BRANCH  17  20
ATOM     20  C   UNL A   1      30.601  25.952  25.463  1.00  0.00     0.107 C 
ATOM     21  C   UNL A   1      31.320  27.187  25.992  1.00  0.00     0.116 C 
ATOM     22  C   UNL A   1      29.930  26.398  24.159  1.00  0.00     0.139 C 
ATOM     23  C   UNL A   1      31.017  28.303  25.028  1.00  0.00     0.227 C 
ATOM     24  N   UNL A   1      30.119  27.818  24.092  1.00  0.00    -0.312 N 
ATOM     25  O   UNL A   1      31.472  29.425  25.114  1.00  0.00    -0.274 OA
BRANCH  24  26
ATOM     26  C   UNL A   1      29.497  28.640  23.144  1.00  0.00     0.044 A 
ATOM     27  C   UNL A   1      30.261  29.449  22.297  1.00  0.00     0.029 A 
ATOM     28  C   UNL A   1      28.103  28.763  23.164  1.00  0.00     0.029 A 
ATOM     29  C   UNL A   1      29.635  30.386  21.474  1.00  0.00     0.041 A 
ATOM     30  C   UNL A   1      27.482  29.732  22.372  1.00  0.00     0.041 A 
ATOM     31  C   UNL A   1      28.254  30.532  21.536  1.00  0.00     0.123 A 
ATOM     32  F   UNL A   1      27.657  31.476  20.796  1.00  0.00    -0.207 F 
ENDBRANCH  24  26
ENDBRANCH  17  20
ENDBRANCH  12  16
ENDBRANCH  10  12
ENDBRANCH   6  10
ENDBRANCH   1   5
BRANCH   3  33
ATOM     33  C   UNL A   1      37.569  21.502  24.738  1.00  0.00     0.117 C 
BRANCH  33  34
ATOM     34  C   UNL A   1      38.316  20.197  24.950  1.00  0.00     0.042 C 
BRANCH  34  35
ATOM     35  C   UNL A   1      39.233  20.245  26.164  1.00  0.00     0.118 C 
BRANCH  35  36
ATOM     36  N   UNL A   1      40.256  19.203  26.128  1.00  0.00    -0.352 N 
ATOM     37  C   UNL A   1      41.623  19.300  26.086  1.00  0.00     0.251 C 
ATOM     38  H   UNL A   1      39.907  18.282  26.134  1.00  0.00     0.163 HD
ATOM     39  O   UNL A   1      42.293  18.323  25.773  1.00  0.00    -0.269 OA
BRANCH  37  40
ATOM     40  C   UNL A   1      42.290  20.579  26.391  1.00  0.00     0.039 A 
ATOM     41  C   UNL A   1      42.754  21.368  25.336  1.00  0.00     0.014 A 
ATOM     42  C   UNL A   1      42.468  20.996  27.711  1.00  0.00     0.014 A 
ATOM     43  C   UNL A   1      43.313  22.617  25.604  1.00  0.00     0.010 A 
ATOM     44  C   UNL A   1      42.927  22.280  27.971  1.00  0.00     0.010 A 
ATOM     45  C   UNL A   1      43.353  23.102  26.921  1.00  0.00    -0.014 A 
BRANCH  45  46
ATOM     46  C   UNL A   1      43.830  24.471  27.227  1.00  0.00     0.031 A 
ATOM     47  C   UNL A   1      42.853  25.529  27.654  1.00  0.00     0.074 A 
ATOM     48  C   UNL A   1      45.128  24.775  27.037  1.00  0.00     0.049 A 
ATOM     49  N   UNL A   1      43.059  26.803  27.864  1.00  0.00    -0.248 NA
ATOM     50  C   UNL A   1      41.453  25.109  27.837  1.00  0.00     0.031 C 
ATOM     51  C   UNL A   1      46.158  23.842  26.573  1.00  0.00     0.029 A 
ATOM     52  N   UNL A   1      45.803  25.958  27.203  1.00  0.00    -0.354 N 
ATOM     53  C   UNL A   1      41.818  27.337  28.184  1.00  0.00     0.074 A 
ATOM     54  C   UNL A   1      40.854  26.265  28.085  1.00  0.00     0.031 C 
ATOM     55  C   UNL A   1      47.338  24.478  26.528  1.00  0.00     0.029 A 
ATOM     56  C   UNL A   1      47.143  25.871  26.914  1.00  0.00     0.049 A 
ATOM     57  H   UNL A   1      45.369  26.788  27.501  1.00  0.00     0.167 HD
ATOM     58  C   UNL A   1      41.517  28.602  28.556  1.00  0.00     0.037 A 
ATOM     59  C   UNL A   1      48.105  26.811  26.953  1.00  0.00     0.037 A 
ATOM     60  C   UNL A   1      42.488  29.654  28.691  1.00  0.00     0.049 A 
ATOM     61  C   UNL A   1      47.746  28.206  27.377  1.00  0.00     0.074 A 
ATOM     62  C   UNL A   1      42.292  30.955  29.118  1.00  0.00     0.029 A 
ATOM     63  N   UNL A   1      43.839  29.522  28.408  1.00  0.00    -0.354 N 
ATOM     64  N   UNL A   1      46.576  28.687  27.724  1.00  0.00    -0.248 NA
ATOM     65  C   UNL A   1      48.836  29.190  27.419  1.00  0.00     0.031 C 
ATOM     66  C   UNL A   1      43.518  31.623  29.056  1.00  0.00     0.029 A 
ATOM     67  C   UNL A   1      44.487  30.724  28.637  1.00  0.00     0.049 A 
ATOM     68  H   UNL A   1      44.272  28.697  28.091  1.00  0.00     0.167 HD
ATOM     69  C   UNL A   1      46.793  30.019  28.048  1.00  0.00     0.074 A 
ATOM     70  C   UNL A   1      48.208  30.269  27.866  1.00  0.00     0.031 C 
ATOM     71  C   UNL A   1      45.899  30.950  28.458  1.00  0.00     0.037 A 
BRANCH  58  72
ATOM     72  C   UNL A   1      40.083  28.916  28.866  1.00  0.00     0.057 A 
ATOM     73  C   UNL A   1      39.601  28.841  30.180  1.00  0.00     0.134 A 
ATOM     74  C   UNL A   1      39.163  29.236  27.858  1.00  0.00     0.134 A 
ATOM     75  F   UNL A   1      40.427  28.537  31.192  1.00  0.00    -0.206 F 
ATOM     76  C   UNL A   1      38.255  29.062  30.476  1.00  0.00     0.040 A 
ATOM     77  C   UNL A   1      37.821  29.485  28.146  1.00  0.00     0.040 A 
ATOM     78  F   UNL A   1      39.563  29.337  26.582  1.00  0.00    -0.206 F 
ATOM     79  C   UNL A   1      37.361  29.388  29.459  1.00  0.00     0.006 A 
ENDBRANCH  58  72
BRANCH  59  80
ATOM     80  C   UNL A   1      49.505  26.444  26.622  1.00  0.00     0.057 A 
ATOM     81  C   UNL A   1      49.999  26.529  25.316  1.00  0.00     0.134 A 
ATOM     82  C   UNL A   1      50.371  25.963  27.611  1.00  0.00     0.134 A 
ATOM     83  F   UNL A   1      49.215  26.970  24.322  1.00  0.00    -0.206 F 
ATOM     84  C   UNL A   1      51.300  26.135  25.000  1.00  0.00     0.040 A 
ATOM     85  C   UNL A   1      51.682  25.586  27.314  1.00  0.00     0.040 A 
ATOM     86  F   UNL A   1      49.959  25.871  28.884  1.00  0.00    -0.206 F 
ATOM     87  C   UNL A   1      52.148  25.665  26.003  1.00  0.00     0.006 A 
ENDBRANCH  59  80
BRANCH  71  88
ATOM     88  C   UNL A   1      46.418  32.322  28.767  1.00  0.00     0.057 A 
ATOM     89  C   UNL A   1      46.765  32.672  30.078  1.00  0.00     0.134 A 
ATOM     90  C   UNL A   1      46.493  33.318  27.787  1.00  0.00     0.134 A 
ATOM     91  F   UNL A   1      46.704  31.765  31.065  1.00  0.00    -0.206 F 
ATOM     92  C   UNL A   1      47.153  33.971  30.407  1.00  0.00     0.040 A 
ATOM     93  C   UNL A   1      46.903  34.615  28.099  1.00  0.00     0.040 A 
ATOM     94  F   UNL A   1      46.183  33.042  26.511  1.00  0.00    -0.206 F 
ATOM     95  C   UNL A   1      47.224  34.946  29.415  1.00  0.00     0.006 A 
ENDBRANCH  71  88
ENDBRANCH  45  46
ENDBRANCH  37  40
ENDBRANCH  35  36
ENDBRANCH  34  35
ENDBRANCH  33  34
ENDBRANCH   3  33
TORSDOF 16
ENDMDL
MODEL 3
REMARK VINA RESULT:     -12.6      1.830      2.855
REMARK SMILES CC(C)[C@H](NC(=O)[C@H]1CC(=O)N(c2ccc(F)cc2)C1)C(=O)N1CCC[C@@H]1C(=O)NCCCNC(=O)c1ccc(-c2c3nc(c(-c4c(F)cccc4F)c4ccc([nH]4)c(-c4c(F)cccc4F)c4nc(c(-c5c(F)cccc5F)c5ccc2[nH]5)C=C4)C=C3)cc1
REMARK SMILES IDX 28 1 29 2 30 3 27 5 23 6 24 7 25 8 26 9 21 10 22 11 4 12
REMARK SMILES IDX 2 13 1 14 3 15 5 16 6 17 7 19 8 20 9 21 20 22 10 23 12 24
REMARK SMILES IDX 11 25 13 26 14 27 19 28 15 29 18 30 16 31 17 32 31 33 32 34
REMARK SMILES IDX 33 35 34 36 35 37 36 39 37 40 38 41 90 42 39 43 89 44 40 45
REMARK SMILES IDX 41 46 42 47 83 48 43 49 88 50 82 51 84 52 44 53 87 54 81 55
REMARK SMILES IDX 80 56 45 58 71 59 54 60 70 61 55 62 58 63 69 64 85 65 56 66
REMARK SMILES IDX 57 67 68 69 86 70 59 71 46 72 47 73 52 74 48 75 49 76 51 77
REMARK SMILES IDX 53 78 50 79 72 80 73 81 78 82 74 83 75 84 77 85 79 86 76 87
REMARK SMILES IDX 60 88 61 89 66 90 62 91 63 92 65 93 67 94 64 95
REMARK H PARENT 30 4 5 18 34 38 84 57 58 68
REMARK Flexibility Score: inf
ROOT
ATOM      1  C   UNL A   1      35.194  21.088  25.933  1.00  0.00     0.242 C 
ATOM      2  O   UNL A   1      34.624  21.447  26.968  1.00  0.00    -0.273 OA
ATOM      3  N   UNL A   1      36.551  21.216  25.908  1.00  0.00    -0.354 N 
ATOM      4  H   UNL A   1      36.955  21.467  26.770  1.00  0.00     0.163 HD
ENDROOT
BRANCH   1   5
ATOM      5  C   UNL A   1      34.382  20.710  24.680  1.00  0.00     0.174 C 
ATOM      6  N   UNL A   1      33.007  21.228  24.629  1.00  0.00    -0.329 N 
ATOM      7  C   UNL A   1      32.146  20.194  24.081  1.00  0.00     0.120 C 
ATOM      8  C   UNL A   1      32.770  18.891  24.539  1.00  0.00     0.024 C 
ATOM      9  C   UNL A   1      34.263  19.183  24.559  1.00  0.00     0.037 C 
BRANCH   6  10
ATOM     10  C   UNL A   1      32.805  22.570  24.314  1.00  0.00     0.246 C 
ATOM     11  O   UNL A   1      31.947  23.233  24.902  1.00  0.00    -0.272 OA
BRANCH  10  12
ATOM     12  C   UNL A   1      33.465  23.120  22.998  1.00  0.00     0.174 C 
BRANCH  12  13
ATOM     13  C   UNL A   1      34.752  23.936  23.305  1.00  0.00     0.015 C 
ATOM     14  C   UNL A   1      34.969  24.427  24.740  1.00  0.00     0.010 C 
ATOM     15  C   UNL A   1      36.013  23.160  22.897  1.00  0.00     0.010 C 
ENDBRANCH  12  13
BRANCH  12  16
ATOM     16  N   UNL A   1      32.484  23.889  22.166  1.00  0.00    -0.344 N 
ATOM     17  C   UNL A   1      32.643  25.171  21.723  1.00  0.00     0.226 C 
ATOM     18  H   UNL A   1      31.649  23.429  21.918  1.00  0.00     0.164 HD
ATOM     19  O   UNL A   1      33.242  25.314  20.653  1.00  0.00    -0.275 OA
BRANCH  17  20
ATOM     20  C   UNL A   1      31.804  26.315  22.295  1.00  0.00     0.107 C 
ATOM     21  C   UNL A   1      30.508  26.041  23.049  1.00  0.00     0.116 C 
ATOM     22  C   UNL A   1      32.669  27.136  23.257  1.00  0.00     0.139 C 
ATOM     23  C   UNL A   1      30.634  26.733  24.380  1.00  0.00     0.227 C 
ATOM     24  N   UNL A   1      31.824  27.441  24.375  1.00  0.00    -0.312 N 
ATOM     25  O   UNL A   1      29.799  26.683  25.259  1.00  0.00    -0.274 OA
BRANCH  24  26
ATOM     26  C   UNL A   1      32.178  28.333  25.395  1.00  0.00     0.044 A 
ATOM     27  C   UNL A   1      31.577  29.593  25.474  1.00  0.00     0.029 A 
ATOM     28  C   UNL A   1      33.250  28.012  26.235  1.00  0.00     0.029 A 
ATOM     29  C   UNL A   1      32.051  30.537  26.385  1.00  0.00     0.041 A 
ATOM     30  C   UNL A   1      33.750  28.973  27.116  1.00  0.00     0.041 A 
ATOM     31  C   UNL A   1      33.147  30.224  27.182  1.00  0.00     0.123 A 
ATOM     32  F   UNL A   1      33.645  31.152  28.011  1.00  0.00    -0.207 F 
ENDBRANCH  24  26
ENDBRANCH  17  20
ENDBRANCH  12  16
ENDBRANCH  10  12
ENDBRANCH   6  10
ENDBRANCH   1   5
BRANCH   3  33
ATOM     33  C   UNL A   1      37.496  21.045  24.825  1.00  0.00     0.117 C 
BRANCH  33  34
ATOM     34  C   UNL A   1      38.415  19.857  25.047  1.00  0.00     0.042 C 
BRANCH  34  35
ATOM     35  C   UNL A   1      39.438  20.113  26.145  1.00  0.00     0.118 C 
BRANCH  35  36
ATOM     36  N   UNL A   1      40.590  19.220  26.049  1.00  0.00    -0.352 N 
ATOM     37  C   UNL A   1      41.933  19.497  26.047  1.00  0.00     0.251 C 
ATOM     38  H   UNL A   1      40.365  18.264  25.973  1.00  0.00     0.163 HD
ATOM     39  O   UNL A   1      42.730  18.645  25.672  1.00  0.00    -0.269 OA
BRANCH  37  40
ATOM     40  C   UNL A   1      42.421  20.823  26.470  1.00  0.00     0.039 A 
ATOM     41  C   UNL A   1      42.824  21.737  25.493  1.00  0.00     0.014 A 
ATOM     42  C   UNL A   1      42.493  21.162  27.822  1.00  0.00     0.014 A 
ATOM     43  C   UNL A   1      43.211  23.022  25.871  1.00  0.00     0.010 A 
ATOM     44  C   UNL A   1      42.777  22.469  28.190  1.00  0.00     0.010 A 
ATOM     45  C   UNL A   1      43.138  23.412  27.218  1.00  0.00    -0.014 A 
BRANCH  45  46
ATOM     46  C   UNL A   1      43.427  24.803  27.639  1.00  0.00     0.031 A 
ATOM     47  C   UNL A   1      44.849  25.262  27.789  1.00  0.00     0.074 A 
ATOM     48  C   UNL A   1      42.407  25.619  27.965  1.00  0.00     0.049 A 
ATOM     49  N   UNL A   1      45.303  26.402  28.243  1.00  0.00    -0.248 NA
ATOM     50  C   UNL A   1      45.902  24.304  27.411  1.00  0.00     0.031 C 
ATOM     51  C   UNL A   1      40.986  25.264  27.909  1.00  0.00     0.029 A 
ATOM     52  N   UNL A   1      42.406  26.915  28.415  1.00  0.00    -0.354 N 
ATOM     53  C   UNL A   1      46.686  26.290  28.223  1.00  0.00     0.074 A 
ATOM     54  C   UNL A   1      47.000  24.955  27.767  1.00  0.00     0.031 C 
ATOM     55  C   UNL A   1      40.253  26.326  28.274  1.00  0.00     0.029 A 
ATOM     56  C   UNL A   1      41.149  27.421  28.632  1.00  0.00     0.049 A 
ATOM     57  H   UNL A   1      43.229  27.432  28.567  1.00  0.00     0.167 HD
ATOM     58  C   UNL A   1      47.611  27.229  28.530  1.00  0.00     0.037 A 
ATOM     59  C   UNL A   1      40.761  28.632  29.074  1.00  0.00     0.037 A 
ATOM     60  C   UNL A   1      47.291  28.568  28.944  1.00  0.00     0.049 A 
ATOM     61  C   UNL A   1      41.807  29.659  29.399  1.00  0.00     0.074 A 
ATOM     62  C   UNL A   1      48.155  29.612  29.221  1.00  0.00     0.029 A 
ATOM     63  N   UNL A   1      46.004  29.049  29.133  1.00  0.00    -0.354 N 
ATOM     64  N   UNL A   1      43.112  29.557  29.329  1.00  0.00    -0.248 NA
ATOM     65  C   UNL A   1      41.330  30.970  29.862  1.00  0.00     0.031 C 
ATOM     66  C   UNL A   1      47.393  30.714  29.617  1.00  0.00     0.029 A 
ATOM     67  C   UNL A   1      46.052  30.372  29.539  1.00  0.00     0.049 A 
ATOM     68  H   UNL A   1      45.180  28.528  29.000  1.00  0.00     0.167 HD
ATOM     69  C   UNL A   1      43.612  30.793  29.715  1.00  0.00     0.074 A 
ATOM     70  C   UNL A   1      42.469  31.634  30.007  1.00  0.00     0.031 C 
ATOM     71  C   UNL A   1      44.902  31.194  29.816  1.00  0.00     0.037 A 
BRANCH  58  72
ATOM     72  C   UNL A   1      49.058  26.851  28.406  1.00  0.00     0.057 A 
ATOM     73  C   UNL A   1      49.731  26.984  27.185  1.00  0.00     0.134 A 
ATOM     74  C   UNL A   1      49.770  26.301  29.480  1.00  0.00     0.134 A 
ATOM     75  F   UNL A   1      49.108  27.500  26.115  1.00  0.00    -0.206 F 
ATOM     76  C   UNL A   1      51.057  26.572  27.035  1.00  0.00     0.040 A 
ATOM     77  C   UNL A   1      51.103  25.911  29.350  1.00  0.00     0.040 A 
ATOM     78  F   UNL A   1      49.187  26.160  30.680  1.00  0.00    -0.206 F 
ATOM     79  C   UNL A   1      51.747  26.037  28.120  1.00  0.00     0.006 A 
ENDBRANCH  58  72
BRANCH  59  80
ATOM     80  C   UNL A   1      39.314  28.944  29.188  1.00  0.00     0.057 A 
ATOM     81  C   UNL A   1      38.611  28.749  30.382  1.00  0.00     0.134 A 
ATOM     82  C   UNL A   1      38.594  29.414  28.084  1.00  0.00     0.134 A 
ATOM     83  F   UNL A   1      39.241  28.289  31.472  1.00  0.00    -0.206 F 
ATOM     84  C   UNL A   1      37.240  28.996  30.471  1.00  0.00     0.040 A 
ATOM     85  C   UNL A   1      37.228  29.686  28.164  1.00  0.00     0.040 A 
ATOM     86  F   UNL A   1      39.216  29.632  26.915  1.00  0.00    -0.206 F 
ATOM     87  C   UNL A   1      36.545  29.470  29.359  1.00  0.00     0.006 A 
ENDBRANCH  59  80
BRANCH  71  88
ATOM     88  C   UNL A   1      45.156  32.611  30.237  1.00  0.00     0.057 A 
ATOM     89  C   UNL A   1      45.253  33.630  29.280  1.00  0.00     0.134 A 
ATOM     90  C   UNL A   1      45.391  32.951  31.574  1.00  0.00     0.134 A 
ATOM     91  F   UNL A   1      45.051  33.366  27.980  1.00  0.00    -0.206 F 
ATOM     92  C   UNL A   1      45.591  34.935  29.638  1.00  0.00     0.040 A 
ATOM     93  C   UNL A   1      45.705  34.259  31.947  1.00  0.00     0.040 A 
ATOM     94  F   UNL A   1      45.303  32.022  32.538  1.00  0.00    -0.206 F 
ATOM     95  C   UNL A   1      45.816  35.252  30.975  1.00  0.00     0.006 A 
ENDBRANCH  71  88
ENDBRANCH  45  46
ENDBRANCH  37  40
ENDBRANCH  35  36
ENDBRANCH  34  35
ENDBRANCH  33  34
ENDBRANCH   3  33
TORSDOF 16
ENDMDL
