MODEL 1
REMARK VINA RESULT:     -12.6      0.000      0.000
REMARK SMILES CCC[N@@H+]1CC2(CCN(c3nccnc3C)CC2)C[C@H]1C(=O)NCCCNC(=O)c1ccc(-c2c3nc(c(-c4c(F)cccc4F)c4ccc([nH]4)c(-c4c(F)cccc4F)c4nc(c(-c5c(F)cccc5F)c5ccc2[nH]5)C=C4)C=C3)cc1
REMARK SMILES IDX 25 1 24 2 23 3 21 4 22 5 20 7 4 8 5 9 6 11 19 12 7 13 18 14
REMARK SMILES IDX 8 15 17 16 9 17 3 18 2 19 1 20 10 21 11 22 15 23 12 24 14 25
REMARK SMILES IDX 16 26 13 27 26 28 27 29 28 30 29 32 30 33 31 34 83 35 32 36
REMARK SMILES IDX 82 37 33 38 34 39 35 40 76 41 36 42 81 43 75 44 77 45 37 46
REMARK SMILES IDX 80 47 74 48 73 49 38 51 64 52 47 53 63 54 48 55 51 56 62 57
REMARK SMILES IDX 78 58 49 59 50 60 61 62 79 63 52 64 39 65 40 66 45 67 41 68
REMARK SMILES IDX 42 69 44 70 46 71 43 72 65 73 66 74 71 75 67 76 68 77 70 78
REMARK SMILES IDX 72 79 69 80 53 81 54 82 59 83 55 84 56 85 58 86 60 87 57 88
REMARK H PARENT 23 6 4 10 27 31 77 50 51 61
REMARK Flexibility Score: inf
ROOT
ATOM      1  C   UNL A   1      31.539  31.977  26.545  1.00  0.00     0.042 C 
ENDROOT
BRANCH   1   2
ATOM      2  C   UNL A   1      31.806  30.538  26.133  1.00  0.00     0.118 C 
BRANCH   2   3
ATOM      3  N   UNL A   1      31.721  29.585  27.202  1.00  0.00    -0.351 N 
ATOM      4  C   UNL A   1      31.688  28.223  27.168  1.00  0.00     0.278 C 
ATOM      5  O   UNL A   1      31.778  27.673  28.276  1.00  0.00    -0.268 OA
ATOM      6  H   UNL A   1      31.681  29.977  28.104  1.00  0.00     0.163 HD
BRANCH   4   7
ATOM      7  C   UNL A   1      31.552  27.341  25.887  1.00  0.00     0.274 C 
ATOM      8  N   UNL A   1      32.826  27.253  25.115  1.00  0.00    -0.324 N 
ATOM      9  C   UNL A   1      33.320  25.885  25.308  1.00  0.00     0.270 C 
ATOM     10  H   UNL A   1      33.561  27.888  25.426  1.00  0.00     0.348 HD
ATOM     11  C   UNL A   1      32.119  24.950  25.534  1.00  0.00     0.029 C 
ATOM     12  C   UNL A   1      30.996  25.918  25.978  1.00  0.00     0.088 C 
ATOM     13  C   UNL A   1      32.311  23.856  26.624  1.00  0.00     0.034 C 
ATOM     14  C   UNL A   1      31.804  24.187  24.208  1.00  0.00     0.034 C 
ATOM     15  C   UNL A   1      33.421  22.885  26.269  1.00  0.00     0.119 C 
ATOM     16  C   UNL A   1      32.847  23.085  23.889  1.00  0.00     0.119 C 
ATOM     17  N   UNL A   1      32.974  22.231  25.060  1.00  0.00    -0.355 N 
BRANCH   8  18
ATOM     18  C   UNL A   1      32.548  27.647  23.717  1.00  0.00     0.262 C 
BRANCH  18  19
ATOM     19  C   UNL A   1      33.508  27.151  22.625  1.00  0.00     0.058 C 
ATOM     20  C   UNL A   1      32.865  26.267  21.565  1.00  0.00     0.010 C 
ENDBRANCH  18  19
ENDBRANCH   8  18
BRANCH  17  21
ATOM     21  C   UNL A   1      33.216  20.883  24.916  1.00  0.00     0.150 A 
ATOM     22  N   UNL A   1      32.156  20.045  25.000  1.00  0.00    -0.236 NA
ATOM     23  C   UNL A   1      34.520  20.365  24.731  1.00  0.00     0.080 A 
ATOM     24  C   UNL A   1      32.417  18.724  24.888  1.00  0.00     0.133 A 
ATOM     25  N   UNL A   1      34.768  19.030  24.629  1.00  0.00    -0.256 NA
ATOM     26  C   UNL A   1      35.750  21.227  24.796  1.00  0.00     0.071 C 
ATOM     27  C   UNL A   1      33.693  18.227  24.711  1.00  0.00     0.131 A 
ENDBRANCH  17  21
ENDBRANCH   4   7
ENDBRANCH   2   3
ENDBRANCH   1   2
BRANCH   1  28
ATOM     28  C   UNL A   1      32.719  32.616  27.251  1.00  0.00     0.118 C 
BRANCH  28  29
ATOM     29  N   UNL A   1      32.465  34.012  27.603  1.00  0.00    -0.352 N 
ATOM     30  C   UNL A   1      33.047  34.807  28.566  1.00  0.00     0.251 C 
ATOM     31  H   UNL A   1      31.768  34.455  27.066  1.00  0.00     0.163 HD
ATOM     32  O   UNL A   1      32.575  35.908  28.809  1.00  0.00    -0.269 OA
BRANCH  30  33
ATOM     33  C   UNL A   1      34.221  34.317  29.325  1.00  0.00     0.039 A 
ATOM     34  C   UNL A   1      34.028  33.739  30.584  1.00  0.00     0.014 A 
ATOM     35  C   UNL A   1      35.509  34.419  28.798  1.00  0.00     0.014 A 
ATOM     36  C   UNL A   1      35.117  33.197  31.271  1.00  0.00     0.010 A 
ATOM     37  C   UNL A   1      36.564  33.770  29.420  1.00  0.00     0.010 A 
ATOM     38  C   UNL A   1      36.386  33.170  30.673  1.00  0.00    -0.014 A 
BRANCH  38  39
ATOM     39  C   UNL A   1      37.556  32.547  31.341  1.00  0.00     0.031 A 
ATOM     40  C   UNL A   1      38.275  31.404  30.678  1.00  0.00     0.074 A 
ATOM     41  C   UNL A   1      37.907  32.941  32.580  1.00  0.00     0.049 A 
ATOM     42  N   UNL A   1      39.248  30.659  31.135  1.00  0.00    -0.248 NA
ATOM     43  C   UNL A   1      37.804  31.015  29.338  1.00  0.00     0.031 C 
ATOM     44  C   UNL A   1      37.236  33.983  33.358  1.00  0.00     0.029 A 
ATOM     45  N   UNL A   1      38.902  32.494  33.409  1.00  0.00    -0.354 N 
ATOM     46  C   UNL A   1      39.483  29.704  30.155  1.00  0.00     0.074 A 
ATOM     47  C   UNL A   1      38.503  29.915  29.114  1.00  0.00     0.031 C 
ATOM     48  C   UNL A   1      37.853  34.111  34.544  1.00  0.00     0.029 A 
ATOM     49  C   UNL A   1      38.935  33.135  34.623  1.00  0.00     0.049 A 
ATOM     50  H   UNL A   1      39.535  31.782  33.159  1.00  0.00     0.167 HD
ATOM     51  C   UNL A   1      40.448  28.754  30.108  1.00  0.00     0.037 A 
ATOM     52  C   UNL A   1      39.741  32.950  35.686  1.00  0.00     0.037 A 
ATOM     53  C   UNL A   1      41.437  28.571  31.136  1.00  0.00     0.049 A 
ATOM     54  C   UNL A   1      40.824  31.912  35.608  1.00  0.00     0.074 A 
ATOM     55  C   UNL A   1      42.510  27.698  31.156  1.00  0.00     0.029 A 
ATOM     56  N   UNL A   1      41.469  29.274  32.332  1.00  0.00    -0.354 N 
ATOM     57  N   UNL A   1      41.094  31.074  34.637  1.00  0.00    -0.248 NA
ATOM     58  C   UNL A   1      41.720  31.802  36.766  1.00  0.00     0.031 C 
ATOM     59  C   UNL A   1      43.160  27.837  32.388  1.00  0.00     0.029 A 
ATOM     60  C   UNL A   1      42.526  28.835  33.112  1.00  0.00     0.049 A 
ATOM     61  H   UNL A   1      40.833  29.981  32.589  1.00  0.00     0.167 HD
ATOM     62  C   UNL A   1      42.202  30.348  35.057  1.00  0.00     0.074 A 
ATOM     63  C   UNL A   1      42.562  30.859  36.365  1.00  0.00     0.031 C 
ATOM     64  C   UNL A   1      42.862  29.351  34.416  1.00  0.00     0.037 A 
BRANCH  51  65
ATOM     65  C   UNL A   1      40.463  27.851  28.907  1.00  0.00     0.057 A 
ATOM     66  C   UNL A   1      41.237  28.134  27.771  1.00  0.00     0.134 A 
ATOM     67  C   UNL A   1      39.681  26.690  28.875  1.00  0.00     0.134 A 
ATOM     68  F   UNL A   1      42.001  29.237  27.727  1.00  0.00    -0.206 F 
ATOM     69  C   UNL A   1      41.191  27.327  26.633  1.00  0.00     0.040 A 
ATOM     70  C   UNL A   1      39.653  25.856  27.756  1.00  0.00     0.040 A 
ATOM     71  F   UNL A   1      38.922  26.351  29.929  1.00  0.00    -0.206 F 
ATOM     72  C   UNL A   1      40.398  26.182  26.624  1.00  0.00     0.006 A 
ENDBRANCH  51  65
BRANCH  52  73
ATOM     73  C   UNL A   1      39.560  33.794  36.893  1.00  0.00     0.057 A 
ATOM     74  C   UNL A   1      40.145  35.061  36.984  1.00  0.00     0.134 A 
ATOM     75  C   UNL A   1      38.760  33.374  37.964  1.00  0.00     0.134 A 
ATOM     76  F   UNL A   1      40.932  35.514  35.998  1.00  0.00    -0.206 F 
ATOM     77  C   UNL A   1      39.945  35.880  38.097  1.00  0.00     0.040 A 
ATOM     78  C   UNL A   1      38.532  34.191  39.072  1.00  0.00     0.040 A 
ATOM     79  F   UNL A   1      38.162  32.174  37.930  1.00  0.00    -0.206 F 
ATOM     80  C   UNL A   1      39.129  35.448  39.142  1.00  0.00     0.006 A 
ENDBRANCH  52  73
BRANCH  64  81
ATOM     81  C   UNL A   1      44.051  28.758  35.115  1.00  0.00     0.057 A 
ATOM     82  C   UNL A   1      45.338  29.291  34.965  1.00  0.00     0.134 A 
ATOM     83  C   UNL A   1      43.897  27.670  35.983  1.00  0.00     0.134 A 
ATOM     84  F   UNL A   1      45.554  30.326  34.140  1.00  0.00    -0.206 F 
ATOM     85  C   UNL A   1      46.433  28.747  35.639  1.00  0.00     0.040 A 
ATOM     86  C   UNL A   1      44.979  27.136  36.683  1.00  0.00     0.040 A 
ATOM     87  F   UNL A   1      42.690  27.119  36.178  1.00  0.00    -0.206 F 
ATOM     88  C   UNL A   1      46.254  27.671  36.507  1.00  0.00     0.006 A 
ENDBRANCH  64  81
ENDBRANCH  38  39
ENDBRANCH  30  33
ENDBRANCH  28  29
ENDBRANCH   1  28
TORSDOF 13
ENDMDL
MODEL 2
REMARK VINA RESULT:     -12.5      1.124      6.371
REMARK SMILES CCC[N@@H+]1CC2(CCN(c3nccnc3C)CC2)C[C@H]1C(=O)NCCCNC(=O)c1ccc(-c2c3nc(c(-c4c(F)cccc4F)c4ccc([nH]4)c(-c4c(F)cccc4F)c4nc(c(-c5c(F)cccc5F)c5ccc2[nH]5)C=C4)C=C3)cc1
REMARK SMILES IDX 25 1 24 2 23 3 21 4 22 5 20 7 4 8 5 9 6 11 19 12 7 13 18 14
REMARK SMILES IDX 8 15 17 16 9 17 3 18 2 19 1 20 10 21 11 22 15 23 12 24 14 25
REMARK SMILES IDX 16 26 13 27 26 28 27 29 28 30 29 32 30 33 31 34 83 35 32 36
REMARK SMILES IDX 82 37 33 38 34 39 35 40 76 41 36 42 81 43 75 44 77 45 37 46
REMARK SMILES IDX 80 47 74 48 73 49 38 51 64 52 47 53 63 54 48 55 51 56 62 57
REMARK SMILES IDX 78 58 49 59 50 60 61 62 79 63 52 64 39 65 40 66 45 67 41 68
REMARK SMILES IDX 42 69 44 70 46 71 43 72 65 73 66 74 71 75 67 76 68 77 70 78
REMARK SMILES IDX 72 79 69 80 53 81 54 82 59 83 55 84 56 85 58 86 60 87 57 88
REMARK H PARENT 23 6 4 10 27 31 77 50 51 61
REMARK Flexibility Score: inf
ROOT
ATOM      1  C   UNL A   1      31.404  32.363  26.501  1.00  0.00     0.042 C 
ENDROOT
BRANCH   1   2
ATOM      2  C   UNL A   1      31.378  30.851  26.340  1.00  0.00     0.118 C 
BRANCH   2   3
ATOM      3  N   UNL A   1      31.269  30.396  24.983  1.00  0.00    -0.351 N 
ATOM      4  C   UNL A   1      31.845  29.329  24.362  1.00  0.00     0.278 C 
ATOM      5  O   UNL A   1      31.424  29.104  23.218  1.00  0.00    -0.268 OA
ATOM      6  H   UNL A   1      30.683  30.942  24.410  1.00  0.00     0.163 HD
BRANCH   4   7
ATOM      7  C   UNL A   1      32.950  28.406  24.964  1.00  0.00     0.274 C 
ATOM      8  N   UNL A   1      32.577  27.863  26.302  1.00  0.00    -0.324 N 
ATOM      9  C   UNL A   1      32.304  26.436  26.096  1.00  0.00     0.270 C 
ATOM     10  H   UNL A   1      31.741  28.275  26.715  1.00  0.00     0.348 HD
ATOM     11  C   UNL A   1      33.155  25.932  24.918  1.00  0.00     0.029 C 
ATOM     12  C   UNL A   1      33.508  27.232  24.155  1.00  0.00     0.088 C 
ATOM     13  C   UNL A   1      32.447  24.945  23.946  1.00  0.00     0.034 C 
ATOM     14  C   UNL A   1      34.402  25.171  25.471  1.00  0.00     0.034 C 
ATOM     15  C   UNL A   1      32.044  23.655  24.635  1.00  0.00     0.119 C 
ATOM     16  C   UNL A   1      34.043  23.780  26.057  1.00  0.00     0.119 C 
ATOM     17  N   UNL A   1      33.289  23.049  25.050  1.00  0.00    -0.355 N 
BRANCH   8  18
ATOM     18  C   UNL A   1      33.666  28.180  27.251  1.00  0.00     0.262 C 
BRANCH  18  19
ATOM     19  C   UNL A   1      34.710  29.224  26.827  1.00  0.00     0.058 C 
ATOM     20  C   UNL A   1      34.833  30.418  27.763  1.00  0.00     0.010 C 
ENDBRANCH  18  19
ENDBRANCH   8  18
BRANCH  17  21
ATOM     21  C   UNL A   1      33.423  21.683  24.935  1.00  0.00     0.150 A 
ATOM     22  N   UNL A   1      32.310  20.930  25.098  1.00  0.00    -0.236 NA
ATOM     23  C   UNL A   1      34.674  21.064  24.700  1.00  0.00     0.080 A 
ATOM     24  C   UNL A   1      32.467  19.590  25.013  1.00  0.00     0.133 A 
ATOM     25  N   UNL A   1      34.818  19.712  24.626  1.00  0.00    -0.256 NA
ATOM     26  C   UNL A   1      35.965  21.832  24.677  1.00  0.00     0.071 C 
ATOM     27  C   UNL A   1      33.691  18.994  24.787  1.00  0.00     0.131 A 
ENDBRANCH  17  21
ENDBRANCH   4   7
ENDBRANCH   2   3
ENDBRANCH   1   2
BRANCH   1  28
ATOM     28  C   UNL A   1      32.658  32.860  27.194  1.00  0.00     0.118 C 
BRANCH  28  29
ATOM     29  N   UNL A   1      32.520  34.235  27.669  1.00  0.00    -0.352 N 
ATOM     30  C   UNL A   1      33.165  34.891  28.695  1.00  0.00     0.251 C 
ATOM     31  H   UNL A   1      31.862  34.780  27.179  1.00  0.00     0.163 HD
ATOM     32  O   UNL A   1      32.786  36.000  29.039  1.00  0.00    -0.269 OA
BRANCH  30  33
ATOM     33  C   UNL A   1      34.294  34.240  29.400  1.00  0.00     0.039 A 
ATOM     34  C   UNL A   1      34.029  33.398  30.486  1.00  0.00     0.014 A 
ATOM     35  C   UNL A   1      35.611  34.449  28.990  1.00  0.00     0.014 A 
ATOM     36  C   UNL A   1      35.078  32.713  31.103  1.00  0.00     0.010 A 
ATOM     37  C   UNL A   1      36.632  33.674  29.519  1.00  0.00     0.010 A 
ATOM     38  C   UNL A   1      36.382  32.813  30.595  1.00  0.00    -0.014 A 
BRANCH  38  39
ATOM     39  C   UNL A   1      37.513  32.052  31.181  1.00  0.00     0.031 A 
ATOM     40  C   UNL A   1      38.003  32.386  32.564  1.00  0.00     0.074 A 
ATOM     41  C   UNL A   1      38.160  31.135  30.437  1.00  0.00     0.049 A 
ATOM     42  N   UNL A   1      39.035  31.915  33.216  1.00  0.00    -0.248 NA
ATOM     43  C   UNL A   1      37.259  33.426  33.295  1.00  0.00     0.031 C 
ATOM     44  C   UNL A   1      37.829  30.781  29.056  1.00  0.00     0.029 A 
ATOM     45  N   UNL A   1      39.243  30.350  30.733  1.00  0.00    -0.354 N 
ATOM     46  C   UNL A   1      39.077  32.618  34.412  1.00  0.00     0.074 A 
ATOM     47  C   UNL A   1      38.015  33.598  34.366  1.00  0.00     0.031 C 
ATOM     48  C   UNL A   1      38.679  29.833  28.631  1.00  0.00     0.029 A 
ATOM     49  C   UNL A   1      39.635  29.542  29.694  1.00  0.00     0.049 A 
ATOM     50  H   UNL A   1      39.697  30.363  31.606  1.00  0.00     0.167 HD
ATOM     51  C   UNL A   1      39.905  32.444  35.471  1.00  0.00     0.037 A 
ATOM     52  C   UNL A   1      40.657  28.670  29.605  1.00  0.00     0.037 A 
ATOM     53  C   UNL A   1      40.939  31.446  35.518  1.00  0.00     0.049 A 
ATOM     54  C   UNL A   1      41.549  28.468  30.797  1.00  0.00     0.074 A 
ATOM     55  C   UNL A   1      41.781  31.124  36.568  1.00  0.00     0.029 A 
ATOM     56  N   UNL A   1      41.276  30.609  34.463  1.00  0.00    -0.354 N 
ATOM     57  N   UNL A   1      41.524  29.075  31.959  1.00  0.00    -0.248 NA
ATOM     58  C   UNL A   1      42.603  27.453  30.670  1.00  0.00     0.031 C 
ATOM     59  C   UNL A   1      42.662  30.129  36.130  1.00  0.00     0.029 A 
ATOM     60  C   UNL A   1      42.332  29.791  34.825  1.00  0.00     0.049 A 
ATOM     61  H   UNL A   1      40.829  30.600  33.586  1.00  0.00     0.167 HD
ATOM     62  C   UNL A   1      42.544  28.505  32.710  1.00  0.00     0.074 A 
ATOM     63  C   UNL A   1      43.157  27.491  31.875  1.00  0.00     0.031 C 
ATOM     64  C   UNL A   1      42.936  28.794  33.976  1.00  0.00     0.037 A 
BRANCH  51  65
ATOM     65  C   UNL A   1      39.715  33.359  36.647  1.00  0.00     0.057 A 
ATOM     66  C   UNL A   1      38.812  33.067  37.681  1.00  0.00     0.134 A 
ATOM     67  C   UNL A   1      40.430  34.560  36.743  1.00  0.00     0.134 A 
ATOM     68  F   UNL A   1      38.084  31.940  37.649  1.00  0.00    -0.206 F 
ATOM     69  C   UNL A   1      38.590  33.956  38.734  1.00  0.00     0.040 A 
ATOM     70  C   UNL A   1      40.243  35.441  37.809  1.00  0.00     0.040 A 
ATOM     71  F   UNL A   1      41.317  34.902  35.796  1.00  0.00    -0.206 F 
ATOM     72  C   UNL A   1      39.309  35.147  38.801  1.00  0.00     0.006 A 
ENDBRANCH  51  65
BRANCH  52  73
ATOM     73  C   UNL A   1      40.860  27.909  28.347  1.00  0.00     0.057 A 
ATOM     74  C   UNL A   1      40.244  26.670  28.143  1.00  0.00     0.134 A 
ATOM     75  C   UNL A   1      41.634  28.426  27.299  1.00  0.00     0.134 A 
ATOM     76  F   UNL A   1      39.502  26.117  29.113  1.00  0.00    -0.206 F 
ATOM     77  C   UNL A   1      40.393  25.968  26.946  1.00  0.00     0.040 A 
ATOM     78  C   UNL A   1      41.773  27.746  26.088  1.00  0.00     0.040 A 
ATOM     79  F   UNL A   1      42.240  29.615  27.429  1.00  0.00    -0.206 F 
ATOM     80  C   UNL A   1      41.153  26.511  25.911  1.00  0.00     0.006 A 
ENDBRANCH  52  73
BRANCH  64  81
ATOM     81  C   UNL A   1      44.071  27.990  34.541  1.00  0.00     0.057 A 
ATOM     82  C   UNL A   1      45.402  28.407  34.424  1.00  0.00     0.134 A 
ATOM     83  C   UNL A   1      43.822  26.808  35.250  1.00  0.00     0.134 A 
ATOM     84  F   UNL A   1      45.709  29.525  33.748  1.00  0.00    -0.206 F 
ATOM     85  C   UNL A   1      46.448  27.664  34.974  1.00  0.00     0.040 A 
ATOM     86  C   UNL A   1      44.856  26.072  35.828  1.00  0.00     0.040 A 
ATOM     87  F   UNL A   1      42.567  26.358  35.406  1.00  0.00    -0.206 F 
ATOM     88  C   UNL A   1      46.175  26.497  35.686  1.00  0.00     0.006 A 
ENDBRANCH  64  81
ENDBRANCH  38  39
ENDBRANCH  30  33
ENDBRANCH  28  29
ENDBRANCH   1  28
TORSDOF 13
ENDMDL
MODEL 3
REMARK VINA RESULT:     -12.4      1.074      2.061
REMARK SMILES CCC[N@@H+]1CC2(CCN(c3nccnc3C)CC2)C[C@H]1C(=O)NCCCNC(=O)c1ccc(-c2c3nc(c(-c4c(F)cccc4F)c4ccc([nH]4)c(-c4c(F)cccc4F)c4nc(c(-c5c(F)cccc5F)c5ccc2[nH]5)C=C4)C=C3)cc1
REMARK SMILES IDX 25 1 24 2 23 3 21 4 22 5 20 7 4 8 5 9 6 11 19 12 7 13 18 14
REMARK SMILES IDX 8 15 17 16 9 17 3 18 2 19 1 20 10 21 11 22 15 23 12 24 14 25
REMARK SMILES IDX 16 26 13 27 26 28 27 29 28 30 29 32 30 33 31 34 83 35 32 36
REMARK SMILES IDX 82 37 33 38 34 39 35 40 76 41 36 42 81 43 75 44 77 45 37 46
REMARK SMILES IDX 80 47 74 48 73 49 38 51 64 52 47 53 63 54 48 55 51 56 62 57
REMARK SMILES IDX 78 58 49 59 50 60 61 62 79 63 52 64 39 65 40 66 45 67 41 68
REMARK SMILES IDX 42 69 44 70 46 71 43 72 65 73 66 74 71 75 67 76 68 77 70 78
REMARK SMILES IDX 72 79 69 80 53 81 54 82 59 83 55 84 56 85 58 86 60 87 57 88
REMARK H PARENT 23 6 4 10 27 31 77 50 51 61
REMARK Flexibility Score: inf
ROOT
ATOM      1  C   UNL A   1      31.475  32.219  26.698  1.00  0.00     0.042 C 
ENDROOT
BRANCH   1   2
ATOM      2  C   UNL A   1      31.723  30.777  26.286  1.00  0.00     0.118 C 
BRANCH   2   3
ATOM      3  N   UNL A   1      31.022  30.364  25.105  1.00  0.00    -0.351 N 
ATOM      4  C   UNL A   1      31.233  29.299  24.281  1.00  0.00     0.278 C 
ATOM      5  O   UNL A   1      30.350  29.118  23.429  1.00  0.00    -0.268 OA
ATOM      6  H   UNL A   1      30.267  30.942  24.848  1.00  0.00     0.163 HD
BRANCH   4   7
ATOM      7  C   UNL A   1      32.454  28.328  24.332  1.00  0.00     0.274 C 
ATOM      8  N   UNL A   1      32.781  27.892  25.721  1.00  0.00    -0.324 N 
ATOM      9  C   UNL A   1      32.387  26.481  25.804  1.00  0.00     0.270 C 
ATOM     10  H   UNL A   1      32.281  28.391  26.457  1.00  0.00     0.348 HD
ATOM     11  C   UNL A   1      32.512  25.848  24.408  1.00  0.00     0.029 C 
ATOM     12  C   UNL A   1      32.485  27.071  23.460  1.00  0.00     0.088 C 
ATOM     13  C   UNL A   1      31.375  24.865  24.007  1.00  0.00     0.034 C 
ATOM     14  C   UNL A   1      33.838  25.025  24.334  1.00  0.00     0.034 C 
ATOM     15  C   UNL A   1      31.322  23.651  24.916  1.00  0.00     0.119 C 
ATOM     16  C   UNL A   1      33.768  23.701  25.139  1.00  0.00     0.119 C 
ATOM     17  N   UNL A   1      32.582  22.975  24.710  1.00  0.00    -0.355 N 
BRANCH   8  18
ATOM     18  C   UNL A   1      34.211  28.178  25.971  1.00  0.00     0.262 C 
BRANCH  18  19
ATOM     19  C   UNL A   1      34.600  28.756  27.340  1.00  0.00     0.058 C 
ATOM     20  C   UNL A   1      35.117  30.187  27.303  1.00  0.00     0.010 C 
ENDBRANCH  18  19
ENDBRANCH   8  18
BRANCH  17  21
ATOM     21  C   UNL A   1      32.588  21.598  24.664  1.00  0.00     0.150 A 
ATOM     22  N   UNL A   1      32.892  20.936  25.805  1.00  0.00    -0.236 NA
ATOM     23  C   UNL A   1      32.332  20.882  23.470  1.00  0.00     0.080 A 
ATOM     24  C   UNL A   1      32.923  19.587  25.732  1.00  0.00     0.133 A 
ATOM     25  N   UNL A   1      32.375  19.521  23.411  1.00  0.00    -0.256 NA
ATOM     26  C   UNL A   1      32.153  21.559  22.141  1.00  0.00     0.071 C 
ATOM     27  C   UNL A   1      32.676  18.895  24.563  1.00  0.00     0.131 A 
ENDBRANCH  17  21
ENDBRANCH   4   7
ENDBRANCH   2   3
ENDBRANCH   1   2
BRANCH   1  28
ATOM     28  C   UNL A   1      32.713  32.893  27.257  1.00  0.00     0.118 C 
BRANCH  28  29
ATOM     29  N   UNL A   1      32.464  34.282  27.639  1.00  0.00    -0.352 N 
ATOM     30  C   UNL A   1      33.038  35.050  28.628  1.00  0.00     0.251 C 
ATOM     31  H   UNL A   1      31.776  34.742  27.104  1.00  0.00     0.163 HD
ATOM     32  O   UNL A   1      32.570  36.147  28.892  1.00  0.00    -0.269 OA
BRANCH  30  33
ATOM     33  C   UNL A   1      34.198  34.533  29.391  1.00  0.00     0.039 A 
ATOM     34  C   UNL A   1      33.999  34.027  30.679  1.00  0.00     0.014 A 
ATOM     35  C   UNL A   1      35.479  34.540  28.838  1.00  0.00     0.014 A 
ATOM     36  C   UNL A   1      35.071  33.460  31.374  1.00  0.00     0.010 A 
ATOM     37  C   UNL A   1      36.511  33.865  29.473  1.00  0.00     0.010 A 
ATOM     38  C   UNL A   1      36.325  33.336  30.757  1.00  0.00    -0.014 A 
BRANCH  38  39
ATOM     39  C   UNL A   1      37.472  32.683  31.434  1.00  0.00     0.031 A 
ATOM     40  C   UNL A   1      38.175  31.529  30.772  1.00  0.00     0.074 A 
ATOM     41  C   UNL A   1      37.817  33.060  32.680  1.00  0.00     0.049 A 
ATOM     42  N   UNL A   1      39.126  30.760  31.235  1.00  0.00    -0.248 NA
ATOM     43  C   UNL A   1      37.711  31.159  29.424  1.00  0.00     0.031 C 
ATOM     44  C   UNL A   1      37.160  34.112  33.457  1.00  0.00     0.029 A 
ATOM     45  N   UNL A   1      38.792  32.587  33.518  1.00  0.00    -0.354 N 
ATOM     46  C   UNL A   1      39.351  29.806  30.251  1.00  0.00     0.074 A 
ATOM     47  C   UNL A   1      38.388  30.046  29.200  1.00  0.00     0.031 C 
ATOM     48  C   UNL A   1      37.765  34.218  34.651  1.00  0.00     0.029 A 
ATOM     49  C   UNL A   1      38.824  33.218  34.736  1.00  0.00     0.049 A 
ATOM     50  H   UNL A   1      39.412  31.863  33.270  1.00  0.00     0.167 HD
ATOM     51  C   UNL A   1      40.296  28.835  30.210  1.00  0.00     0.037 A 
ATOM     52  C   UNL A   1      39.613  33.009  35.807  1.00  0.00     0.037 A 
ATOM     53  C   UNL A   1      41.268  28.624  31.248  1.00  0.00     0.049 A 
ATOM     54  C   UNL A   1      40.674  31.948  35.736  1.00  0.00     0.074 A 
ATOM     55  C   UNL A   1      42.321  27.728  31.276  1.00  0.00     0.029 A 
ATOM     56  N   UNL A   1      41.301  29.318  32.450  1.00  0.00    -0.354 N 
ATOM     57  N   UNL A   1      40.938  31.110  34.762  1.00  0.00    -0.248 NA
ATOM     58  C   UNL A   1      41.553  31.811  36.904  1.00  0.00     0.031 C 
ATOM     59  C   UNL A   1      42.959  27.843  32.516  1.00  0.00     0.029 A 
ATOM     60  C   UNL A   1      42.338  28.851  33.239  1.00  0.00     0.049 A 
ATOM     61  H   UNL A   1      40.677  30.037  32.704  1.00  0.00     0.167 HD
ATOM     62  C   UNL A   1      42.024  30.357  35.190  1.00  0.00     0.074 A 
ATOM     63  C   UNL A   1      42.379  30.852  36.506  1.00  0.00     0.031 C 
ATOM     64  C   UNL A   1      42.670  29.350  34.551  1.00  0.00     0.037 A 
BRANCH  51  65
ATOM     65  C   UNL A   1      40.306  27.940  29.003  1.00  0.00     0.057 A 
ATOM     66  C   UNL A   1      39.606  26.724  28.972  1.00  0.00     0.134 A 
ATOM     67  C   UNL A   1      41.039  28.286  27.861  1.00  0.00     0.134 A 
ATOM     68  F   UNL A   1      38.892  26.323  30.035  1.00  0.00    -0.206 F 
ATOM     69  C   UNL A   1      39.678  25.865  27.874  1.00  0.00     0.040 A 
ATOM     70  C   UNL A   1      41.090  27.452  26.743  1.00  0.00     0.040 A 
ATOM     71  F   UNL A   1      41.727  29.437  27.816  1.00  0.00    -0.206 F 
ATOM     72  C   UNL A   1      40.420  26.229  26.753  1.00  0.00     0.006 A 
ENDBRANCH  51  65
BRANCH  52  73
ATOM     73  C   UNL A   1      39.436  33.849  37.018  1.00  0.00     0.057 A 
ATOM     74  C   UNL A   1      38.677  33.401  38.105  1.00  0.00     0.134 A 
ATOM     75  C   UNL A   1      40.061  35.097  37.137  1.00  0.00     0.134 A 
ATOM     76  F   UNL A   1      38.044  32.221  38.046  1.00  0.00    -0.206 F 
ATOM     77  C   UNL A   1      38.541  34.165  39.265  1.00  0.00     0.040 A 
ATOM     78  C   UNL A   1      39.953  35.861  38.301  1.00  0.00     0.040 A 
ATOM     79  F   UNL A   1      40.812  35.575  36.135  1.00  0.00    -0.206 F 
ATOM     80  C   UNL A   1      39.188  35.396  39.368  1.00  0.00     0.006 A 
ENDBRANCH  52  73
BRANCH  64  81
ATOM     81  C   UNL A   1      43.837  28.727  35.260  1.00  0.00     0.057 A 
ATOM     82  C   UNL A   1      45.141  29.211  35.102  1.00  0.00     0.134 A 
ATOM     83  C   UNL A   1      43.644  27.660  36.146  1.00  0.00     0.134 A 
ATOM     84  F   UNL A   1      45.395  30.224  34.260  1.00  0.00    -0.206 F 
ATOM     85  C   UNL A   1      46.217  28.639  35.785  1.00  0.00     0.040 A 
ATOM     86  C   UNL A   1      44.706  27.099  36.855  1.00  0.00     0.040 A 
ATOM     87  F   UNL A   1      42.417  27.155  36.349  1.00  0.00    -0.206 F 
ATOM     88  C   UNL A   1      45.999  27.585  36.671  1.00  0.00     0.006 A 
ENDBRANCH  64  81
ENDBRANCH  38  39
ENDBRANCH  30  33
ENDBRANCH  28  29
ENDBRANCH   1  28
TORSDOF 13
ENDMDL
