MODEL 1
REMARK VINA RESULT:     -11.2      0.000      0.000
REMARK SMILES O=C(NCCCNC(=O)c1cc(Cl)nc(I)c1C(F)(F)F)c1ccc(-c2c3nc(c(-c4c(F)cccc4F)c4ccc([nH]4)c(-c4c(F)cccc4F)c4nc(c(-c5c(F)cccc5F)c5ccc2[nH]5)C=C4)C=C3)cc1
REMARK SMILES IDX 4 1 3 2 1 3 2 4 22 6 23 7 75 8 24 9 74 10 25 11 26 12 27 13
REMARK SMILES IDX 68 14 28 15 73 16 67 17 69 18 29 19 72 20 66 21 65 22 30 24
REMARK SMILES IDX 56 25 39 26 55 27 40 28 43 29 54 30 70 31 41 32 42 33 53 35
REMARK SMILES IDX 71 36 44 37 31 38 32 39 37 40 33 41 34 42 36 43 38 44 35 45
REMARK SMILES IDX 57 46 58 47 63 48 59 49 60 50 62 51 64 52 61 53 45 54 46 55
REMARK SMILES IDX 51 56 47 57 48 58 50 59 52 60 49 61 5 62 6 63 7 64 8 65 9 67
REMARK SMILES IDX 10 68 11 69 17 70 12 71 15 72 13 73 14 74 16 75 18 76 19 77
REMARK SMILES IDX 20 78 21 79
REMARK H PARENT 3 5 69 23 43 34 7 66
REMARK Flexibility Score: inf
ROOT
ATOM      1  C   UNL A   1      38.847  20.227  25.771  1.00  0.00     0.118 C 
ENDROOT
BRANCH   1   2
ATOM      2  N   UNL A   1      39.953  19.284  25.835  1.00  0.00    -0.352 N 
ATOM      3  O   UNL A   1      42.091  18.587  25.951  1.00  0.00    -0.269 OA
ATOM      4  C   UNL A   1      41.280  19.491  26.125  1.00  0.00     0.251 C 
ATOM      5  H   UNL A   1      39.712  18.349  25.640  1.00  0.00     0.163 HD
BRANCH   4   6
ATOM      6  C   UNL A   1      41.742  20.804  26.619  1.00  0.00     0.039 A 
ATOM      7  C   UNL A   1      41.751  21.094  27.986  1.00  0.00     0.014 A 
ATOM      8  C   UNL A   1      42.199  21.751  25.697  1.00  0.00     0.014 A 
ATOM      9  C   UNL A   1      42.078  22.376  28.418  1.00  0.00     0.010 A 
ATOM     10  C   UNL A   1      42.590  23.018  26.138  1.00  0.00     0.010 A 
ATOM     11  C   UNL A   1      42.493  23.351  27.498  1.00  0.00    -0.014 A 
BRANCH  11  12
ATOM     12  C   UNL A   1      42.831  24.711  27.980  1.00  0.00     0.031 A 
ATOM     13  C   UNL A   1      44.264  25.122  28.169  1.00  0.00     0.074 A 
ATOM     14  C   UNL A   1      41.840  25.590  28.214  1.00  0.00     0.049 A 
ATOM     15  N   UNL A   1      44.749  26.282  28.532  1.00  0.00    -0.248 NA
ATOM     16  C   UNL A   1      45.288  24.096  27.915  1.00  0.00     0.031 C 
ATOM     17  C   UNL A   1      40.411  25.305  28.069  1.00  0.00     0.029 A 
ATOM     18  N   UNL A   1      41.882  26.901  28.612  1.00  0.00    -0.354 N 
ATOM     19  C   UNL A   1      46.129  26.129  28.551  1.00  0.00     0.074 A 
ATOM     20  C   UNL A   1      46.405  24.752  28.199  1.00  0.00     0.031 C 
ATOM     21  C   UNL A   1      39.713  26.416  28.350  1.00  0.00     0.029 A 
ATOM     22  C   UNL A   1      40.640  27.476  28.731  1.00  0.00     0.049 A 
ATOM     23  H   UNL A   1      42.720  27.383  28.794  1.00  0.00     0.167 HD
ATOM     24  C   UNL A   1      47.081  27.055  28.822  1.00  0.00     0.037 A 
ATOM     25  C   UNL A   1      40.291  28.717  29.115  1.00  0.00     0.037 A 
ATOM     26  C   UNL A   1      46.805  28.423  29.178  1.00  0.00     0.049 A 
ATOM     27  C   UNL A   1      41.364  29.706  29.467  1.00  0.00     0.074 A 
ATOM     28  C   UNL A   1      47.701  29.446  29.440  1.00  0.00     0.029 A 
ATOM     29  N   UNL A   1      45.535  28.956  29.335  1.00  0.00    -0.354 N 
ATOM     30  N   UNL A   1      42.667  29.562  29.430  1.00  0.00    -0.248 NA
ATOM     31  C   UNL A   1      40.916  31.031  29.915  1.00  0.00     0.031 C 
ATOM     32  C   UNL A   1      46.972  30.586  29.798  1.00  0.00     0.029 A 
ATOM     33  C   UNL A   1      45.622  30.285  29.718  1.00  0.00     0.049 A 
ATOM     34  H   UNL A   1      44.694  28.463  29.195  1.00  0.00     0.167 HD
ATOM     35  C   UNL A   1      43.194  30.781  29.833  1.00  0.00     0.074 A 
ATOM     36  C   UNL A   1      42.071  31.658  30.091  1.00  0.00     0.031 C 
ATOM     37  C   UNL A   1      44.493  31.141  29.978  1.00  0.00     0.037 A 
BRANCH  24  38
ATOM     38  C   UNL A   1      48.512  26.611  28.754  1.00  0.00     0.057 A 
ATOM     39  C   UNL A   1      49.164  26.117  29.891  1.00  0.00     0.134 A 
ATOM     40  C   UNL A   1      49.255  26.693  27.569  1.00  0.00     0.134 A 
ATOM     41  F   UNL A   1      48.513  26.015  31.059  1.00  0.00    -0.206 F 
ATOM     42  C   UNL A   1      50.502  25.721  29.852  1.00  0.00     0.040 A 
ATOM     43  C   UNL A   1      50.587  26.280  27.512  1.00  0.00     0.040 A 
ATOM     44  F   UNL A   1      48.686  27.144  26.440  1.00  0.00    -0.206 F 
ATOM     45  C   UNL A   1      51.216  25.797  28.657  1.00  0.00     0.006 A 
ENDBRANCH  24  38
BRANCH  25  46
ATOM     46  C   UNL A   1      38.860  29.094  29.186  1.00  0.00     0.057 A 
ATOM     47  C   UNL A   1      38.181  29.587  28.065  1.00  0.00     0.134 A 
ATOM     48  C   UNL A   1      38.134  28.960  30.374  1.00  0.00     0.134 A 
ATOM     49  F   UNL A   1      38.823  29.741  26.898  1.00  0.00    -0.206 F 
ATOM     50  C   UNL A   1      36.833  29.939  28.125  1.00  0.00     0.040 A 
ATOM     51  C   UNL A   1      36.779  29.287  30.442  1.00  0.00     0.040 A 
ATOM     52  F   UNL A   1      38.727  28.476  31.476  1.00  0.00    -0.206 F 
ATOM     53  C   UNL A   1      36.125  29.782  29.315  1.00  0.00     0.006 A 
ENDBRANCH  25  46
BRANCH  37  54
ATOM     54  C   UNL A   1      44.757  32.550  30.418  1.00  0.00     0.057 A 
ATOM     55  C   UNL A   1      44.872  33.584  29.480  1.00  0.00     0.134 A 
ATOM     56  C   UNL A   1      44.905  32.883  31.771  1.00  0.00     0.134 A 
ATOM     57  F   UNL A   1      44.746  33.330  28.169  1.00  0.00    -0.206 F 
ATOM     58  C   UNL A   1      45.122  34.899  29.872  1.00  0.00     0.040 A 
ATOM     59  C   UNL A   1      45.131  34.199  32.177  1.00  0.00     0.040 A 
ATOM     60  F   UNL A   1      44.788  31.940  32.719  1.00  0.00    -0.206 F 
ATOM     61  C   UNL A   1      45.244  35.211  31.226  1.00  0.00     0.006 A 
ENDBRANCH  37  54
ENDBRANCH  11  12
ENDBRANCH   4   6
ENDBRANCH   1   2
BRANCH   1  62
ATOM     62  C   UNL A   1      37.677  19.715  24.938  1.00  0.00     0.042 C 
BRANCH  62  63
ATOM     63  C   UNL A   1      36.555  20.723  24.737  1.00  0.00     0.118 C 
BRANCH  63  64
ATOM     64  N   UNL A   1      35.641  20.787  25.868  1.00  0.00    -0.352 N 
ATOM     65  C   UNL A   1      34.393  21.338  25.966  1.00  0.00     0.252 C 
ATOM     66  H   UNL A   1      35.974  20.367  26.694  1.00  0.00     0.163 HD
ATOM     67  O   UNL A   1      33.781  21.341  27.027  1.00  0.00    -0.269 OA
BRANCH  65  68
ATOM     68  C   UNL A   1      33.787  21.992  24.797  1.00  0.00     0.057 A 
ATOM     69  C   UNL A   1      33.164  21.132  23.893  1.00  0.00     0.055 A 
ATOM     70  C   UNL A   1      33.835  23.381  24.584  1.00  0.00     0.100 A 
ATOM     71  C   UNL A   1      32.532  21.707  22.821  1.00  0.00     0.131 A 
ATOM     72  C   UNL A   1      33.106  23.845  23.494  1.00  0.00     0.116 A 
ATOM     73  Cl  UNL A   1      31.728  20.756  21.647  1.00  0.00    -0.062 Cl
ATOM     74  N   UNL A   1      32.463  23.032  22.620  1.00  0.00    -0.229 NA
ATOM     75  I   UNL A   1      32.804  25.899  23.101  1.00  0.00    -0.021 I 
BRANCH  70  76
ATOM     76  C   UNL A   1      34.599  24.300  25.485  1.00  0.00     0.419 C 
ATOM     77  F   UNL A   1      34.837  25.522  24.937  1.00  0.00    -0.166 F 
ATOM     78  F   UNL A   1      33.940  24.530  26.656  1.00  0.00    -0.166 F 
ATOM     79  F   UNL A   1      35.832  23.851  25.849  1.00  0.00    -0.166 F 
ENDBRANCH  70  76
ENDBRANCH  65  68
ENDBRANCH  63  64
ENDBRANCH  62  63
ENDBRANCH   1  62
TORSDOF 11
ENDMDL
MODEL 2
REMARK VINA RESULT:     -11.2      0.256      1.373
REMARK SMILES O=C(NCCCNC(=O)c1cc(Cl)nc(I)c1C(F)(F)F)c1ccc(-c2c3nc(c(-c4c(F)cccc4F)c4ccc([nH]4)c(-c4c(F)cccc4F)c4nc(c(-c5c(F)cccc5F)c5ccc2[nH]5)C=C4)C=C3)cc1
REMARK SMILES IDX 4 1 3 2 1 3 2 4 22 6 23 7 75 8 24 9 74 10 25 11 26 12 27 13
REMARK SMILES IDX 68 14 28 15 73 16 67 17 69 18 29 19 72 20 66 21 65 22 30 24
REMARK SMILES IDX 56 25 39 26 55 27 40 28 43 29 54 30 70 31 41 32 42 33 53 35
REMARK SMILES IDX 71 36 44 37 31 38 32 39 37 40 33 41 34 42 36 43 38 44 35 45
REMARK SMILES IDX 57 46 58 47 63 48 59 49 60 50 62 51 64 52 61 53 45 54 46 55
REMARK SMILES IDX 51 56 47 57 48 58 50 59 52 60 49 61 5 62 6 63 7 64 8 65 9 67
REMARK SMILES IDX 10 68 11 69 17 70 12 71 15 72 13 73 14 74 16 75 18 76 19 77
REMARK SMILES IDX 20 78 21 79
REMARK H PARENT 3 5 69 23 43 34 7 66
REMARK Flexibility Score: inf
ROOT
ATOM      1  C   UNL A   1      38.833  20.181  25.760  1.00  0.00     0.118 C 
ENDROOT
BRANCH   1   2
ATOM      2  N   UNL A   1      39.928  19.225  25.824  1.00  0.00    -0.352 N 
ATOM      3  O   UNL A   1      42.059  18.502  25.928  1.00  0.00    -0.269 OA
ATOM      4  C   UNL A   1      41.260  19.419  26.099  1.00  0.00     0.251 C 
ATOM      5  H   UNL A   1      39.674  18.290  25.642  1.00  0.00     0.163 HD
BRANCH   4   6
ATOM      6  C   UNL A   1      41.742  20.732  26.574  1.00  0.00     0.039 A 
ATOM      7  C   UNL A   1      41.778  21.033  27.937  1.00  0.00     0.014 A 
ATOM      8  C   UNL A   1      42.192  21.666  25.636  1.00  0.00     0.014 A 
ATOM      9  C   UNL A   1      42.125  22.315  28.352  1.00  0.00     0.010 A 
ATOM     10  C   UNL A   1      42.603  22.933  26.059  1.00  0.00     0.010 A 
ATOM     11  C   UNL A   1      42.533  23.278  27.417  1.00  0.00    -0.014 A 
BRANCH  11  12
ATOM     12  C   UNL A   1      42.892  24.639  27.881  1.00  0.00     0.031 A 
ATOM     13  C   UNL A   1      44.332  25.050  28.005  1.00  0.00     0.074 A 
ATOM     14  C   UNL A   1      41.912  25.519  28.157  1.00  0.00     0.049 A 
ATOM     15  N   UNL A   1      44.833  26.211  28.345  1.00  0.00    -0.248 NA
ATOM     16  C   UNL A   1      45.343  24.024  27.708  1.00  0.00     0.031 C 
ATOM     17  C   UNL A   1      40.478  25.234  28.077  1.00  0.00     0.029 A 
ATOM     18  N   UNL A   1      41.972  26.830  28.551  1.00  0.00    -0.354 N 
ATOM     19  C   UNL A   1      46.213  26.058  28.302  1.00  0.00     0.074 A 
ATOM     20  C   UNL A   1      46.472  24.680  27.941  1.00  0.00     0.031 C 
ATOM     21  C   UNL A   1      39.793  26.345  28.387  1.00  0.00     0.029 A 
ATOM     22  C   UNL A   1      40.737  27.405  28.725  1.00  0.00     0.049 A 
ATOM     23  H   UNL A   1      42.817  27.312  28.695  1.00  0.00     0.167 HD
ATOM     24  C   UNL A   1      47.175  26.985  28.529  1.00  0.00     0.037 A 
ATOM     25  C   UNL A   1      40.405  28.647  29.121  1.00  0.00     0.037 A 
ATOM     26  C   UNL A   1      46.916  28.353  28.895  1.00  0.00     0.049 A 
ATOM     27  C   UNL A   1      41.493  29.637  29.424  1.00  0.00     0.074 A 
ATOM     28  C   UNL A   1      47.822  29.377  29.115  1.00  0.00     0.029 A 
ATOM     29  N   UNL A   1      45.653  28.886  29.107  1.00  0.00    -0.354 N 
ATOM     30  N   UNL A   1      42.792  29.493  29.329  1.00  0.00    -0.248 NA
ATOM     31  C   UNL A   1      41.065  30.963  29.890  1.00  0.00     0.031 C 
ATOM     32  C   UNL A   1      47.110  30.517  29.503  1.00  0.00     0.029 A 
ATOM     33  C   UNL A   1      45.758  30.216  29.483  1.00  0.00     0.049 A 
ATOM     34  H   UNL A   1      44.807  28.393  29.006  1.00  0.00     0.167 HD
ATOM     35  C   UNL A   1      43.337  30.712  29.706  1.00  0.00     0.074 A 
ATOM     36  C   UNL A   1      42.227  31.590  30.012  1.00  0.00     0.031 C 
ATOM     37  C   UNL A   1      44.641  31.073  29.792  1.00  0.00     0.037 A 
BRANCH  24  38
ATOM     38  C   UNL A   1      48.602  26.540  28.398  1.00  0.00     0.057 A 
ATOM     39  C   UNL A   1      49.258  26.591  27.161  1.00  0.00     0.134 A 
ATOM     40  C   UNL A   1      49.322  26.038  29.490  1.00  0.00     0.134 A 
ATOM     41  F   UNL A   1      48.626  27.056  26.074  1.00  0.00    -0.206 F 
ATOM     42  C   UNL A   1      50.578  26.160  27.017  1.00  0.00     0.040 A 
ATOM     43  C   UNL A   1      50.649  25.625  29.363  1.00  0.00     0.040 A 
ATOM     44  F   UNL A   1      48.756  25.976  30.706  1.00  0.00    -0.206 F 
ATOM     45  C   UNL A   1      51.279  25.680  28.122  1.00  0.00     0.006 A 
ENDBRANCH  24  38
BRANCH  25  46
ATOM     46  C   UNL A   1      38.978  29.024  29.256  1.00  0.00     0.057 A 
ATOM     47  C   UNL A   1      38.258  29.543  28.172  1.00  0.00     0.134 A 
ATOM     48  C   UNL A   1      38.298  28.865  30.468  1.00  0.00     0.134 A 
ATOM     49  F   UNL A   1      38.856  29.723  26.986  1.00  0.00    -0.206 F 
ATOM     50  C   UNL A   1      36.914  29.896  28.292  1.00  0.00     0.040 A 
ATOM     51  C   UNL A   1      36.948  29.192  30.595  1.00  0.00     0.040 A 
ATOM     52  F   UNL A   1      38.932  28.356  31.535  1.00  0.00    -0.206 F 
ATOM     53  C   UNL A   1      36.252  29.713  29.504  1.00  0.00     0.006 A 
ENDBRANCH  25  46
BRANCH  37  54
ATOM     54  C   UNL A   1      44.925  32.482  30.218  1.00  0.00     0.057 A 
ATOM     55  C   UNL A   1      45.132  32.793  31.569  1.00  0.00     0.134 A 
ATOM     56  C   UNL A   1      44.989  33.532  29.293  1.00  0.00     0.134 A 
ATOM     57  F   UNL A   1      45.079  31.834  32.504  1.00  0.00    -0.206 F 
ATOM     58  C   UNL A   1      45.394  34.100  31.983  1.00  0.00     0.040 A 
ATOM     59  C   UNL A   1      45.274  34.839  29.693  1.00  0.00     0.040 A 
ATOM     60  F   UNL A   1      44.817  33.295  27.984  1.00  0.00    -0.206 F 
ATOM     61  C   UNL A   1      45.473  35.126  31.042  1.00  0.00     0.006 A 
ENDBRANCH  37  54
ENDBRANCH  11  12
ENDBRANCH   4   6
ENDBRANCH   1   2
BRANCH   1  62
ATOM     62  C   UNL A   1      37.632  19.657  24.978  1.00  0.00     0.042 C 
BRANCH  62  63
ATOM     63  C   UNL A   1      36.512  20.669  24.788  1.00  0.00     0.118 C 
BRANCH  63  64
ATOM     64  N   UNL A   1      35.572  20.690  25.898  1.00  0.00    -0.352 N 
ATOM     65  C   UNL A   1      34.315  21.222  25.982  1.00  0.00     0.252 C 
ATOM     66  H   UNL A   1      35.892  20.253  26.720  1.00  0.00     0.163 HD
ATOM     67  O   UNL A   1      33.678  21.187  27.028  1.00  0.00    -0.269 OA
BRANCH  65  68
ATOM     68  C   UNL A   1      33.725  21.899  24.816  1.00  0.00     0.057 A 
ATOM     69  C   UNL A   1      33.107  21.057  23.892  1.00  0.00     0.055 A 
ATOM     70  C   UNL A   1      33.785  23.290  24.627  1.00  0.00     0.100 A 
ATOM     71  C   UNL A   1      32.492  21.653  22.823  1.00  0.00     0.131 A 
ATOM     72  C   UNL A   1      33.072  23.777  23.537  1.00  0.00     0.116 A 
ATOM     73  Cl  UNL A   1      31.695  20.727  21.624  1.00  0.00    -0.062 Cl
ATOM     74  N   UNL A   1      32.434  22.982  22.643  1.00  0.00    -0.229 NA
ATOM     75  I   UNL A   1      32.787  25.838  23.173  1.00  0.00    -0.021 I 
BRANCH  70  76
ATOM     76  C   UNL A   1      34.545  24.189  25.552  1.00  0.00     0.419 C 
ATOM     77  F   UNL A   1      35.215  25.185  24.910  1.00  0.00    -0.166 F 
ATOM     78  F   UNL A   1      33.727  24.801  26.454  1.00  0.00    -0.166 F 
ATOM     79  F   UNL A   1      35.501  23.569  26.296  1.00  0.00    -0.166 F 
ENDBRANCH  70  76
ENDBRANCH  65  68
ENDBRANCH  63  64
ENDBRANCH  62  63
ENDBRANCH   1  62
TORSDOF 11
ENDMDL
MODEL 3
REMARK VINA RESULT:     -11.2      5.172      9.687
REMARK SMILES O=C(NCCCNC(=O)c1cc(Cl)nc(I)c1C(F)(F)F)c1ccc(-c2c3nc(c(-c4c(F)cccc4F)c4ccc([nH]4)c(-c4c(F)cccc4F)c4nc(c(-c5c(F)cccc5F)c5ccc2[nH]5)C=C4)C=C3)cc1
REMARK SMILES IDX 4 1 3 2 1 3 2 4 22 6 23 7 75 8 24 9 74 10 25 11 26 12 27 13
REMARK SMILES IDX 68 14 28 15 73 16 67 17 69 18 29 19 72 20 66 21 65 22 30 24
REMARK SMILES IDX 56 25 39 26 55 27 40 28 43 29 54 30 70 31 41 32 42 33 53 35
REMARK SMILES IDX 71 36 44 37 31 38 32 39 37 40 33 41 34 42 36 43 38 44 35 45
REMARK SMILES IDX 57 46 58 47 63 48 59 49 60 50 62 51 64 52 61 53 45 54 46 55
REMARK SMILES IDX 51 56 47 57 48 58 50 59 52 60 49 61 5 62 6 63 7 64 8 65 9 67
REMARK SMILES IDX 10 68 11 69 17 70 12 71 15 72 13 73 14 74 16 75 18 76 19 77
REMARK SMILES IDX 20 78 21 79
REMARK H PARENT 3 5 69 23 43 34 7 66
REMARK Flexibility Score: inf
ROOT
ATOM      1  C   UNL A   1      32.653  32.474  26.870  1.00  0.00     0.118 C 
ENDROOT
BRANCH   1   2
ATOM      2  N   UNL A   1      32.444  33.819  27.388  1.00  0.00    -0.352 N 
ATOM      3  O   UNL A   1      32.614  35.548  28.819  1.00  0.00    -0.269 OA
ATOM      4  C   UNL A   1      33.060  34.475  28.425  1.00  0.00     0.251 C 
ATOM      5  H   UNL A   1      31.752  34.340  26.919  1.00  0.00     0.163 HD
BRANCH   4   6
ATOM      6  C   UNL A   1      34.242  33.885  29.087  1.00  0.00     0.039 A 
ATOM      7  C   UNL A   1      35.533  34.301  28.755  1.00  0.00     0.014 A 
ATOM      8  C   UNL A   1      34.048  32.919  30.079  1.00  0.00     0.014 A 
ATOM      9  C   UNL A   1      36.632  33.649  29.306  1.00  0.00     0.010 A 
ATOM     10  C   UNL A   1      35.153  32.310  30.680  1.00  0.00     0.010 A 
ATOM     11  C   UNL A   1      36.452  32.643  30.267  1.00  0.00    -0.014 A 
BRANCH  11  12
ATOM     12  C   UNL A   1      37.636  31.958  30.838  1.00  0.00     0.031 A 
ATOM     13  C   UNL A   1      38.116  32.285  32.224  1.00  0.00     0.074 A 
ATOM     14  C   UNL A   1      38.259  31.011  30.112  1.00  0.00     0.049 A 
ATOM     15  N   UNL A   1      39.100  31.753  32.903  1.00  0.00    -0.248 NA
ATOM     16  C   UNL A   1      37.397  33.348  32.942  1.00  0.00     0.031 C 
ATOM     17  C   UNL A   1      37.886  30.610  28.755  1.00  0.00     0.029 A 
ATOM     18  N   UNL A   1      39.327  30.209  30.418  1.00  0.00    -0.354 N 
ATOM     19  C   UNL A   1      39.119  32.412  34.125  1.00  0.00     0.074 A 
ATOM     20  C   UNL A   1      38.072  33.411  34.081  1.00  0.00     0.031 C 
ATOM     21  C   UNL A   1      38.698  29.620  28.353  1.00  0.00     0.029 A 
ATOM     22  C   UNL A   1      39.669  29.344  29.407  1.00  0.00     0.049 A 
ATOM     23  H   UNL A   1      39.803  30.248  31.278  1.00  0.00     0.167 HD
ATOM     24  C   UNL A   1      39.925  32.194  35.193  1.00  0.00     0.037 A 
ATOM     25  C   UNL A   1      40.660  28.438  29.336  1.00  0.00     0.037 A 
ATOM     26  C   UNL A   1      40.971  31.204  35.234  1.00  0.00     0.049 A 
ATOM     27  C   UNL A   1      41.577  28.259  30.512  1.00  0.00     0.074 A 
ATOM     28  C   UNL A   1      41.821  30.886  36.279  1.00  0.00     0.029 A 
ATOM     29  N   UNL A   1      41.317  30.380  34.173  1.00  0.00    -0.354 N 
ATOM     30  N   UNL A   1      41.550  28.854  31.680  1.00  0.00    -0.248 NA
ATOM     31  C   UNL A   1      42.663  27.282  30.357  1.00  0.00     0.031 C 
ATOM     32  C   UNL A   1      42.709  29.899  35.837  1.00  0.00     0.029 A 
ATOM     33  C   UNL A   1      42.386  29.574  34.530  1.00  0.00     0.049 A 
ATOM     34  H   UNL A   1      40.870  30.370  33.296  1.00  0.00     0.167 HD
ATOM     35  C   UNL A   1      42.602  28.312  32.405  1.00  0.00     0.074 A 
ATOM     36  C   UNL A   1      43.235  27.327  31.552  1.00  0.00     0.031 C 
ATOM     37  C   UNL A   1      43.009  28.604  33.664  1.00  0.00     0.037 A 
BRANCH  24  38
ATOM     38  C   UNL A   1      39.713  33.056  36.402  1.00  0.00     0.057 A 
ATOM     39  C   UNL A   1      38.768  32.705  37.375  1.00  0.00     0.134 A 
ATOM     40  C   UNL A   1      40.424  34.248  36.594  1.00  0.00     0.134 A 
ATOM     41  F   UNL A   1      38.049  31.579  37.252  1.00  0.00    -0.206 F 
ATOM     42  C   UNL A   1      38.541  33.507  38.495  1.00  0.00     0.040 A 
ATOM     43  C   UNL A   1      40.221  35.047  37.720  1.00  0.00     0.040 A 
ATOM     44  F   UNL A   1      41.354  34.634  35.706  1.00  0.00    -0.206 F 
ATOM     45  C   UNL A   1      39.273  34.679  38.673  1.00  0.00     0.006 A 
ENDBRANCH  24  38
BRANCH  25  46
ATOM     46  C   UNL A   1      40.838  27.630  28.107  1.00  0.00     0.057 A 
ATOM     47  C   UNL A   1      40.233  26.375  27.968  1.00  0.00     0.134 A 
ATOM     48  C   UNL A   1      41.607  28.099  27.037  1.00  0.00     0.134 A 
ATOM     49  F   UNL A   1      39.487  25.869  28.960  1.00  0.00    -0.206 F 
ATOM     50  C   UNL A   1      40.394  25.612  26.811  1.00  0.00     0.040 A 
ATOM     51  C   UNL A   1      41.757  27.357  25.865  1.00  0.00     0.040 A 
ATOM     52  F   UNL A   1      42.195  29.304  27.106  1.00  0.00    -0.206 F 
ATOM     53  C   UNL A   1      41.151  26.106  25.752  1.00  0.00     0.006 A 
ENDBRANCH  25  46
BRANCH  37  54
ATOM     54  C   UNL A   1      44.182  27.833  34.191  1.00  0.00     0.057 A 
ATOM     55  C   UNL A   1      44.000  26.590  34.812  1.00  0.00     0.134 A 
ATOM     56  C   UNL A   1      45.491  28.322  34.090  1.00  0.00     0.134 A 
ATOM     57  F   UNL A   1      42.771  26.069  34.945  1.00  0.00    -0.206 F 
ATOM     58  C   UNL A   1      45.080  25.861  35.312  1.00  0.00     0.040 A 
ATOM     59  C   UNL A   1      46.580  27.591  34.564  1.00  0.00     0.040 A 
ATOM     60  F   UNL A   1      45.731  29.498  33.490  1.00  0.00    -0.206 F 
ATOM     61  C   UNL A   1      46.376  26.358  35.181  1.00  0.00     0.006 A 
ENDBRANCH  37  54
ENDBRANCH  11  12
ENDBRANCH   4   6
ENDBRANCH   1   2
BRANCH   1  62
ATOM     62  C   UNL A   1      31.351  31.771  26.500  1.00  0.00     0.042 C 
BRANCH  62  63
ATOM     63  C   UNL A   1      31.503  30.295  26.164  1.00  0.00     0.118 C 
BRANCH  63  64
ATOM     64  N   UNL A   1      32.291  30.066  24.961  1.00  0.00    -0.352 N 
ATOM     65  C   UNL A   1      32.370  28.967  24.153  1.00  0.00     0.252 C 
ATOM     66  H   UNL A   1      32.858  30.823  24.687  1.00  0.00     0.163 HD
ATOM     67  O   UNL A   1      33.135  28.934  23.196  1.00  0.00    -0.269 OA
BRANCH  65  68
ATOM     68  C   UNL A   1      31.567  27.772  24.458  1.00  0.00     0.057 A 
ATOM     69  C   UNL A   1      30.225  27.849  24.086  1.00  0.00     0.055 A 
ATOM     70  C   UNL A   1      32.097  26.635  25.092  1.00  0.00     0.100 A 
ATOM     71  C   UNL A   1      29.458  26.734  24.297  1.00  0.00     0.131 A 
ATOM     72  C   UNL A   1      31.232  25.550  25.194  1.00  0.00     0.116 A 
ATOM     73  Cl  UNL A   1      27.799  26.703  23.876  1.00  0.00    -0.062 Cl
ATOM     74  N   UNL A   1      29.933  25.587  24.808  1.00  0.00    -0.229 NA
ATOM     75  I   UNL A   1      31.847  23.645  25.869  1.00  0.00    -0.021 I 
BRANCH  70  76
ATOM     76  C   UNL A   1      33.504  26.586  25.600  1.00  0.00     0.419 C 
ATOM     77  F   UNL A   1      33.720  25.590  26.502  1.00  0.00    -0.166 F 
ATOM     78  F   UNL A   1      34.402  26.390  24.594  1.00  0.00    -0.166 F 
ATOM     79  F   UNL A   1      33.921  27.713  26.239  1.00  0.00    -0.166 F 
ENDBRANCH  70  76
ENDBRANCH  65  68
ENDBRANCH  63  64
ENDBRANCH  62  63
ENDBRANCH   1  62
TORSDOF 11
ENDMDL
