MODEL 1
REMARK VINA RESULT:     -12.1      0.000      0.000
REMARK SMILES O=C(NCCCNC(=O)[C@H]1CCCN(C(=O)c2cccc3[nH]ccc23)C1)c1ccc(-c2c3nc(c(-c4c(F)cccc4F)c4ccc([nH]4)c(-c4c(F)cccc4F)c4nc(c(-c5c(F)cccc5F)c5ccc2[nH]5)C=C4)C=C3)cc1
REMARK SMILES IDX 5 1 4 2 3 3 1 4 2 5 27 7 28 8 80 9 29 10 79 11 30 12 31 13
REMARK SMILES IDX 32 14 73 15 33 16 78 17 72 18 74 19 34 20 77 21 71 22 70 23
REMARK SMILES IDX 35 25 61 26 44 27 60 28 45 29 48 30 59 31 75 32 46 33 47 34
REMARK SMILES IDX 58 36 76 37 49 38 36 39 37 40 42 41 38 42 39 43 41 44 43 45
REMARK SMILES IDX 40 46 62 47 63 48 68 49 64 50 65 51 67 52 69 53 66 54 50 55
REMARK SMILES IDX 51 56 56 57 52 58 53 59 55 60 57 61 54 62 6 63 7 64 8 65
REMARK SMILES IDX 9 67 10 68 11 69 26 70 12 71 14 72 13 73 15 74 16 75 17 76
REMARK SMILES IDX 18 77 25 78 19 79 21 80 24 81 20 82 22 83 23 84
REMARK H PARENT 3 6 74 24 48 35 7 66 22 85
REMARK Flexibility Score: inf
ROOT
ATOM      1  C   UNL A   1      37.237  19.829  25.014  1.00  0.00     0.042 C 
ENDROOT
BRANCH   1   2
ATOM      2  C   UNL A   1      38.658  20.388  25.068  1.00  0.00     0.118 C 
BRANCH   2   3
ATOM      3  N   UNL A   1      39.615  19.385  25.522  1.00  0.00    -0.352 N 
ATOM      4  O   UNL A   1      41.628  18.567  26.096  1.00  0.00    -0.269 OA
ATOM      5  C   UNL A   1      40.874  19.533  26.049  1.00  0.00     0.251 C 
ATOM      6  H   UNL A   1      39.309  18.453  25.437  1.00  0.00     0.163 HD
BRANCH   5   7
ATOM      7  C   UNL A   1      41.323  20.843  26.565  1.00  0.00     0.039 A 
ATOM      8  C   UNL A   1      41.850  21.804  25.701  1.00  0.00     0.014 A 
ATOM      9  C   UNL A   1      41.148  21.141  27.919  1.00  0.00     0.014 A 
ATOM     10  C   UNL A   1      42.325  23.006  26.208  1.00  0.00     0.010 A 
ATOM     11  C   UNL A   1      41.539  22.390  28.412  1.00  0.00     0.010 A 
ATOM     12  C   UNL A   1      42.151  23.324  27.563  1.00  0.00    -0.014 A 
BRANCH  12  13
ATOM     13  C   UNL A   1      42.552  24.666  28.051  1.00  0.00     0.031 A 
ATOM     14  C   UNL A   1      41.530  25.737  28.301  1.00  0.00     0.074 A 
ATOM     15  C   UNL A   1      43.857  24.902  28.288  1.00  0.00     0.049 A 
ATOM     16  N   UNL A   1      41.709  26.963  28.721  1.00  0.00    -0.248 NA
ATOM     17  C   UNL A   1      40.125  25.391  28.037  1.00  0.00     0.031 C 
ATOM     18  C   UNL A   1      44.939  23.937  28.073  1.00  0.00     0.029 A 
ATOM     19  N   UNL A   1      44.496  26.014  28.769  1.00  0.00    -0.354 N 
ATOM     20  C   UNL A   1      40.446  27.542  28.755  1.00  0.00     0.074 A 
ATOM     21  C   UNL A   1      39.512  26.541  28.286  1.00  0.00     0.031 C 
ATOM     22  C   UNL A   1      46.099  24.483  28.463  1.00  0.00     0.029 A 
ATOM     23  C   UNL A   1      45.856  25.856  28.885  1.00  0.00     0.049 A 
ATOM     24  H   UNL A   1      44.028  26.845  29.010  1.00  0.00     0.167 HD
ATOM     25  C   UNL A   1      40.101  28.792  29.150  1.00  0.00     0.037 A 
ATOM     26  C   UNL A   1      46.808  26.728  29.264  1.00  0.00     0.037 A 
ATOM     27  C   UNL A   1      41.041  29.777  29.621  1.00  0.00     0.049 A 
ATOM     28  C   UNL A   1      46.402  28.117  29.658  1.00  0.00     0.074 A 
ATOM     29  C   UNL A   1      40.791  31.061  30.073  1.00  0.00     0.029 A 
ATOM     30  N   UNL A   1      42.414  29.590  29.695  1.00  0.00    -0.354 N 
ATOM     31  N   UNL A   1      45.202  28.641  29.715  1.00  0.00    -0.248 NA
ATOM     32  C   UNL A   1      47.481  29.038  30.036  1.00  0.00     0.031 C 
ATOM     33  C   UNL A   1      42.016  31.669  30.367  1.00  0.00     0.029 A 
ATOM     34  C   UNL A   1      43.026  30.745  30.158  1.00  0.00     0.049 A 
ATOM     35  H   UNL A   1      42.885  28.760  29.454  1.00  0.00     0.167 HD
ATOM     36  C   UNL A   1      45.377  29.945  30.155  1.00  0.00     0.074 A 
ATOM     37  C   UNL A   1      46.799  30.125  30.368  1.00  0.00     0.031 C 
ATOM     38  C   UNL A   1      44.444  30.906  30.366  1.00  0.00     0.037 A 
BRANCH  25  39
ATOM     39  C   UNL A   1      38.650  29.173  29.063  1.00  0.00     0.057 A 
ATOM     40  C   UNL A   1      37.795  29.106  30.171  1.00  0.00     0.134 A 
ATOM     41  C   UNL A   1      38.109  29.645  27.860  1.00  0.00     0.134 A 
ATOM     42  F   UNL A   1      38.243  28.653  31.351  1.00  0.00    -0.206 F 
ATOM     43  C   UNL A   1      36.449  29.470  30.078  1.00  0.00     0.040 A 
ATOM     44  C   UNL A   1      36.772  30.038  27.762  1.00  0.00     0.040 A 
ATOM     45  F   UNL A   1      38.872  29.741  26.761  1.00  0.00    -0.206 F 
ATOM     46  C   UNL A   1      35.936  29.944  28.873  1.00  0.00     0.006 A 
ENDBRANCH  25  39
BRANCH  26  47
ATOM     47  C   UNL A   1      48.231  26.308  29.274  1.00  0.00     0.057 A 
ATOM     48  C   UNL A   1      48.807  25.724  30.408  1.00  0.00     0.134 A 
ATOM     49  C   UNL A   1      49.044  26.462  28.144  1.00  0.00     0.134 A 
ATOM     50  F   UNL A   1      48.084  25.563  31.525  1.00  0.00    -0.206 F 
ATOM     51  C   UNL A   1      50.144  25.322  30.422  1.00  0.00     0.040 A 
ATOM     52  C   UNL A   1      50.372  26.037  28.135  1.00  0.00     0.040 A 
ATOM     53  F   UNL A   1      48.549  27.004  27.022  1.00  0.00    -0.206 F 
ATOM     54  C   UNL A   1      50.928  25.471  29.280  1.00  0.00     0.006 A 
ENDBRANCH  26  47
BRANCH  38  55
ATOM     55  C   UNL A   1      44.932  32.227  30.885  1.00  0.00     0.057 A 
ATOM     56  C   UNL A   1      45.066  32.482  32.254  1.00  0.00     0.134 A 
ATOM     57  C   UNL A   1      45.298  33.246  29.997  1.00  0.00     0.134 A 
ATOM     58  F   UNL A   1      44.717  31.554  33.158  1.00  0.00    -0.206 F 
ATOM     59  C   UNL A   1      45.524  33.715  32.724  1.00  0.00     0.040 A 
ATOM     60  C   UNL A   1      45.786  34.471  30.453  1.00  0.00     0.040 A 
ATOM     61  F   UNL A   1      45.201  33.063  28.671  1.00  0.00    -0.206 F 
ATOM     62  C   UNL A   1      45.893  34.710  31.822  1.00  0.00     0.006 A 
ENDBRANCH  38  55
ENDBRANCH  12  13
ENDBRANCH   5   7
ENDBRANCH   2   3
ENDBRANCH   1   2
BRANCH   1  63
ATOM     63  C   UNL A   1      36.180  20.874  25.376  1.00  0.00     0.117 C 
BRANCH  63  64
ATOM     64  N   UNL A   1      36.787  22.026  26.013  1.00  0.00    -0.356 N 
ATOM     65  C   UNL A   1      36.567  23.361  25.912  1.00  0.00     0.224 C 
ATOM     66  H   UNL A   1      37.504  21.793  26.645  1.00  0.00     0.163 HD
ATOM     67  O   UNL A   1      37.360  24.083  26.525  1.00  0.00    -0.275 OA
BRANCH  65  68
ATOM     68  C   UNL A   1      35.377  23.988  25.192  1.00  0.00     0.098 C 
ATOM     69  C   UNL A   1      35.187  23.661  23.704  1.00  0.00     0.017 C 
ATOM     70  C   UNL A   1      34.108  23.756  26.024  1.00  0.00     0.133 C 
ATOM     71  C   UNL A   1      33.918  24.303  23.146  1.00  0.00     0.022 C 
ATOM     72  N   UNL A   1      32.934  24.349  25.378  1.00  0.00    -0.338 N 
ATOM     73  C   UNL A   1      32.712  23.923  23.998  1.00  0.00     0.120 C 
BRANCH  72  74
ATOM     74  C   UNL A   1      32.230  25.371  26.023  1.00  0.00     0.254 C 
ATOM     75  O   UNL A   1      31.369  25.175  26.875  1.00  0.00    -0.269 OA
BRANCH  74  76
ATOM     76  C   UNL A   1      32.542  26.768  25.658  1.00  0.00     0.049 A 
ATOM     77  C   UNL A   1      33.697  27.382  26.171  1.00  0.00     0.014 A 
ATOM     78  C   UNL A   1      31.670  27.495  24.819  1.00  0.00     0.012 A 
ATOM     79  C   UNL A   1      33.945  28.730  25.924  1.00  0.00     0.003 A 
ATOM     80  C   UNL A   1      31.954  28.846  24.590  1.00  0.00     0.046 A 
ATOM     81  C   UNL A   1      30.475  27.198  24.100  1.00  0.00     0.029 A 
ATOM     82  C   UNL A   1      33.069  29.490  25.141  1.00  0.00     0.027 A 
ATOM     83  N   UNL A   1      30.960  29.337  23.772  1.00  0.00    -0.361 N 
ATOM     84  C   UNL A   1      30.068  28.348  23.463  1.00  0.00     0.083 A 
ATOM     85  H   UNL A   1      30.901  30.268  23.456  1.00  0.00     0.166 HD
ENDBRANCH  74  76
ENDBRANCH  72  74
ENDBRANCH  65  68
ENDBRANCH  63  64
ENDBRANCH   1  63
TORSDOF 12
ENDMDL
MODEL 2
REMARK VINA RESULT:     -12.0      4.278      9.428
REMARK SMILES O=C(NCCCNC(=O)[C@H]1CCCN(C(=O)c2cccc3[nH]ccc23)C1)c1ccc(-c2c3nc(c(-c4c(F)cccc4F)c4ccc([nH]4)c(-c4c(F)cccc4F)c4nc(c(-c5c(F)cccc5F)c5ccc2[nH]5)C=C4)C=C3)cc1
REMARK SMILES IDX 5 1 4 2 3 3 1 4 2 5 27 7 28 8 80 9 29 10 79 11 30 12 31 13
REMARK SMILES IDX 32 14 73 15 33 16 78 17 72 18 74 19 34 20 77 21 71 22 70 23
REMARK SMILES IDX 35 25 61 26 44 27 60 28 45 29 48 30 59 31 75 32 46 33 47 34
REMARK SMILES IDX 58 36 76 37 49 38 36 39 37 40 42 41 38 42 39 43 41 44 43 45
REMARK SMILES IDX 40 46 62 47 63 48 68 49 64 50 65 51 67 52 69 53 66 54 50 55
REMARK SMILES IDX 51 56 56 57 52 58 53 59 55 60 57 61 54 62 6 63 7 64 8 65
REMARK SMILES IDX 9 67 10 68 11 69 26 70 12 71 14 72 13 73 15 74 16 75 17 76
REMARK SMILES IDX 18 77 25 78 19 79 21 80 24 81 20 82 22 83 23 84
REMARK H PARENT 3 6 74 24 48 35 7 66 22 85
REMARK Flexibility Score: inf
ROOT
ATOM      1  C   UNL A   1      33.733  34.079  28.027  1.00  0.00     0.042 C 
ENDROOT
BRANCH   1   2
ATOM      2  C   UNL A   1      34.601  32.837  28.229  1.00  0.00     0.118 C 
BRANCH   2   3
ATOM      3  N   UNL A   1      33.924  31.626  27.777  1.00  0.00    -0.352 N 
ATOM      4  O   UNL A   1      33.753  29.564  26.901  1.00  0.00    -0.269 OA
ATOM      5  C   UNL A   1      34.416  30.365  27.551  1.00  0.00     0.251 C 
ATOM      6  H   UNL A   1      32.960  31.730  27.609  1.00  0.00     0.163 HD
BRANCH   5   7
ATOM      7  C   UNL A   1      35.732  29.964  28.092  1.00  0.00     0.039 A 
ATOM      8  C   UNL A   1      35.834  29.388  29.360  1.00  0.00     0.014 A 
ATOM      9  C   UNL A   1      36.871  30.100  27.292  1.00  0.00     0.014 A 
ATOM     10  C   UNL A   1      37.083  29.075  29.880  1.00  0.00     0.010 A 
ATOM     11  C   UNL A   1      38.116  29.694  27.780  1.00  0.00     0.010 A 
ATOM     12  C   UNL A   1      38.233  29.199  29.088  1.00  0.00    -0.014 A 
BRANCH  12  13
ATOM     13  C   UNL A   1      39.537  28.735  29.625  1.00  0.00     0.031 A 
ATOM     14  C   UNL A   1      40.147  29.375  30.837  1.00  0.00     0.074 A 
ATOM     15  C   UNL A   1      40.157  27.708  29.012  1.00  0.00     0.049 A 
ATOM     16  N   UNL A   1      41.279  29.097  31.433  1.00  0.00    -0.248 NA
ATOM     17  C   UNL A   1      39.396  30.476  31.459  1.00  0.00     0.031 C 
ATOM     18  C   UNL A   1      39.660  27.015  27.820  1.00  0.00     0.029 A 
ATOM     19  N   UNL A   1      41.328  27.060  29.307  1.00  0.00    -0.354 N 
ATOM     20  C   UNL A   1      41.386  29.997  32.486  1.00  0.00     0.074 A 
ATOM     21  C   UNL A   1      40.217  30.850  32.431  1.00  0.00     0.031 C 
ATOM     22  C   UNL A   1      40.494  26.012  27.514  1.00  0.00     0.029 A 
ATOM     23  C   UNL A   1      41.620  26.036  28.439  1.00  0.00     0.049 A 
ATOM     24  H   UNL A   1      41.903  27.303  30.067  1.00  0.00     0.167 HD
ATOM     25  C   UNL A   1      42.367  30.095  33.416  1.00  0.00     0.037 A 
ATOM     26  C   UNL A   1      42.689  25.222  28.376  1.00  0.00     0.037 A 
ATOM     27  C   UNL A   1      43.523  29.236  33.462  1.00  0.00     0.049 A 
ATOM     28  C   UNL A   1      43.779  25.379  29.395  1.00  0.00     0.074 A 
ATOM     29  C   UNL A   1      44.559  29.233  34.380  1.00  0.00     0.029 A 
ATOM     30  N   UNL A   1      43.800  28.230  32.547  1.00  0.00    -0.354 N 
ATOM     31  N   UNL A   1      43.852  26.214  30.402  1.00  0.00    -0.248 NA
ATOM     32  C   UNL A   1      44.937  24.485  29.265  1.00  0.00     0.031 C 
ATOM     33  C   UNL A   1      45.488  28.263  33.989  1.00  0.00     0.029 A 
ATOM     34  C   UNL A   1      45.003  27.619  32.863  1.00  0.00     0.049 A 
ATOM     35  H   UNL A   1      43.225  27.986  31.785  1.00  0.00     0.167 HD
ATOM     36  C   UNL A   1      45.052  25.933  31.041  1.00  0.00     0.074 A 
ATOM     37  C   UNL A   1      45.663  24.837  30.316  1.00  0.00     0.031 C 
ATOM     38  C   UNL A   1      45.596  26.528  32.130  1.00  0.00     0.037 A 
BRANCH  25  39
ATOM     39  C   UNL A   1      42.247  31.187  34.441  1.00  0.00     0.057 A 
ATOM     40  C   UNL A   1      42.818  32.453  34.252  1.00  0.00     0.134 A 
ATOM     41  C   UNL A   1      41.520  30.979  35.622  1.00  0.00     0.134 A 
ATOM     42  F   UNL A   1      43.537  32.717  33.151  1.00  0.00    -0.206 F 
ATOM     43  C   UNL A   1      42.693  33.461  35.211  1.00  0.00     0.040 A 
ATOM     44  C   UNL A   1      41.365  31.989  36.574  1.00  0.00     0.040 A 
ATOM     45  F   UNL A   1      40.941  29.794  35.864  1.00  0.00    -0.206 F 
ATOM     46  C   UNL A   1      41.959  33.233  36.372  1.00  0.00     0.006 A 
ENDBRANCH  25  39
BRANCH  26  47
ATOM     47  C   UNL A   1      42.775  24.200  27.304  1.00  0.00     0.057 A 
ATOM     48  C   UNL A   1      43.321  24.505  26.052  1.00  0.00     0.134 A 
ATOM     49  C   UNL A   1      42.332  22.887  27.511  1.00  0.00     0.134 A 
ATOM     50  F   UNL A   1      43.749  25.748  25.788  1.00  0.00    -0.206 F 
ATOM     51  C   UNL A   1      43.409  23.547  25.040  1.00  0.00     0.040 A 
ATOM     52  C   UNL A   1      42.442  21.913  26.520  1.00  0.00     0.040 A 
ATOM     53  F   UNL A   1      41.810  22.527  28.693  1.00  0.00    -0.206 F 
ATOM     54  C   UNL A   1      42.975  22.244  25.276  1.00  0.00     0.006 A 
ENDBRANCH  26  47
BRANCH  38  55
ATOM     55  C   UNL A   1      46.904  25.980  32.623  1.00  0.00     0.057 A 
ATOM     56  C   UNL A   1      48.133  26.460  32.156  1.00  0.00     0.134 A 
ATOM     57  C   UNL A   1      46.930  24.976  33.599  1.00  0.00     0.134 A 
ATOM     58  F   UNL A   1      48.178  27.410  31.209  1.00  0.00    -0.206 F 
ATOM     59  C   UNL A   1      49.343  25.945  32.625  1.00  0.00     0.040 A 
ATOM     60  C   UNL A   1      48.133  24.474  34.097  1.00  0.00     0.040 A 
ATOM     61  F   UNL A   1      45.787  24.477  34.095  1.00  0.00    -0.206 F 
ATOM     62  C   UNL A   1      49.344  24.954  33.604  1.00  0.00     0.006 A 
ENDBRANCH  38  55
ENDBRANCH  12  13
ENDBRANCH   5   7
ENDBRANCH   2   3
ENDBRANCH   1   2
BRANCH   1  63
ATOM     63  C   UNL A   1      34.401  35.353  28.546  1.00  0.00     0.117 C 
BRANCH  63  64
ATOM     64  N   UNL A   1      33.491  36.114  29.378  1.00  0.00    -0.356 N 
ATOM     65  C   UNL A   1      33.279  36.155  30.717  1.00  0.00     0.224 C 
ATOM     66  H   UNL A   1      32.909  36.723  28.869  1.00  0.00     0.163 HD
ATOM     67  O   UNL A   1      32.325  36.848  31.087  1.00  0.00    -0.275 OA
BRANCH  65  68
ATOM     68  C   UNL A   1      34.183  35.499  31.756  1.00  0.00     0.098 C 
ATOM     69  C   UNL A   1      34.082  35.992  33.206  1.00  0.00     0.017 C 
ATOM     70  C   UNL A   1      34.066  33.974  31.631  1.00  0.00     0.133 C 
ATOM     71  C   UNL A   1      34.994  35.193  34.136  1.00  0.00     0.022 C 
ATOM     72  N   UNL A   1      34.926  33.295  32.605  1.00  0.00    -0.338 N 
ATOM     73  C   UNL A   1      34.720  33.700  33.993  1.00  0.00     0.120 C 
BRANCH  72  74
ATOM     74  C   UNL A   1      35.963  32.469  32.158  1.00  0.00     0.254 C 
ATOM     75  O   UNL A   1      35.977  31.251  32.304  1.00  0.00    -0.269 OA
BRANCH  74  76
ATOM     76  C   UNL A   1      37.105  33.101  31.468  1.00  0.00     0.049 A 
ATOM     77  C   UNL A   1      37.179  33.068  30.065  1.00  0.00     0.014 A 
ATOM     78  C   UNL A   1      38.136  33.712  32.213  1.00  0.00     0.012 A 
ATOM     79  C   UNL A   1      38.303  33.561  29.408  1.00  0.00     0.003 A 
ATOM     80  C   UNL A   1      39.248  34.201  31.519  1.00  0.00     0.046 A 
ATOM     81  C   UNL A   1      38.368  33.970  33.596  1.00  0.00     0.029 A 
ATOM     82  C   UNL A   1      39.365  34.124  30.125  1.00  0.00     0.027 A 
ATOM     83  N   UNL A   1      40.115  34.723  32.454  1.00  0.00    -0.361 N 
ATOM     84  C   UNL A   1      39.588  34.597  33.711  1.00  0.00     0.083 A 
ATOM     85  H   UNL A   1      40.988  35.128  32.247  1.00  0.00     0.166 HD
ENDBRANCH  74  76
ENDBRANCH  72  74
ENDBRANCH  65  68
ENDBRANCH  63  64
ENDBRANCH   1  63
TORSDOF 12
ENDMDL
MODEL 3
REMARK VINA RESULT:     -12.0      0.296      6.219
REMARK SMILES O=C(NCCCNC(=O)[C@H]1CCCN(C(=O)c2cccc3[nH]ccc23)C1)c1ccc(-c2c3nc(c(-c4c(F)cccc4F)c4ccc([nH]4)c(-c4c(F)cccc4F)c4nc(c(-c5c(F)cccc5F)c5ccc2[nH]5)C=C4)C=C3)cc1
REMARK SMILES IDX 5 1 4 2 3 3 1 4 2 5 27 7 28 8 80 9 29 10 79 11 30 12 31 13
REMARK SMILES IDX 32 14 73 15 33 16 78 17 72 18 74 19 34 20 77 21 71 22 70 23
REMARK SMILES IDX 35 25 61 26 44 27 60 28 45 29 48 30 59 31 75 32 46 33 47 34
REMARK SMILES IDX 58 36 76 37 49 38 36 39 37 40 42 41 38 42 39 43 41 44 43 45
REMARK SMILES IDX 40 46 62 47 63 48 68 49 64 50 65 51 67 52 69 53 66 54 50 55
REMARK SMILES IDX 51 56 56 57 52 58 53 59 55 60 57 61 54 62 6 63 7 64 8 65
REMARK SMILES IDX 9 67 10 68 11 69 26 70 12 71 14 72 13 73 15 74 16 75 17 76
REMARK SMILES IDX 18 77 25 78 19 79 21 80 24 81 20 82 22 83 23 84
REMARK H PARENT 3 6 74 24 48 35 7 66 22 85
REMARK Flexibility Score: inf
ROOT
ATOM      1  C   UNL A   1      37.260  19.800  25.018  1.00  0.00     0.042 C 
ENDROOT
BRANCH   1   2
ATOM      2  C   UNL A   1      38.673  20.379  25.081  1.00  0.00     0.118 C 
BRANCH   2   3
ATOM      3  N   UNL A   1      39.645  19.385  25.523  1.00  0.00    -0.352 N 
ATOM      4  O   UNL A   1      41.669  18.591  26.094  1.00  0.00    -0.269 OA
ATOM      5  C   UNL A   1      40.898  19.545  26.059  1.00  0.00     0.251 C 
ATOM      6  H   UNL A   1      39.355  18.450  25.421  1.00  0.00     0.163 HD
BRANCH   5   7
ATOM      7  C   UNL A   1      41.322  20.854  26.600  1.00  0.00     0.039 A 
ATOM      8  C   UNL A   1      41.772  21.863  25.747  1.00  0.00     0.014 A 
ATOM      9  C   UNL A   1      41.200  21.100  27.971  1.00  0.00     0.014 A 
ATOM     10  C   UNL A   1      42.225  23.065  26.273  1.00  0.00     0.010 A 
ATOM     11  C   UNL A   1      41.567  22.345  28.489  1.00  0.00     0.010 A 
ATOM     12  C   UNL A   1      42.104  23.330  27.645  1.00  0.00    -0.014 A 
BRANCH  12  13
ATOM     13  C   UNL A   1      42.477  24.670  28.161  1.00  0.00     0.031 A 
ATOM     14  C   UNL A   1      43.903  25.003  28.492  1.00  0.00     0.074 A 
ATOM     15  C   UNL A   1      41.510  25.596  28.309  1.00  0.00     0.049 A 
ATOM     16  N   UNL A   1      44.400  26.122  28.957  1.00  0.00    -0.248 NA
ATOM     17  C   UNL A   1      44.900  23.944  28.283  1.00  0.00     0.031 C 
ATOM     18  C   UNL A   1      40.087  25.380  28.026  1.00  0.00     0.029 A 
ATOM     19  N   UNL A   1      41.570  26.901  28.720  1.00  0.00    -0.354 N 
ATOM     20  C   UNL A   1      45.762  25.896  29.114  1.00  0.00     0.074 A 
ATOM     21  C   UNL A   1      46.009  24.525  28.721  1.00  0.00     0.031 C 
ATOM     22  C   UNL A   1      39.420  26.524  28.227  1.00  0.00     0.029 A 
ATOM     23  C   UNL A   1      40.349  27.531  28.723  1.00  0.00     0.049 A 
ATOM     24  H   UNL A   1      42.406  27.346  28.986  1.00  0.00     0.167 HD
ATOM     25  C   UNL A   1      46.716  26.760  29.539  1.00  0.00     0.037 A 
ATOM     26  C   UNL A   1      40.007  28.775  29.107  1.00  0.00     0.037 A 
ATOM     27  C   UNL A   1      46.457  28.125  29.921  1.00  0.00     0.049 A 
ATOM     28  C   UNL A   1      41.079  29.696  29.611  1.00  0.00     0.074 A 
ATOM     29  C   UNL A   1      47.358  29.089  30.338  1.00  0.00     0.029 A 
ATOM     30  N   UNL A   1      45.202  28.717  29.941  1.00  0.00    -0.354 N 
ATOM     31  N   UNL A   1      42.366  29.479  29.725  1.00  0.00    -0.248 NA
ATOM     32  C   UNL A   1      40.649  31.031  30.045  1.00  0.00     0.031 C 
ATOM     33  C   UNL A   1      46.642  30.247  30.661  1.00  0.00     0.029 A 
ATOM     34  C   UNL A   1      45.302  30.025  30.388  1.00  0.00     0.049 A 
ATOM     35  H   UNL A   1      44.364  28.273  29.675  1.00  0.00     0.167 HD
ATOM     36  C   UNL A   1      42.906  30.657  30.222  1.00  0.00     0.074 A 
ATOM     37  C   UNL A   1      41.807  31.589  30.370  1.00  0.00     0.031 C 
ATOM     38  C   UNL A   1      44.196  30.940  30.528  1.00  0.00     0.037 A 
BRANCH  25  39
ATOM     39  C   UNL A   1      48.124  26.245  29.640  1.00  0.00     0.057 A 
ATOM     40  C   UNL A   1      49.012  26.285  28.556  1.00  0.00     0.134 A 
ATOM     41  C   UNL A   1      48.610  25.730  30.850  1.00  0.00     0.134 A 
ATOM     42  F   UNL A   1      48.610  26.753  27.365  1.00  0.00    -0.206 F 
ATOM     43  C   UNL A   1      50.321  25.809  28.665  1.00  0.00     0.040 A 
ATOM     44  C   UNL A   1      49.924  25.278  30.978  1.00  0.00     0.040 A 
ATOM     45  F   UNL A   1      47.817  25.668  31.930  1.00  0.00    -0.206 F 
ATOM     46  C   UNL A   1      50.782  25.310  29.881  1.00  0.00     0.006 A 
ENDBRANCH  25  39
BRANCH  26  47
ATOM     47  C   UNL A   1      38.589  29.204  29.037  1.00  0.00     0.057 A 
ATOM     48  C   UNL A   1      37.760  29.158  30.163  1.00  0.00     0.134 A 
ATOM     49  C   UNL A   1      38.034  29.691  27.846  1.00  0.00     0.134 A 
ATOM     50  F   UNL A   1      38.229  28.689  31.328  1.00  0.00    -0.206 F 
ATOM     51  C   UNL A   1      36.426  29.566  30.104  1.00  0.00     0.040 A 
ATOM     52  C   UNL A   1      36.711  30.129  27.781  1.00  0.00     0.040 A 
ATOM     53  F   UNL A   1      38.779  29.771  26.735  1.00  0.00    -0.206 F 
ATOM     54  C   UNL A   1      35.901  30.060  28.912  1.00  0.00     0.006 A 
ENDBRANCH  26  47
BRANCH  38  55
ATOM     55  C   UNL A   1      44.491  32.328  31.018  1.00  0.00     0.057 A 
ATOM     56  C   UNL A   1      44.487  32.649  32.381  1.00  0.00     0.134 A 
ATOM     57  C   UNL A   1      44.808  33.347  30.113  1.00  0.00     0.134 A 
ATOM     58  F   UNL A   1      44.175  31.721  33.299  1.00  0.00    -0.206 F 
ATOM     59  C   UNL A   1      44.767  33.943  32.824  1.00  0.00     0.040 A 
ATOM     60  C   UNL A   1      45.118  34.638  30.546  1.00  0.00     0.040 A 
ATOM     61  F   UNL A   1      44.836  33.105  28.793  1.00  0.00    -0.206 F 
ATOM     62  C   UNL A   1      45.091  34.939  31.906  1.00  0.00     0.006 A 
ENDBRANCH  38  55
ENDBRANCH  12  13
ENDBRANCH   5   7
ENDBRANCH   2   3
ENDBRANCH   1   2
BRANCH   1  63
ATOM     63  C   UNL A   1      36.187  20.828  25.380  1.00  0.00     0.117 C 
BRANCH  63  64
ATOM     64  N   UNL A   1      36.780  22.009  25.976  1.00  0.00    -0.356 N 
ATOM     65  C   UNL A   1      36.524  23.335  25.851  1.00  0.00     0.224 C 
ATOM     66  H   UNL A   1      37.518  21.808  26.595  1.00  0.00     0.163 HD
ATOM     67  O   UNL A   1      37.313  24.090  26.428  1.00  0.00    -0.275 OA
BRANCH  65  68
ATOM     68  C   UNL A   1      35.302  23.916  25.147  1.00  0.00     0.098 C 
ATOM     69  C   UNL A   1      35.085  23.551  23.672  1.00  0.00     0.017 C 
ATOM     70  C   UNL A   1      34.060  23.672  26.014  1.00  0.00     0.133 C 
ATOM     71  C   UNL A   1      33.787  24.148  23.130  1.00  0.00     0.022 C 
ATOM     72  N   UNL A   1      32.856  24.222  25.384  1.00  0.00    -0.338 N 
ATOM     73  C   UNL A   1      32.612  23.759  24.020  1.00  0.00     0.120 C 
BRANCH  72  74
ATOM     74  C   UNL A   1      32.142  25.241  26.023  1.00  0.00     0.254 C 
ATOM     75  O   UNL A   1      31.280  25.041  26.873  1.00  0.00    -0.269 OA
BRANCH  74  76
ATOM     76  C   UNL A   1      32.445  26.638  25.654  1.00  0.00     0.049 A 
ATOM     77  C   UNL A   1      33.598  27.260  26.164  1.00  0.00     0.014 A 
ATOM     78  C   UNL A   1      31.567  27.359  24.817  1.00  0.00     0.012 A 
ATOM     79  C   UNL A   1      33.837  28.609  25.914  1.00  0.00     0.003 A 
ATOM     80  C   UNL A   1      31.842  28.711  24.584  1.00  0.00     0.046 A 
ATOM     81  C   UNL A   1      30.373  27.053  24.100  1.00  0.00     0.029 A 
ATOM     82  C   UNL A   1      32.955  29.363  25.131  1.00  0.00     0.027 A 
ATOM     83  N   UNL A   1      30.844  29.195  23.768  1.00  0.00    -0.361 N 
ATOM     84  C   UNL A   1      29.957  28.199  23.462  1.00  0.00     0.083 A 
ATOM     85  H   UNL A   1      30.779  30.124  23.449  1.00  0.00     0.166 HD
ENDBRANCH  74  76
ENDBRANCH  72  74
ENDBRANCH  65  68
ENDBRANCH  63  64
ENDBRANCH   1  63
TORSDOF 12
ENDMDL
