MODEL 1
REMARK VINA RESULT:     -11.6      0.000      0.000
REMARK SMILES CC(C)(C)OC(=O)N1C[C@H](Oc2ccncc2)C[C@H]1C(=O)NCCCNC(=O)c1ccc(-c2c3nc(c(-c4c(F)cccc4F)c4ccc([nH]4)c(-c4c(F)cccc4F)c4nc(c(-c5c(F)cccc5F)c5ccc2[nH]5)C=C4)C=C3)cc1
REMARK SMILES IDX 23 1 22 2 20 3 21 4 19 6 8 7 9 8 10 9 18 10 6 11 7 12 5 13
REMARK SMILES IDX 2 14 1 15 3 16 4 17 11 18 12 19 13 20 17 21 14 22 16 23
REMARK SMILES IDX 15 24 24 25 25 26 26 27 27 28 28 30 29 31 30 32 82 33 31 34
REMARK SMILES IDX 81 35 32 36 33 37 34 38 75 39 35 40 80 41 74 42 76 43 36 44
REMARK SMILES IDX 79 45 73 46 72 47 37 49 63 50 46 51 62 52 47 53 50 54 61 55
REMARK SMILES IDX 77 56 48 57 49 58 60 60 78 61 51 62 38 63 39 64 44 65 40 66
REMARK SMILES IDX 41 67 43 68 45 69 42 70 64 71 65 72 70 73 66 74 67 75 69 76
REMARK SMILES IDX 71 77 68 78 52 79 53 80 58 81 54 82 55 83 57 84 59 85 56 86
REMARK H PARENT 22 5 26 29 76 48 50 59
REMARK Flexibility Score: inf
ROOT
ATOM      1  C   UNL A   1      32.468  26.281  25.992  1.00  0.00     0.117 C 
ENDROOT
BRANCH   1   2
ATOM      2  N   UNL A   1      31.620  25.332  26.675  1.00  0.00    -0.354 N 
ATOM      3  C   UNL A   1      31.611  23.976  26.707  1.00  0.00     0.243 C 
ATOM      4  O   UNL A   1      30.704  23.483  27.393  1.00  0.00    -0.273 OA
ATOM      5  H   UNL A   1      30.915  25.749  27.221  1.00  0.00     0.163 HD
BRANCH   3   6
ATOM      6  C   UNL A   1      32.514  23.057  25.831  1.00  0.00     0.181 C 
ATOM      7  N   UNL A   1      33.794  22.595  26.366  1.00  0.00    -0.292 N 
ATOM      8  C   UNL A   1      33.698  21.222  26.824  1.00  0.00     0.169 C 
ATOM      9  C   UNL A   1      32.707  20.605  25.834  1.00  0.00     0.195 C 
ATOM     10  C   UNL A   1      31.735  21.751  25.525  1.00  0.00     0.082 C 
BRANCH   7  11
ATOM     11  C   UNL A   1      34.973  23.259  26.095  1.00  0.00     0.411 C 
ATOM     12  O   UNL A   1      35.002  24.453  25.837  1.00  0.00    -0.224 OA
BRANCH  11  13
ATOM     13  O   UNL A   1      36.059  22.459  26.244  1.00  0.00    -0.444 OA
BRANCH  13  14
ATOM     14  C   UNL A   1      36.962  22.097  25.156  1.00  0.00     0.106 C 
ATOM     15  C   UNL A   1      36.768  20.590  24.941  1.00  0.00     0.056 C 
ATOM     16  C   UNL A   1      38.392  22.350  25.650  1.00  0.00     0.056 C 
ATOM     17  C   UNL A   1      36.756  22.817  23.818  1.00  0.00     0.056 C 
ENDBRANCH  13  14
ENDBRANCH  11  13
ENDBRANCH   7  11
BRANCH   9  18
ATOM     18  O   UNL A   1      33.283  19.966  24.677  1.00  0.00    -0.488 OA
BRANCH  18  19
ATOM     19  C   UNL A   1      33.330  18.602  24.668  1.00  0.00     0.122 A 
ATOM     20  C   UNL A   1      32.651  17.871  25.631  1.00  0.00     0.066 A 
ATOM     21  C   UNL A   1      33.961  17.941  23.622  1.00  0.00     0.066 A 
ATOM     22  C   UNL A   1      32.729  16.489  25.573  1.00  0.00     0.115 A 
ATOM     23  C   UNL A   1      33.966  16.556  23.639  1.00  0.00     0.115 A 
ATOM     24  N   UNL A   1      33.376  15.815  24.601  1.00  0.00    -0.264 NA
ENDBRANCH  18  19
ENDBRANCH   9  18
ENDBRANCH   3   6
ENDBRANCH   1   2
BRANCH   1  25
ATOM     25  C   UNL A   1      32.684  27.552  26.796  1.00  0.00     0.042 C 
BRANCH  25  26
ATOM     26  C   UNL A   1      33.936  28.295  26.356  1.00  0.00     0.118 C 
BRANCH  26  27
ATOM     27  N   UNL A   1      33.822  29.740  26.560  1.00  0.00    -0.352 N 
ATOM     28  C   UNL A   1      34.529  30.600  27.359  1.00  0.00     0.251 C 
ATOM     29  H   UNL A   1      33.113  30.168  26.029  1.00  0.00     0.163 HD
ATOM     30  O   UNL A   1      34.099  31.733  27.558  1.00  0.00    -0.269 OA
BRANCH  28  31
ATOM     31  C   UNL A   1      35.792  30.168  27.987  1.00  0.00     0.039 A 
ATOM     32  C   UNL A   1      35.771  29.655  29.286  1.00  0.00     0.014 A 
ATOM     33  C   UNL A   1      37.000  30.284  27.301  1.00  0.00     0.014 A 
ATOM     34  C   UNL A   1      36.954  29.186  29.860  1.00  0.00     0.010 A 
ATOM     35  C   UNL A   1      38.146  29.697  27.818  1.00  0.00     0.010 A 
ATOM     36  C   UNL A   1      38.141  29.160  29.111  1.00  0.00    -0.014 A 
BRANCH  36  37
ATOM     37  C   UNL A   1      39.401  28.606  29.663  1.00  0.00     0.031 A 
ATOM     38  C   UNL A   1      40.034  29.242  30.872  1.00  0.00     0.074 A 
ATOM     39  C   UNL A   1      40.013  27.586  29.031  1.00  0.00     0.049 A 
ATOM     40  N   UNL A   1      41.176  28.969  31.448  1.00  0.00    -0.248 NA
ATOM     41  C   UNL A   1      39.305  30.361  31.493  1.00  0.00     0.031 C 
ATOM     42  C   UNL A   1      39.532  26.927  27.815  1.00  0.00     0.029 A 
ATOM     43  N   UNL A   1      41.182  26.930  29.323  1.00  0.00    -0.354 N 
ATOM     44  C   UNL A   1      41.309  29.893  32.476  1.00  0.00     0.074 A 
ATOM     45  C   UNL A   1      40.171  30.779  32.404  1.00  0.00     0.031 C 
ATOM     46  C   UNL A   1      40.379  25.939  27.486  1.00  0.00     0.029 A 
ATOM     47  C   UNL A   1      41.485  25.924  28.436  1.00  0.00     0.049 A 
ATOM     48  H   UNL A   1      41.751  27.159  30.093  1.00  0.00     0.167 HD
ATOM     49  C   UNL A   1      42.278  29.978  33.418  1.00  0.00     0.037 A 
ATOM     50  C   UNL A   1      42.540  25.089  28.394  1.00  0.00     0.037 A 
ATOM     51  C   UNL A   1      43.390  29.071  33.508  1.00  0.00     0.049 A 
ATOM     52  C   UNL A   1      43.600  25.201  29.454  1.00  0.00     0.074 A 
ATOM     53  C   UNL A   1      44.390  29.026  34.462  1.00  0.00     0.029 A 
ATOM     54  N   UNL A   1      43.647  28.048  32.607  1.00  0.00    -0.354 N 
ATOM     55  N   UNL A   1      43.676  26.032  30.465  1.00  0.00    -0.248 NA
ATOM     56  C   UNL A   1      44.720  24.253  29.370  1.00  0.00     0.031 C 
ATOM     57  C   UNL A   1      45.280  28.005  34.113  1.00  0.00     0.029 A 
ATOM     58  C   UNL A   1      44.803  27.379  32.972  1.00  0.00     0.049 A 
ATOM     59  H   UNL A   1      43.090  27.830  31.826  1.00  0.00     0.167 HD
ATOM     60  C   UNL A   1      44.832  25.689  31.154  1.00  0.00     0.074 A 
ATOM     61  C   UNL A   1      45.417  24.564  30.454  1.00  0.00     0.031 C 
ATOM     62  C   UNL A   1      45.363  26.254  32.266  1.00  0.00     0.037 A 
BRANCH  49  63
ATOM     63  C   UNL A   1      42.167  31.082  34.430  1.00  0.00     0.057 A 
ATOM     64  C   UNL A   1      42.760  32.337  34.225  1.00  0.00     0.134 A 
ATOM     65  C   UNL A   1      41.440  30.899  35.613  1.00  0.00     0.134 A 
ATOM     66  F   UNL A   1      43.483  32.575  33.120  1.00  0.00    -0.206 F 
ATOM     67  C   UNL A   1      42.660  33.356  35.173  1.00  0.00     0.040 A 
ATOM     68  C   UNL A   1      41.306  31.922  36.553  1.00  0.00     0.040 A 
ATOM     69  F   UNL A   1      40.843  29.726  35.872  1.00  0.00    -0.206 F 
ATOM     70  C   UNL A   1      41.924  33.152  36.338  1.00  0.00     0.006 A 
ENDBRANCH  49  63
BRANCH  50  71
ATOM     71  C   UNL A   1      42.633  24.059  27.329  1.00  0.00     0.057 A 
ATOM     72  C   UNL A   1      42.146  22.763  27.535  1.00  0.00     0.134 A 
ATOM     73  C   UNL A   1      43.214  24.338  26.086  1.00  0.00     0.134 A 
ATOM     74  F   UNL A   1      41.593  22.429  28.711  1.00  0.00    -0.206 F 
ATOM     75  C   UNL A   1      42.255  21.775  26.557  1.00  0.00     0.040 A 
ATOM     76  C   UNL A   1      43.304  23.367  25.087  1.00  0.00     0.040 A 
ATOM     77  F   UNL A   1      43.691  25.564  25.821  1.00  0.00    -0.206 F 
ATOM     78  C   UNL A   1      42.832  22.078  25.324  1.00  0.00     0.006 A 
ENDBRANCH  50  71
BRANCH  62  79
ATOM     79  C   UNL A   1      46.616  25.639  32.817  1.00  0.00     0.057 A 
ATOM     80  C   UNL A   1      47.889  26.041  32.394  1.00  0.00     0.134 A 
ATOM     81  C   UNL A   1      46.545  24.658  33.816  1.00  0.00     0.134 A 
ATOM     82  F   UNL A   1      48.025  26.967  31.432  1.00  0.00    -0.206 F 
ATOM     83  C   UNL A   1      49.047  25.472  32.925  1.00  0.00     0.040 A 
ATOM     84  C   UNL A   1      47.696  24.104  34.377  1.00  0.00     0.040 A 
ATOM     85  F   UNL A   1      45.358  24.236  34.275  1.00  0.00    -0.206 F 
ATOM     86  C   UNL A   1      48.952  24.506  33.926  1.00  0.00     0.006 A 
ENDBRANCH  62  79
ENDBRANCH  36  37
ENDBRANCH  28  31
ENDBRANCH  26  27
ENDBRANCH  25  26
ENDBRANCH   1  25
TORSDOF 15
ENDMDL
MODEL 2
REMARK VINA RESULT:     -11.6      1.753      2.529
REMARK SMILES CC(C)(C)OC(=O)N1C[C@H](Oc2ccncc2)C[C@H]1C(=O)NCCCNC(=O)c1ccc(-c2c3nc(c(-c4c(F)cccc4F)c4ccc([nH]4)c(-c4c(F)cccc4F)c4nc(c(-c5c(F)cccc5F)c5ccc2[nH]5)C=C4)C=C3)cc1
REMARK SMILES IDX 23 1 22 2 20 3 21 4 19 6 8 7 9 8 10 9 18 10 6 11 7 12 5 13
REMARK SMILES IDX 2 14 1 15 3 16 4 17 11 18 12 19 13 20 17 21 14 22 16 23
REMARK SMILES IDX 15 24 24 25 25 26 26 27 27 28 28 30 29 31 30 32 82 33 31 34
REMARK SMILES IDX 81 35 32 36 33 37 34 38 75 39 35 40 80 41 74 42 76 43 36 44
REMARK SMILES IDX 79 45 73 46 72 47 37 49 63 50 46 51 62 52 47 53 50 54 61 55
REMARK SMILES IDX 77 56 48 57 49 58 60 60 78 61 51 62 38 63 39 64 44 65 40 66
REMARK SMILES IDX 41 67 43 68 45 69 42 70 64 71 65 72 70 73 66 74 67 75 69 76
REMARK SMILES IDX 71 77 68 78 52 79 53 80 58 81 54 82 55 83 57 84 59 85 56 86
REMARK H PARENT 22 5 26 29 76 48 50 59
REMARK Flexibility Score: inf
ROOT
ATOM      1  C   UNL A   1      32.347  26.419  25.947  1.00  0.00     0.117 C 
ENDROOT
BRANCH   1   2
ATOM      2  N   UNL A   1      31.494  25.467  26.618  1.00  0.00    -0.354 N 
ATOM      3  C   UNL A   1      31.485  24.111  26.645  1.00  0.00     0.243 C 
ATOM      4  O   UNL A   1      30.572  23.615  27.321  1.00  0.00    -0.273 OA
ATOM      5  H   UNL A   1      30.784  25.882  27.160  1.00  0.00     0.163 HD
BRANCH   3   6
ATOM      6  C   UNL A   1      32.395  23.196  25.773  1.00  0.00     0.181 C 
ATOM      7  N   UNL A   1      33.664  22.720  26.324  1.00  0.00    -0.292 N 
ATOM      8  C   UNL A   1      33.552  21.343  26.766  1.00  0.00     0.169 C 
ATOM      9  C   UNL A   1      32.573  20.743  25.754  1.00  0.00     0.195 C 
ATOM     10  C   UNL A   1      31.614  21.898  25.441  1.00  0.00     0.082 C 
BRANCH   7  11
ATOM     11  C   UNL A   1      34.851  23.379  26.079  1.00  0.00     0.411 C 
ATOM     12  O   UNL A   1      34.891  24.573  25.822  1.00  0.00    -0.224 OA
BRANCH  11  13
ATOM     13  O   UNL A   1      35.931  22.574  26.251  1.00  0.00    -0.444 OA
BRANCH  13  14
ATOM     14  C   UNL A   1      36.856  22.208  25.184  1.00  0.00     0.106 C 
ATOM     15  C   UNL A   1      36.696  20.693  24.999  1.00  0.00     0.056 C 
ATOM     16  C   UNL A   1      38.273  22.501  25.691  1.00  0.00     0.056 C 
ATOM     17  C   UNL A   1      36.652  22.895  23.828  1.00  0.00     0.056 C 
ENDBRANCH  13  14
ENDBRANCH  11  13
ENDBRANCH   7  11
BRANCH   9  18
ATOM     18  O   UNL A   1      33.164  20.112  24.599  1.00  0.00    -0.488 OA
BRANCH  18  19
ATOM     19  C   UNL A   1      33.188  18.747  24.568  1.00  0.00     0.122 A 
ATOM     20  C   UNL A   1      33.758  18.082  23.493  1.00  0.00     0.066 A 
ATOM     21  C   UNL A   1      32.748  18.025  25.668  1.00  0.00     0.066 A 
ATOM     22  C   UNL A   1      33.759  16.697  23.514  1.00  0.00     0.115 A 
ATOM     23  C   UNL A   1      32.810  16.643  25.604  1.00  0.00     0.115 A 
ATOM     24  N   UNL A   1      33.293  15.962  24.544  1.00  0.00    -0.264 NA
ENDBRANCH  18  19
ENDBRANCH   9  18
ENDBRANCH   3   6
ENDBRANCH   1   2
BRANCH   1  25
ATOM     25  C   UNL A   1      32.294  27.798  26.582  1.00  0.00     0.042 C 
BRANCH  25  26
ATOM     26  C   UNL A   1      33.681  28.313  26.934  1.00  0.00     0.118 C 
BRANCH  26  27
ATOM     27  N   UNL A   1      33.655  29.705  27.387  1.00  0.00    -0.352 N 
ATOM     28  C   UNL A   1      34.565  30.442  28.098  1.00  0.00     0.251 C 
ATOM     29  H   UNL A   1      32.840  30.196  27.137  1.00  0.00     0.163 HD
ATOM     30  O   UNL A   1      34.227  31.520  28.581  1.00  0.00    -0.269 OA
BRANCH  28  31
ATOM     31  C   UNL A   1      35.940  29.945  28.293  1.00  0.00     0.039 A 
ATOM     32  C   UNL A   1      36.865  30.064  27.253  1.00  0.00     0.014 A 
ATOM     33  C   UNL A   1      36.314  29.347  29.496  1.00  0.00     0.014 A 
ATOM     34  C   UNL A   1      38.185  29.655  27.455  1.00  0.00     0.010 A 
ATOM     35  C   UNL A   1      37.650  29.065  29.740  1.00  0.00     0.010 A 
ATOM     36  C   UNL A   1      38.597  29.196  28.716  1.00  0.00    -0.014 A 
BRANCH  36  37
ATOM     37  C   UNL A   1      40.005  28.817  28.988  1.00  0.00     0.031 A 
ATOM     38  C   UNL A   1      40.931  29.801  29.649  1.00  0.00     0.074 A 
ATOM     39  C   UNL A   1      40.467  27.623  28.568  1.00  0.00     0.049 A 
ATOM     40  N   UNL A   1      42.214  29.700  29.887  1.00  0.00    -0.248 NA
ATOM     41  C   UNL A   1      40.348  31.089  30.064  1.00  0.00     0.031 C 
ATOM     42  C   UNL A   1      39.683  26.609  27.859  1.00  0.00     0.029 A 
ATOM     43  N   UNL A   1      41.715  27.064  28.671  1.00  0.00    -0.354 N 
ATOM     44  C   UNL A   1      42.589  30.912  30.453  1.00  0.00     0.074 A 
ATOM     45  C   UNL A   1      41.420  31.759  30.459  1.00  0.00     0.031 C 
ATOM     46  C   UNL A   1      40.459  25.539  27.623  1.00  0.00     0.029 A 
ATOM     47  C   UNL A   1      41.803  25.809  28.120  1.00  0.00     0.049 A 
ATOM     48  H   UNL A   1      42.476  27.520  29.098  1.00  0.00     0.167 HD
ATOM     49  C   UNL A   1      43.793  31.276  30.953  1.00  0.00     0.037 A 
ATOM     50  C   UNL A   1      42.854  24.972  28.022  1.00  0.00     0.037 A 
ATOM     51  C   UNL A   1      44.944  30.415  30.977  1.00  0.00     0.049 A 
ATOM     52  C   UNL A   1      44.179  25.399  28.588  1.00  0.00     0.074 A 
ATOM     53  C   UNL A   1      46.192  30.660  31.521  1.00  0.00     0.029 A 
ATOM     54  N   UNL A   1      44.986  29.140  30.433  1.00  0.00    -0.354 N 
ATOM     55  N   UNL A   1      44.502  26.520  29.187  1.00  0.00    -0.248 NA
ATOM     56  C   UNL A   1      45.287  24.440  28.470  1.00  0.00     0.031 C 
ATOM     57  C   UNL A   1      47.005  29.552  31.264  1.00  0.00     0.029 A 
ATOM     58  C   UNL A   1      46.246  28.594  30.609  1.00  0.00     0.049 A 
ATOM     59  H   UNL A   1      44.232  28.690  29.988  1.00  0.00     0.167 HD
ATOM     60  C   UNL A   1      45.838  26.390  29.544  1.00  0.00     0.074 A 
ATOM     61  C   UNL A   1      46.260  25.074  29.107  1.00  0.00     0.031 C 
ATOM     62  C   UNL A   1      46.643  27.278  30.176  1.00  0.00     0.037 A 
BRANCH  49  63
ATOM     63  C   UNL A   1      43.918  32.660  31.521  1.00  0.00     0.057 A 
ATOM     64  C   UNL A   1      43.662  32.931  32.874  1.00  0.00     0.134 A 
ATOM     65  C   UNL A   1      44.321  33.732  30.716  1.00  0.00     0.134 A 
ATOM     66  F   UNL A   1      43.258  31.953  33.699  1.00  0.00    -0.206 F 
ATOM     67  C   UNL A   1      43.772  34.221  33.395  1.00  0.00     0.040 A 
ATOM     68  C   UNL A   1      44.465  35.021  31.233  1.00  0.00     0.040 A 
ATOM     69  F   UNL A   1      44.585  33.544  29.414  1.00  0.00    -0.206 F 
ATOM     70  C   UNL A   1      44.183  35.270  32.574  1.00  0.00     0.006 A 
ENDBRANCH  49  63
BRANCH  50  71
ATOM     71  C   UNL A   1      42.690  23.641  27.386  1.00  0.00     0.057 A 
ATOM     72  C   UNL A   1      42.855  23.475  26.006  1.00  0.00     0.134 A 
ATOM     73  C   UNL A   1      42.357  22.506  28.135  1.00  0.00     0.134 A 
ATOM     74  F   UNL A   1      43.159  24.528  25.232  1.00  0.00    -0.206 F 
ATOM     75  C   UNL A   1      42.673  22.237  25.389  1.00  0.00     0.040 A 
ATOM     76  C   UNL A   1      42.198  21.255  27.535  1.00  0.00     0.040 A 
ATOM     77  F   UNL A   1      42.193  22.594  29.464  1.00  0.00    -0.206 F 
ATOM     78  C   UNL A   1      42.347  21.120  26.157  1.00  0.00     0.006 A 
ENDBRANCH  50  71
BRANCH  62  79
ATOM     79  C   UNL A   1      48.049  26.842  30.469  1.00  0.00     0.057 A 
ATOM     80  C   UNL A   1      49.109  27.115  29.595  1.00  0.00     0.134 A 
ATOM     81  C   UNL A   1      48.351  26.175  31.664  1.00  0.00     0.134 A 
ATOM     82  F   UNL A   1      48.885  27.740  28.429  1.00  0.00    -0.206 F 
ATOM     83  C   UNL A   1      50.414  26.718  29.886  1.00  0.00     0.040 A 
ATOM     84  C   UNL A   1      49.657  25.801  31.980  1.00  0.00     0.040 A 
ATOM     85  F   UNL A   1      47.385  25.893  32.550  1.00  0.00    -0.206 F 
ATOM     86  C   UNL A   1      50.692  26.066  31.086  1.00  0.00     0.006 A 
ENDBRANCH  62  79
ENDBRANCH  36  37
ENDBRANCH  28  31
ENDBRANCH  26  27
ENDBRANCH  25  26
ENDBRANCH   1  25
TORSDOF 15
ENDMDL
MODEL 3
REMARK VINA RESULT:     -11.2      1.908      6.669
REMARK SMILES CC(C)(C)OC(=O)N1C[C@H](Oc2ccncc2)C[C@H]1C(=O)NCCCNC(=O)c1ccc(-c2c3nc(c(-c4c(F)cccc4F)c4ccc([nH]4)c(-c4c(F)cccc4F)c4nc(c(-c5c(F)cccc5F)c5ccc2[nH]5)C=C4)C=C3)cc1
REMARK SMILES IDX 23 1 22 2 20 3 21 4 19 6 8 7 9 8 10 9 18 10 6 11 7 12 5 13
REMARK SMILES IDX 2 14 1 15 3 16 4 17 11 18 12 19 13 20 17 21 14 22 16 23
REMARK SMILES IDX 15 24 24 25 25 26 26 27 27 28 28 30 29 31 30 32 82 33 31 34
REMARK SMILES IDX 81 35 32 36 33 37 34 38 75 39 35 40 80 41 74 42 76 43 36 44
REMARK SMILES IDX 79 45 73 46 72 47 37 49 63 50 46 51 62 52 47 53 50 54 61 55
REMARK SMILES IDX 77 56 48 57 49 58 60 60 78 61 51 62 38 63 39 64 44 65 40 66
REMARK SMILES IDX 41 67 43 68 45 69 42 70 64 71 65 72 70 73 66 74 67 75 69 76
REMARK SMILES IDX 71 77 68 78 52 79 53 80 58 81 54 82 55 83 57 84 59 85 56 86
REMARK H PARENT 22 5 26 29 76 48 50 59
REMARK Flexibility Score: inf
ROOT
ATOM      1  C   UNL A   1      32.315  26.378  25.871  1.00  0.00     0.117 C 
ENDROOT
BRANCH   1   2
ATOM      2  N   UNL A   1      31.464  25.427  26.547  1.00  0.00    -0.354 N 
ATOM      3  C   UNL A   1      31.457  24.071  26.577  1.00  0.00     0.243 C 
ATOM      4  O   UNL A   1      30.546  23.575  27.256  1.00  0.00    -0.273 OA
ATOM      5  H   UNL A   1      30.755  25.841  27.089  1.00  0.00     0.163 HD
BRANCH   3   6
ATOM      6  C   UNL A   1      32.367  23.155  25.705  1.00  0.00     0.181 C 
ATOM      7  N   UNL A   1      33.646  22.698  26.246  1.00  0.00    -0.292 N 
ATOM      8  C   UNL A   1      33.554  21.325  26.705  1.00  0.00     0.169 C 
ATOM      9  C   UNL A   1      32.570  20.703  25.712  1.00  0.00     0.195 C 
ATOM     10  C   UNL A   1      31.595  21.845  25.397  1.00  0.00     0.082 C 
BRANCH   7  11
ATOM     11  C   UNL A   1      34.824  23.366  25.980  1.00  0.00     0.411 C 
ATOM     12  O   UNL A   1      34.842  24.535  25.624  1.00  0.00    -0.224 OA
BRANCH  11  13
ATOM     13  O   UNL A   1      35.918  22.608  26.251  1.00  0.00    -0.444 OA
BRANCH  13  14
ATOM     14  C   UNL A   1      36.852  22.131  25.236  1.00  0.00     0.106 C 
ATOM     15  C   UNL A   1      36.580  20.628  25.096  1.00  0.00     0.056 C 
ATOM     16  C   UNL A   1      38.267  22.332  25.793  1.00  0.00     0.056 C 
ATOM     17  C   UNL A   1      36.758  22.781  23.850  1.00  0.00     0.056 C 
ENDBRANCH  13  14
ENDBRANCH  11  13
ENDBRANCH   7  11
BRANCH   9  18
ATOM     18  O   UNL A   1      33.154  20.065  24.558  1.00  0.00    -0.488 OA
BRANCH  18  19
ATOM     19  C   UNL A   1      33.180  18.700  24.537  1.00  0.00     0.122 A 
ATOM     20  C   UNL A   1      33.711  18.027  23.446  1.00  0.00     0.066 A 
ATOM     21  C   UNL A   1      32.786  17.986  25.659  1.00  0.00     0.066 A 
ATOM     22  C   UNL A   1      33.717  16.643  23.478  1.00  0.00     0.115 A 
ATOM     23  C   UNL A   1      32.850  16.604  25.604  1.00  0.00     0.115 A 
ATOM     24  N   UNL A   1      33.293  15.915  24.531  1.00  0.00    -0.264 NA
ENDBRANCH  18  19
ENDBRANCH   9  18
ENDBRANCH   3   6
ENDBRANCH   1   2
BRANCH   1  25
ATOM     25  C   UNL A   1      31.708  27.770  25.823  1.00  0.00     0.042 C 
BRANCH  25  26
ATOM     26  C   UNL A   1      32.744  28.828  25.477  1.00  0.00     0.118 C 
BRANCH  26  27
ATOM     27  N   UNL A   1      32.303  30.175  25.844  1.00  0.00    -0.352 N 
ATOM     28  C   UNL A   1      32.773  31.057  26.782  1.00  0.00     0.251 C 
ATOM     29  H   UNL A   1      31.534  30.504  25.326  1.00  0.00     0.163 HD
ATOM     30  O   UNL A   1      32.094  32.034  27.088  1.00  0.00    -0.269 OA
BRANCH  28  31
ATOM     31  C   UNL A   1      34.079  30.833  27.430  1.00  0.00     0.039 A 
ATOM     32  C   UNL A   1      34.918  31.923  27.671  1.00  0.00     0.014 A 
ATOM     33  C   UNL A   1      34.484  29.547  27.785  1.00  0.00     0.014 A 
ATOM     34  C   UNL A   1      36.127  31.726  28.342  1.00  0.00     0.010 A 
ATOM     35  C   UNL A   1      35.616  29.372  28.566  1.00  0.00     0.010 A 
ATOM     36  C   UNL A   1      36.462  30.455  28.836  1.00  0.00    -0.014 A 
BRANCH  36  37
ATOM     37  C   UNL A   1      37.703  30.221  29.613  1.00  0.00     0.031 A 
ATOM     38  C   UNL A   1      38.798  29.365  29.035  1.00  0.00     0.074 A 
ATOM     39  C   UNL A   1      37.810  30.711  30.863  1.00  0.00     0.049 A 
ATOM     40  N   UNL A   1      39.914  28.963  29.588  1.00  0.00    -0.248 NA
ATOM     41  C   UNL A   1      38.595  28.858  27.667  1.00  0.00     0.031 C 
ATOM     42  C   UNL A   1      36.791  31.502  31.556  1.00  0.00     0.029 A 
ATOM     43  N   UNL A   1      38.827  30.606  31.778  1.00  0.00    -0.354 N 
ATOM     44  C   UNL A   1      40.526  28.144  28.649  1.00  0.00     0.074 A 
ATOM     45  C   UNL A   1      39.631  28.046  27.520  1.00  0.00     0.031 C 
ATOM     46  C   UNL A   1      37.248  31.840  32.772  1.00  0.00     0.029 A 
ATOM     47  C   UNL A   1      38.569  31.252  32.963  1.00  0.00     0.049 A 
ATOM     48  H   UNL A   1      39.661  30.114  31.602  1.00  0.00     0.167 HD
ATOM     49  C   UNL A   1      41.742  27.551  28.707  1.00  0.00     0.037 A 
ATOM     50  C   UNL A   1      39.315  31.353  34.079  1.00  0.00     0.037 A 
ATOM     51  C   UNL A   1      42.645  27.682  29.818  1.00  0.00     0.049 A 
ATOM     52  C   UNL A   1      40.663  30.689  34.117  1.00  0.00     0.074 A 
ATOM     53  C   UNL A   1      43.927  27.179  29.950  1.00  0.00     0.029 A 
ATOM     54  N   UNL A   1      42.360  28.368  30.989  1.00  0.00    -0.354 N 
ATOM     55  N   UNL A   1      41.263  29.978  33.192  1.00  0.00    -0.248 NA
ATOM     56  C   UNL A   1      41.442  30.846  35.353  1.00  0.00     0.031 C 
ATOM     57  C   UNL A   1      44.400  27.520  31.221  1.00  0.00     0.029 A 
ATOM     58  C   UNL A   1      43.433  28.283  31.859  1.00  0.00     0.049 A 
ATOM     59  H   UNL A   1      41.518  28.844  31.174  1.00  0.00     0.167 HD
ATOM     60  C   UNL A   1      42.498  29.630  33.722  1.00  0.00     0.074 A 
ATOM     61  C   UNL A   1      42.568  30.221  35.042  1.00  0.00     0.031 C 
ATOM     62  C   UNL A   1      43.487  28.887  33.165  1.00  0.00     0.037 A 
BRANCH  49  63
ATOM     63  C   UNL A   1      42.164  26.719  27.531  1.00  0.00     0.057 A 
ATOM     64  C   UNL A   1      41.910  25.341  27.468  1.00  0.00     0.134 A 
ATOM     65  C   UNL A   1      42.814  27.303  26.436  1.00  0.00     0.134 A 
ATOM     66  F   UNL A   1      41.305  24.714  28.489  1.00  0.00    -0.206 F 
ATOM     67  C   UNL A   1      42.312  24.571  26.375  1.00  0.00     0.040 A 
ATOM     68  C   UNL A   1      43.192  26.549  25.323  1.00  0.00     0.040 A 
ATOM     69  F   UNL A   1      43.086  28.617  26.427  1.00  0.00    -0.206 F 
ATOM     70  C   UNL A   1      42.949  25.178  25.295  1.00  0.00     0.006 A 
ENDBRANCH  49  63
BRANCH  50  71
ATOM     71  C   UNL A   1      38.817  32.133  35.240  1.00  0.00     0.057 A 
ATOM     72  C   UNL A   1      38.923  33.529  35.270  1.00  0.00     0.134 A 
ATOM     73  C   UNL A   1      38.232  31.509  36.348  1.00  0.00     0.134 A 
ATOM     74  F   UNL A   1      39.489  34.184  34.246  1.00  0.00    -0.206 F 
ATOM     75  C   UNL A   1      38.489  34.273  36.367  1.00  0.00     0.040 A 
ATOM     76  C   UNL A   1      37.768  32.243  37.441  1.00  0.00     0.040 A 
ATOM     77  F   UNL A   1      38.091  30.175  36.378  1.00  0.00    -0.206 F 
ATOM     78  C   UNL A   1      37.904  33.629  37.457  1.00  0.00     0.006 A 
ENDBRANCH  50  71
BRANCH  62  79
ATOM     79  C   UNL A   1      44.743  28.707  33.966  1.00  0.00     0.057 A 
ATOM     80  C   UNL A   1      44.930  27.612  34.819  1.00  0.00     0.134 A 
ATOM     81  C   UNL A   1      45.797  29.623  33.849  1.00  0.00     0.134 A 
ATOM     82  F   UNL A   1      43.955  26.705  34.985  1.00  0.00    -0.206 F 
ATOM     83  C   UNL A   1      46.109  27.448  35.547  1.00  0.00     0.040 A 
ATOM     84  C   UNL A   1      46.992  29.453  34.547  1.00  0.00     0.040 A 
ATOM     85  F   UNL A   1      45.688  30.688  33.041  1.00  0.00    -0.206 F 
ATOM     86  C   UNL A   1      47.148  28.366  35.405  1.00  0.00     0.006 A 
ENDBRANCH  62  79
ENDBRANCH  36  37
ENDBRANCH  28  31
ENDBRANCH  26  27
ENDBRANCH  25  26
ENDBRANCH   1  25
TORSDOF 15
ENDMDL
