MODEL 1
REMARK VINA RESULT:     -11.5      0.000      0.000
REMARK SMILES C[N@H+](Cc1ccc(C(=O)NCCCNC(=O)c2ccc(-c3c4nc(c(-c5c(F)cccc5F)c5ccc([nH]5)c(-c5c(F)cccc5F)c5nc(c(-c6c(F)cccc6F)c6ccc3[nH]6)C=C5)C=C4)cc2)cc1)[C@H]1CC(C)(C)OC1(C)C
REMARK SMILES IDX 11 1 10 2 8 3 9 4 7 6 4 7 5 8 72 9 6 10 71 11 3 12 2 13 1 14
REMARK SMILES IDX 73 16 74 17 79 18 75 19 78 20 80 21 81 22 76 23 77 24 12 25
REMARK SMILES IDX 13 26 14 27 15 28 16 30 17 31 18 32 70 33 19 34 69 35 20 36
REMARK SMILES IDX 21 37 22 38 63 39 23 40 68 41 62 42 64 43 24 44 67 45 61 46
REMARK SMILES IDX 60 47 25 49 51 50 34 51 50 52 35 53 38 54 49 55 65 56 36 57
REMARK SMILES IDX 37 58 48 60 66 61 39 62 26 63 27 64 32 65 28 66 29 67 31 68
REMARK SMILES IDX 33 69 30 70 52 71 53 72 58 73 54 74 55 75 57 76 59 77 56 78
REMARK SMILES IDX 40 79 41 80 46 81 42 82 43 83 45 84 47 85 44 86
REMARK H PARENT 10 5 2 15 14 29 64 48 38 59
REMARK Flexibility Score: inf
ROOT
ATOM      1  C   UNL A   1      37.430  20.805  24.618  1.00  0.00     0.118 C 
ENDROOT
BRANCH   1   2
ATOM      2  N   UNL A   1      38.012  22.018  25.163  1.00  0.00    -0.352 N 
ATOM      3  C   UNL A   1      37.467  23.209  25.579  1.00  0.00     0.251 C 
ATOM      4  O   UNL A   1      38.245  24.037  26.055  1.00  0.00    -0.269 OA
ATOM      5  H   UNL A   1      38.991  21.980  25.251  1.00  0.00     0.163 HD
BRANCH   3   6
ATOM      6  C   UNL A   1      36.011  23.537  25.506  1.00  0.00     0.039 A 
ATOM      7  C   UNL A   1      33.230  24.136  25.531  1.00  0.00     0.006 A 
ATOM      8  C   UNL A   1      33.829  23.472  26.610  1.00  0.00     0.010 A 
ATOM      9  C   UNL A   1      34.034  24.448  24.433  1.00  0.00     0.010 A 
ATOM     10  C   UNL A   1      35.197  23.156  26.585  1.00  0.00     0.014 A 
ATOM     11  C   UNL A   1      35.408  24.221  24.456  1.00  0.00     0.014 A 
BRANCH   7  12
ATOM     12  C   UNL A   1      31.759  24.533  25.547  1.00  0.00     0.299 C 
BRANCH  12  13
ATOM     13  N   UNL A   1      31.351  25.420  24.437  1.00  0.00    -0.329 N 
ATOM     14  C   UNL A   1      30.378  24.755  23.549  1.00  0.00     0.333 C 
ATOM     15  H   UNL A   1      32.234  25.612  23.963  1.00  0.00     0.348 HD
BRANCH  13  16
ATOM     16  C   UNL A   1      30.778  26.735  24.828  1.00  0.00     0.218 C 
ATOM     17  C   UNL A   1      31.093  27.298  26.217  1.00  0.00     0.103 C 
ATOM     18  C   UNL A   1      31.285  27.915  23.924  1.00  0.00     0.115 C 
ATOM     19  C   UNL A   1      32.304  28.206  26.029  1.00  0.00     0.069 C 
ATOM     20  O   UNL A   1      32.359  28.561  24.642  1.00  0.00    -0.363 OA
ATOM     21  C   UNL A   1      31.849  27.562  22.542  1.00  0.00     0.048 C 
ATOM     22  C   UNL A   1      30.171  28.959  23.733  1.00  0.00     0.048 C 
ATOM     23  C   UNL A   1      32.158  29.505  26.826  1.00  0.00     0.042 C 
ATOM     24  C   UNL A   1      33.616  27.516  26.398  1.00  0.00     0.042 C 
ENDBRANCH  13  16
ENDBRANCH  12  13
ENDBRANCH   7  12
ENDBRANCH   3   6
ENDBRANCH   1   2
BRANCH   1  25
ATOM     25  C   UNL A   1      38.286  19.579  24.946  1.00  0.00     0.042 C 
BRANCH  25  26
ATOM     26  C   UNL A   1      39.248  19.821  26.103  1.00  0.00     0.118 C 
BRANCH  26  27
ATOM     27  N   UNL A   1      40.523  19.155  25.878  1.00  0.00    -0.352 N 
ATOM     28  C   UNL A   1      41.798  19.652  25.914  1.00  0.00     0.251 C 
ATOM     29  H   UNL A   1      40.457  18.196  25.668  1.00  0.00     0.163 HD
ATOM     30  O   UNL A   1      42.718  18.975  25.465  1.00  0.00    -0.269 OA
BRANCH  28  31
ATOM     31  C   UNL A   1      42.077  20.990  26.477  1.00  0.00     0.039 A 
ATOM     32  C   UNL A   1      42.400  22.028  25.597  1.00  0.00     0.014 A 
ATOM     33  C   UNL A   1      42.089  21.214  27.856  1.00  0.00     0.014 A 
ATOM     34  C   UNL A   1      42.701  23.295  26.096  1.00  0.00     0.010 A 
ATOM     35  C   UNL A   1      42.325  22.494  28.352  1.00  0.00     0.010 A 
ATOM     36  C   UNL A   1      42.645  23.543  27.476  1.00  0.00    -0.014 A 
BRANCH  36  37
ATOM     37  C   UNL A   1      42.924  24.894  28.020  1.00  0.00     0.031 A 
ATOM     38  C   UNL A   1      44.317  25.268  28.445  1.00  0.00     0.074 A 
ATOM     39  C   UNL A   1      41.907  25.758  28.190  1.00  0.00     0.049 A 
ATOM     40  N   UNL A   1      44.743  26.377  28.991  1.00  0.00    -0.248 NA
ATOM     41  C   UNL A   1      45.361  24.250  28.257  1.00  0.00     0.031 C 
ATOM     42  C   UNL A   1      40.505  25.485  27.870  1.00  0.00     0.029 A 
ATOM     43  N   UNL A   1      41.893  27.036  28.688  1.00  0.00    -0.354 N 
ATOM     44  C   UNL A   1      46.097  26.183  29.232  1.00  0.00     0.074 A 
ATOM     45  C   UNL A   1      46.412  24.835  28.813  1.00  0.00     0.031 C 
ATOM     46  C   UNL A   1      39.769  26.566  28.171  1.00  0.00     0.029 A 
ATOM     47  C   UNL A   1      40.641  27.594  28.731  1.00  0.00     0.049 A 
ATOM     48  H   UNL A   1      42.705  27.507  28.987  1.00  0.00     0.167 HD
ATOM     49  C   UNL A   1      46.998  27.058  29.742  1.00  0.00     0.037 A 
ATOM     50  C   UNL A   1      40.237  28.796  29.180  1.00  0.00     0.037 A 
ATOM     51  C   UNL A   1      46.683  28.407  30.129  1.00  0.00     0.049 A 
ATOM     52  C   UNL A   1      41.258  29.759  29.713  1.00  0.00     0.074 A 
ATOM     53  C   UNL A   1      47.539  29.400  30.573  1.00  0.00     0.029 A 
ATOM     54  N   UNL A   1      45.407  28.953  30.123  1.00  0.00    -0.354 N 
ATOM     55  N   UNL A   1      42.552  29.595  29.855  1.00  0.00    -0.248 NA
ATOM     56  C   UNL A   1      40.769  31.078  30.138  1.00  0.00     0.031 C 
ATOM     57  C   UNL A   1      46.773  30.532  30.877  1.00  0.00     0.029 A 
ATOM     58  C   UNL A   1      45.448  30.259  30.580  1.00  0.00     0.049 A 
ATOM     59  H   UNL A   1      44.592  28.480  29.837  1.00  0.00     0.167 HD
ATOM     60  C   UNL A   1      43.033  30.792  30.369  1.00  0.00     0.074 A 
ATOM     61  C   UNL A   1      41.895  31.679  30.496  1.00  0.00     0.031 C 
ATOM     62  C   UNL A   1      44.303  31.126  30.705  1.00  0.00     0.037 A 
BRANCH  49  63
ATOM     63  C   UNL A   1      48.409  26.575  29.913  1.00  0.00     0.057 A 
ATOM     64  C   UNL A   1      48.826  25.892  31.063  1.00  0.00     0.134 A 
ATOM     65  C   UNL A   1      49.359  26.777  28.905  1.00  0.00     0.134 A 
ATOM     66  F   UNL A   1      47.969  25.675  32.074  1.00  0.00    -0.206 F 
ATOM     67  C   UNL A   1      50.143  25.455  31.218  1.00  0.00     0.040 A 
ATOM     68  C   UNL A   1      50.672  26.321  29.035  1.00  0.00     0.040 A 
ATOM     69  F   UNL A   1      49.027  27.418  27.773  1.00  0.00    -0.206 F 
ATOM     70  C   UNL A   1      51.070  25.666  30.198  1.00  0.00     0.006 A 
ENDBRANCH  49  63
BRANCH  50  71
ATOM     71  C   UNL A   1      38.800  29.157  29.122  1.00  0.00     0.057 A 
ATOM     72  C   UNL A   1      37.982  29.055  30.253  1.00  0.00     0.134 A 
ATOM     73  C   UNL A   1      38.217  29.636  27.943  1.00  0.00     0.134 A 
ATOM     74  F   UNL A   1      38.481  28.589  31.406  1.00  0.00    -0.206 F 
ATOM     75  C   UNL A   1      36.632  29.405  30.211  1.00  0.00     0.040 A 
ATOM     76  C   UNL A   1      36.873  30.012  27.892  1.00  0.00     0.040 A 
ATOM     77  F   UNL A   1      38.951  29.767  26.828  1.00  0.00    -0.206 F 
ATOM     78  C   UNL A   1      36.075  29.892  29.029  1.00  0.00     0.006 A 
ENDBRANCH  50  71
BRANCH  62  79
ATOM     79  C   UNL A   1      44.528  32.514  31.227  1.00  0.00     0.057 A 
ATOM     80  C   UNL A   1      44.779  33.592  30.369  1.00  0.00     0.134 A 
ATOM     81  C   UNL A   1      44.456  32.780  32.599  1.00  0.00     0.134 A 
ATOM     82  F   UNL A   1      44.874  33.400  29.045  1.00  0.00    -0.206 F 
ATOM     83  C   UNL A   1      44.973  34.884  30.861  1.00  0.00     0.040 A 
ATOM     84  C   UNL A   1      44.623  34.072  33.101  1.00  0.00     0.040 A 
ATOM     85  F   UNL A   1      44.210  31.793  33.475  1.00  0.00    -0.206 F 
ATOM     86  C   UNL A   1      44.889  35.127  32.231  1.00  0.00     0.006 A 
ENDBRANCH  62  79
ENDBRANCH  36  37
ENDBRANCH  28  31
ENDBRANCH  26  27
ENDBRANCH  25  26
ENDBRANCH   1  25
TORSDOF 13
ENDMDL
MODEL 2
REMARK VINA RESULT:     -11.5      4.100      9.011
REMARK SMILES C[N@H+](Cc1ccc(C(=O)NCCCNC(=O)c2ccc(-c3c4nc(c(-c5c(F)cccc5F)c5ccc([nH]5)c(-c5c(F)cccc5F)c5nc(c(-c6c(F)cccc6F)c6ccc3[nH]6)C=C5)C=C4)cc2)cc1)[C@H]1CC(C)(C)OC1(C)C
REMARK SMILES IDX 11 1 10 2 8 3 9 4 7 6 4 7 5 8 72 9 6 10 71 11 3 12 2 13 1 14
REMARK SMILES IDX 73 16 74 17 79 18 75 19 78 20 80 21 81 22 76 23 77 24 12 25
REMARK SMILES IDX 13 26 14 27 15 28 16 30 17 31 18 32 70 33 19 34 69 35 20 36
REMARK SMILES IDX 21 37 22 38 63 39 23 40 68 41 62 42 64 43 24 44 67 45 61 46
REMARK SMILES IDX 60 47 25 49 51 50 34 51 50 52 35 53 38 54 49 55 65 56 36 57
REMARK SMILES IDX 37 58 48 60 66 61 39 62 26 63 27 64 32 65 28 66 29 67 31 68
REMARK SMILES IDX 33 69 30 70 52 71 53 72 58 73 54 74 55 75 57 76 59 77 56 78
REMARK SMILES IDX 40 79 41 80 46 81 42 82 43 83 45 84 47 85 44 86
REMARK H PARENT 10 5 2 15 14 29 64 48 38 59
REMARK Flexibility Score: inf
ROOT
ATOM      1  C   UNL A   1      31.708  30.667  26.887  1.00  0.00     0.118 C 
ENDROOT
BRANCH   1   2
ATOM      2  N   UNL A   1      33.020  30.331  27.408  1.00  0.00    -0.352 N 
ATOM      3  C   UNL A   1      33.899  29.311  27.134  1.00  0.00     0.251 C 
ATOM      4  O   UNL A   1      34.982  29.341  27.722  1.00  0.00    -0.269 OA
ATOM      5  H   UNL A   1      33.344  30.959  28.093  1.00  0.00     0.163 HD
BRANCH   3   6
ATOM      6  C   UNL A   1      33.626  28.203  26.170  1.00  0.00     0.039 A 
ATOM      7  C   UNL A   1      33.206  26.171  24.223  1.00  0.00     0.006 A 
ATOM      8  C   UNL A   1      33.746  27.412  23.857  1.00  0.00     0.010 A 
ATOM      9  C   UNL A   1      32.842  25.990  25.558  1.00  0.00     0.010 A 
ATOM     10  C   UNL A   1      33.931  28.421  24.816  1.00  0.00     0.014 A 
ATOM     11  C   UNL A   1      33.118  26.957  26.521  1.00  0.00     0.014 A 
BRANCH   7  12
ATOM     12  C   UNL A   1      33.036  25.041  23.216  1.00  0.00     0.299 C 
BRANCH  12  13
ATOM     13  N   UNL A   1      32.522  23.780  23.791  1.00  0.00    -0.329 N 
ATOM     14  C   UNL A   1      31.163  23.481  23.299  1.00  0.00     0.333 C 
ATOM     15  H   UNL A   1      32.535  23.966  24.794  1.00  0.00     0.348 HD
BRANCH  13  16
ATOM     16  C   UNL A   1      33.358  22.571  23.567  1.00  0.00     0.218 C 
ATOM     17  C   UNL A   1      34.839  22.746  23.218  1.00  0.00     0.103 C 
ATOM     18  C   UNL A   1      33.475  21.664  24.845  1.00  0.00     0.115 C 
ATOM     19  C   UNL A   1      35.588  22.666  24.544  1.00  0.00     0.069 C 
ATOM     20  O   UNL A   1      34.733  21.991  25.476  1.00  0.00    -0.363 OA
ATOM     21  C   UNL A   1      32.402  21.819  25.929  1.00  0.00     0.048 C 
ATOM     22  C   UNL A   1      33.538  20.181  24.443  1.00  0.00     0.048 C 
ATOM     23  C   UNL A   1      36.866  21.834  24.414  1.00  0.00     0.042 C 
ATOM     24  C   UNL A   1      35.921  24.043  25.114  1.00  0.00     0.042 C 
ENDBRANCH  13  16
ENDBRANCH  12  13
ENDBRANCH   7  12
ENDBRANCH   3   6
ENDBRANCH   1   2
BRANCH   1  25
ATOM     25  C   UNL A   1      31.483  32.181  26.874  1.00  0.00     0.042 C 
BRANCH  25  26
ATOM     26  C   UNL A   1      32.784  32.973  26.935  1.00  0.00     0.118 C 
BRANCH  26  27
ATOM     27  N   UNL A   1      32.597  34.243  27.623  1.00  0.00    -0.352 N 
ATOM     28  C   UNL A   1      33.167  34.717  28.774  1.00  0.00     0.251 C 
ATOM     29  H   UNL A   1      31.960  34.857  27.192  1.00  0.00     0.163 HD
ATOM     30  O   UNL A   1      32.697  35.718  29.308  1.00  0.00    -0.269 OA
BRANCH  28  31
ATOM     31  C   UNL A   1      34.331  34.038  29.382  1.00  0.00     0.039 A 
ATOM     32  C   UNL A   1      35.612  34.422  28.974  1.00  0.00     0.014 A 
ATOM     33  C   UNL A   1      34.171  32.990  30.291  1.00  0.00     0.014 A 
ATOM     34  C   UNL A   1      36.732  33.780  29.503  1.00  0.00     0.010 A 
ATOM     35  C   UNL A   1      35.289  32.393  30.869  1.00  0.00     0.010 A 
ATOM     36  C   UNL A   1      36.579  32.775  30.470  1.00  0.00    -0.014 A 
BRANCH  36  37
ATOM     37  C   UNL A   1      37.761  32.110  31.070  1.00  0.00     0.031 A 
ATOM     38  C   UNL A   1      38.475  31.016  30.326  1.00  0.00     0.074 A 
ATOM     39  C   UNL A   1      38.147  32.449  32.314  1.00  0.00     0.049 A 
ATOM     40  N   UNL A   1      39.489  30.283  30.709  1.00  0.00    -0.248 NA
ATOM     41  C   UNL A   1      37.964  30.684  28.987  1.00  0.00     0.031 C 
ATOM     42  C   UNL A   1      37.494  33.453  33.155  1.00  0.00     0.029 A 
ATOM     43  N   UNL A   1      39.171  31.975  33.092  1.00  0.00    -0.354 N 
ATOM     44  C   UNL A   1      39.722  29.390  29.671  1.00  0.00     0.074 A 
ATOM     45  C   UNL A   1      38.718  29.644  28.662  1.00  0.00     0.031 C 
ATOM     46  C   UNL A   1      38.140  33.528  34.329  1.00  0.00     0.029 A 
ATOM     47  C   UNL A   1      39.231  32.557  34.334  1.00  0.00     0.049 A 
ATOM     48  H   UNL A   1      39.804  31.284  32.790  1.00  0.00     0.167 HD
ATOM     49  C   UNL A   1      40.697  28.454  29.565  1.00  0.00     0.037 A 
ATOM     50  C   UNL A   1      40.065  32.330  35.364  1.00  0.00     0.037 A 
ATOM     51  C   UNL A   1      41.710  28.228  30.561  1.00  0.00     0.049 A 
ATOM     52  C   UNL A   1      41.156  31.309  35.212  1.00  0.00     0.074 A 
ATOM     53  C   UNL A   1      42.793  27.368  30.511  1.00  0.00     0.029 A 
ATOM     54  N   UNL A   1      41.762  28.865  31.793  1.00  0.00    -0.354 N 
ATOM     55  N   UNL A   1      41.421  30.531  34.189  1.00  0.00    -0.248 NA
ATOM     56  C   UNL A   1      42.071  31.141  36.348  1.00  0.00     0.031 C 
ATOM     57  C   UNL A   1      43.474  27.452  31.731  1.00  0.00     0.029 A 
ATOM     58  C   UNL A   1      42.843  28.398  32.522  1.00  0.00     0.049 A 
ATOM     59  H   UNL A   1      41.124  29.548  32.103  1.00  0.00     0.167 HD
ATOM     60  C   UNL A   1      42.540  29.794  34.552  1.00  0.00     0.074 A 
ATOM     61  C   UNL A   1      42.915  30.231  35.881  1.00  0.00     0.031 C 
ATOM     62  C   UNL A   1      43.197  28.841  33.847  1.00  0.00     0.037 A 
BRANCH  49  63
ATOM     63  C   UNL A   1      40.707  27.605  28.328  1.00  0.00     0.057 A 
ATOM     64  C   UNL A   1      41.425  27.971  27.181  1.00  0.00     0.134 A 
ATOM     65  C   UNL A   1      40.007  26.393  28.288  1.00  0.00     0.134 A 
ATOM     66  F   UNL A   1      42.108  29.126  27.147  1.00  0.00    -0.206 F 
ATOM     67  C   UNL A   1      41.421  27.180  26.031  1.00  0.00     0.040 A 
ATOM     68  C   UNL A   1      40.017  25.579  27.154  1.00  0.00     0.040 A 
ATOM     69  F   UNL A   1      39.303  25.977  29.353  1.00  0.00    -0.206 F 
ATOM     70  C   UNL A   1      40.718  25.976  26.018  1.00  0.00     0.006 A 
ENDBRANCH  49  63
BRANCH  50  71
ATOM     71  C   UNL A   1      39.907  33.101  36.621  1.00  0.00     0.057 A 
ATOM     72  C   UNL A   1      40.655  34.261  36.856  1.00  0.00     0.134 A 
ATOM     73  C   UNL A   1      38.989  32.713  37.603  1.00  0.00     0.134 A 
ATOM     74  F   UNL A   1      41.560  34.674  35.957  1.00  0.00    -0.206 F 
ATOM     75  C   UNL A   1      40.503  35.001  38.029  1.00  0.00     0.040 A 
ATOM     76  C   UNL A   1      38.811  33.456  38.771  1.00  0.00     0.040 A 
ATOM     77  F   UNL A   1      38.235  31.617  37.432  1.00  0.00    -0.206 F 
ATOM     78  C   UNL A   1      39.574  34.603  38.989  1.00  0.00     0.006 A 
ENDBRANCH  50  71
BRANCH  62  79
ATOM     79  C   UNL A   1      44.399  28.220  34.496  1.00  0.00     0.057 A 
ATOM     80  C   UNL A   1      44.304  27.041  35.246  1.00  0.00     0.134 A 
ATOM     81  C   UNL A   1      45.668  28.788  34.338  1.00  0.00     0.134 A 
ATOM     82  F   UNL A   1      43.114  26.456  35.446  1.00  0.00    -0.206 F 
ATOM     83  C   UNL A   1      45.429  26.461  35.835  1.00  0.00     0.040 A 
ATOM     84  C   UNL A   1      46.804  28.204  34.901  1.00  0.00     0.040 A 
ATOM     85  F   UNL A   1      45.829  29.913  33.624  1.00  0.00    -0.206 F 
ATOM     86  C   UNL A   1      46.684  27.040  35.658  1.00  0.00     0.006 A 
ENDBRANCH  62  79
ENDBRANCH  36  37
ENDBRANCH  28  31
ENDBRANCH  26  27
ENDBRANCH  25  26
ENDBRANCH   1  25
TORSDOF 13
ENDMDL
MODEL 3
REMARK VINA RESULT:     -11.4      1.238      6.423
REMARK SMILES C[N@H+](Cc1ccc(C(=O)NCCCNC(=O)c2ccc(-c3c4nc(c(-c5c(F)cccc5F)c5ccc([nH]5)c(-c5c(F)cccc5F)c5nc(c(-c6c(F)cccc6F)c6ccc3[nH]6)C=C5)C=C4)cc2)cc1)[C@H]1CC(C)(C)OC1(C)C
REMARK SMILES IDX 11 1 10 2 8 3 9 4 7 6 4 7 5 8 72 9 6 10 71 11 3 12 2 13 1 14
REMARK SMILES IDX 73 16 74 17 79 18 75 19 78 20 80 21 81 22 76 23 77 24 12 25
REMARK SMILES IDX 13 26 14 27 15 28 16 30 17 31 18 32 70 33 19 34 69 35 20 36
REMARK SMILES IDX 21 37 22 38 63 39 23 40 68 41 62 42 64 43 24 44 67 45 61 46
REMARK SMILES IDX 60 47 25 49 51 50 34 51 50 52 35 53 38 54 49 55 65 56 36 57
REMARK SMILES IDX 37 58 48 60 66 61 39 62 26 63 27 64 32 65 28 66 29 67 31 68
REMARK SMILES IDX 33 69 30 70 52 71 53 72 58 73 54 74 55 75 57 76 59 77 56 78
REMARK SMILES IDX 40 79 41 80 46 81 42 82 43 83 45 84 47 85 44 86
REMARK H PARENT 10 5 2 15 14 29 64 48 38 59
REMARK Flexibility Score: inf
ROOT
ATOM      1  C   UNL A   1      36.801  20.663  24.593  1.00  0.00     0.118 C 
ENDROOT
BRANCH   1   2
ATOM      2  N   UNL A   1      35.562  20.514  25.332  1.00  0.00    -0.352 N 
ATOM      3  C   UNL A   1      34.394  21.238  25.351  1.00  0.00     0.251 C 
ATOM      4  O   UNL A   1      33.487  20.806  26.065  1.00  0.00    -0.269 OA
ATOM      5  H   UNL A   1      35.557  19.741  25.940  1.00  0.00     0.163 HD
BRANCH   3   6
ATOM      6  C   UNL A   1      34.164  22.482  24.556  1.00  0.00     0.039 A 
ATOM      7  C   UNL A   1      33.626  24.761  22.940  1.00  0.00     0.006 A 
ATOM      8  C   UNL A   1      33.334  23.471  22.477  1.00  0.00     0.010 A 
ATOM      9  C   UNL A   1      34.229  24.880  24.194  1.00  0.00     0.010 A 
ATOM     10  C   UNL A   1      33.623  22.346  23.267  1.00  0.00     0.014 A 
ATOM     11  C   UNL A   1      34.421  23.770  25.013  1.00  0.00     0.014 A 
BRANCH   7  12
ATOM     12  C   UNL A   1      33.284  26.003  22.128  1.00  0.00     0.299 C 
BRANCH  12  13
ATOM     13  N   UNL A   1      33.195  27.249  22.919  1.00  0.00    -0.329 N 
ATOM     14  C   UNL A   1      34.186  28.245  22.466  1.00  0.00     0.333 C 
ATOM     15  H   UNL A   1      33.381  26.928  23.869  1.00  0.00     0.348 HD
BRANCH  13  16
ATOM     16  C   UNL A   1      31.866  27.915  22.943  1.00  0.00     0.218 C 
ATOM     17  C   UNL A   1      30.626  27.113  22.536  1.00  0.00     0.103 C 
ATOM     18  C   UNL A   1      31.441  28.379  24.382  1.00  0.00     0.115 C 
ATOM     19  C   UNL A   1      30.050  26.557  23.834  1.00  0.00     0.069 C 
ATOM     20  O   UNL A   1      30.555  27.365  24.904  1.00  0.00    -0.363 OA
ATOM     21  C   UNL A   1      32.548  28.557  25.429  1.00  0.00     0.048 C 
ATOM     22  C   UNL A   1      30.640  29.690  24.306  1.00  0.00     0.048 C 
ATOM     23  C   UNL A   1      28.524  26.668  23.860  1.00  0.00     0.042 C 
ATOM     24  C   UNL A   1      30.469  25.110  24.089  1.00  0.00     0.042 C 
ENDBRANCH  13  16
ENDBRANCH  12  13
ENDBRANCH   7  12
ENDBRANCH   3   6
ENDBRANCH   1   2
BRANCH   1  25
ATOM     25  C   UNL A   1      37.812  19.577  24.972  1.00  0.00     0.042 C 
BRANCH  25  26
ATOM     26  C   UNL A   1      38.871  20.072  25.951  1.00  0.00     0.118 C 
BRANCH  26  27
ATOM     27  N   UNL A   1      40.064  19.239  25.902  1.00  0.00    -0.352 N 
ATOM     28  C   UNL A   1      41.382  19.573  26.070  1.00  0.00     0.251 C 
ATOM     29  H   UNL A   1      39.897  18.287  25.721  1.00  0.00     0.163 HD
ATOM     30  O   UNL A   1      42.250  18.763  25.757  1.00  0.00    -0.269 OA
BRANCH  28  31
ATOM     31  C   UNL A   1      41.769  20.892  26.612  1.00  0.00     0.039 A 
ATOM     32  C   UNL A   1      42.233  21.866  25.724  1.00  0.00     0.014 A 
ATOM     33  C   UNL A   1      41.743  21.153  27.985  1.00  0.00     0.014 A 
ATOM     34  C   UNL A   1      42.638  23.112  26.205  1.00  0.00     0.010 A 
ATOM     35  C   UNL A   1      42.084  22.417  28.459  1.00  0.00     0.010 A 
ATOM     36  C   UNL A   1      42.547  23.403  27.574  1.00  0.00    -0.014 A 
BRANCH  36  37
ATOM     37  C   UNL A   1      42.937  24.735  28.097  1.00  0.00     0.031 A 
ATOM     38  C   UNL A   1      41.889  25.777  28.375  1.00  0.00     0.074 A 
ATOM     39  C   UNL A   1      44.241  25.023  28.258  1.00  0.00     0.049 A 
ATOM     40  N   UNL A   1      42.040  27.012  28.781  1.00  0.00    -0.248 NA
ATOM     41  C   UNL A   1      40.491  25.389  28.137  1.00  0.00     0.031 C 
ATOM     42  C   UNL A   1      45.349  24.113  27.964  1.00  0.00     0.029 A 
ATOM     43  N   UNL A   1      44.856  26.169  28.692  1.00  0.00    -0.354 N 
ATOM     44  C   UNL A   1      40.762  27.553  28.825  1.00  0.00     0.074 A 
ATOM     45  C   UNL A   1      39.853  26.528  28.364  1.00  0.00     0.031 C 
ATOM     46  C   UNL A   1      46.508  24.732  28.236  1.00  0.00     0.029 A 
ATOM     47  C   UNL A   1      46.226  26.089  28.694  1.00  0.00     0.049 A 
ATOM     48  H   UNL A   1      44.362  26.973  28.976  1.00  0.00     0.167 HD
ATOM     49  C   UNL A   1      40.383  28.789  29.230  1.00  0.00     0.037 A 
ATOM     50  C   UNL A   1      47.153  27.009  29.018  1.00  0.00     0.037 A 
ATOM     51  C   UNL A   1      41.291  29.794  29.716  1.00  0.00     0.049 A 
ATOM     52  C   UNL A   1      46.706  28.362  29.493  1.00  0.00     0.074 A 
ATOM     53  C   UNL A   1      40.999  31.044  30.233  1.00  0.00     0.029 A 
ATOM     54  N   UNL A   1      42.672  29.664  29.739  1.00  0.00    -0.354 N 
ATOM     55  N   UNL A   1      45.488  28.833  29.615  1.00  0.00    -0.248 NA
ATOM     56  C   UNL A   1      47.760  29.308  29.887  1.00  0.00     0.031 C 
ATOM     57  C   UNL A   1      42.207  31.687  30.527  1.00  0.00     0.029 A 
ATOM     58  C   UNL A   1      43.249  30.821  30.237  1.00  0.00     0.049 A 
ATOM     59  H   UNL A   1      43.170  28.867  29.445  1.00  0.00     0.167 HD
ATOM     60  C   UNL A   1      45.627  30.122  30.113  1.00  0.00     0.074 A 
ATOM     61  C   UNL A   1      47.047  30.351  30.289  1.00  0.00     0.031 C 
ATOM     62  C   UNL A   1      44.665  31.033  30.399  1.00  0.00     0.037 A 
BRANCH  49  63
ATOM     63  C   UNL A   1      38.920  29.120  29.160  1.00  0.00     0.057 A 
ATOM     64  C   UNL A   1      38.082  29.025  30.279  1.00  0.00     0.134 A 
ATOM     65  C   UNL A   1      38.345  29.562  27.962  1.00  0.00     0.134 A 
ATOM     66  F   UNL A   1      38.566  28.597  31.456  1.00  0.00    -0.206 F 
ATOM     67  C   UNL A   1      36.722  29.325  30.202  1.00  0.00     0.040 A 
ATOM     68  C   UNL A   1      36.991  29.891  27.878  1.00  0.00     0.040 A 
ATOM     69  F   UNL A   1      39.090  29.683  26.852  1.00  0.00    -0.206 F 
ATOM     70  C   UNL A   1      36.173  29.766  28.999  1.00  0.00     0.006 A 
ENDBRANCH  49  63
BRANCH  50  71
ATOM     71  C   UNL A   1      48.592  26.666  28.923  1.00  0.00     0.057 A 
ATOM     72  C   UNL A   1      49.248  25.999  29.964  1.00  0.00     0.134 A 
ATOM     73  C   UNL A   1      49.340  26.974  27.780  1.00  0.00     0.134 A 
ATOM     74  F   UNL A   1      48.587  25.691  31.089  1.00  0.00    -0.206 F 
ATOM     75  C   UNL A   1      50.599  25.661  29.878  1.00  0.00     0.040 A 
ATOM     76  C   UNL A   1      50.686  26.621  27.671  1.00  0.00     0.040 A 
ATOM     77  F   UNL A   1      48.766  27.602  26.744  1.00  0.00    -0.206 F 
ATOM     78  C   UNL A   1      51.320  25.965  28.725  1.00  0.00     0.006 A 
ENDBRANCH  50  71
BRANCH  62  79
ATOM     79  C   UNL A   1      45.118  32.354  30.947  1.00  0.00     0.057 A 
ATOM     80  C   UNL A   1      45.301  32.558  32.321  1.00  0.00     0.134 A 
ATOM     81  C   UNL A   1      45.409  33.420  30.088  1.00  0.00     0.134 A 
ATOM     82  F   UNL A   1      45.026  31.580  33.196  1.00  0.00    -0.206 F 
ATOM     83  C   UNL A   1      45.737  33.785  32.822  1.00  0.00     0.040 A 
ATOM     84  C   UNL A   1      45.869  34.644  30.575  1.00  0.00     0.040 A 
ATOM     85  F   UNL A   1      45.263  33.287  28.761  1.00  0.00    -0.206 F 
ATOM     86  C   UNL A   1      46.028  34.831  31.948  1.00  0.00     0.006 A 
ENDBRANCH  62  79
ENDBRANCH  36  37
ENDBRANCH  28  31
ENDBRANCH  26  27
ENDBRANCH  25  26
ENDBRANCH   1  25
TORSDOF 13
ENDMDL
