MODEL 1
REMARK VINA RESULT:     -12.2      0.000      0.000
REMARK SMILES NC(=O)CC[C@H](C(=O)NCCCNC(=O)c1ccc(-c2c3nc(c(-c4c(F)cccc4F)c4ccc([nH]4)c(-c4c(F)cccc4F)c4nc(c(-c5c(F)cccc5F)c5ccc2[nH]5)C=C4)C=C3)cc1)N1C(=O)/C(=C/c2ccc(O)c(O)c2)SC1=S
REMARK SMILES IDX 10 1 9 2 7 3 8 4 6 6 5 7 4 8 2 9 1 10 3 13 70 14 71 15 84 16
REMARK SMILES IDX 72 17 73 18 83 19 85 20 74 21 75 22 76 23 82 24 77 25 80 26
REMARK SMILES IDX 78 27 81 28 79 30 11 32 12 33 13 34 14 35 15 37 16 38 17 39
REMARK SMILES IDX 69 40 18 41 68 42 19 43 20 44 21 45 62 46 22 47 67 48 61 49
REMARK SMILES IDX 63 50 23 51 66 52 60 53 59 54 24 56 50 57 33 58 49 59 34 60
REMARK SMILES IDX 37 61 48 62 64 63 35 64 36 65 47 67 65 68 38 69 25 70 26 71
REMARK SMILES IDX 31 72 27 73 28 74 30 75 32 76 29 77 51 78 52 79 57 80 53 81
REMARK SMILES IDX 54 82 56 83 58 84 55 85 39 86 40 87 45 88 41 89 42 90 44 91
REMARK SMILES IDX 46 92 43 93
REMARK H PARENT 9 5 1 11 1 12 81 29 79 31 13 36 63 55 37 66
REMARK Flexibility Score: inf
ROOT
ATOM      1  C   UNL A   1      36.780  20.988  24.667  1.00  0.00     0.117 C 
ENDROOT
BRANCH   1   2
ATOM      2  N   UNL A   1      35.880  20.923  25.808  1.00  0.00    -0.354 N 
ATOM      3  C   UNL A   1      34.625  21.436  25.966  1.00  0.00     0.243 C 
ATOM      4  O   UNL A   1      34.234  21.579  27.124  1.00  0.00    -0.273 OA
ATOM      5  H   UNL A   1      36.230  20.434  26.588  1.00  0.00     0.163 HD
BRANCH   3   6
ATOM      6  C   UNL A   1      33.759  21.778  24.743  1.00  0.00     0.181 C 
BRANCH   6   7
ATOM      7  C   UNL A   1      32.846  20.637  24.258  1.00  0.00     0.045 C 
BRANCH   7   8
ATOM      8  C   UNL A   1      33.463  19.239  24.390  1.00  0.00     0.102 C 
BRANCH   8   9
ATOM      9  C   UNL A   1      32.675  18.383  25.360  1.00  0.00     0.217 C 
ATOM     10  N   UNL A   1      32.859  18.657  26.678  1.00  0.00    -0.370 N 
ATOM     11  H   UNL A   1      32.377  18.138  27.361  1.00  0.00     0.159 HD
ATOM     12  H   UNL A   1      33.475  19.376  26.950  1.00  0.00     0.159 HD
ATOM     13  O   UNL A   1      31.903  17.503  24.998  1.00  0.00    -0.275 OA
ENDBRANCH   8   9
ENDBRANCH   7   8
ENDBRANCH   6   7
BRANCH   6  14
ATOM     14  N   UNL A   1      33.124  23.090  24.998  1.00  0.00    -0.280 N 
ATOM     15  C   UNL A   1      33.907  24.209  24.737  1.00  0.00     0.266 C 
ATOM     16  C   UNL A   1      31.914  23.336  25.626  1.00  0.00     0.149 C 
ATOM     17  O   UNL A   1      35.045  24.200  24.282  1.00  0.00    -0.268 OA
ATOM     18  C   UNL A   1      33.209  25.452  25.140  1.00  0.00     0.081 C 
ATOM     19  S   UNL A   1      31.690  25.073  25.828  1.00  0.00    -0.054 SA
ATOM     20  S   UNL A   1      30.735  22.294  26.171  1.00  0.00    -0.052 S 
ATOM     21  C   UNL A   1      33.755  26.666  24.983  1.00  0.00     0.029 C 
BRANCH  21  22
ATOM     22  C   UNL A   1      33.134  27.913  25.441  1.00  0.00    -0.020 A 
ATOM     23  C   UNL A   1      33.571  28.522  26.626  1.00  0.00     0.012 A 
ATOM     24  C   UNL A   1      32.122  28.513  24.677  1.00  0.00     0.058 A 
ATOM     25  C   UNL A   1      33.016  29.736  27.037  1.00  0.00     0.051 A 
ATOM     26  C   UNL A   1      31.584  29.725  25.089  1.00  0.00     0.157 A 
ATOM     27  C   UNL A   1      32.032  30.330  26.260  1.00  0.00     0.157 A 
BRANCH  26  28
ATOM     28  O   UNL A   1      30.617  30.369  24.368  1.00  0.00    -0.504 OA
ATOM     29  H   UNL A   1      29.765  29.990  24.283  1.00  0.00     0.293 HD
ENDBRANCH  26  28
BRANCH  27  30
ATOM     30  O   UNL A   1      31.505  31.527  26.649  1.00  0.00    -0.504 OA
ATOM     31  H   UNL A   1      31.195  31.641  27.527  1.00  0.00     0.293 HD
ENDBRANCH  27  30
ENDBRANCH  21  22
ENDBRANCH   6  14
ENDBRANCH   3   6
ENDBRANCH   1   2
BRANCH   1  32
ATOM     32  C   UNL A   1      37.872  19.932  24.783  1.00  0.00     0.042 C 
BRANCH  32  33
ATOM     33  C   UNL A   1      38.907  20.248  25.857  1.00  0.00     0.118 C 
BRANCH  33  34
ATOM     34  N   UNL A   1      40.042  19.335  25.823  1.00  0.00    -0.352 N 
ATOM     35  C   UNL A   1      41.376  19.597  26.019  1.00  0.00     0.251 C 
ATOM     36  H   UNL A   1      39.820  18.395  25.631  1.00  0.00     0.163 HD
ATOM     37  O   UNL A   1      42.214  18.748  25.749  1.00  0.00    -0.269 OA
BRANCH  35  38
ATOM     38  C   UNL A   1      41.790  20.914  26.543  1.00  0.00     0.039 A 
ATOM     39  C   UNL A   1      42.258  21.882  25.654  1.00  0.00     0.014 A 
ATOM     40  C   UNL A   1      41.710  21.188  27.911  1.00  0.00     0.014 A 
ATOM     41  C   UNL A   1      42.590  23.151  26.131  1.00  0.00     0.010 A 
ATOM     42  C   UNL A   1      41.956  22.476  28.371  1.00  0.00     0.010 A 
ATOM     43  C   UNL A   1      42.411  23.467  27.488  1.00  0.00    -0.014 A 
BRANCH  43  44
ATOM     44  C   UNL A   1      42.710  24.823  28.011  1.00  0.00     0.031 A 
ATOM     45  C   UNL A   1      44.122  25.191  28.377  1.00  0.00     0.074 A 
ATOM     46  C   UNL A   1      41.706  25.697  28.219  1.00  0.00     0.049 A 
ATOM     47  N   UNL A   1      44.576  26.291  28.919  1.00  0.00    -0.248 NA
ATOM     48  C   UNL A   1      45.156  24.173  28.130  1.00  0.00     0.031 C 
ATOM     49  C   UNL A   1      40.289  25.440  27.950  1.00  0.00     0.029 A 
ATOM     50  N   UNL A   1      41.724  26.976  28.714  1.00  0.00    -0.354 N 
ATOM     51  C   UNL A   1      45.940  26.090  29.093  1.00  0.00     0.074 A 
ATOM     52  C   UNL A   1      46.229  24.742  28.658  1.00  0.00     0.031 C 
ATOM     53  C   UNL A   1      39.578  26.537  28.259  1.00  0.00     0.029 A 
ATOM     54  C   UNL A   1      40.480  27.557  28.784  1.00  0.00     0.049 A 
ATOM     55  H   UNL A   1      42.548  27.434  28.994  1.00  0.00     0.167 HD
ATOM     56  C   UNL A   1      46.872  26.959  29.549  1.00  0.00     0.037 A 
ATOM     57  C   UNL A   1      40.110  28.774  29.225  1.00  0.00     0.037 A 
ATOM     58  C   UNL A   1      46.584  28.309  29.956  1.00  0.00     0.049 A 
ATOM     59  C   UNL A   1      41.165  29.721  29.729  1.00  0.00     0.074 A 
ATOM     60  C   UNL A   1      47.465  29.288  30.379  1.00  0.00     0.029 A 
ATOM     61  N   UNL A   1      45.315  28.868  29.991  1.00  0.00    -0.354 N 
ATOM     62  N   UNL A   1      42.460  29.541  29.826  1.00  0.00    -0.248 NA
ATOM     63  C   UNL A   1      40.706  31.042  30.178  1.00  0.00     0.031 C 
ATOM     64  C   UNL A   1      46.724  30.427  30.712  1.00  0.00     0.029 A 
ATOM     65  C   UNL A   1      45.387  30.173  30.447  1.00  0.00     0.049 A 
ATOM     66  H   UNL A   1      44.486  28.406  29.729  1.00  0.00     0.167 HD
ATOM     67  C   UNL A   1      42.974  30.735  30.315  1.00  0.00     0.074 A 
ATOM     68  C   UNL A   1      41.852  31.635  30.483  1.00  0.00     0.031 C 
ATOM     69  C   UNL A   1      44.260  31.059  30.598  1.00  0.00     0.037 A 
BRANCH  56  70
ATOM     70  C   UNL A   1      48.291  26.473  29.627  1.00  0.00     0.057 A 
ATOM     71  C   UNL A   1      49.194  26.654  28.570  1.00  0.00     0.134 A 
ATOM     72  C   UNL A   1      48.768  25.838  30.780  1.00  0.00     0.134 A 
ATOM     73  F   UNL A   1      48.799  27.242  27.431  1.00  0.00    -0.206 F 
ATOM     74  C   UNL A   1      50.509  26.193  28.646  1.00  0.00     0.040 A 
ATOM     75  C   UNL A   1      50.090  25.400  30.879  1.00  0.00     0.040 A 
ATOM     76  F   UNL A   1      47.960  25.637  31.832  1.00  0.00    -0.206 F 
ATOM     77  C   UNL A   1      50.963  25.570  29.806  1.00  0.00     0.006 A 
ENDBRANCH  56  70
BRANCH  57  78
ATOM     78  C   UNL A   1      38.682  29.178  29.185  1.00  0.00     0.057 A 
ATOM     79  C   UNL A   1      38.103  29.664  28.007  1.00  0.00     0.134 A 
ATOM     80  C   UNL A   1      37.865  29.098  30.320  1.00  0.00     0.134 A 
ATOM     81  F   UNL A   1      38.839  29.779  26.892  1.00  0.00    -0.206 F 
ATOM     82  C   UNL A   1      36.770  30.077  27.963  1.00  0.00     0.040 A 
ATOM     83  C   UNL A   1      36.524  29.484  30.282  1.00  0.00     0.040 A 
ATOM     84  F   UNL A   1      38.357  28.632  31.477  1.00  0.00    -0.206 F 
ATOM     85  C   UNL A   1      35.976  29.982  29.103  1.00  0.00     0.006 A 
ENDBRANCH  57  78
BRANCH  69  86
ATOM     86  C   UNL A   1      44.528  32.455  31.076  1.00  0.00     0.057 A 
ATOM     87  C   UNL A   1      44.768  33.511  30.188  1.00  0.00     0.134 A 
ATOM     88  C   UNL A   1      44.507  32.754  32.445  1.00  0.00     0.134 A 
ATOM     89  F   UNL A   1      44.814  33.290  28.865  1.00  0.00    -0.206 F 
ATOM     90  C   UNL A   1      45.003  34.810  30.645  1.00  0.00     0.040 A 
ATOM     91  C   UNL A   1      44.710  34.053  32.912  1.00  0.00     0.040 A 
ATOM     92  F   UNL A   1      44.273  31.791  33.349  1.00  0.00    -0.206 F 
ATOM     93  C   UNL A   1      44.966  35.084  32.011  1.00  0.00     0.006 A 
ENDBRANCH  69  86
ENDBRANCH  43  44
ENDBRANCH  35  38
ENDBRANCH  33  34
ENDBRANCH  32  33
ENDBRANCH   1  32
TORSDOF 17
ENDMDL
MODEL 2
REMARK VINA RESULT:     -12.2      3.618      9.170
REMARK SMILES NC(=O)CC[C@H](C(=O)NCCCNC(=O)c1ccc(-c2c3nc(c(-c4c(F)cccc4F)c4ccc([nH]4)c(-c4c(F)cccc4F)c4nc(c(-c5c(F)cccc5F)c5ccc2[nH]5)C=C4)C=C3)cc1)N1C(=O)/C(=C/c2ccc(O)c(O)c2)SC1=S
REMARK SMILES IDX 10 1 9 2 7 3 8 4 6 6 5 7 4 8 2 9 1 10 3 13 70 14 71 15 84 16
REMARK SMILES IDX 72 17 73 18 83 19 85 20 74 21 75 22 76 23 82 24 77 25 80 26
REMARK SMILES IDX 78 27 81 28 79 30 11 32 12 33 13 34 14 35 15 37 16 38 17 39
REMARK SMILES IDX 69 40 18 41 68 42 19 43 20 44 21 45 62 46 22 47 67 48 61 49
REMARK SMILES IDX 63 50 23 51 66 52 60 53 59 54 24 56 50 57 33 58 49 59 34 60
REMARK SMILES IDX 37 61 48 62 64 63 35 64 36 65 47 67 65 68 38 69 25 70 26 71
REMARK SMILES IDX 31 72 27 73 28 74 30 75 32 76 29 77 51 78 52 79 57 80 53 81
REMARK SMILES IDX 54 82 56 83 58 84 55 85 39 86 40 87 45 88 41 89 42 90 44 91
REMARK SMILES IDX 46 92 43 93
REMARK H PARENT 9 5 1 11 1 12 81 29 79 31 13 36 63 55 37 66
REMARK Flexibility Score: inf
ROOT
ATOM      1  C   UNL A   1      31.743  30.207  26.345  1.00  0.00     0.117 C 
ENDROOT
BRANCH   1   2
ATOM      2  N   UNL A   1      32.290  30.087  25.002  1.00  0.00    -0.354 N 
ATOM      3  C   UNL A   1      32.349  29.004  24.173  1.00  0.00     0.243 C 
ATOM      4  O   UNL A   1      33.181  29.052  23.268  1.00  0.00    -0.273 OA
ATOM      5  H   UNL A   1      32.679  30.913  24.634  1.00  0.00     0.163 HD
BRANCH   3   6
ATOM      6  C   UNL A   1      31.391  27.817  24.364  1.00  0.00     0.181 C 
BRANCH   6   7
ATOM      7  C   UNL A   1      30.059  27.932  23.602  1.00  0.00     0.045 C 
BRANCH   7   8
ATOM      8  C   UNL A   1      29.548  29.369  23.440  1.00  0.00     0.102 C 
BRANCH   8   9
ATOM      9  C   UNL A   1      29.549  29.790  21.985  1.00  0.00     0.217 C 
ATOM     10  N   UNL A   1      30.758  30.134  21.468  1.00  0.00    -0.370 N 
ATOM     11  H   UNL A   1      30.829  30.416  20.528  1.00  0.00     0.159 HD
ATOM     12  H   UNL A   1      31.563  30.100  22.035  1.00  0.00     0.159 HD
ATOM     13  O   UNL A   1      28.537  29.811  21.295  1.00  0.00    -0.275 OA
ENDBRANCH   8   9
ENDBRANCH   7   8
ENDBRANCH   6   7
BRANCH   6  14
ATOM     14  N   UNL A   1      32.174  26.576  24.176  1.00  0.00    -0.280 N 
ATOM     15  C   UNL A   1      32.862  26.112  25.291  1.00  0.00     0.266 C 
ATOM     16  C   UNL A   1      32.443  25.919  22.987  1.00  0.00     0.149 C 
ATOM     17  O   UNL A   1      32.843  26.615  26.409  1.00  0.00    -0.268 OA
ATOM     18  C   UNL A   1      33.698  24.938  24.950  1.00  0.00     0.081 C 
ATOM     19  S   UNL A   1      33.556  24.583  23.282  1.00  0.00    -0.054 SA
ATOM     20  S   UNL A   1      31.900  26.198  21.437  1.00  0.00    -0.052 S 
ATOM     21  C   UNL A   1      34.454  24.304  25.858  1.00  0.00     0.029 C 
BRANCH  21  22
ATOM     22  C   UNL A   1      35.356  23.191  25.546  1.00  0.00    -0.020 A 
ATOM     23  C   UNL A   1      36.734  23.417  25.418  1.00  0.00     0.012 A 
ATOM     24  C   UNL A   1      34.843  21.893  25.404  1.00  0.00     0.058 A 
ATOM     25  C   UNL A   1      37.600  22.349  25.172  1.00  0.00     0.051 A 
ATOM     26  C   UNL A   1      35.713  20.838  25.169  1.00  0.00     0.157 A 
ATOM     27  C   UNL A   1      37.082  21.068  25.056  1.00  0.00     0.157 A 
BRANCH  26  28
ATOM     28  O   UNL A   1      35.272  19.548  25.052  1.00  0.00    -0.504 OA
ATOM     29  H   UNL A   1      35.528  18.907  25.684  1.00  0.00     0.293 HD
ENDBRANCH  26  28
BRANCH  27  30
ATOM     30  O   UNL A   1      37.930  20.021  24.838  1.00  0.00    -0.504 OA
ATOM     31  H   UNL A   1      38.855  20.167  24.800  1.00  0.00     0.293 HD
ENDBRANCH  27  30
ENDBRANCH  21  22
ENDBRANCH   6  14
ENDBRANCH   3   6
ENDBRANCH   1   2
BRANCH   1  32
ATOM     32  C   UNL A   1      31.512  31.670  26.701  1.00  0.00     0.042 C 
BRANCH  32  33
ATOM     33  C   UNL A   1      32.781  32.395  27.135  1.00  0.00     0.118 C 
BRANCH  33  34
ATOM     34  N   UNL A   1      32.521  33.761  27.570  1.00  0.00    -0.352 N 
ATOM     35  C   UNL A   1      33.168  34.509  28.524  1.00  0.00     0.251 C 
ATOM     36  H   UNL A   1      31.774  34.213  27.116  1.00  0.00     0.163 HD
ATOM     37  O   UNL A   1      32.686  35.565  28.907  1.00  0.00    -0.269 OA
BRANCH  35  38
ATOM     38  C   UNL A   1      34.441  34.019  29.092  1.00  0.00     0.039 A 
ATOM     39  C   UNL A   1      34.411  33.227  30.240  1.00  0.00     0.014 A 
ATOM     40  C   UNL A   1      35.658  34.344  28.486  1.00  0.00     0.014 A 
ATOM     41  C   UNL A   1      35.604  32.707  30.747  1.00  0.00     0.010 A 
ATOM     42  C   UNL A   1      36.831  33.754  28.939  1.00  0.00     0.010 A 
ATOM     43  C   UNL A   1      36.819  32.940  30.081  1.00  0.00    -0.014 A 
BRANCH  43  44
ATOM     44  C   UNL A   1      38.092  32.358  30.572  1.00  0.00     0.031 A 
ATOM     45  C   UNL A   1      38.616  31.085  29.968  1.00  0.00     0.074 A 
ATOM     46  C   UNL A   1      38.739  32.937  31.601  1.00  0.00     0.049 A 
ATOM     47  N   UNL A   1      39.664  30.378  30.307  1.00  0.00    -0.248 NA
ATOM     48  C   UNL A   1      37.841  30.511  28.856  1.00  0.00     0.031 C 
ATOM     49  C   UNL A   1      38.305  34.147  32.303  1.00  0.00     0.029 A 
ATOM     50  N   UNL A   1      39.897  32.578  32.244  1.00  0.00    -0.354 N 
ATOM     51  C   UNL A   1      39.662  29.273  29.465  1.00  0.00     0.074 A 
ATOM     52  C   UNL A   1      38.476  29.369  28.642  1.00  0.00     0.031 C 
ATOM     53  C   UNL A   1      39.199  34.444  33.261  1.00  0.00     0.029 A 
ATOM     54  C   UNL A   1      40.245  33.427  33.267  1.00  0.00     0.049 A 
ATOM     55  H   UNL A   1      40.428  31.788  31.996  1.00  0.00     0.167 HD
ATOM     56  C   UNL A   1      40.578  28.282  29.366  1.00  0.00     0.037 A 
ATOM     57  C   UNL A   1      41.288  33.385  34.117  1.00  0.00     0.037 A 
ATOM     58  C   UNL A   1      41.770  28.204  30.169  1.00  0.00     0.049 A 
ATOM     59  C   UNL A   1      42.292  32.272  33.990  1.00  0.00     0.074 A 
ATOM     60  C   UNL A   1      42.791  27.273  30.109  1.00  0.00     0.029 A 
ATOM     61  N   UNL A   1      42.099  29.095  31.180  1.00  0.00    -0.354 N 
ATOM     62  N   UNL A   1      42.313  31.270  33.144  1.00  0.00    -0.248 NA
ATOM     63  C   UNL A   1      43.420  32.289  34.930  1.00  0.00     0.031 C 
ATOM     64  C   UNL A   1      43.716  27.574  31.113  1.00  0.00     0.029 A 
ATOM     65  C   UNL A   1      43.298  28.724  31.764  1.00  0.00     0.049 A 
ATOM     66  H   UNL A   1      41.560  29.876  31.443  1.00  0.00     0.167 HD
ATOM     67  C   UNL A   1      43.470  30.557  33.428  1.00  0.00     0.074 A 
ATOM     68  C   UNL A   1      44.130  31.249  34.515  1.00  0.00     0.031 C 
ATOM     69  C   UNL A   1      43.946  29.431  32.840  1.00  0.00     0.037 A 
BRANCH  56  70
ATOM     70  C   UNL A   1      40.326  27.204  28.352  1.00  0.00     0.057 A 
ATOM     71  C   UNL A   1      40.893  27.246  27.070  1.00  0.00     0.134 A 
ATOM     72  C   UNL A   1      39.525  26.098  28.664  1.00  0.00     0.134 A 
ATOM     73  F   UNL A   1      41.658  28.285  26.699  1.00  0.00    -0.206 F 
ATOM     74  C   UNL A   1      40.648  26.246  26.128  1.00  0.00     0.040 A 
ATOM     75  C   UNL A   1      39.297  25.076  27.741  1.00  0.00     0.040 A 
ATOM     76  F   UNL A   1      38.955  25.990  29.874  1.00  0.00    -0.206 F 
ATOM     77  C   UNL A   1      39.854  25.153  26.465  1.00  0.00     0.006 A 
ENDBRANCH  56  70
BRANCH  57  78
ATOM     78  C   UNL A   1      41.454  34.443  35.145  1.00  0.00     0.057 A 
ATOM     79  C   UNL A   1      42.187  35.604  34.874  1.00  0.00     0.134 A 
ATOM     80  C   UNL A   1      40.893  34.319  36.423  1.00  0.00     0.134 A 
ATOM     81  F   UNL A   1      42.762  35.773  33.674  1.00  0.00    -0.206 F 
ATOM     82  C   UNL A   1      42.377  36.593  35.841  1.00  0.00     0.040 A 
ATOM     83  C   UNL A   1      41.054  35.312  37.391  1.00  0.00     0.040 A 
ATOM     84  F   UNL A   1      40.170  33.236  36.743  1.00  0.00    -0.206 F 
ATOM     85  C   UNL A   1      41.804  36.449  37.102  1.00  0.00     0.006 A 
ENDBRANCH  57  78
BRANCH  69  86
ATOM     86  C   UNL A   1      45.262  28.903  33.331  1.00  0.00     0.057 A 
ATOM     87  C   UNL A   1      46.482  29.338  32.798  1.00  0.00     0.134 A 
ATOM     88  C   UNL A   1      45.309  27.974  34.378  1.00  0.00     0.134 A 
ATOM     89  F   UNL A   1      46.506  30.218  31.784  1.00  0.00    -0.206 F 
ATOM     90  C   UNL A   1      47.700  28.849  33.272  1.00  0.00     0.040 A 
ATOM     91  C   UNL A   1      46.520  27.500  34.881  1.00  0.00     0.040 A 
ATOM     92  F   UNL A   1      44.176  27.522  34.940  1.00  0.00    -0.206 F 
ATOM     93  C   UNL A   1      47.721  27.933  34.323  1.00  0.00     0.006 A 
ENDBRANCH  69  86
ENDBRANCH  43  44
ENDBRANCH  35  38
ENDBRANCH  33  34
ENDBRANCH  32  33
ENDBRANCH   1  32
TORSDOF 17
ENDMDL
MODEL 3
REMARK VINA RESULT:     -12.0      0.611      6.113
REMARK SMILES NC(=O)CC[C@H](C(=O)NCCCNC(=O)c1ccc(-c2c3nc(c(-c4c(F)cccc4F)c4ccc([nH]4)c(-c4c(F)cccc4F)c4nc(c(-c5c(F)cccc5F)c5ccc2[nH]5)C=C4)C=C3)cc1)N1C(=O)/C(=C/c2ccc(O)c(O)c2)SC1=S
REMARK SMILES IDX 10 1 9 2 7 3 8 4 6 6 5 7 4 8 2 9 1 10 3 13 70 14 71 15 84 16
REMARK SMILES IDX 72 17 73 18 83 19 85 20 74 21 75 22 76 23 82 24 77 25 80 26
REMARK SMILES IDX 78 27 81 28 79 30 11 32 12 33 13 34 14 35 15 37 16 38 17 39
REMARK SMILES IDX 69 40 18 41 68 42 19 43 20 44 21 45 62 46 22 47 67 48 61 49
REMARK SMILES IDX 63 50 23 51 66 52 60 53 59 54 24 56 50 57 33 58 49 59 34 60
REMARK SMILES IDX 37 61 48 62 64 63 35 64 36 65 47 67 65 68 38 69 25 70 26 71
REMARK SMILES IDX 31 72 27 73 28 74 30 75 32 76 29 77 51 78 52 79 57 80 53 81
REMARK SMILES IDX 54 82 56 83 58 84 55 85 39 86 40 87 45 88 41 89 42 90 44 91
REMARK SMILES IDX 46 92 43 93
REMARK H PARENT 9 5 1 11 1 12 81 29 79 31 13 36 63 55 37 66
REMARK Flexibility Score: inf
ROOT
ATOM      1  C   UNL A   1      36.319  21.161  24.935  1.00  0.00     0.117 C 
ENDROOT
BRANCH   1   2
ATOM      2  N   UNL A   1      35.546  21.088  26.165  1.00  0.00    -0.354 N 
ATOM      3  C   UNL A   1      34.287  21.540  26.438  1.00  0.00     0.243 C 
ATOM      4  O   UNL A   1      34.009  21.701  27.625  1.00  0.00    -0.273 OA
ATOM      5  H   UNL A   1      36.001  20.645  26.918  1.00  0.00     0.163 HD
BRANCH   3   6
ATOM      6  C   UNL A   1      33.282  21.793  25.303  1.00  0.00     0.181 C 
BRANCH   6   7
ATOM      7  C   UNL A   1      32.275  20.654  25.065  1.00  0.00     0.045 C 
BRANCH   7   8
ATOM      8  C   UNL A   1      32.808  19.516  24.184  1.00  0.00     0.102 C 
BRANCH   8   9
ATOM      9  C   UNL A   1      33.439  18.425  25.024  1.00  0.00     0.217 C 
ATOM     10  N   UNL A   1      32.845  18.177  26.220  1.00  0.00    -0.370 N 
ATOM     11  H   UNL A   1      33.205  17.480  26.814  1.00  0.00     0.159 HD
ATOM     12  H   UNL A   1      32.053  18.696  26.493  1.00  0.00     0.159 HD
ATOM     13  O   UNL A   1      34.416  17.783  24.658  1.00  0.00    -0.275 OA
ENDBRANCH   8   9
ENDBRANCH   7   8
ENDBRANCH   6   7
BRANCH   6  14
ATOM     14  N   UNL A   1      32.733  23.154  25.488  1.00  0.00    -0.280 N 
ATOM     15  C   UNL A   1      33.587  24.206  25.175  1.00  0.00     0.266 C 
ATOM     16  C   UNL A   1      31.539  23.508  26.095  1.00  0.00     0.149 C 
ATOM     17  O   UNL A   1      34.723  24.101  24.729  1.00  0.00    -0.268 OA
ATOM     18  C   UNL A   1      32.969  25.510  25.511  1.00  0.00     0.081 C 
ATOM     19  S   UNL A   1      31.426  25.264  26.209  1.00  0.00    -0.054 SA
ATOM     20  S   UNL A   1      30.294  22.572  26.685  1.00  0.00    -0.052 S 
ATOM     21  C   UNL A   1      33.592  26.677  25.298  1.00  0.00     0.029 C 
BRANCH  21  22
ATOM     22  C   UNL A   1      33.052  27.982  25.689  1.00  0.00    -0.020 A 
ATOM     23  C   UNL A   1      33.558  28.644  26.817  1.00  0.00     0.012 A 
ATOM     24  C   UNL A   1      32.047  28.584  24.917  1.00  0.00     0.058 A 
ATOM     25  C   UNL A   1      33.080  29.910  27.162  1.00  0.00     0.051 A 
ATOM     26  C   UNL A   1      31.586  29.847  25.262  1.00  0.00     0.157 A 
ATOM     27  C   UNL A   1      32.102  30.503  26.377  1.00  0.00     0.157 A 
BRANCH  26  28
ATOM     28  O   UNL A   1      30.630  30.494  24.528  1.00  0.00    -0.504 OA
ATOM     29  H   UNL A   1      30.580  31.429  24.543  1.00  0.00     0.293 HD
ENDBRANCH  26  28
BRANCH  27  30
ATOM     30  O   UNL A   1      31.651  31.750  26.699  1.00  0.00    -0.504 OA
ATOM     31  H   UNL A   1      30.731  31.931  26.696  1.00  0.00     0.293 HD
ENDBRANCH  27  30
ENDBRANCH  21  22
ENDBRANCH   6  14
ENDBRANCH   3   6
ENDBRANCH   1   2
BRANCH   1  32
ATOM     32  C   UNL A   1      37.430  20.118  24.935  1.00  0.00     0.042 C 
BRANCH  32  33
ATOM     33  C   UNL A   1      38.669  20.554  25.709  1.00  0.00     0.118 C 
BRANCH  33  34
ATOM     34  N   UNL A   1      39.676  19.505  25.784  1.00  0.00    -0.352 N 
ATOM     35  C   UNL A   1      41.016  19.603  26.070  1.00  0.00     0.251 C 
ATOM     36  H   UNL A   1      39.349  18.593  25.604  1.00  0.00     0.163 HD
ATOM     37  O   UNL A   1      41.755  18.646  25.887  1.00  0.00    -0.269 OA
BRANCH  35  38
ATOM     38  C   UNL A   1      41.559  20.877  26.586  1.00  0.00     0.039 A 
ATOM     39  C   UNL A   1      42.034  21.827  25.681  1.00  0.00     0.014 A 
ATOM     40  C   UNL A   1      41.592  21.127  27.960  1.00  0.00     0.014 A 
ATOM     41  C   UNL A   1      42.488  23.059  26.155  1.00  0.00     0.010 A 
ATOM     42  C   UNL A   1      41.961  22.384  28.422  1.00  0.00     0.010 A 
ATOM     43  C   UNL A   1      42.425  23.359  27.526  1.00  0.00    -0.014 A 
BRANCH  43  44
ATOM     44  C   UNL A   1      42.856  24.679  28.049  1.00  0.00     0.031 A 
ATOM     45  C   UNL A   1      41.832  25.742  28.336  1.00  0.00     0.074 A 
ATOM     46  C   UNL A   1      44.168  24.942  28.202  1.00  0.00     0.049 A 
ATOM     47  N   UNL A   1      42.010  26.980  28.721  1.00  0.00    -0.248 NA
ATOM     48  C   UNL A   1      40.421  25.376  28.129  1.00  0.00     0.031 C 
ATOM     49  C   UNL A   1      45.259  24.009  27.910  1.00  0.00     0.029 A 
ATOM     50  N   UNL A   1      44.807  26.077  28.631  1.00  0.00    -0.354 N 
ATOM     51  C   UNL A   1      40.741  27.540  28.786  1.00  0.00     0.074 A 
ATOM     52  C   UNL A   1      39.807  26.530  28.341  1.00  0.00     0.031 C 
ATOM     53  C   UNL A   1      46.431  24.602  28.194  1.00  0.00     0.029 A 
ATOM     54  C   UNL A   1      46.176  25.965  28.649  1.00  0.00     0.049 A 
ATOM     55  H   UNL A   1      44.331  26.895  28.901  1.00  0.00     0.167 HD
ATOM     56  C   UNL A   1      40.382  28.777  29.205  1.00  0.00     0.037 A 
ATOM     57  C   UNL A   1      47.120  26.863  28.989  1.00  0.00     0.037 A 
ATOM     58  C   UNL A   1      41.312  29.770  29.672  1.00  0.00     0.049 A 
ATOM     59  C   UNL A   1      46.696  28.231  29.448  1.00  0.00     0.074 A 
ATOM     60  C   UNL A   1      41.046  31.032  30.172  1.00  0.00     0.029 A 
ATOM     61  N   UNL A   1      42.689  29.611  29.697  1.00  0.00    -0.354 N 
ATOM     62  N   UNL A   1      45.488  28.726  29.568  1.00  0.00    -0.248 NA
ATOM     63  C   UNL A   1      47.767  29.162  29.827  1.00  0.00     0.031 C 
ATOM     64  C   UNL A   1      42.265  31.654  30.457  1.00  0.00     0.029 A 
ATOM     65  C   UNL A   1      43.288  30.760  30.184  1.00  0.00     0.049 A 
ATOM     66  H   UNL A   1      43.170  28.801  29.410  1.00  0.00     0.167 HD
ATOM     67  C   UNL A   1      45.651  30.012  30.066  1.00  0.00     0.074 A 
ATOM     68  C   UNL A   1      47.075  30.216  30.237  1.00  0.00     0.031 C 
ATOM     69  C   UNL A   1      44.708  30.942  30.358  1.00  0.00     0.037 A 
BRANCH  56  70
ATOM     70  C   UNL A   1      38.920  29.119  29.177  1.00  0.00     0.057 A 
ATOM     71  C   UNL A   1      38.282  29.547  28.005  1.00  0.00     0.134 A 
ATOM     72  C   UNL A   1      38.133  28.998  30.330  1.00  0.00     0.134 A 
ATOM     73  F   UNL A   1      38.979  29.699  26.868  1.00  0.00    -0.206 F 
ATOM     74  C   UNL A   1      36.925  29.872  27.987  1.00  0.00     0.040 A 
ATOM     75  C   UNL A   1      36.768  29.291  30.317  1.00  0.00     0.040 A 
ATOM     76  F   UNL A   1      38.677  28.589  31.486  1.00  0.00    -0.206 F 
ATOM     77  C   UNL A   1      36.162  29.737  29.144  1.00  0.00     0.006 A 
ENDBRANCH  56  70
BRANCH  57  78
ATOM     78  C   UNL A   1      48.557  26.491  28.935  1.00  0.00     0.057 A 
ATOM     79  C   UNL A   1      49.194  25.917  30.041  1.00  0.00     0.134 A 
ATOM     80  C   UNL A   1      49.327  26.705  27.786  1.00  0.00     0.134 A 
ATOM     81  F   UNL A   1      48.513  25.702  31.176  1.00  0.00    -0.206 F 
ATOM     82  C   UNL A   1      50.551  25.590  30.016  1.00  0.00     0.040 A 
ATOM     83  C   UNL A   1      50.679  26.360  27.738  1.00  0.00     0.040 A 
ATOM     84  F   UNL A   1      48.774  27.242  26.689  1.00  0.00    -0.206 F 
ATOM     85  C   UNL A   1      51.296  25.808  28.859  1.00  0.00     0.006 A 
ENDBRANCH  57  78
BRANCH  69  86
ATOM     86  C   UNL A   1      45.180  32.244  30.932  1.00  0.00     0.057 A 
ATOM     87  C   UNL A   1      45.349  32.431  32.309  1.00  0.00     0.134 A 
ATOM     88  C   UNL A   1      45.509  33.315  30.089  1.00  0.00     0.134 A 
ATOM     89  F   UNL A   1      45.040  31.450  33.172  1.00  0.00    -0.206 F 
ATOM     90  C   UNL A   1      45.802  33.645  32.831  1.00  0.00     0.040 A 
ATOM     91  C   UNL A   1      45.991  34.522  30.596  1.00  0.00     0.040 A 
ATOM     92  F   UNL A   1      45.380  33.199  28.759  1.00  0.00    -0.206 F 
ATOM     93  C   UNL A   1      46.133  34.691  31.971  1.00  0.00     0.006 A 
ENDBRANCH  69  86
ENDBRANCH  43  44
ENDBRANCH  35  38
ENDBRANCH  33  34
ENDBRANCH  32  33
ENDBRANCH   1  32
TORSDOF 17
ENDMDL
