MODEL 1
REMARK VINA RESULT:     -10.0      0.000      0.000
REMARK SMILES O=C(Cc1ccc(=O)n(C(F)F)c1)NCCCNC(=O)c1ccc(-c2c3nc(c(-c4c(F)cccc4F)c4ccc([nH]4)c(-c4c(F)cccc4F)c4nc(c(-c5c(F)cccc5F)c5ccc2[nH]5)C=C4)C=C3)cc1
REMARK SMILES IDX 16 1 15 2 14 3 1 4 2 5 3 7 4 8 5 9 13 10 6 11 9 12 7 13 8 14
REMARK SMILES IDX 10 15 11 16 12 17 17 18 18 19 19 20 20 22 21 23 22 24 74 25
REMARK SMILES IDX 23 26 73 27 24 28 25 29 26 30 67 31 27 32 72 33 66 34 68 35
REMARK SMILES IDX 28 36 71 37 65 38 64 39 29 41 55 42 38 43 54 44 39 45 42 46
REMARK SMILES IDX 53 47 69 48 40 49 41 50 52 52 70 53 43 54 30 55 31 56 36 57
REMARK SMILES IDX 32 58 33 59 35 60 37 61 34 62 56 63 57 64 62 65 58 66 59 67
REMARK SMILES IDX 61 68 63 69 60 70 44 71 45 72 50 73 46 74 47 75 49 76 51 77
REMARK SMILES IDX 48 78
REMARK H PARENT 14 6 18 21 68 40 42 51
REMARK Flexibility Score: inf
ROOT
ATOM      1  C   UNL A   1      45.314  18.592  25.321  1.00  0.00     0.042 C 
ENDROOT
BRANCH   1   2
ATOM      2  C   UNL A   1      46.388  19.597  24.932  1.00  0.00     0.117 C 
BRANCH   2   3
ATOM      3  N   UNL A   1      45.846  20.778  24.291  1.00  0.00    -0.356 N 
ATOM      4  O   UNL A   1      46.032  22.164  26.123  1.00  0.00    -0.275 OA
ATOM      5  C   UNL A   1      45.778  22.000  24.936  1.00  0.00     0.224 C 
ATOM      6  H   UNL A   1      45.514  20.709  23.367  1.00  0.00     0.163 HD
BRANCH   5   7
ATOM      7  C   UNL A   1      45.424  23.150  23.997  1.00  0.00     0.137 C 
BRANCH   7   8
ATOM      8  C   UNL A   1      45.281  24.475  24.710  1.00  0.00    -0.022 A 
ATOM      9  C   UNL A   1      46.441  25.138  25.278  1.00  0.00     0.011 A 
ATOM     10  C   UNL A   1      44.087  25.087  24.818  1.00  0.00     0.099 A 
ATOM     11  C   UNL A   1      46.335  26.322  25.893  1.00  0.00     0.072 A 
ATOM     12  N   UNL A   1      43.953  26.324  25.429  1.00  0.00    -0.258 N 
ATOM     13  C   UNL A   1      45.020  27.004  25.992  1.00  0.00     0.254 A 
ATOM     14  O   UNL A   1      44.968  28.098  26.543  1.00  0.00    -0.269 OA
BRANCH  12  15
ATOM     15  C   UNL A   1      42.670  26.973  25.494  1.00  0.00     0.451 C 
ATOM     16  F   UNL A   1      42.586  27.981  24.592  1.00  0.00    -0.185 F 
ATOM     17  F   UNL A   1      41.667  26.096  25.241  1.00  0.00    -0.185 F 
ENDBRANCH  12  15
ENDBRANCH   7   8
ENDBRANCH   5   7
ENDBRANCH   2   3
ENDBRANCH   1   2
BRANCH   1  18
ATOM     18  C   UNL A   1      44.201  19.137  26.210  1.00  0.00     0.118 C 
BRANCH  18  19
ATOM     19  N   UNL A   1      42.861  18.714  25.828  1.00  0.00    -0.352 N 
ATOM     20  C   UNL A   1      41.668  19.391  25.967  1.00  0.00     0.251 C 
ATOM     21  H   UNL A   1      42.799  17.822  25.416  1.00  0.00     0.163 HD
ATOM     22  O   UNL A   1      40.612  18.847  25.660  1.00  0.00    -0.269 OA
BRANCH  20  23
ATOM     23  C   UNL A   1      41.658  20.758  26.538  1.00  0.00     0.039 A 
ATOM     24  C   UNL A   1      41.966  21.867  25.748  1.00  0.00     0.014 A 
ATOM     25  C   UNL A   1      41.387  20.923  27.900  1.00  0.00     0.014 A 
ATOM     26  C   UNL A   1      42.194  23.099  26.353  1.00  0.00     0.010 A 
ATOM     27  C   UNL A   1      41.532  22.182  28.490  1.00  0.00     0.010 A 
ATOM     28  C   UNL A   1      42.000  23.269  27.734  1.00  0.00    -0.014 A 
BRANCH  28  29
ATOM     29  C   UNL A   1      42.327  24.578  28.361  1.00  0.00     0.031 A 
ATOM     30  C   UNL A   1      43.742  24.908  28.766  1.00  0.00     0.074 A 
ATOM     31  C   UNL A   1      41.359  25.504  28.502  1.00  0.00     0.049 A 
ATOM     32  N   UNL A   1      44.217  26.017  29.278  1.00  0.00    -0.248 NA
ATOM     33  C   UNL A   1      44.754  23.859  28.575  1.00  0.00     0.031 C 
ATOM     34  C   UNL A   1      39.952  25.316  28.147  1.00  0.00     0.029 A 
ATOM     35  N   UNL A   1      41.418  26.798  28.955  1.00  0.00    -0.354 N 
ATOM     36  C   UNL A   1      45.573  25.793  29.485  1.00  0.00     0.074 A 
ATOM     37  C   UNL A   1      45.840  24.432  29.075  1.00  0.00     0.031 C 
ATOM     38  C   UNL A   1      39.291  26.467  28.344  1.00  0.00     0.029 A 
ATOM     39  C   UNL A   1      40.214  27.456  28.889  1.00  0.00     0.049 A 
ATOM     40  H   UNL A   1      42.243  27.215  29.294  1.00  0.00     0.167 HD
ATOM     41  C   UNL A   1      46.514  26.644  29.961  1.00  0.00     0.037 A 
ATOM     42  C   UNL A   1      39.885  28.714  29.238  1.00  0.00     0.037 A 
ATOM     43  C   UNL A   1      46.259  28.007  30.353  1.00  0.00     0.049 A 
ATOM     44  C   UNL A   1      40.940  29.623  29.799  1.00  0.00     0.074 A 
ATOM     45  C   UNL A   1      47.155  28.954  30.818  1.00  0.00     0.029 A 
ATOM     46  N   UNL A   1      45.015  28.616  30.325  1.00  0.00    -0.354 N 
ATOM     47  N   UNL A   1      42.220  29.400  29.968  1.00  0.00    -0.248 NA
ATOM     48  C   UNL A   1      40.499  30.959  30.225  1.00  0.00     0.031 C 
ATOM     49  C   UNL A   1      46.445  30.125  31.109  1.00  0.00     0.029 A 
ATOM     50  C   UNL A   1      45.115  29.919  30.785  1.00  0.00     0.049 A 
ATOM     51  H   UNL A   1      44.182  28.187  30.022  1.00  0.00     0.167 HD
ATOM     52  C   UNL A   1      42.739  30.568  30.510  1.00  0.00     0.074 A 
ATOM     53  C   UNL A   1      41.640  31.506  30.616  1.00  0.00     0.031 C 
ATOM     54  C   UNL A   1      44.012  30.839  30.893  1.00  0.00     0.037 A 
BRANCH  41  55
ATOM     55  C   UNL A   1      47.914  26.119  30.096  1.00  0.00     0.057 A 
ATOM     56  C   UNL A   1      48.363  25.586  31.311  1.00  0.00     0.134 A 
ATOM     57  C   UNL A   1      48.829  26.168  29.035  1.00  0.00     0.134 A 
ATOM     58  F   UNL A   1      47.542  25.517  32.369  1.00  0.00    -0.206 F 
ATOM     59  C   UNL A   1      49.670  25.119  31.465  1.00  0.00     0.040 A 
ATOM     60  C   UNL A   1      50.131  25.683  29.170  1.00  0.00     0.040 A 
ATOM     61  F   UNL A   1      48.458  26.655  27.841  1.00  0.00    -0.206 F 
ATOM     62  C   UNL A   1      50.556  25.160  30.391  1.00  0.00     0.006 A 
ENDBRANCH  41  55
BRANCH  42  63
ATOM     63  C   UNL A   1      38.490  29.188  29.074  1.00  0.00     0.057 A 
ATOM     64  C   UNL A   1      37.588  29.184  30.146  1.00  0.00     0.134 A 
ATOM     65  C   UNL A   1      38.031  29.673  27.845  1.00  0.00     0.134 A 
ATOM     66  F   UNL A   1      37.969  28.728  31.348  1.00  0.00    -0.206 F 
ATOM     67  C   UNL A   1      36.277  29.636  29.999  1.00  0.00     0.040 A 
ATOM     68  C   UNL A   1      36.729  30.152  27.690  1.00  0.00     0.040 A 
ATOM     69  F   UNL A   1      38.854  29.720  26.788  1.00  0.00    -0.206 F 
ATOM     70  C   UNL A   1      35.847  30.129  28.769  1.00  0.00     0.006 A 
ENDBRANCH  42  63
BRANCH  54  71
ATOM     71  C   UNL A   1      44.275  32.207  31.445  1.00  0.00     0.057 A 
ATOM     72  C   UNL A   1      44.185  32.454  32.820  1.00  0.00     0.134 A 
ATOM     73  C   UNL A   1      44.615  33.283  30.614  1.00  0.00     0.134 A 
ATOM     74  F   UNL A   1      43.859  31.468  33.670  1.00  0.00    -0.206 F 
ATOM     75  C   UNL A   1      44.428  33.722  33.351  1.00  0.00     0.040 A 
ATOM     76  C   UNL A   1      44.883  34.549  31.135  1.00  0.00     0.040 A 
ATOM     77  F   UNL A   1      44.733  33.106  29.289  1.00  0.00    -0.206 F 
ATOM     78  C   UNL A   1      44.787  34.771  32.508  1.00  0.00     0.006 A 
ENDBRANCH  54  71
ENDBRANCH  28  29
ENDBRANCH  20  23
ENDBRANCH  18  19
ENDBRANCH   1  18
TORSDOF 12
ENDMDL
MODEL 2
REMARK VINA RESULT:      -9.9      4.656     11.081
REMARK SMILES O=C(Cc1ccc(=O)n(C(F)F)c1)NCCCNC(=O)c1ccc(-c2c3nc(c(-c4c(F)cccc4F)c4ccc([nH]4)c(-c4c(F)cccc4F)c4nc(c(-c5c(F)cccc5F)c5ccc2[nH]5)C=C4)C=C3)cc1
REMARK SMILES IDX 16 1 15 2 14 3 1 4 2 5 3 7 4 8 5 9 13 10 6 11 9 12 7 13 8 14
REMARK SMILES IDX 10 15 11 16 12 17 17 18 18 19 19 20 20 22 21 23 22 24 74 25
REMARK SMILES IDX 23 26 73 27 24 28 25 29 26 30 67 31 27 32 72 33 66 34 68 35
REMARK SMILES IDX 28 36 71 37 65 38 64 39 29 41 55 42 38 43 54 44 39 45 42 46
REMARK SMILES IDX 53 47 69 48 40 49 41 50 52 52 70 53 43 54 30 55 31 56 36 57
REMARK SMILES IDX 32 58 33 59 35 60 37 61 34 62 56 63 57 64 62 65 58 66 59 67
REMARK SMILES IDX 61 68 63 69 60 70 44 71 45 72 50 73 46 74 47 75 49 76 51 77
REMARK SMILES IDX 48 78
REMARK H PARENT 14 6 18 21 68 40 42 51
REMARK Flexibility Score: inf
ROOT
ATOM      1  C   UNL A   1      32.626  36.119  31.320  1.00  0.00     0.042 C 
ENDROOT
BRANCH   1   2
ATOM      2  C   UNL A   1      33.692  36.428  32.361  1.00  0.00     0.117 C 
BRANCH   2   3
ATOM      3  N   UNL A   1      33.994  35.294  33.210  1.00  0.00    -0.356 N 
ATOM      4  O   UNL A   1      36.282  35.387  32.949  1.00  0.00    -0.275 OA
ATOM      5  C   UNL A   1      35.293  34.908  33.490  1.00  0.00     0.224 C 
ATOM      6  H   UNL A   1      33.251  34.779  33.600  1.00  0.00     0.163 HD
BRANCH   5   7
ATOM      7  C   UNL A   1      35.379  33.867  34.603  1.00  0.00     0.137 C 
BRANCH   7   8
ATOM      8  C   UNL A   1      36.564  32.940  34.457  1.00  0.00    -0.022 A 
ATOM      9  C   UNL A   1      37.772  33.157  35.234  1.00  0.00     0.011 A 
ATOM     10  C   UNL A   1      36.527  31.880  33.629  1.00  0.00     0.099 A 
ATOM     11  C   UNL A   1      38.821  32.334  35.134  1.00  0.00     0.072 A 
ATOM     12  N   UNL A   1      37.590  30.998  33.524  1.00  0.00    -0.258 N 
ATOM     13  C   UNL A   1      38.769  31.153  34.235  1.00  0.00     0.254 A 
ATOM     14  O   UNL A   1      39.743  30.410  34.188  1.00  0.00    -0.269 OA
BRANCH  12  15
ATOM     15  C   UNL A   1      37.507  29.850  32.660  1.00  0.00     0.451 C 
ATOM     16  F   UNL A   1      37.419  28.704  33.377  1.00  0.00    -0.185 F 
ATOM     17  F   UNL A   1      36.420  29.926  31.853  1.00  0.00    -0.185 F 
ENDBRANCH  12  15
ENDBRANCH   7   8
ENDBRANCH   5   7
ENDBRANCH   2   3
ENDBRANCH   1   2
BRANCH   1  18
ATOM     18  C   UNL A   1      33.036  36.367  29.873  1.00  0.00     0.118 C 
BRANCH  18  19
ATOM     19  N   UNL A   1      32.560  35.364  28.930  1.00  0.00    -0.352 N 
ATOM     20  C   UNL A   1      33.204  34.233  28.473  1.00  0.00     0.251 C 
ATOM     21  H   UNL A   1      31.657  35.515  28.570  1.00  0.00     0.163 HD
ATOM     22  O   UNL A   1      32.681  33.534  27.610  1.00  0.00    -0.269 OA
BRANCH  20  23
ATOM     23  C   UNL A   1      34.551  33.893  28.986  1.00  0.00     0.039 A 
ATOM     24  C   UNL A   1      35.700  34.283  28.296  1.00  0.00     0.014 A 
ATOM     25  C   UNL A   1      34.660  33.126  30.150  1.00  0.00     0.014 A 
ATOM     26  C   UNL A   1      36.933  33.746  28.655  1.00  0.00     0.010 A 
ATOM     27  C   UNL A   1      35.914  32.659  30.559  1.00  0.00     0.010 A 
ATOM     28  C   UNL A   1      37.053  32.912  29.778  1.00  0.00    -0.014 A 
BRANCH  28  29
ATOM     29  C   UNL A   1      38.370  32.293  30.090  1.00  0.00     0.031 A 
ATOM     30  C   UNL A   1      39.320  32.946  31.062  1.00  0.00     0.074 A 
ATOM     31  C   UNL A   1      38.683  31.098  29.552  1.00  0.00     0.049 A 
ATOM     32  N   UNL A   1      40.484  32.523  31.490  1.00  0.00    -0.248 NA
ATOM     33  C   UNL A   1      38.914  34.242  31.624  1.00  0.00     0.031 C 
ATOM     34  C   UNL A   1      37.853  30.356  28.601  1.00  0.00     0.029 A 
ATOM     35  N   UNL A   1      39.771  30.286  29.748  1.00  0.00    -0.354 N 
ATOM     36  C   UNL A   1      40.954  33.505  32.354  1.00  0.00     0.074 A 
ATOM     37  C   UNL A   1      39.966  34.561  32.365  1.00  0.00     0.031 C 
ATOM     38  C   UNL A   1      38.434  29.176  28.339  1.00  0.00     0.029 A 
ATOM     39  C   UNL A   1      39.701  29.100  29.058  1.00  0.00     0.049 A 
ATOM     40  H   UNL A   1      40.529  30.529  30.328  1.00  0.00     0.167 HD
ATOM     41  C   UNL A   1      42.097  33.523  33.083  1.00  0.00     0.037 A 
ATOM     42  C   UNL A   1      40.565  28.069  29.001  1.00  0.00     0.037 A 
ATOM     43  C   UNL A   1      43.076  32.466  33.092  1.00  0.00     0.049 A 
ATOM     44  C   UNL A   1      41.841  28.133  29.788  1.00  0.00     0.074 A 
ATOM     45  C   UNL A   1      44.250  32.382  33.821  1.00  0.00     0.029 A 
ATOM     46  N   UNL A   1      42.994  31.308  32.334  1.00  0.00    -0.354 N 
ATOM     47  N   UNL A   1      42.258  29.060  30.614  1.00  0.00    -0.248 NA
ATOM     48  C   UNL A   1      42.771  27.006  29.626  1.00  0.00     0.031 C 
ATOM     49  C   UNL A   1      44.897  31.190  33.474  1.00  0.00     0.029 A 
ATOM     50  C   UNL A   1      44.107  30.514  32.561  1.00  0.00     0.049 A 
ATOM     51  H   UNL A   1      42.254  31.083  31.725  1.00  0.00     0.167 HD
ATOM     52  C   UNL A   1      43.493  28.626  31.078  1.00  0.00     0.074 A 
ATOM     53  C   UNL A   1      43.744  27.339  30.462  1.00  0.00     0.031 C 
ATOM     54  C   UNL A   1      44.347  29.240  31.934  1.00  0.00     0.037 A 
BRANCH  41  55
ATOM     55  C   UNL A   1      42.358  34.737  33.927  1.00  0.00     0.057 A 
ATOM     56  C   UNL A   1      42.048  34.737  35.293  1.00  0.00     0.134 A 
ATOM     57  C   UNL A   1      42.889  35.915  33.385  1.00  0.00     0.134 A 
ATOM     58  F   UNL A   1      41.530  33.644  35.873  1.00  0.00    -0.206 F 
ATOM     59  C   UNL A   1      42.256  35.864  36.089  1.00  0.00     0.040 A 
ATOM     60  C   UNL A   1      43.124  37.042  34.176  1.00  0.00     0.040 A 
ATOM     61  F   UNL A   1      43.219  35.977  32.086  1.00  0.00    -0.206 F 
ATOM     62  C   UNL A   1      42.802  37.019  35.533  1.00  0.00     0.006 A 
ENDBRANCH  41  55
BRANCH  42  63
ATOM     63  C   UNL A   1      40.255  26.888  28.160  1.00  0.00     0.057 A 
ATOM     64  C   UNL A   1      39.415  25.866  28.620  1.00  0.00     0.134 A 
ATOM     65  C   UNL A   1      40.778  26.762  26.869  1.00  0.00     0.134 A 
ATOM     66  F   UNL A   1      38.885  25.929  29.851  1.00  0.00    -0.206 F 
ATOM     67  C   UNL A   1      39.114  24.757  27.830  1.00  0.00     0.040 A 
ATOM     68  C   UNL A   1      40.466  25.670  26.058  1.00  0.00     0.040 A 
ATOM     69  F   UNL A   1      41.573  27.718  26.366  1.00  0.00    -0.206 F 
ATOM     70  C   UNL A   1      39.634  24.661  26.542  1.00  0.00     0.006 A 
ENDBRANCH  42  63
BRANCH  54  71
ATOM     71  C   UNL A   1      45.618  28.515  32.257  1.00  0.00     0.057 A 
ATOM     72  C   UNL A   1      46.773  28.719  31.491  1.00  0.00     0.134 A 
ATOM     73  C   UNL A   1      45.700  27.612  33.325  1.00  0.00     0.134 A 
ATOM     74  F   UNL A   1      46.761  29.567  30.452  1.00  0.00    -0.206 F 
ATOM     75  C   UNL A   1      47.965  28.053  31.779  1.00  0.00     0.040 A 
ATOM     76  C   UNL A   1      46.892  26.958  33.636  1.00  0.00     0.040 A 
ATOM     77  F   UNL A   1      44.633  27.387  34.106  1.00  0.00    -0.206 F 
ATOM     78  C   UNL A   1      48.029  27.176  32.860  1.00  0.00     0.006 A 
ENDBRANCH  54  71
ENDBRANCH  28  29
ENDBRANCH  20  23
ENDBRANCH  18  19
ENDBRANCH   1  18
TORSDOF 12
ENDMDL
MODEL 3
REMARK VINA RESULT:      -9.5      6.461     11.953
REMARK SMILES O=C(Cc1ccc(=O)n(C(F)F)c1)NCCCNC(=O)c1ccc(-c2c3nc(c(-c4c(F)cccc4F)c4ccc([nH]4)c(-c4c(F)cccc4F)c4nc(c(-c5c(F)cccc5F)c5ccc2[nH]5)C=C4)C=C3)cc1
REMARK SMILES IDX 16 1 15 2 14 3 1 4 2 5 3 7 4 8 5 9 13 10 6 11 9 12 7 13 8 14
REMARK SMILES IDX 10 15 11 16 12 17 17 18 18 19 19 20 20 22 21 23 22 24 74 25
REMARK SMILES IDX 23 26 73 27 24 28 25 29 26 30 67 31 27 32 72 33 66 34 68 35
REMARK SMILES IDX 28 36 71 37 65 38 64 39 29 41 55 42 38 43 54 44 39 45 42 46
REMARK SMILES IDX 53 47 69 48 40 49 41 50 52 52 70 53 43 54 30 55 31 56 36 57
REMARK SMILES IDX 32 58 33 59 35 60 37 61 34 62 56 63 57 64 62 65 58 66 59 67
REMARK SMILES IDX 61 68 63 69 60 70 44 71 45 72 50 73 46 74 47 75 49 76 51 77
REMARK SMILES IDX 48 78
REMARK H PARENT 14 6 18 21 68 40 42 51
REMARK Flexibility Score: inf
ROOT
ATOM      1  C   UNL A   1      31.759  31.780  26.875  1.00  0.00     0.042 C 
ENDROOT
BRANCH   1   2
ATOM      2  C   UNL A   1      32.203  30.377  26.486  1.00  0.00     0.117 C 
BRANCH   2   3
ATOM      3  N   UNL A   1      31.961  30.079  25.089  1.00  0.00    -0.356 N 
ATOM      4  O   UNL A   1      33.654  28.532  24.866  1.00  0.00    -0.275 OA
ATOM      5  C   UNL A   1      32.678  29.113  24.406  1.00  0.00     0.224 C 
ATOM      6  H   UNL A   1      31.264  30.581  24.608  1.00  0.00     0.163 HD
BRANCH   5   7
ATOM      7  C   UNL A   1      32.086  28.785  23.039  1.00  0.00     0.137 C 
BRANCH   7   8
ATOM      8  C   UNL A   1      30.575  28.734  23.045  1.00  0.00    -0.022 A 
ATOM      9  C   UNL A   1      29.878  27.532  23.468  1.00  0.00     0.011 A 
ATOM     10  C   UNL A   1      29.836  29.799  22.685  1.00  0.00     0.099 A 
ATOM     11  C   UNL A   1      28.542  27.477  23.501  1.00  0.00     0.072 A 
ATOM     12  N   UNL A   1      28.451  29.777  22.733  1.00  0.00    -0.258 N 
ATOM     13  C   UNL A   1      27.730  28.661  23.124  1.00  0.00     0.254 A 
ATOM     14  O   UNL A   1      26.508  28.578  23.188  1.00  0.00    -0.269 OA
BRANCH  12  15
ATOM     15  C   UNL A   1      27.687  30.946  22.381  1.00  0.00     0.451 C 
ATOM     16  F   UNL A   1      27.280  31.615  23.487  1.00  0.00    -0.185 F 
ATOM     17  F   UNL A   1      28.422  31.795  21.620  1.00  0.00    -0.185 F 
ENDBRANCH  12  15
ENDBRANCH   7   8
ENDBRANCH   5   7
ENDBRANCH   2   3
ENDBRANCH   1   2
BRANCH   1  18
ATOM     18  C   UNL A   1      32.883  32.735  27.264  1.00  0.00     0.118 C 
BRANCH  18  19
ATOM     19  N   UNL A   1      32.441  34.078  27.611  1.00  0.00    -0.352 N 
ATOM     20  C   UNL A   1      32.972  34.951  28.537  1.00  0.00     0.251 C 
ATOM     21  H   UNL A   1      31.655  34.407  27.117  1.00  0.00     0.163 HD
ATOM     22  O   UNL A   1      32.419  36.024  28.759  1.00  0.00    -0.269 OA
BRANCH  20  23
ATOM     23  C   UNL A   1      34.180  34.568  29.303  1.00  0.00     0.039 A 
ATOM     24  C   UNL A   1      35.455  34.730  28.759  1.00  0.00     0.014 A 
ATOM     25  C   UNL A   1      34.027  33.988  30.566  1.00  0.00     0.014 A 
ATOM     26  C   UNL A   1      36.550  34.139  29.384  1.00  0.00     0.010 A 
ATOM     27  C   UNL A   1      35.143  33.472  31.234  1.00  0.00     0.010 A 
ATOM     28  C   UNL A   1      36.405  33.486  30.619  1.00  0.00    -0.014 A 
BRANCH  28  29
ATOM     29  C   UNL A   1      37.579  32.799  31.223  1.00  0.00     0.031 A 
ATOM     30  C   UNL A   1      38.103  33.211  32.576  1.00  0.00     0.074 A 
ATOM     31  C   UNL A   1      38.133  31.751  30.584  1.00  0.00     0.049 A 
ATOM     32  N   UNL A   1      39.081  32.691  33.277  1.00  0.00    -0.248 NA
ATOM     33  C   UNL A   1      37.446  34.355  33.227  1.00  0.00     0.031 C 
ATOM     34  C   UNL A   1      37.721  31.247  29.273  1.00  0.00     0.029 A 
ATOM     35  N   UNL A   1      39.143  30.904  30.964  1.00  0.00    -0.354 N 
ATOM     36  C   UNL A   1      39.168  33.452  34.437  1.00  0.00     0.074 A 
ATOM     37  C   UNL A   1      38.165  34.490  34.332  1.00  0.00     0.031 C 
ATOM     38  C   UNL A   1      38.432  30.148  28.982  1.00  0.00     0.029 A 
ATOM     39  C   UNL A   1      39.387  29.901  30.057  1.00  0.00     0.049 A 
ATOM     40  H   UNL A   1      39.645  31.004  31.805  1.00  0.00     0.167 HD
ATOM     41  C   UNL A   1      39.996  33.296  35.498  1.00  0.00     0.037 A 
ATOM     42  C   UNL A   1      40.286  28.899  30.081  1.00  0.00     0.037 A 
ATOM     43  C   UNL A   1      40.982  32.253  35.616  1.00  0.00     0.049 A 
ATOM     44  C   UNL A   1      41.217  28.773  31.252  1.00  0.00     0.074 A 
ATOM     45  C   UNL A   1      41.847  31.997  36.667  1.00  0.00     0.029 A 
ATOM     46  N   UNL A   1      41.236  31.293  34.650  1.00  0.00    -0.354 N 
ATOM     47  N   UNL A   1      41.270  29.490  32.347  1.00  0.00    -0.248 NA
ATOM     48  C   UNL A   1      42.220  27.701  31.183  1.00  0.00     0.031 C 
ATOM     49  C   UNL A   1      42.650  30.905  36.319  1.00  0.00     0.029 A 
ATOM     50  C   UNL A   1      42.258  30.456  35.070  1.00  0.00     0.049 A 
ATOM     51  H   UNL A   1      40.760  31.216  33.791  1.00  0.00     0.167 HD
ATOM     52  C   UNL A   1      42.304  28.950  33.102  1.00  0.00     0.074 A 
ATOM     53  C   UNL A   1      42.831  27.830  32.350  1.00  0.00     0.031 C 
ATOM     54  C   UNL A   1      42.778  29.350  34.308  1.00  0.00     0.037 A 
BRANCH  41  55
ATOM     55  C   UNL A   1      39.878  34.289  36.618  1.00  0.00     0.057 A 
ATOM     56  C   UNL A   1      39.049  34.031  37.717  1.00  0.00     0.134 A 
ATOM     57  C   UNL A   1      40.560  35.514  36.595  1.00  0.00     0.134 A 
ATOM     58  F   UNL A   1      38.362  32.882  37.797  1.00  0.00    -0.206 F 
ATOM     59  C   UNL A   1      38.904  34.954  38.754  1.00  0.00     0.040 A 
ATOM     60  C   UNL A   1      40.440  36.435  37.639  1.00  0.00     0.040 A 
ATOM     61  F   UNL A   1      41.379  35.817  35.577  1.00  0.00    -0.206 F 
ATOM     62  C   UNL A   1      39.606  36.157  38.720  1.00  0.00     0.006 A 
ENDBRANCH  41  55
BRANCH  42  63
ATOM     63  C   UNL A   1      40.354  27.937  28.955  1.00  0.00     0.057 A 
ATOM     64  C   UNL A   1      39.643  26.732  28.982  1.00  0.00     0.134 A 
ATOM     65  C   UNL A   1      41.121  28.210  27.817  1.00  0.00     0.134 A 
ATOM     66  F   UNL A   1      38.893  26.413  30.048  1.00  0.00    -0.206 F 
ATOM     67  C   UNL A   1      39.698  25.827  27.922  1.00  0.00     0.040 A 
ATOM     68  C   UNL A   1      41.165  27.326  26.738  1.00  0.00     0.040 A 
ATOM     69  F   UNL A   1      41.808  29.358  27.725  1.00  0.00    -0.206 F 
ATOM     70  C   UNL A   1      40.455  26.128  26.793  1.00  0.00     0.006 A 
ENDBRANCH  42  63
BRANCH  54  71
ATOM     71  C   UNL A   1      43.913  28.558  34.884  1.00  0.00     0.057 A 
ATOM     72  C   UNL A   1      45.241  28.917  34.625  1.00  0.00     0.134 A 
ATOM     73  C   UNL A   1      43.691  27.437  35.694  1.00  0.00     0.134 A 
ATOM     74  F   UNL A   1      45.522  29.978  33.852  1.00  0.00    -0.206 F 
ATOM     75  C   UNL A   1      46.309  28.191  35.154  1.00  0.00     0.040 A 
ATOM     76  C   UNL A   1      44.749  26.718  36.249  1.00  0.00     0.040 A 
ATOM     77  F   UNL A   1      42.440  27.053  35.994  1.00  0.00    -0.206 F 
ATOM     78  C   UNL A   1      46.064  27.093  35.976  1.00  0.00     0.006 A 
ENDBRANCH  54  71
ENDBRANCH  28  29
ENDBRANCH  20  23
ENDBRANCH  18  19
ENDBRANCH   1  18
TORSDOF 12
ENDMDL
