MODEL 1
REMARK VINA RESULT:      -9.9      0.000      0.000
REMARK SMILES CCC[C@@H](C[NH2+]C(C)C)C(=O)NCCCNC(=O)c1ccc(-c2c3nc(c(-c4c(F)cccc4F)c4ccc([nH]4)c(-c4c(F)cccc4F)c4nc(c(-c5c(F)cccc5F)c5ccc2[nH]5)C=C4)C=C3)cc1
REMARK SMILES IDX 13 1 12 2 10 3 11 4 4 6 3 7 2 8 1 9 5 10 6 11 7 14 8 15 9 16
REMARK SMILES IDX 14 17 15 18 16 19 17 20 18 22 19 23 20 24 72 25 21 26 71 27
REMARK SMILES IDX 22 28 23 29 24 30 65 31 25 32 70 33 64 34 66 35 26 36 69 37
REMARK SMILES IDX 63 38 62 39 27 41 53 42 36 43 52 44 37 45 40 46 51 47 67 48
REMARK SMILES IDX 38 49 39 50 50 52 68 53 41 54 28 55 29 56 34 57 30 58 31 59
REMARK SMILES IDX 33 60 35 61 32 62 54 63 55 64 60 65 56 66 57 67 59 68 61 69
REMARK SMILES IDX 58 70 42 71 43 72 48 73 44 74 45 75 47 76 49 77 46 78
REMARK H PARENT 12 5 6 12 6 13 16 21 66 40 40 51
REMARK Flexibility Score: inf
ROOT
ATOM      1  C   UNL A   1      31.903  30.551  26.117  1.00  0.00     0.117 C 
ENDROOT
BRANCH   1   2
ATOM      2  N   UNL A   1      31.585  29.602  27.167  1.00  0.00    -0.356 N 
ATOM      3  C   UNL A   1      31.680  28.247  27.186  1.00  0.00     0.228 C 
ATOM      4  O   UNL A   1      31.449  27.685  28.261  1.00  0.00    -0.275 OA
ATOM      5  H   UNL A   1      31.246  30.005  27.999  1.00  0.00     0.163 HD
BRANCH   3   6
ATOM      6  C   UNL A   1      32.034  27.419  25.949  1.00  0.00     0.133 C 
BRANCH   6   7
ATOM      7  C   UNL A   1      33.527  27.035  25.931  1.00  0.00     0.019 C 
BRANCH   7   8
ATOM      8  C   UNL A   1      33.963  26.110  24.793  1.00  0.00    -0.002 C 
ATOM      9  C   UNL A   1      34.644  24.840  25.271  1.00  0.00     0.004 C 
ENDBRANCH   7   8
ENDBRANCH   6   7
BRANCH   6  10
ATOM     10  C   UNL A   1      30.985  26.322  25.652  1.00  0.00     0.274 C 
BRANCH  10  11
ATOM     11  N   UNL A   1      30.841  25.318  26.702  1.00  0.00    -0.344 N 
ATOM     12  H   UNL A   1      29.986  25.522  27.219  1.00  0.00     0.346 HD
ATOM     13  H   UNL A   1      31.685  25.380  27.271  1.00  0.00     0.346 HD
BRANCH  11  14
ATOM     14  C   UNL A   1      30.768  23.937  26.232  1.00  0.00     0.176 C 
ATOM     15  C   UNL A   1      30.958  23.878  24.720  1.00  0.00     0.075 C 
ATOM     16  C   UNL A   1      31.882  23.160  26.939  1.00  0.00     0.075 C 
ENDBRANCH  11  14
ENDBRANCH  10  11
ENDBRANCH   6  10
ENDBRANCH   3   6
ENDBRANCH   1   2
BRANCH   1  17
ATOM     17  C   UNL A   1      31.574  31.983  26.489  1.00  0.00     0.042 C 
BRANCH  17  18
ATOM     18  C   UNL A   1      32.622  32.624  27.376  1.00  0.00     0.118 C 
BRANCH  18  19
ATOM     19  N   UNL A   1      32.374  34.044  27.605  1.00  0.00    -0.352 N 
ATOM     20  C   UNL A   1      32.954  34.919  28.495  1.00  0.00     0.251 C 
ATOM     21  H   UNL A   1      31.680  34.439  27.030  1.00  0.00     0.163 HD
ATOM     22  O   UNL A   1      32.471  36.031  28.666  1.00  0.00    -0.269 OA
BRANCH  20  23
ATOM     23  C   UNL A   1      34.144  34.505  29.267  1.00  0.00     0.039 A 
ATOM     24  C   UNL A   1      33.982  33.989  30.555  1.00  0.00     0.014 A 
ATOM     25  C   UNL A   1      35.419  34.614  28.714  1.00  0.00     0.014 A 
ATOM     26  C   UNL A   1      35.092  33.497  31.248  1.00  0.00     0.010 A 
ATOM     27  C   UNL A   1      36.498  34.014  29.348  1.00  0.00     0.010 A 
ATOM     28  C   UNL A   1      36.350  33.458  30.627  1.00  0.00    -0.014 A 
BRANCH  28  29
ATOM     29  C   UNL A   1      37.546  32.880  31.290  1.00  0.00     0.031 A 
ATOM     30  C   UNL A   1      38.229  31.689  30.672  1.00  0.00     0.074 A 
ATOM     31  C   UNL A   1      37.953  33.352  32.485  1.00  0.00     0.049 A 
ATOM     32  N   UNL A   1      39.166  30.922  31.166  1.00  0.00    -0.248 NA
ATOM     33  C   UNL A   1      37.760  31.280  29.337  1.00  0.00     0.031 C 
ATOM     34  C   UNL A   1      37.351  34.472  33.209  1.00  0.00     0.029 A 
ATOM     35  N   UNL A   1      38.964  32.930  33.311  1.00  0.00    -0.354 N 
ATOM     36  C   UNL A   1      39.372  29.925  30.221  1.00  0.00     0.074 A 
ATOM     37  C   UNL A   1      38.423  30.149  29.152  1.00  0.00     0.031 C 
ATOM     38  C   UNL A   1      38.017  34.663  34.359  1.00  0.00     0.029 A 
ATOM     39  C   UNL A   1      39.062  33.652  34.476  1.00  0.00     0.049 A 
ATOM     40  H   UNL A   1      39.563  32.181  33.090  1.00  0.00     0.167 HD
ATOM     41  C   UNL A   1      40.291  28.931  30.224  1.00  0.00     0.037 A 
ATOM     42  C   UNL A   1      39.892  33.503  35.526  1.00  0.00     0.037 A 
ATOM     43  C   UNL A   1      41.264  28.741  31.264  1.00  0.00     0.049 A 
ATOM     44  C   UNL A   1      40.907  32.393  35.505  1.00  0.00     0.074 A 
ATOM     45  C   UNL A   1      42.274  27.799  31.339  1.00  0.00     0.029 A 
ATOM     46  N   UNL A   1      41.355  29.520  32.407  1.00  0.00    -0.354 N 
ATOM     47  N   UNL A   1      41.121  31.485  34.583  1.00  0.00    -0.248 NA
ATOM     48  C   UNL A   1      41.795  32.287  36.671  1.00  0.00     0.031 C 
ATOM     49  C   UNL A   1      42.959  27.989  32.543  1.00  0.00     0.029 A 
ATOM     50  C   UNL A   1      42.400  29.075  33.199  1.00  0.00     0.049 A 
ATOM     51  H   UNL A   1      40.765  30.278  32.624  1.00  0.00     0.167 HD
ATOM     52  C   UNL A   1      42.189  30.724  35.040  1.00  0.00     0.074 A 
ATOM     53  C   UNL A   1      42.583  31.280  36.318  1.00  0.00     0.031 C 
ATOM     54  C   UNL A   1      42.790  29.661  34.455  1.00  0.00     0.037 A 
BRANCH  41  55
ATOM     55  C   UNL A   1      40.290  27.987  29.057  1.00  0.00     0.057 A 
ATOM     56  C   UNL A   1      39.538  26.803  29.067  1.00  0.00     0.134 A 
ATOM     57  C   UNL A   1      41.033  28.269  27.905  1.00  0.00     0.134 A 
ATOM     58  F   UNL A   1      38.815  26.466  30.146  1.00  0.00    -0.206 F 
ATOM     59  C   UNL A   1      39.549  25.922  27.986  1.00  0.00     0.040 A 
ATOM     60  C   UNL A   1      41.029  27.409  26.805  1.00  0.00     0.040 A 
ATOM     61  F   UNL A   1      41.772  29.385  27.827  1.00  0.00    -0.206 F 
ATOM     62  C   UNL A   1      40.292  26.226  26.847  1.00  0.00     0.006 A 
ENDBRANCH  41  55
BRANCH  42  63
ATOM     63  C   UNL A   1      39.821  34.440  36.675  1.00  0.00     0.057 A 
ATOM     64  C   UNL A   1      40.534  35.644  36.665  1.00  0.00     0.134 A 
ATOM     65  C   UNL A   1      39.056  34.154  37.813  1.00  0.00     0.134 A 
ATOM     66  F   UNL A   1      41.298  35.966  35.611  1.00  0.00    -0.206 F 
ATOM     67  C   UNL A   1      40.511  36.519  37.753  1.00  0.00     0.040 A 
ATOM     68  C   UNL A   1      39.005  35.031  38.897  1.00  0.00     0.040 A 
ATOM     69  F   UNL A   1      38.343  33.021  37.883  1.00  0.00    -0.206 F 
ATOM     70  C   UNL A   1      39.741  36.215  38.872  1.00  0.00     0.006 A 
ENDBRANCH  42  63
BRANCH  54  71
ATOM     71  C   UNL A   1      43.969  29.062  35.160  1.00  0.00     0.057 A 
ATOM     72  C   UNL A   1      45.277  29.493  34.911  1.00  0.00     0.134 A 
ATOM     73  C   UNL A   1      43.784  28.081  36.143  1.00  0.00     0.134 A 
ATOM     74  F   UNL A   1      45.520  30.421  33.973  1.00  0.00    -0.206 F 
ATOM     75  C   UNL A   1      46.363  28.957  35.604  1.00  0.00     0.040 A 
ATOM     76  C   UNL A   1      44.859  27.555  36.859  1.00  0.00     0.040 A 
ATOM     77  F   UNL A   1      42.554  27.632  36.434  1.00  0.00    -0.206 F 
ATOM     78  C   UNL A   1      46.154  27.992  36.588  1.00  0.00     0.006 A 
ENDBRANCH  54  71
ENDBRANCH  28  29
ENDBRANCH  20  23
ENDBRANCH  18  19
ENDBRANCH  17  18
ENDBRANCH   1  17
TORSDOF 15
ENDMDL
MODEL 2
REMARK VINA RESULT:      -9.7      1.499      2.206
REMARK SMILES CCC[C@@H](C[NH2+]C(C)C)C(=O)NCCCNC(=O)c1ccc(-c2c3nc(c(-c4c(F)cccc4F)c4ccc([nH]4)c(-c4c(F)cccc4F)c4nc(c(-c5c(F)cccc5F)c5ccc2[nH]5)C=C4)C=C3)cc1
REMARK SMILES IDX 13 1 12 2 10 3 11 4 4 6 3 7 2 8 1 9 5 10 6 11 7 14 8 15 9 16
REMARK SMILES IDX 14 17 15 18 16 19 17 20 18 22 19 23 20 24 72 25 21 26 71 27
REMARK SMILES IDX 22 28 23 29 24 30 65 31 25 32 70 33 64 34 66 35 26 36 69 37
REMARK SMILES IDX 63 38 62 39 27 41 53 42 36 43 52 44 37 45 40 46 51 47 67 48
REMARK SMILES IDX 38 49 39 50 50 52 68 53 41 54 28 55 29 56 34 57 30 58 31 59
REMARK SMILES IDX 33 60 35 61 32 62 54 63 55 64 60 65 56 66 57 67 59 68 61 69
REMARK SMILES IDX 58 70 42 71 43 72 48 73 44 74 45 75 47 76 49 77 46 78
REMARK H PARENT 12 5 6 12 6 13 16 21 66 40 40 51
REMARK Flexibility Score: inf
ROOT
ATOM      1  C   UNL A   1      31.782  30.254  26.328  1.00  0.00     0.117 C 
ENDROOT
BRANCH   1   2
ATOM      2  N   UNL A   1      32.352  29.914  25.038  1.00  0.00    -0.356 N 
ATOM      3  C   UNL A   1      31.898  29.074  24.070  1.00  0.00     0.228 C 
ATOM      4  O   UNL A   1      32.527  29.055  23.008  1.00  0.00    -0.275 OA
ATOM      5  H   UNL A   1      33.203  30.362  24.831  1.00  0.00     0.163 HD
BRANCH   3   6
ATOM      6  C   UNL A   1      30.681  28.165  24.258  1.00  0.00     0.133 C 
BRANCH   6   7
ATOM      7  C   UNL A   1      29.645  28.364  23.135  1.00  0.00     0.019 C 
BRANCH   7   8
ATOM      8  C   UNL A   1      29.141  29.794  22.938  1.00  0.00    -0.002 C 
ATOM      9  C   UNL A   1      27.639  29.938  23.114  1.00  0.00     0.004 C 
ENDBRANCH   7   8
ENDBRANCH   6   7
BRANCH   6  10
ATOM     10  C   UNL A   1      31.077  26.723  24.653  1.00  0.00     0.274 C 
BRANCH  10  11
ATOM     11  N   UNL A   1      32.253  26.204  23.961  1.00  0.00    -0.344 N 
ATOM     12  H   UNL A   1      32.887  25.819  24.661  1.00  0.00     0.346 HD
ATOM     13  H   UNL A   1      32.647  26.990  23.444  1.00  0.00     0.346 HD
BRANCH  11  14
ATOM     14  C   UNL A   1      31.981  25.162  22.974  1.00  0.00     0.176 C 
ATOM     15  C   UNL A   1      30.631  24.509  23.247  1.00  0.00     0.075 C 
ATOM     16  C   UNL A   1      31.978  25.835  21.598  1.00  0.00     0.075 C 
ENDBRANCH  11  14
ENDBRANCH  10  11
ENDBRANCH   6  10
ENDBRANCH   3   6
ENDBRANCH   1   2
BRANCH   1  17
ATOM     17  C   UNL A   1      31.566  31.743  26.509  1.00  0.00     0.042 C 
BRANCH  17  18
ATOM     18  C   UNL A   1      32.710  32.427  27.231  1.00  0.00     0.118 C 
BRANCH  18  19
ATOM     19  N   UNL A   1      32.436  33.831  27.516  1.00  0.00    -0.352 N 
ATOM     20  C   UNL A   1      33.021  34.690  28.419  1.00  0.00     0.251 C 
ATOM     21  H   UNL A   1      31.717  34.230  26.974  1.00  0.00     0.163 HD
ATOM     22  O   UNL A   1      32.518  35.784  28.642  1.00  0.00    -0.269 OA
BRANCH  20  23
ATOM     23  C   UNL A   1      34.242  34.278  29.143  1.00  0.00     0.039 A 
ATOM     24  C   UNL A   1      34.124  33.616  30.367  1.00  0.00     0.014 A 
ATOM     25  C   UNL A   1      35.503  34.534  28.607  1.00  0.00     0.014 A 
ATOM     26  C   UNL A   1      35.269  33.129  31.004  1.00  0.00     0.010 A 
ATOM     27  C   UNL A   1      36.624  33.946  29.173  1.00  0.00     0.010 A 
ATOM     28  C   UNL A   1      36.523  33.245  30.385  1.00  0.00    -0.014 A 
BRANCH  28  29
ATOM     29  C   UNL A   1      37.761  32.684  30.982  1.00  0.00     0.031 A 
ATOM     30  C   UNL A   1      38.398  31.473  30.356  1.00  0.00     0.074 A 
ATOM     31  C   UNL A   1      38.248  33.190  32.132  1.00  0.00     0.049 A 
ATOM     32  N   UNL A   1      39.366  30.717  30.809  1.00  0.00    -0.248 NA
ATOM     33  C   UNL A   1      37.841  31.025  29.068  1.00  0.00     0.031 C 
ATOM     34  C   UNL A   1      37.697  34.332  32.861  1.00  0.00     0.029 A 
ATOM     35  N   UNL A   1      39.311  32.789  32.901  1.00  0.00    -0.354 N 
ATOM     36  C   UNL A   1      39.507  29.693  29.881  1.00  0.00     0.074 A 
ATOM     37  C   UNL A   1      38.488  29.887  28.873  1.00  0.00     0.031 C 
ATOM     38  C   UNL A   1      38.440  34.556  33.957  1.00  0.00     0.029 A 
ATOM     39  C   UNL A   1      39.489  33.545  34.035  1.00  0.00     0.049 A 
ATOM     40  H   UNL A   1      39.894  32.032  32.663  1.00  0.00     0.167 HD
ATOM     41  C   UNL A   1      40.422  28.695  29.852  1.00  0.00     0.037 A 
ATOM     42  C   UNL A   1      40.387  33.425  35.030  1.00  0.00     0.037 A 
ATOM     43  C   UNL A   1      41.463  28.534  30.830  1.00  0.00     0.049 A 
ATOM     44  C   UNL A   1      41.397  32.311  34.975  1.00  0.00     0.074 A 
ATOM     45  C   UNL A   1      42.475  27.590  30.865  1.00  0.00     0.029 A 
ATOM     46  N   UNL A   1      41.632  29.346  31.940  1.00  0.00    -0.354 N 
ATOM     47  N   UNL A   1      41.547  31.376  34.068  1.00  0.00    -0.248 NA
ATOM     48  C   UNL A   1      42.362  32.237  36.080  1.00  0.00     0.031 C 
ATOM     49  C   UNL A   1      43.239  27.814  32.014  1.00  0.00     0.029 A 
ATOM     50  C   UNL A   1      42.727  28.921  32.673  1.00  0.00     0.049 A 
ATOM     51  H   UNL A   1      41.058  30.111  32.174  1.00  0.00     0.167 HD
ATOM     52  C   UNL A   1      42.643  30.625  34.474  1.00  0.00     0.074 A 
ATOM     53  C   UNL A   1      43.123  31.217  35.705  1.00  0.00     0.031 C 
ATOM     54  C   UNL A   1      43.201  29.543  33.882  1.00  0.00     0.037 A 
BRANCH  41  55
ATOM     55  C   UNL A   1      40.342  27.717  28.717  1.00  0.00     0.057 A 
ATOM     56  C   UNL A   1      41.028  27.928  27.513  1.00  0.00     0.134 A 
ATOM     57  C   UNL A   1      39.587  26.544  28.833  1.00  0.00     0.134 A 
ATOM     58  F   UNL A   1      41.757  29.040  27.332  1.00  0.00    -0.206 F 
ATOM     59  C   UNL A   1      40.942  27.022  26.455  1.00  0.00     0.040 A 
ATOM     60  C   UNL A   1      39.517  25.616  27.792  1.00  0.00     0.040 A 
ATOM     61  F   UNL A   1      38.909  26.277  29.959  1.00  0.00    -0.206 F 
ATOM     62  C   UNL A   1      40.189  25.859  26.595  1.00  0.00     0.006 A 
ENDBRANCH  41  55
BRANCH  42  63
ATOM     63  C   UNL A   1      40.394  34.395  36.153  1.00  0.00     0.057 A 
ATOM     64  C   UNL A   1      41.148  35.573  36.079  1.00  0.00     0.134 A 
ATOM     65  C   UNL A   1      39.668  34.169  37.329  1.00  0.00     0.134 A 
ATOM     66  F   UNL A   1      41.878  35.838  34.986  1.00  0.00    -0.206 F 
ATOM     67  C   UNL A   1      41.199  36.478  37.140  1.00  0.00     0.040 A 
ATOM     68  C   UNL A   1      39.690  35.077  38.387  1.00  0.00     0.040 A 
ATOM     69  F   UNL A   1      38.920  33.063  37.460  1.00  0.00    -0.206 F 
ATOM     70  C   UNL A   1      40.465  36.234  38.298  1.00  0.00     0.006 A 
ENDBRANCH  42  63
BRANCH  54  71
ATOM     71  C   UNL A   1      44.425  28.961  34.524  1.00  0.00     0.057 A 
ATOM     72  C   UNL A   1      45.711  29.418  34.215  1.00  0.00     0.134 A 
ATOM     73  C   UNL A   1      44.307  27.970  35.507  1.00  0.00     0.134 A 
ATOM     74  F   UNL A   1      45.891  30.357  33.273  1.00  0.00    -0.206 F 
ATOM     75  C   UNL A   1      46.840  28.898  34.849  1.00  0.00     0.040 A 
ATOM     76  C   UNL A   1      45.425  27.460  36.166  1.00  0.00     0.040 A 
ATOM     77  F   UNL A   1      43.100  27.497  35.855  1.00  0.00    -0.206 F 
ATOM     78  C   UNL A   1      46.697  27.922  35.835  1.00  0.00     0.006 A 
ENDBRANCH  54  71
ENDBRANCH  28  29
ENDBRANCH  20  23
ENDBRANCH  18  19
ENDBRANCH  17  18
ENDBRANCH   1  17
TORSDOF 15
ENDMDL
MODEL 3
REMARK VINA RESULT:      -9.7      5.126      9.540
REMARK SMILES CCC[C@@H](C[NH2+]C(C)C)C(=O)NCCCNC(=O)c1ccc(-c2c3nc(c(-c4c(F)cccc4F)c4ccc([nH]4)c(-c4c(F)cccc4F)c4nc(c(-c5c(F)cccc5F)c5ccc2[nH]5)C=C4)C=C3)cc1
REMARK SMILES IDX 13 1 12 2 10 3 11 4 4 6 3 7 2 8 1 9 5 10 6 11 7 14 8 15 9 16
REMARK SMILES IDX 14 17 15 18 16 19 17 20 18 22 19 23 20 24 72 25 21 26 71 27
REMARK SMILES IDX 22 28 23 29 24 30 65 31 25 32 70 33 64 34 66 35 26 36 69 37
REMARK SMILES IDX 63 38 62 39 27 41 53 42 36 43 52 44 37 45 40 46 51 47 67 48
REMARK SMILES IDX 38 49 39 50 50 52 68 53 41 54 28 55 29 56 34 57 30 58 31 59
REMARK SMILES IDX 33 60 35 61 32 62 54 63 55 64 60 65 56 66 57 67 59 68 61 69
REMARK SMILES IDX 58 70 42 71 43 72 48 73 44 74 45 75 47 76 49 77 46 78
REMARK H PARENT 12 5 6 12 6 13 16 21 66 40 40 51
REMARK Flexibility Score: inf
ROOT
ATOM      1  C   UNL A   1      36.569  20.573  25.000  1.00  0.00     0.117 C 
ENDROOT
BRANCH   1   2
ATOM      2  N   UNL A   1      35.312  19.851  24.968  1.00  0.00    -0.356 N 
ATOM      3  C   UNL A   1      34.042  20.304  24.793  1.00  0.00     0.228 C 
ATOM      4  O   UNL A   1      33.154  19.451  24.693  1.00  0.00    -0.275 OA
ATOM      5  H   UNL A   1      35.391  18.878  25.094  1.00  0.00     0.163 HD
BRANCH   3   6
ATOM      6  C   UNL A   1      33.688  21.791  24.737  1.00  0.00     0.133 C 
BRANCH   6   7
ATOM      7  C   UNL A   1      34.400  22.501  23.569  1.00  0.00     0.019 C 
BRANCH   7   8
ATOM      8  C   UNL A   1      34.980  23.882  23.882  1.00  0.00    -0.002 C 
ATOM      9  C   UNL A   1      35.280  24.094  25.355  1.00  0.00     0.004 C 
ENDBRANCH   7   8
ENDBRANCH   6   7
BRANCH   6  10
ATOM     10  C   UNL A   1      32.177  22.047  24.947  1.00  0.00     0.274 C 
BRANCH  10  11
ATOM     11  N   UNL A   1      31.719  21.887  26.324  1.00  0.00    -0.344 N 
ATOM     12  H   UNL A   1      32.521  21.627  26.897  1.00  0.00     0.346 HD
ATOM     13  H   UNL A   1      30.990  21.175  26.299  1.00  0.00     0.346 HD
BRANCH  11  14
ATOM     14  C   UNL A   1      31.106  23.075  26.914  1.00  0.00     0.176 C 
ATOM     15  C   UNL A   1      31.245  24.269  25.974  1.00  0.00     0.075 C 
ATOM     16  C   UNL A   1      29.628  22.752  27.148  1.00  0.00     0.075 C 
ENDBRANCH  11  14
ENDBRANCH  10  11
ENDBRANCH   6  10
ENDBRANCH   3   6
ENDBRANCH   1   2
BRANCH   1  17
ATOM     17  C   UNL A   1      37.780  19.662  24.950  1.00  0.00     0.042 C 
BRANCH  17  18
ATOM     18  C   UNL A   1      38.991  20.244  25.651  1.00  0.00     0.118 C 
BRANCH  18  19
ATOM     19  N   UNL A   1      40.081  19.282  25.784  1.00  0.00    -0.352 N 
ATOM     20  C   UNL A   1      41.409  19.474  26.094  1.00  0.00     0.251 C 
ATOM     21  H   UNL A   1      39.825  18.345  25.629  1.00  0.00     0.163 HD
ATOM     22  O   UNL A   1      42.208  18.555  25.967  1.00  0.00    -0.269 OA
BRANCH  20  23
ATOM     23  C   UNL A   1      41.875  20.800  26.549  1.00  0.00     0.039 A 
ATOM     24  C   UNL A   1      42.350  21.721  25.613  1.00  0.00     0.014 A 
ATOM     25  C   UNL A   1      41.831  21.140  27.901  1.00  0.00     0.014 A 
ATOM     26  C   UNL A   1      42.691  23.013  26.023  1.00  0.00     0.010 A 
ATOM     27  C   UNL A   1      42.050  22.453  28.288  1.00  0.00     0.010 A 
ATOM     28  C   UNL A   1      42.494  23.404  27.357  1.00  0.00    -0.014 A 
BRANCH  28  29
ATOM     29  C   UNL A   1      42.771  24.783  27.831  1.00  0.00     0.031 A 
ATOM     30  C   UNL A   1      44.175  25.160  28.222  1.00  0.00     0.074 A 
ATOM     31  C   UNL A   1      41.759  25.655  28.008  1.00  0.00     0.049 A 
ATOM     32  N   UNL A   1      44.607  26.238  28.825  1.00  0.00    -0.248 NA
ATOM     33  C   UNL A   1      45.227  24.171  27.935  1.00  0.00     0.031 C 
ATOM     34  C   UNL A   1      40.350  25.398  27.709  1.00  0.00     0.029 A 
ATOM     35  N   UNL A   1      41.763  26.934  28.505  1.00  0.00    -0.354 N 
ATOM     36  C   UNL A   1      45.968  26.039  29.019  1.00  0.00     0.074 A 
ATOM     37  C   UNL A   1      46.280  24.716  28.525  1.00  0.00     0.031 C 
ATOM     38  C   UNL A   1      39.630  26.491  28.005  1.00  0.00     0.029 A 
ATOM     39  C   UNL A   1      40.516  27.509  28.559  1.00  0.00     0.049 A 
ATOM     40  H   UNL A   1      42.582  27.397  28.794  1.00  0.00     0.167 HD
ATOM     41  C   UNL A   1      46.884  26.892  29.533  1.00  0.00     0.037 A 
ATOM     42  C   UNL A   1      40.132  28.714  29.018  1.00  0.00     0.037 A 
ATOM     43  C   UNL A   1      46.579  28.225  29.978  1.00  0.00     0.049 A 
ATOM     44  C   UNL A   1      41.169  29.648  29.582  1.00  0.00     0.074 A 
ATOM     45  C   UNL A   1      47.441  29.191  30.465  1.00  0.00     0.029 A 
ATOM     46  N   UNL A   1      45.310  28.782  29.978  1.00  0.00    -0.354 N 
ATOM     47  N   UNL A   1      42.460  29.464  29.718  1.00  0.00    -0.248 NA
ATOM     48  C   UNL A   1      40.695  30.955  30.055  1.00  0.00     0.031 C 
ATOM     49  C   UNL A   1      46.689  30.324  30.787  1.00  0.00     0.029 A 
ATOM     50  C   UNL A   1      45.364  30.078  30.463  1.00  0.00     0.049 A 
ATOM     51  H   UNL A   1      44.491  28.325  29.676  1.00  0.00     0.167 HD
ATOM     52  C   UNL A   1      42.957  30.643  30.258  1.00  0.00     0.074 A 
ATOM     53  C   UNL A   1      41.829  31.538  30.419  1.00  0.00     0.031 C 
ATOM     54  C   UNL A   1      44.231  30.958  30.591  1.00  0.00     0.037 A 
BRANCH  41  55
ATOM     55  C   UNL A   1      48.302  26.411  29.623  1.00  0.00     0.057 A 
ATOM     56  C   UNL A   1      48.781  25.736  30.756  1.00  0.00     0.134 A 
ATOM     57  C   UNL A   1      49.195  26.606  28.564  1.00  0.00     0.134 A 
ATOM     58  F   UNL A   1      47.980  25.530  31.813  1.00  0.00    -0.206 F 
ATOM     59  C   UNL A   1      50.103  25.299  30.841  1.00  0.00     0.040 A 
ATOM     60  C   UNL A   1      50.513  26.148  28.626  1.00  0.00     0.040 A 
ATOM     61  F   UNL A   1      48.803  27.240  27.449  1.00  0.00    -0.206 F 
ATOM     62  C   UNL A   1      50.973  25.500  29.772  1.00  0.00     0.006 A 
ENDBRANCH  41  55
BRANCH  42  63
ATOM     63  C   UNL A   1      38.707  29.124  28.945  1.00  0.00     0.057 A 
ATOM     64  C   UNL A   1      37.867  29.001  30.058  1.00  0.00     0.134 A 
ATOM     65  C   UNL A   1      38.145  29.633  27.768  1.00  0.00     0.134 A 
ATOM     66  F   UNL A   1      38.341  28.504  31.210  1.00  0.00    -0.206 F 
ATOM     67  C   UNL A   1      36.515  29.344  29.997  1.00  0.00     0.040 A 
ATOM     68  C   UNL A   1      36.802  30.003  27.700  1.00  0.00     0.040 A 
ATOM     69  F   UNL A   1      38.899  29.784  26.668  1.00  0.00    -0.206 F 
ATOM     70  C   UNL A   1      35.979  29.851  28.816  1.00  0.00     0.006 A 
ENDBRANCH  42  63
BRANCH  54  71
ATOM     71  C   UNL A   1      44.486  32.341  31.110  1.00  0.00     0.057 A 
ATOM     72  C   UNL A   1      44.744  33.417  30.253  1.00  0.00     0.134 A 
ATOM     73  C   UNL A   1      44.414  32.607  32.484  1.00  0.00     0.134 A 
ATOM     74  F   UNL A   1      44.837  33.224  28.928  1.00  0.00    -0.206 F 
ATOM     75  C   UNL A   1      44.939  34.708  30.746  1.00  0.00     0.040 A 
ATOM     76  C   UNL A   1      44.583  33.896  32.986  1.00  0.00     0.040 A 
ATOM     77  F   UNL A   1      44.162  31.619  33.355  1.00  0.00    -0.206 F 
ATOM     78  C   UNL A   1      44.849  34.952  32.116  1.00  0.00     0.006 A 
ENDBRANCH  54  71
ENDBRANCH  28  29
ENDBRANCH  20  23
ENDBRANCH  18  19
ENDBRANCH  17  18
ENDBRANCH   1  17
TORSDOF 15
ENDMDL
