MODEL 1
REMARK VINA RESULT:     -11.3      0.000      0.000
REMARK SMILES C[C@H]1[C@H](C(=O)NCCCNC(=O)c2ccc(-c3c4nc(c(-c5c(F)cccc5F)c5ccc([nH]5)c(-c5c(F)cccc5F)c5nc(c(-c6c(F)cccc6F)c6ccc3[nH]6)C=C5)C=C4)cc2)CC[N@@H+]1CC(=O)N1CCCC1
REMARK SMILES IDX 8 1 7 2 6 3 4 4 5 5 3 7 1 8 2 9 69 10 67 11 68 12 70 14
REMARK SMILES IDX 71 15 72 16 73 17 74 18 77 19 75 20 76 21 9 22 10 23 11 24
REMARK SMILES IDX 12 26 13 27 14 28 66 29 15 30 65 31 16 32 17 33 18 34 59 35
REMARK SMILES IDX 19 36 64 37 58 38 60 39 20 40 63 41 57 42 56 43 21 45 47 46
REMARK SMILES IDX 30 47 46 48 31 49 34 50 45 51 61 52 32 53 33 54 44 56 62 57
REMARK SMILES IDX 35 58 22 59 23 60 28 61 24 62 25 63 27 64 29 65 26 66 48 67
REMARK SMILES IDX 49 68 54 69 50 70 51 71 53 72 55 73 52 74 36 75 37 76 42 77
REMARK SMILES IDX 38 78 39 79 41 80 43 81 40 82
REMARK H PARENT 6 6 69 13 10 25 60 44 34 55
REMARK Flexibility Score: inf
ROOT
ATOM      1  C   UNL A   1      38.168  19.806  24.995  1.00  0.00     0.042 C 
ENDROOT
BRANCH   1   2
ATOM      2  C   UNL A   1      37.374  21.017  24.405  1.00  0.00     0.117 C 
BRANCH   2   3
ATOM      3  N   UNL A   1      37.632  22.379  24.879  1.00  0.00    -0.356 N 
ATOM      4  C   UNL A   1      37.024  23.286  25.693  1.00  0.00     0.229 C 
ATOM      5  O   UNL A   1      37.806  24.165  26.109  1.00  0.00    -0.275 OA
ATOM      6  H   UNL A   1      38.473  22.735  24.511  1.00  0.00     0.163 HD
BRANCH   4   7
ATOM      7  C   UNL A   1      35.541  23.462  26.096  1.00  0.00     0.142 C 
ATOM      8  C   UNL A   1      33.565  24.243  24.577  1.00  0.00     0.076 C 
ATOM      9  C   UNL A   1      34.582  23.152  24.929  1.00  0.00     0.194 C 
ATOM     10  N   UNL A   1      33.778  21.984  25.318  1.00  0.00    -0.324 N 
ATOM     11  C   UNL A   1      34.951  22.750  27.286  1.00  0.00     0.081 C 
ATOM     12  C   UNL A   1      34.049  21.661  26.722  1.00  0.00     0.263 C 
ATOM     13  H   UNL A   1      32.789  22.224  25.246  1.00  0.00     0.348 HD
BRANCH  10  14
ATOM     14  C   UNL A   1      33.896  20.844  24.380  1.00  0.00     0.364 C 
BRANCH  14  15
ATOM     15  C   UNL A   1      32.890  19.736  24.723  1.00  0.00     0.277 C 
ATOM     16  O   UNL A   1      31.745  20.032  24.982  1.00  0.00    -0.268 OA
ATOM     17  N   UNL A   1      33.367  18.442  24.860  1.00  0.00    -0.338 N 
ATOM     18  C   UNL A   1      34.552  17.854  24.272  1.00  0.00     0.119 C 
ATOM     19  C   UNL A   1      32.717  17.492  25.726  1.00  0.00     0.119 C 
ATOM     20  C   UNL A   1      34.438  16.354  24.562  1.00  0.00     0.023 C 
ATOM     21  C   UNL A   1      33.043  16.144  25.143  1.00  0.00     0.023 C 
ENDBRANCH  14  15
ENDBRANCH  10  14
ENDBRANCH   4   7
ENDBRANCH   2   3
ENDBRANCH   1   2
BRANCH   1  22
ATOM     22  C   UNL A   1      39.182  19.976  26.142  1.00  0.00     0.118 C 
BRANCH  22  23
ATOM     23  N   UNL A   1      40.422  19.244  25.904  1.00  0.00    -0.352 N 
ATOM     24  C   UNL A   1      41.743  19.629  25.923  1.00  0.00     0.251 C 
ATOM     25  H   UNL A   1      40.288  18.293  25.690  1.00  0.00     0.163 HD
ATOM     26  O   UNL A   1      42.582  18.842  25.483  1.00  0.00    -0.269 OA
BRANCH  24  27
ATOM     27  C   UNL A   1      42.220  20.937  26.450  1.00  0.00     0.039 A 
ATOM     28  C   UNL A   1      42.161  21.146  27.836  1.00  0.00     0.014 A 
ATOM     29  C   UNL A   1      42.548  22.015  25.622  1.00  0.00     0.014 A 
ATOM     30  C   UNL A   1      42.435  22.405  28.387  1.00  0.00     0.010 A 
ATOM     31  C   UNL A   1      42.858  23.272  26.179  1.00  0.00     0.010 A 
ATOM     32  C   UNL A   1      42.785  23.490  27.567  1.00  0.00    -0.014 A 
BRANCH  32  33
ATOM     33  C   UNL A   1      43.020  24.836  28.176  1.00  0.00     0.031 A 
ATOM     34  C   UNL A   1      44.414  25.294  28.534  1.00  0.00     0.074 A 
ATOM     35  C   UNL A   1      41.987  25.679  28.380  1.00  0.00     0.049 A 
ATOM     36  N   UNL A   1      44.816  26.458  28.986  1.00  0.00    -0.248 NA
ATOM     37  C   UNL A   1      45.494  24.310  28.379  1.00  0.00     0.031 C 
ATOM     38  C   UNL A   1      40.582  25.364  28.119  1.00  0.00     0.029 A 
ATOM     39  N   UNL A   1      41.956  26.974  28.841  1.00  0.00    -0.354 N 
ATOM     40  C   UNL A   1      46.193  26.347  29.162  1.00  0.00     0.074 A 
ATOM     41  C   UNL A   1      46.544  24.984  28.827  1.00  0.00     0.031 C 
ATOM     42  C   UNL A   1      39.831  26.443  28.396  1.00  0.00     0.029 A 
ATOM     43  C   UNL A   1      40.694  27.522  28.870  1.00  0.00     0.049 A 
ATOM     44  H   UNL A   1      42.762  27.464  29.124  1.00  0.00     0.167 HD
ATOM     45  C   UNL A   1      47.088  27.294  29.540  1.00  0.00     0.037 A 
ATOM     46  C   UNL A   1      40.277  28.753  29.227  1.00  0.00     0.037 A 
ATOM     47  C   UNL A   1      46.747  28.656  29.869  1.00  0.00     0.049 A 
ATOM     48  C   UNL A   1      41.286  29.789  29.645  1.00  0.00     0.074 A 
ATOM     49  C   UNL A   1      47.589  29.697  30.223  1.00  0.00     0.029 A 
ATOM     50  N   UNL A   1      45.457  29.166  29.888  1.00  0.00    -0.354 N 
ATOM     51  N   UNL A   1      42.590  29.685  29.734  1.00  0.00    -0.248 NA
ATOM     52  C   UNL A   1      40.766  31.119  29.996  1.00  0.00     0.031 C 
ATOM     53  C   UNL A   1      46.807  30.823  30.500  1.00  0.00     0.029 A 
ATOM     54  C   UNL A   1      45.480  30.499  30.268  1.00  0.00     0.049 A 
ATOM     55  H   UNL A   1      44.646  28.655  29.663  1.00  0.00     0.167 HD
ATOM     56  C   UNL A   1      43.045  30.937  30.130  1.00  0.00     0.074 A 
ATOM     57  C   UNL A   1      41.882  31.790  30.240  1.00  0.00     0.031 C 
ATOM     58  C   UNL A   1      44.316  31.341  30.381  1.00  0.00     0.037 A 
BRANCH  45  59
ATOM     59  C   UNL A   1      48.534  26.887  29.616  1.00  0.00     0.057 A 
ATOM     60  C   UNL A   1      49.088  26.351  30.787  1.00  0.00     0.134 A 
ATOM     61  C   UNL A   1      49.376  27.004  28.503  1.00  0.00     0.134 A 
ATOM     62  F   UNL A   1      48.340  26.214  31.892  1.00  0.00    -0.206 F 
ATOM     63  C   UNL A   1      50.432  25.980  30.859  1.00  0.00     0.040 A 
ATOM     64  C   UNL A   1      50.715  26.610  28.554  1.00  0.00     0.040 A 
ATOM     65  F   UNL A   1      48.911  27.497  27.345  1.00  0.00    -0.206 F 
ATOM     66  C   UNL A   1      51.249  26.105  29.737  1.00  0.00     0.006 A 
ENDBRANCH  45  59
BRANCH  46  67
ATOM     67  C   UNL A   1      38.828  29.088  29.180  1.00  0.00     0.057 A 
ATOM     68  C   UNL A   1      38.216  29.508  27.992  1.00  0.00     0.134 A 
ATOM     69  C   UNL A   1      38.023  29.004  30.322  1.00  0.00     0.134 A 
ATOM     70  F   UNL A   1      38.937  29.632  26.868  1.00  0.00    -0.206 F 
ATOM     71  C   UNL A   1      36.863  29.849  27.946  1.00  0.00     0.040 A 
ATOM     72  C   UNL A   1      36.664  29.315  30.285  1.00  0.00     0.040 A 
ATOM     73  F   UNL A   1      38.548  28.607  31.491  1.00  0.00    -0.206 F 
ATOM     74  C   UNL A   1      36.080  29.746  29.095  1.00  0.00     0.006 A 
ENDBRANCH  46  67
BRANCH  58  75
ATOM     75  C   UNL A   1      44.514  32.775  30.782  1.00  0.00     0.057 A 
ATOM     76  C   UNL A   1      44.525  33.173  32.126  1.00  0.00     0.134 A 
ATOM     77  C   UNL A   1      44.721  33.767  29.816  1.00  0.00     0.134 A 
ATOM     78  F   UNL A   1      44.320  32.276  33.102  1.00  0.00    -0.206 F 
ATOM     79  C   UNL A   1      44.704  34.509  32.491  1.00  0.00     0.040 A 
ATOM     80  C   UNL A   1      44.929  35.101  30.169  1.00  0.00     0.040 A 
ATOM     81  F   UNL A   1      44.734  33.455  28.510  1.00  0.00    -0.206 F 
ATOM     82  C   UNL A   1      44.913  35.476  31.511  1.00  0.00     0.006 A 
ENDBRANCH  58  75
ENDBRANCH  32  33
ENDBRANCH  24  27
ENDBRANCH  22  23
ENDBRANCH   1  22
TORSDOF 12
ENDMDL
MODEL 2
REMARK VINA RESULT:     -11.2      4.334      8.231
REMARK SMILES C[C@H]1[C@H](C(=O)NCCCNC(=O)c2ccc(-c3c4nc(c(-c5c(F)cccc5F)c5ccc([nH]5)c(-c5c(F)cccc5F)c5nc(c(-c6c(F)cccc6F)c6ccc3[nH]6)C=C5)C=C4)cc2)CC[N@@H+]1CC(=O)N1CCCC1
REMARK SMILES IDX 8 1 7 2 6 3 4 4 5 5 3 7 1 8 2 9 69 10 67 11 68 12 70 14
REMARK SMILES IDX 71 15 72 16 73 17 74 18 77 19 75 20 76 21 9 22 10 23 11 24
REMARK SMILES IDX 12 26 13 27 14 28 66 29 15 30 65 31 16 32 17 33 18 34 59 35
REMARK SMILES IDX 19 36 64 37 58 38 60 39 20 40 63 41 57 42 56 43 21 45 47 46
REMARK SMILES IDX 30 47 46 48 31 49 34 50 45 51 61 52 32 53 33 54 44 56 62 57
REMARK SMILES IDX 35 58 22 59 23 60 28 61 24 62 25 63 27 64 29 65 26 66 48 67
REMARK SMILES IDX 49 68 54 69 50 70 51 71 53 72 55 73 52 74 36 75 37 76 42 77
REMARK SMILES IDX 38 78 39 79 41 80 43 81 40 82
REMARK H PARENT 6 6 69 13 10 25 60 44 34 55
REMARK Flexibility Score: inf
ROOT
ATOM      1  C   UNL A   1      39.313  21.914  26.299  1.00  0.00     0.042 C 
ENDROOT
BRANCH   1   2
ATOM      2  C   UNL A   1      37.862  22.276  25.844  1.00  0.00     0.117 C 
BRANCH   2   3
ATOM      3  N   UNL A   1      37.553  22.474  24.425  1.00  0.00    -0.356 N 
ATOM      4  C   UNL A   1      36.629  23.150  23.688  1.00  0.00     0.229 C 
ATOM      5  O   UNL A   1      36.995  23.341  22.510  1.00  0.00    -0.275 OA
ATOM      6  H   UNL A   1      38.184  21.986  23.849  1.00  0.00     0.163 HD
BRANCH   4   7
ATOM      7  C   UNL A   1      35.197  23.622  24.031  1.00  0.00     0.142 C 
ATOM      8  C   UNL A   1      32.947  22.670  23.107  1.00  0.00     0.076 C 
ATOM      9  C   UNL A   1      34.180  22.463  23.994  1.00  0.00     0.194 C 
ATOM     10  N   UNL A   1      33.653  22.296  25.356  1.00  0.00    -0.324 N 
ATOM     11  C   UNL A   1      34.890  24.370  25.302  1.00  0.00     0.081 C 
ATOM     12  C   UNL A   1      34.140  23.392  26.197  1.00  0.00     0.263 C 
ATOM     13  H   UNL A   1      32.636  22.362  25.328  1.00  0.00     0.348 HD
BRANCH  10  14
ATOM     14  C   UNL A   1      33.866  20.940  25.911  1.00  0.00     0.364 C 
BRANCH  14  15
ATOM     15  C   UNL A   1      32.879  19.930  25.306  1.00  0.00     0.277 C 
ATOM     16  O   UNL A   1      31.698  20.194  25.284  1.00  0.00    -0.268 OA
ATOM     17  N   UNL A   1      33.366  18.688  24.931  1.00  0.00    -0.338 N 
ATOM     18  C   UNL A   1      34.716  18.327  24.556  1.00  0.00     0.119 C 
ATOM     19  C   UNL A   1      32.522  17.520  24.941  1.00  0.00     0.119 C 
ATOM     20  C   UNL A   1      34.610  16.900  24.008  1.00  0.00     0.023 C 
ATOM     21  C   UNL A   1      33.118  16.599  23.911  1.00  0.00     0.023 C 
ENDBRANCH  14  15
ENDBRANCH  10  14
ENDBRANCH   4   7
ENDBRANCH   2   3
ENDBRANCH   1   2
BRANCH   1  22
ATOM     22  C   UNL A   1      40.217  22.929  27.024  1.00  0.00     0.118 C 
BRANCH  22  23
ATOM     23  N   UNL A   1      41.085  23.659  26.105  1.00  0.00    -0.352 N 
ATOM     24  C   UNL A   1      41.399  24.994  25.992  1.00  0.00     0.251 C 
ATOM     25  H   UNL A   1      41.533  23.087  25.441  1.00  0.00     0.163 HD
ATOM     26  O   UNL A   1      42.011  25.362  24.988  1.00  0.00    -0.269 OA
BRANCH  24  27
ATOM     27  C   UNL A   1      41.050  26.020  27.013  1.00  0.00     0.039 A 
ATOM     28  C   UNL A   1      41.775  27.221  27.008  1.00  0.00     0.014 A 
ATOM     29  C   UNL A   1      40.171  25.769  28.070  1.00  0.00     0.014 A 
ATOM     30  C   UNL A   1      41.618  28.161  28.037  1.00  0.00     0.010 A 
ATOM     31  C   UNL A   1      39.987  26.730  29.086  1.00  0.00     0.010 A 
ATOM     32  C   UNL A   1      40.723  27.929  29.094  1.00  0.00    -0.014 A 
BRANCH  32  33
ATOM     33  C   UNL A   1      40.614  28.923  30.206  1.00  0.00     0.031 A 
ATOM     34  C   UNL A   1      39.539  29.983  30.197  1.00  0.00     0.074 A 
ATOM     35  C   UNL A   1      41.458  28.863  31.256  1.00  0.00     0.049 A 
ATOM     36  N   UNL A   1      39.238  30.870  31.116  1.00  0.00    -0.248 NA
ATOM     37  C   UNL A   1      38.702  30.068  28.992  1.00  0.00     0.031 C 
ATOM     38  C   UNL A   1      42.569  27.920  31.387  1.00  0.00     0.029 A 
ATOM     39  N   UNL A   1      41.508  29.598  32.418  1.00  0.00    -0.354 N 
ATOM     40  C   UNL A   1      38.176  31.610  30.603  1.00  0.00     0.074 A 
ATOM     41  C   UNL A   1      37.929  31.109  29.268  1.00  0.00     0.031 C 
ATOM     42  C   UNL A   1      43.172  28.114  32.573  1.00  0.00     0.029 A 
ATOM     43  C   UNL A   1      42.505  29.204  33.280  1.00  0.00     0.049 A 
ATOM     44  H   UNL A   1      40.888  30.338  32.614  1.00  0.00     0.167 HD
ATOM     45  C   UNL A   1      37.455  32.597  31.192  1.00  0.00     0.037 A 
ATOM     46  C   UNL A   1      42.841  29.659  34.504  1.00  0.00     0.037 A 
ATOM     47  C   UNL A   1      37.691  33.099  32.524  1.00  0.00     0.049 A 
ATOM     48  C   UNL A   1      42.029  30.755  35.139  1.00  0.00     0.074 A 
ATOM     49  C   UNL A   1      36.988  34.067  33.220  1.00  0.00     0.029 A 
ATOM     50  N   UNL A   1      38.713  32.673  33.360  1.00  0.00    -0.354 N 
ATOM     51  N   UNL A   1      40.985  31.391  34.667  1.00  0.00    -0.248 NA
ATOM     52  C   UNL A   1      42.433  31.185  36.487  1.00  0.00     0.031 C 
ATOM     53  C   UNL A   1      37.610  34.259  34.458  1.00  0.00     0.029 A 
ATOM     54  C   UNL A   1      38.671  33.374  34.555  1.00  0.00     0.049 A 
ATOM     55  H   UNL A   1      39.370  31.975  33.136  1.00  0.00     0.167 HD
ATOM     56  C   UNL A   1      40.596  32.278  35.664  1.00  0.00     0.074 A 
ATOM     57  C   UNL A   1      41.501  32.082  36.775  1.00  0.00     0.031 C 
ATOM     58  C   UNL A   1      39.580  33.177  35.656  1.00  0.00     0.037 A 
BRANCH  45  59
ATOM     59  C   UNL A   1      36.332  33.203  30.395  1.00  0.00     0.057 A 
ATOM     60  C   UNL A   1      34.994  32.858  30.629  1.00  0.00     0.134 A 
ATOM     61  C   UNL A   1      36.584  34.161  29.406  1.00  0.00     0.134 A 
ATOM     62  F   UNL A   1      34.680  31.944  31.559  1.00  0.00    -0.206 F 
ATOM     63  C   UNL A   1      33.952  33.415  29.885  1.00  0.00     0.040 A 
ATOM     64  C   UNL A   1      35.549  34.747  28.674  1.00  0.00     0.040 A 
ATOM     65  F   UNL A   1      37.840  34.550  29.137  1.00  0.00    -0.206 F 
ATOM     66  C   UNL A   1      34.229  34.368  28.906  1.00  0.00     0.006 A 
ENDBRANCH  45  59
BRANCH  46  67
ATOM     67  C   UNL A   1      43.993  29.056  35.229  1.00  0.00     0.057 A 
ATOM     68  C   UNL A   1      45.301  29.512  35.024  1.00  0.00     0.134 A 
ATOM     69  C   UNL A   1      43.813  28.005  36.135  1.00  0.00     0.134 A 
ATOM     70  F   UNL A   1      45.543  30.500  34.151  1.00  0.00    -0.206 F 
ATOM     71  C   UNL A   1      46.389  28.934  35.682  1.00  0.00     0.040 A 
ATOM     72  C   UNL A   1      44.887  27.435  36.820  1.00  0.00     0.040 A 
ATOM     73  F   UNL A   1      42.585  27.523  36.377  1.00  0.00    -0.206 F 
ATOM     74  C   UNL A   1      46.182  27.896  36.588  1.00  0.00     0.006 A 
ENDBRANCH  46  67
BRANCH  58  75
ATOM     75  C   UNL A   1      39.383  34.003  36.895  1.00  0.00     0.057 A 
ATOM     76  C   UNL A   1      38.690  33.512  38.009  1.00  0.00     0.134 A 
ATOM     77  C   UNL A   1      39.913  35.296  36.985  1.00  0.00     0.134 A 
ATOM     78  F   UNL A   1      38.145  32.286  37.985  1.00  0.00    -0.206 F 
ATOM     79  C   UNL A   1      38.505  34.287  39.156  1.00  0.00     0.040 A 
ATOM     80  C   UNL A   1      39.760  36.071  38.136  1.00  0.00     0.040 A 
ATOM     81  F   UNL A   1      40.598  35.826  35.959  1.00  0.00    -0.206 F 
ATOM     82  C   UNL A   1      39.047  35.569  39.223  1.00  0.00     0.006 A 
ENDBRANCH  58  75
ENDBRANCH  32  33
ENDBRANCH  24  27
ENDBRANCH  22  23
ENDBRANCH   1  22
TORSDOF 12
ENDMDL
MODEL 3
REMARK VINA RESULT:     -11.2      1.589      3.353
REMARK SMILES C[C@H]1[C@H](C(=O)NCCCNC(=O)c2ccc(-c3c4nc(c(-c5c(F)cccc5F)c5ccc([nH]5)c(-c5c(F)cccc5F)c5nc(c(-c6c(F)cccc6F)c6ccc3[nH]6)C=C5)C=C4)cc2)CC[N@@H+]1CC(=O)N1CCCC1
REMARK SMILES IDX 8 1 7 2 6 3 4 4 5 5 3 7 1 8 2 9 69 10 67 11 68 12 70 14
REMARK SMILES IDX 71 15 72 16 73 17 74 18 77 19 75 20 76 21 9 22 10 23 11 24
REMARK SMILES IDX 12 26 13 27 14 28 66 29 15 30 65 31 16 32 17 33 18 34 59 35
REMARK SMILES IDX 19 36 64 37 58 38 60 39 20 40 63 41 57 42 56 43 21 45 47 46
REMARK SMILES IDX 30 47 46 48 31 49 34 50 45 51 61 52 32 53 33 54 44 56 62 57
REMARK SMILES IDX 35 58 22 59 23 60 28 61 24 62 25 63 27 64 29 65 26 66 48 67
REMARK SMILES IDX 49 68 54 69 50 70 51 71 53 72 55 73 52 74 36 75 37 76 42 77
REMARK SMILES IDX 38 78 39 79 41 80 43 81 40 82
REMARK H PARENT 6 6 69 13 10 25 60 44 34 55
REMARK Flexibility Score: inf
ROOT
ATOM      1  C   UNL A   1      37.569  19.587  24.987  1.00  0.00     0.042 C 
ENDROOT
BRANCH   1   2
ATOM      2  C   UNL A   1      36.199  20.325  24.834  1.00  0.00     0.117 C 
BRANCH   2   3
ATOM      3  N   UNL A   1      35.595  21.021  25.973  1.00  0.00    -0.356 N 
ATOM      4  C   UNL A   1      34.353  21.434  26.350  1.00  0.00     0.229 C 
ATOM      5  O   UNL A   1      34.261  21.637  27.577  1.00  0.00    -0.275 OA
ATOM      6  H   UNL A   1      36.271  21.253  26.651  1.00  0.00     0.163 HD
BRANCH   4   7
ATOM      7  C   UNL A   1      33.098  21.780  25.516  1.00  0.00     0.142 C 
ATOM      8  C   UNL A   1      31.673  23.966  25.625  1.00  0.00     0.076 C 
ATOM      9  C   UNL A   1      32.991  23.292  25.229  1.00  0.00     0.194 C 
ATOM     10  N   UNL A   1      33.097  23.473  23.774  1.00  0.00    -0.324 N 
ATOM     11  C   UNL A   1      32.811  21.112  24.196  1.00  0.00     0.081 C 
ATOM     12  C   UNL A   1      33.080  22.160  23.124  1.00  0.00     0.263 C 
ATOM     13  H   UNL A   1      32.280  23.986  23.444  1.00  0.00     0.348 HD
BRANCH  10  14
ATOM     14  C   UNL A   1      34.212  24.358  23.367  1.00  0.00     0.364 C 
BRANCH  14  15
ATOM     15  C   UNL A   1      33.691  25.620  22.663  1.00  0.00     0.277 C 
ATOM     16  O   UNL A   1      33.408  25.570  21.487  1.00  0.00    -0.268 OA
ATOM     17  N   UNL A   1      33.697  26.811  23.372  1.00  0.00    -0.338 N 
ATOM     18  C   UNL A   1      33.651  27.004  24.806  1.00  0.00     0.119 C 
ATOM     19  C   UNL A   1      33.828  28.079  22.702  1.00  0.00     0.119 C 
ATOM     20  C   UNL A   1      33.431  28.508  24.998  1.00  0.00     0.023 C 
ATOM     21  C   UNL A   1      33.151  29.071  23.609  1.00  0.00     0.023 C 
ENDBRANCH  14  15
ENDBRANCH  10  14
ENDBRANCH   4   7
ENDBRANCH   2   3
ENDBRANCH   1   2
BRANCH   1  22
ATOM     22  C   UNL A   1      38.754  20.217  25.744  1.00  0.00     0.118 C 
BRANCH  22  23
ATOM     23  N   UNL A   1      39.920  19.341  25.783  1.00  0.00    -0.352 N 
ATOM     24  C   UNL A   1      41.252  19.584  26.029  1.00  0.00     0.251 C 
ATOM     25  H   UNL A   1      39.715  18.396  25.600  1.00  0.00     0.163 HD
ATOM     26  O   UNL A   1      42.058  18.680  25.798  1.00  0.00    -0.269 OA
BRANCH  24  27
ATOM     27  C   UNL A   1      41.778  20.869  26.563  1.00  0.00     0.039 A 
ATOM     28  C   UNL A   1      41.628  21.118  27.936  1.00  0.00     0.014 A 
ATOM     29  C   UNL A   1      42.245  21.899  25.741  1.00  0.00     0.014 A 
ATOM     30  C   UNL A   1      41.947  22.371  28.480  1.00  0.00     0.010 A 
ATOM     31  C   UNL A   1      42.598  23.147  26.294  1.00  0.00     0.010 A 
ATOM     32  C   UNL A   1      42.435  23.406  27.666  1.00  0.00    -0.014 A 
BRANCH  32  33
ATOM     33  C   UNL A   1      42.717  24.749  28.263  1.00  0.00     0.031 A 
ATOM     34  C   UNL A   1      44.123  25.152  28.638  1.00  0.00     0.074 A 
ATOM     35  C   UNL A   1      41.717  25.636  28.440  1.00  0.00     0.049 A 
ATOM     36  N   UNL A   1      44.567  26.304  29.082  1.00  0.00    -0.248 NA
ATOM     37  C   UNL A   1      45.163  24.122  28.512  1.00  0.00     0.031 C 
ATOM     38  C   UNL A   1      40.304  25.377  28.161  1.00  0.00     0.029 A 
ATOM     39  N   UNL A   1      41.733  26.938  28.886  1.00  0.00    -0.354 N 
ATOM     40  C   UNL A   1      45.934  26.138  29.281  1.00  0.00     0.074 A 
ATOM     41  C   UNL A   1      46.233  24.757  28.969  1.00  0.00     0.031 C 
ATOM     42  C   UNL A   1      39.595  26.490  28.413  1.00  0.00     0.029 A 
ATOM     43  C   UNL A   1      40.496  27.538  28.888  1.00  0.00     0.049 A 
ATOM     44  H   UNL A   1      42.555  27.397  29.176  1.00  0.00     0.167 HD
ATOM     45  C   UNL A   1      46.862  27.051  29.663  1.00  0.00     0.037 A 
ATOM     46  C   UNL A   1      40.125  28.790  29.224  1.00  0.00     0.037 A 
ATOM     47  C   UNL A   1      46.574  28.431  29.970  1.00  0.00     0.049 A 
ATOM     48  C   UNL A   1      41.170  29.788  29.645  1.00  0.00     0.074 A 
ATOM     49  C   UNL A   1      47.454  29.439  30.325  1.00  0.00     0.029 A 
ATOM     50  N   UNL A   1      45.307  28.994  29.962  1.00  0.00    -0.354 N 
ATOM     51  N   UNL A   1      42.467  29.631  29.756  1.00  0.00    -0.248 NA
ATOM     52  C   UNL A   1      40.701  31.143  29.972  1.00  0.00     0.031 C 
ATOM     53  C   UNL A   1      46.715  30.601  30.576  1.00  0.00     0.029 A 
ATOM     54  C   UNL A   1      45.380  30.330  30.327  1.00  0.00     0.049 A 
ATOM     55  H   UNL A   1      44.479  28.515  29.731  1.00  0.00     0.167 HD
ATOM     56  C   UNL A   1      42.968  30.867  30.144  1.00  0.00     0.074 A 
ATOM     57  C   UNL A   1      41.840  31.770  30.226  1.00  0.00     0.031 C 
ATOM     58  C   UNL A   1      44.251  31.222  30.411  1.00  0.00     0.037 A 
BRANCH  45  59
ATOM     59  C   UNL A   1      48.289  26.585  29.767  1.00  0.00     0.057 A 
ATOM     60  C   UNL A   1      49.187  26.717  28.699  1.00  0.00     0.134 A 
ATOM     61  C   UNL A   1      48.781  26.027  30.953  1.00  0.00     0.134 A 
ATOM     62  F   UNL A   1      48.783  27.240  27.531  1.00  0.00    -0.206 F 
ATOM     63  C   UNL A   1      50.510  26.279  28.794  1.00  0.00     0.040 A 
ATOM     64  C   UNL A   1      50.109  25.610  31.070  1.00  0.00     0.040 A 
ATOM     65  F   UNL A   1      47.982  25.881  32.021  1.00  0.00    -0.206 F 
ATOM     66  C   UNL A   1      50.975  25.727  29.985  1.00  0.00     0.006 A 
ENDBRANCH  45  59
BRANCH  46  67
ATOM     67  C   UNL A   1      38.692  29.185  29.149  1.00  0.00     0.057 A 
ATOM     68  C   UNL A   1      38.120  29.627  27.949  1.00  0.00     0.134 A 
ATOM     69  C   UNL A   1      37.864  29.138  30.277  1.00  0.00     0.134 A 
ATOM     70  F   UNL A   1      38.866  29.718  26.839  1.00  0.00    -0.206 F 
ATOM     71  C   UNL A   1      36.783  30.023  27.878  1.00  0.00     0.040 A 
ATOM     72  C   UNL A   1      36.519  29.505  30.214  1.00  0.00     0.040 A 
ATOM     73  F   UNL A   1      38.350  28.722  31.456  1.00  0.00    -0.206 F 
ATOM     74  C   UNL A   1      35.976  29.956  29.013  1.00  0.00     0.006 A 
ENDBRANCH  46  67
BRANCH  58  75
ATOM     75  C   UNL A   1      44.503  32.651  30.798  1.00  0.00     0.057 A 
ATOM     76  C   UNL A   1      44.511  33.064  32.137  1.00  0.00     0.134 A 
ATOM     77  C   UNL A   1      44.765  33.621  29.823  1.00  0.00     0.134 A 
ATOM     78  F   UNL A   1      44.255  32.189  33.121  1.00  0.00    -0.206 F 
ATOM     79  C   UNL A   1      44.740  34.396  32.489  1.00  0.00     0.040 A 
ATOM     80  C   UNL A   1      45.023  34.950  30.164  1.00  0.00     0.040 A 
ATOM     81  F   UNL A   1      44.783  33.293  28.522  1.00  0.00    -0.206 F 
ATOM     82  C   UNL A   1      45.003  35.342  31.501  1.00  0.00     0.006 A 
ENDBRANCH  58  75
ENDBRANCH  32  33
ENDBRANCH  24  27
ENDBRANCH  22  23
ENDBRANCH   1  22
TORSDOF 12
ENDMDL
