MODEL 1
REMARK VINA RESULT:     -12.2      0.000      0.000
REMARK SMILES Cc1nn(C)c(=O)c(C(=O)N[C@H]2C=C[C@H](C(=O)NCCCNC(=O)c3ccc(-c4c5nc(c(-c6c(F)cccc6F)c6ccc([nH]6)c(-c6c(F)cccc6F)c6nc(c(-c7c(F)cccc7F)c7ccc4[nH]7)C=C6)C=C5)cc3)C2)c1C
REMARK SMILES IDX 20 1 19 2 18 3 16 4 17 5 15 7 12 8 13 9 79 10 14 11 11 12
REMARK SMILES IDX 9 13 10 14 8 16 1 17 2 18 3 19 80 20 4 21 81 22 5 23 6 24
REMARK SMILES IDX 7 25 21 26 22 27 23 28 24 30 25 31 26 32 78 33 27 34 77 35
REMARK SMILES IDX 28 36 29 37 30 38 71 39 31 40 76 41 70 42 72 43 32 44 75 45
REMARK SMILES IDX 69 46 68 47 33 49 59 50 42 51 58 52 43 53 46 54 57 55 73 56
REMARK SMILES IDX 44 57 45 58 56 60 74 61 47 62 34 63 35 64 40 65 36 66 37 67
REMARK SMILES IDX 39 68 41 69 38 70 60 71 61 72 66 73 62 74 63 75 65 76 67 77
REMARK SMILES IDX 64 78 48 79 49 80 54 81 50 82 51 83 53 84 55 85 52 86
REMARK H PARENT 18 6 11 15 22 29 72 48 46 59
REMARK Flexibility Score: inf
ROOT
ATOM      1  C   UNL A   1      37.796  19.824  24.650  1.00  0.00     0.042 C 
ENDROOT
BRANCH   1   2
ATOM      2  C   UNL A   1      36.374  20.227  25.006  1.00  0.00     0.117 C 
BRANCH   2   3
ATOM      3  N   UNL A   1      36.122  21.628  24.728  1.00  0.00    -0.356 N 
ATOM      4  C   UNL A   1      35.010  22.399  24.781  1.00  0.00     0.227 C 
ATOM      5  O   UNL A   1      35.142  23.554  24.358  1.00  0.00    -0.274 OA
ATOM      6  H   UNL A   1      36.926  22.120  24.442  1.00  0.00     0.163 HD
BRANCH   4   7
ATOM      7  C   UNL A   1      33.697  22.000  25.470  1.00  0.00     0.103 C 
ATOM      8  C   UNL A   1      32.660  23.867  26.639  1.00  0.00     0.106 C 
ATOM      9  C   UNL A   1      32.930  22.733  27.576  1.00  0.00    -0.006 C 
ATOM     10  C   UNL A   1      32.674  23.123  25.295  1.00  0.00     0.047 C 
ATOM     11  C   UNL A   1      33.596  21.748  26.944  1.00  0.00    -0.016 C 
BRANCH   8  12
ATOM     12  N   UNL A   1      31.396  24.506  26.858  1.00  0.00    -0.346 N 
ATOM     13  C   UNL A   1      30.836  25.606  26.269  1.00  0.00     0.257 C 
ATOM     14  O   UNL A   1      29.604  25.647  26.254  1.00  0.00    -0.269 OA
ATOM     15  H   UNL A   1      30.836  24.082  27.548  1.00  0.00     0.164 HD
BRANCH  13  16
ATOM     16  C   UNL A   1      31.632  26.772  25.740  1.00  0.00     0.111 A 
ATOM     17  C   UNL A   1      33.713  28.259  22.982  1.00  0.00     0.069 C 
ATOM     18  C   UNL A   1      32.799  28.215  24.188  1.00  0.00     0.062 A 
ATOM     19  N   UNL A   1      32.754  29.274  24.923  1.00  0.00    -0.175 NA
ATOM     20  C   UNL A   1      32.008  26.979  24.462  1.00  0.00    -0.010 A 
ATOM     21  N   UNL A   1      32.082  29.169  26.105  1.00  0.00    -0.232 N 
ATOM     22  C   UNL A   1      31.591  26.225  23.244  1.00  0.00     0.047 C 
ATOM     23  C   UNL A   1      31.890  30.414  26.827  1.00  0.00     0.178 C 
ATOM     24  C   UNL A   1      31.773  27.942  26.690  1.00  0.00     0.279 A 
ATOM     25  O   UNL A   1      31.559  27.818  27.894  1.00  0.00    -0.267 OA
ENDBRANCH  13  16
ENDBRANCH   8  12
ENDBRANCH   4   7
ENDBRANCH   2   3
ENDBRANCH   1   2
BRANCH   1  26
ATOM     26  C   UNL A   1      38.823  20.233  25.699  1.00  0.00     0.118 C 
BRANCH  26  27
ATOM     27  N   UNL A   1      39.942  19.302  25.787  1.00  0.00    -0.352 N 
ATOM     28  C   UNL A   1      41.267  19.516  26.090  1.00  0.00     0.251 C 
ATOM     29  H   UNL A   1      39.710  18.364  25.599  1.00  0.00     0.163 HD
ATOM     30  O   UNL A   1      42.079  18.620  25.909  1.00  0.00    -0.269 OA
BRANCH  28  31
ATOM     31  C   UNL A   1      41.713  20.829  26.606  1.00  0.00     0.039 A 
ATOM     32  C   UNL A   1      42.214  21.777  25.709  1.00  0.00     0.014 A 
ATOM     33  C   UNL A   1      41.658  21.122  27.971  1.00  0.00     0.014 A 
ATOM     34  C   UNL A   1      42.576  23.045  26.170  1.00  0.00     0.010 A 
ATOM     35  C   UNL A   1      41.927  22.411  28.414  1.00  0.00     0.010 A 
ATOM     36  C   UNL A   1      42.392  23.386  27.520  1.00  0.00    -0.014 A 
BRANCH  36  37
ATOM     37  C   UNL A   1      42.688  24.750  28.025  1.00  0.00     0.031 A 
ATOM     38  C   UNL A   1      44.092  25.121  28.413  1.00  0.00     0.074 A 
ATOM     39  C   UNL A   1      41.683  25.628  28.203  1.00  0.00     0.049 A 
ATOM     40  N   UNL A   1      44.535  26.226  28.955  1.00  0.00    -0.248 NA
ATOM     41  C   UNL A   1      45.134  24.104  28.190  1.00  0.00     0.031 C 
ATOM     42  C   UNL A   1      40.272  25.372  27.909  1.00  0.00     0.029 A 
ATOM     43  N   UNL A   1      41.694  26.914  28.684  1.00  0.00    -0.354 N 
ATOM     44  C   UNL A   1      45.896  26.032  29.150  1.00  0.00     0.074 A 
ATOM     45  C   UNL A   1      46.198  24.684  28.723  1.00  0.00     0.031 C 
ATOM     46  C   UNL A   1      39.557  26.475  28.186  1.00  0.00     0.029 A 
ATOM     47  C   UNL A   1      40.452  27.501  28.712  1.00  0.00     0.049 A 
ATOM     48  H   UNL A   1      42.513  27.372  28.980  1.00  0.00     0.167 HD
ATOM     49  C   UNL A   1      46.817  26.907  29.616  1.00  0.00     0.037 A 
ATOM     50  C   UNL A   1      40.076  28.728  29.121  1.00  0.00     0.037 A 
ATOM     51  C   UNL A   1      46.520  28.260  30.007  1.00  0.00     0.049 A 
ATOM     52  C   UNL A   1      41.115  29.681  29.639  1.00  0.00     0.074 A 
ATOM     53  C   UNL A   1      47.395  29.244  30.432  1.00  0.00     0.029 A 
ATOM     54  N   UNL A   1      45.251  28.818  30.015  1.00  0.00    -0.354 N 
ATOM     55  N   UNL A   1      42.407  29.502  29.767  1.00  0.00    -0.248 NA
ATOM     56  C   UNL A   1      40.646  31.007  30.070  1.00  0.00     0.031 C 
ATOM     57  C   UNL A   1      46.650  30.387  30.735  1.00  0.00     0.029 A 
ATOM     58  C   UNL A   1      45.317  30.129  30.458  1.00  0.00     0.049 A 
ATOM     59  H   UNL A   1      44.427  28.353  29.746  1.00  0.00     0.167 HD
ATOM     60  C   UNL A   1      42.908  30.694  30.274  1.00  0.00     0.074 A 
ATOM     61  C   UNL A   1      41.783  31.594  30.417  1.00  0.00     0.031 C 
ATOM     62  C   UNL A   1      44.186  31.011  30.594  1.00  0.00     0.037 A 
BRANCH  49  63
ATOM     63  C   UNL A   1      48.238  26.436  29.711  1.00  0.00     0.057 A 
ATOM     64  C   UNL A   1      49.149  26.633  28.665  1.00  0.00     0.134 A 
ATOM     65  C   UNL A   1      48.714  25.822  30.876  1.00  0.00     0.134 A 
ATOM     66  F   UNL A   1      48.752  27.203  27.517  1.00  0.00    -0.206 F 
ATOM     67  C   UNL A   1      50.477  26.217  28.765  1.00  0.00     0.040 A 
ATOM     68  C   UNL A   1      50.046  25.425  30.998  1.00  0.00     0.040 A 
ATOM     69  F   UNL A   1      47.895  25.607  31.916  1.00  0.00    -0.206 F 
ATOM     70  C   UNL A   1      50.931  25.619  29.939  1.00  0.00     0.006 A 
ENDBRANCH  49  63
BRANCH  50  71
ATOM     71  C   UNL A   1      38.651  29.133  29.018  1.00  0.00     0.057 A 
ATOM     72  C   UNL A   1      38.124  29.596  27.807  1.00  0.00     0.134 A 
ATOM     73  C   UNL A   1      37.781  29.045  30.110  1.00  0.00     0.134 A 
ATOM     74  F   UNL A   1      38.914  29.717  26.730  1.00  0.00    -0.206 F 
ATOM     75  C   UNL A   1      36.784  29.963  27.686  1.00  0.00     0.040 A 
ATOM     76  C   UNL A   1      36.433  29.390  29.998  1.00  0.00     0.040 A 
ATOM     77  F   UNL A   1      38.224  28.602  31.296  1.00  0.00    -0.206 F 
ATOM     78  C   UNL A   1      35.931  29.854  28.784  1.00  0.00     0.006 A 
ENDBRANCH  50  71
BRANCH  62  79
ATOM     79  C   UNL A   1      44.447  32.392  31.119  1.00  0.00     0.057 A 
ATOM     80  C   UNL A   1      44.458  32.663  32.493  1.00  0.00     0.134 A 
ATOM     81  C   UNL A   1      44.765  33.440  30.247  1.00  0.00     0.134 A 
ATOM     82  F   UNL A   1      44.150  31.703  33.378  1.00  0.00    -0.206 F 
ATOM     83  C   UNL A   1      44.769  33.933  32.980  1.00  0.00     0.040 A 
ATOM     84  C   UNL A   1      45.103  34.707  30.724  1.00  0.00     0.040 A 
ATOM     85  F   UNL A   1      44.782  33.241  28.920  1.00  0.00    -0.206 F 
ATOM     86  C   UNL A   1      45.103  34.956  32.095  1.00  0.00     0.006 A 
ENDBRANCH  62  79
ENDBRANCH  36  37
ENDBRANCH  28  31
ENDBRANCH  26  27
ENDBRANCH   1  26
TORSDOF 12
ENDMDL
MODEL 2
REMARK VINA RESULT:     -12.2      2.250      7.701
REMARK SMILES Cc1nn(C)c(=O)c(C(=O)N[C@H]2C=C[C@H](C(=O)NCCCNC(=O)c3ccc(-c4c5nc(c(-c6c(F)cccc6F)c6ccc([nH]6)c(-c6c(F)cccc6F)c6nc(c(-c7c(F)cccc7F)c7ccc4[nH]7)C=C6)C=C5)cc3)C2)c1C
REMARK SMILES IDX 20 1 19 2 18 3 16 4 17 5 15 7 12 8 13 9 79 10 14 11 11 12
REMARK SMILES IDX 9 13 10 14 8 16 1 17 2 18 3 19 80 20 4 21 81 22 5 23 6 24
REMARK SMILES IDX 7 25 21 26 22 27 23 28 24 30 25 31 26 32 78 33 27 34 77 35
REMARK SMILES IDX 28 36 29 37 30 38 71 39 31 40 76 41 70 42 72 43 32 44 75 45
REMARK SMILES IDX 69 46 68 47 33 49 59 50 42 51 58 52 43 53 46 54 57 55 73 56
REMARK SMILES IDX 44 57 45 58 56 60 74 61 47 62 34 63 35 64 40 65 36 66 37 67
REMARK SMILES IDX 39 68 41 69 38 70 60 71 61 72 66 73 62 74 63 75 65 76 67 77
REMARK SMILES IDX 64 78 48 79 49 80 54 81 50 82 51 83 53 84 55 85 52 86
REMARK H PARENT 18 6 11 15 22 29 72 48 46 59
REMARK Flexibility Score: inf
ROOT
ATOM      1  C   UNL A   1      33.930  28.735  25.729  1.00  0.00     0.042 C 
ENDROOT
BRANCH   1   2
ATOM      2  C   UNL A   1      32.917  29.701  25.135  1.00  0.00     0.117 C 
BRANCH   2   3
ATOM      3  N   UNL A   1      32.512  29.310  23.799  1.00  0.00    -0.356 N 
ATOM      4  C   UNL A   1      31.525  28.514  23.324  1.00  0.00     0.227 C 
ATOM      5  O   UNL A   1      31.544  28.311  22.104  1.00  0.00    -0.274 OA
ATOM      6  H   UNL A   1      33.071  29.704  23.090  1.00  0.00     0.163 HD
BRANCH   4   7
ATOM      7  C   UNL A   1      30.328  28.014  24.147  1.00  0.00     0.103 C 
ATOM      8  C   UNL A   1      30.450  25.625  24.601  1.00  0.00     0.106 C 
ATOM      9  C   UNL A   1      29.187  25.968  23.876  1.00  0.00    -0.006 C 
ATOM     10  C   UNL A   1      30.816  26.999  25.181  1.00  0.00     0.047 C 
ATOM     11  C   UNL A   1      29.177  27.271  23.539  1.00  0.00    -0.016 C 
BRANCH   8  12
ATOM     12  N   UNL A   1      30.270  24.659  25.645  1.00  0.00    -0.346 N 
ATOM     13  C   UNL A   1      31.155  23.788  26.218  1.00  0.00     0.257 C 
ATOM     14  O   UNL A   1      30.911  23.452  27.379  1.00  0.00    -0.269 OA
ATOM     15  H   UNL A   1      29.357  24.615  26.010  1.00  0.00     0.164 HD
BRANCH  13  16
ATOM     16  C   UNL A   1      32.321  23.173  25.488  1.00  0.00     0.111 A 
ATOM     17  C   UNL A   1      35.592  23.630  23.686  1.00  0.00     0.069 C 
ATOM     18  C   UNL A   1      34.510  22.934  24.485  1.00  0.00     0.062 A 
ATOM     19  N   UNL A   1      34.518  21.644  24.475  1.00  0.00    -0.175 NA
ATOM     20  C   UNL A   1      33.512  23.753  25.233  1.00  0.00    -0.010 A 
ATOM     21  N   UNL A   1      33.440  21.023  25.034  1.00  0.00    -0.232 N 
ATOM     22  C   UNL A   1      34.035  25.052  25.751  1.00  0.00     0.047 C 
ATOM     23  C   UNL A   1      33.554  19.583  25.174  1.00  0.00     0.178 C 
ATOM     24  C   UNL A   1      32.234  21.677  25.274  1.00  0.00     0.279 A 
ATOM     25  O   UNL A   1      31.165  21.079  25.375  1.00  0.00    -0.267 OA
ENDBRANCH  13  16
ENDBRANCH   8  12
ENDBRANCH   4   7
ENDBRANCH   2   3
ENDBRANCH   1   2
BRANCH   1  26
ATOM     26  C   UNL A   1      33.892  28.676  27.251  1.00  0.00     0.118 C 
BRANCH  26  27
ATOM     27  N   UNL A   1      33.904  29.997  27.868  1.00  0.00    -0.352 N 
ATOM     28  C   UNL A   1      34.881  30.643  28.590  1.00  0.00     0.251 C 
ATOM     29  H   UNL A   1      33.073  30.513  27.748  1.00  0.00     0.163 HD
ATOM     30  O   UNL A   1      34.606  31.672  29.191  1.00  0.00    -0.269 OA
BRANCH  28  31
ATOM     31  C   UNL A   1      36.250  30.085  28.661  1.00  0.00     0.039 A 
ATOM     32  C   UNL A   1      37.075  30.164  27.536  1.00  0.00     0.014 A 
ATOM     33  C   UNL A   1      36.715  29.467  29.824  1.00  0.00     0.014 A 
ATOM     34  C   UNL A   1      38.392  29.704  27.608  1.00  0.00     0.010 A 
ATOM     35  C   UNL A   1      38.051  29.098  29.926  1.00  0.00     0.010 A 
ATOM     36  C   UNL A   1      38.903  29.208  28.818  1.00  0.00    -0.014 A 
BRANCH  36  37
ATOM     37  C   UNL A   1      40.321  28.789  28.949  1.00  0.00     0.031 A 
ATOM     38  C   UNL A   1      41.346  29.755  29.475  1.00  0.00     0.074 A 
ATOM     39  C   UNL A   1      40.697  27.566  28.528  1.00  0.00     0.049 A 
ATOM     40  N   UNL A   1      42.642  29.609  29.579  1.00  0.00    -0.248 NA
ATOM     41  C   UNL A   1      40.854  31.072  29.912  1.00  0.00     0.031 C 
ATOM     42  C   UNL A   1      39.806  26.556  27.955  1.00  0.00     0.029 A 
ATOM     43  N   UNL A   1      41.933  26.969  28.507  1.00  0.00    -0.354 N 
ATOM     44  C   UNL A   1      43.118  30.813  30.079  1.00  0.00     0.074 A 
ATOM     45  C   UNL A   1      41.983  31.701  30.202  1.00  0.00     0.031 C 
ATOM     46  C   UNL A   1      40.517  25.453  27.670  1.00  0.00     0.029 A 
ATOM     47  C   UNL A   1      41.918  25.692  28.001  1.00  0.00     0.049 A 
ATOM     48  H   UNL A   1      42.752  27.413  28.826  1.00  0.00     0.167 HD
ATOM     49  C   UNL A   1      44.383  31.142  30.430  1.00  0.00     0.037 A 
ATOM     50  C   UNL A   1      42.922  24.813  27.820  1.00  0.00     0.037 A 
ATOM     51  C   UNL A   1      45.505  30.245  30.340  1.00  0.00     0.049 A 
ATOM     52  C   UNL A   1      44.319  25.201  28.213  1.00  0.00     0.074 A 
ATOM     53  C   UNL A   1      46.814  30.464  30.731  1.00  0.00     0.029 A 
ATOM     54  N   UNL A   1      45.447  28.958  29.828  1.00  0.00    -0.354 N 
ATOM     55  N   UNL A   1      44.747  26.326  28.734  1.00  0.00    -0.248 NA
ATOM     56  C   UNL A   1      45.375  24.201  27.994  1.00  0.00     0.031 C 
ATOM     57  C   UNL A   1      47.557  29.322  30.419  1.00  0.00     0.029 A 
ATOM     58  C   UNL A   1      46.704  28.378  29.874  1.00  0.00     0.049 A 
ATOM     59  H   UNL A   1      44.635  28.523  29.484  1.00  0.00     0.167 HD
ATOM     60  C   UNL A   1      46.113  26.163  28.923  1.00  0.00     0.074 A 
ATOM     61  C   UNL A   1      46.441  24.826  28.473  1.00  0.00     0.031 C 
ATOM     62  C   UNL A   1      47.013  27.045  29.422  1.00  0.00     0.037 A 
BRANCH  49  63
ATOM     63  C   UNL A   1      44.620  32.524  30.963  1.00  0.00     0.057 A 
ATOM     64  C   UNL A   1      44.540  32.807  32.333  1.00  0.00     0.134 A 
ATOM     65  C   UNL A   1      44.976  33.573  30.106  1.00  0.00     0.134 A 
ATOM     66  F   UNL A   1      44.190  31.849  33.205  1.00  0.00    -0.206 F 
ATOM     67  C   UNL A   1      44.785  34.087  32.830  1.00  0.00     0.040 A 
ATOM     68  C   UNL A   1      45.249  34.851  30.594  1.00  0.00     0.040 A 
ATOM     69  F   UNL A   1      45.074  33.369  28.784  1.00  0.00    -0.206 F 
ATOM     70  C   UNL A   1      45.150  35.112  31.959  1.00  0.00     0.006 A 
ENDBRANCH  49  63
BRANCH  50  71
ATOM     71  C   UNL A   1      42.630  23.464  27.273  1.00  0.00     0.057 A 
ATOM     72  C   UNL A   1      42.296  22.404  28.123  1.00  0.00     0.134 A 
ATOM     73  C   UNL A   1      42.652  23.208  25.897  1.00  0.00     0.134 A 
ATOM     74  F   UNL A   1      42.275  22.585  29.452  1.00  0.00    -0.206 F 
ATOM     75  C   UNL A   1      42.000  21.134  27.626  1.00  0.00     0.040 A 
ATOM     76  C   UNL A   1      42.338  21.948  25.385  1.00  0.00     0.040 A 
ATOM     77  F   UNL A   1      42.957  24.185  25.031  1.00  0.00    -0.206 F 
ATOM     78  C   UNL A   1      42.014  20.905  26.251  1.00  0.00     0.006 A 
ENDBRANCH  50  71
BRANCH  62  79
ATOM     79  C   UNL A   1      48.440  26.595  29.523  1.00  0.00     0.057 A 
ATOM     80  C   UNL A   1      49.370  26.877  28.514  1.00  0.00     0.134 A 
ATOM     81  C   UNL A   1      48.905  25.944  30.672  1.00  0.00     0.134 A 
ATOM     82  F   UNL A   1      48.983  27.488  27.385  1.00  0.00    -0.206 F 
ATOM     83  C   UNL A   1      50.712  26.518  28.643  1.00  0.00     0.040 A 
ATOM     84  C   UNL A   1      50.249  25.604  30.822  1.00  0.00     0.040 A 
ATOM     85  F   UNL A   1      48.066  25.656  31.679  1.00  0.00    -0.206 F 
ATOM     86  C   UNL A   1      51.156  25.889  29.804  1.00  0.00     0.006 A 
ENDBRANCH  62  79
ENDBRANCH  36  37
ENDBRANCH  28  31
ENDBRANCH  26  27
ENDBRANCH   1  26
TORSDOF 12
ENDMDL
MODEL 3
REMARK VINA RESULT:     -12.1      1.376      2.223
REMARK SMILES Cc1nn(C)c(=O)c(C(=O)N[C@H]2C=C[C@H](C(=O)NCCCNC(=O)c3ccc(-c4c5nc(c(-c6c(F)cccc6F)c6ccc([nH]6)c(-c6c(F)cccc6F)c6nc(c(-c7c(F)cccc7F)c7ccc4[nH]7)C=C6)C=C5)cc3)C2)c1C
REMARK SMILES IDX 20 1 19 2 18 3 16 4 17 5 15 7 12 8 13 9 79 10 14 11 11 12
REMARK SMILES IDX 9 13 10 14 8 16 1 17 2 18 3 19 80 20 4 21 81 22 5 23 6 24
REMARK SMILES IDX 7 25 21 26 22 27 23 28 24 30 25 31 26 32 78 33 27 34 77 35
REMARK SMILES IDX 28 36 29 37 30 38 71 39 31 40 76 41 70 42 72 43 32 44 75 45
REMARK SMILES IDX 69 46 68 47 33 49 59 50 42 51 58 52 43 53 46 54 57 55 73 56
REMARK SMILES IDX 44 57 45 58 56 60 74 61 47 62 34 63 35 64 40 65 36 66 37 67
REMARK SMILES IDX 39 68 41 69 38 70 60 71 61 72 66 73 62 74 63 75 65 76 67 77
REMARK SMILES IDX 64 78 48 79 49 80 54 81 50 82 51 83 53 84 55 85 52 86
REMARK H PARENT 18 6 11 15 22 29 72 48 46 59
REMARK Flexibility Score: inf
ROOT
ATOM      1  C   UNL A   1      37.802  19.583  25.043  1.00  0.00     0.042 C 
ENDROOT
BRANCH   1   2
ATOM      2  C   UNL A   1      36.761  20.612  24.633  1.00  0.00     0.117 C 
BRANCH   2   3
ATOM      3  N   UNL A   1      35.711  20.746  25.624  1.00  0.00    -0.356 N 
ATOM      4  C   UNL A   1      34.424  21.161  25.562  1.00  0.00     0.227 C 
ATOM      5  O   UNL A   1      33.841  21.254  26.649  1.00  0.00    -0.274 OA
ATOM      6  H   UNL A   1      35.993  20.480  26.530  1.00  0.00     0.163 HD
BRANCH   4   7
ATOM      7  C   UNL A   1      33.622  21.345  24.265  1.00  0.00     0.103 C 
ATOM      8  C   UNL A   1      33.294  23.690  23.702  1.00  0.00     0.106 C 
ATOM      9  C   UNL A   1      31.982  22.985  23.841  1.00  0.00    -0.006 C 
ATOM     10  C   UNL A   1      34.225  22.494  23.457  1.00  0.00     0.047 C 
ATOM     11  C   UNL A   1      32.170  21.717  24.252  1.00  0.00    -0.016 C 
BRANCH   8  12
ATOM     12  N   UNL A   1      33.340  24.609  22.604  1.00  0.00    -0.346 N 
ATOM     13  C   UNL A   1      33.238  25.973  22.575  1.00  0.00     0.257 C 
ATOM     14  O   UNL A   1      33.798  26.539  21.634  1.00  0.00    -0.269 OA
ATOM     15  H   UNL A   1      33.466  24.189  21.722  1.00  0.00     0.164 HD
BRANCH  13  16
ATOM     16  C   UNL A   1      32.422  26.775  23.555  1.00  0.00     0.111 A 
ATOM     17  C   UNL A   1      31.753  27.784  27.117  1.00  0.00     0.069 C 
ATOM     18  C   UNL A   1      31.767  27.879  25.606  1.00  0.00     0.062 A 
ATOM     19  N   UNL A   1      30.911  28.680  25.065  1.00  0.00    -0.175 NA
ATOM     20  C   UNL A   1      32.749  27.066  24.831  1.00  0.00    -0.010 A 
ATOM     21  N   UNL A   1      30.796  28.624  23.708  1.00  0.00    -0.232 N 
ATOM     22  C   UNL A   1      34.048  26.831  25.526  1.00  0.00     0.047 C 
ATOM     23  C   UNL A   1      29.965  29.652  23.109  1.00  0.00     0.178 C 
ATOM     24  C   UNL A   1      31.268  27.550  22.955  1.00  0.00     0.279 A 
ATOM     25  O   UNL A   1      30.828  27.279  21.840  1.00  0.00    -0.267 OA
ENDBRANCH  13  16
ENDBRANCH   8  12
ENDBRANCH   4   7
ENDBRANCH   2   3
ENDBRANCH   1   2
BRANCH   1  26
ATOM     26  C   UNL A   1      39.000  20.185  25.766  1.00  0.00     0.118 C 
BRANCH  26  27
ATOM     27  N   UNL A   1      40.148  19.288  25.803  1.00  0.00    -0.352 N 
ATOM     28  C   UNL A   1      41.475  19.537  26.065  1.00  0.00     0.251 C 
ATOM     29  H   UNL A   1      39.938  18.345  25.610  1.00  0.00     0.163 HD
ATOM     30  O   UNL A   1      42.307  18.668  25.844  1.00  0.00    -0.269 OA
BRANCH  28  31
ATOM     31  C   UNL A   1      41.900  20.856  26.585  1.00  0.00     0.039 A 
ATOM     32  C   UNL A   1      42.329  21.835  25.685  1.00  0.00     0.014 A 
ATOM     33  C   UNL A   1      41.896  21.123  27.956  1.00  0.00     0.014 A 
ATOM     34  C   UNL A   1      42.669  23.106  26.154  1.00  0.00     0.010 A 
ATOM     35  C   UNL A   1      42.140  22.413  28.411  1.00  0.00     0.010 A 
ATOM     36  C   UNL A   1      42.533  23.418  27.516  1.00  0.00    -0.014 A 
BRANCH  36  37
ATOM     37  C   UNL A   1      42.805  24.783  28.032  1.00  0.00     0.031 A 
ATOM     38  C   UNL A   1      44.201  25.171  28.434  1.00  0.00     0.074 A 
ATOM     39  C   UNL A   1      41.786  25.645  28.208  1.00  0.00     0.049 A 
ATOM     40  N   UNL A   1      44.623  26.279  28.988  1.00  0.00    -0.248 NA
ATOM     41  C   UNL A   1      45.259  24.171  28.213  1.00  0.00     0.031 C 
ATOM     42  C   UNL A   1      40.381  25.371  27.901  1.00  0.00     0.029 A 
ATOM     43  N   UNL A   1      41.774  26.928  28.698  1.00  0.00    -0.354 N 
ATOM     44  C   UNL A   1      45.985  26.103  29.193  1.00  0.00     0.074 A 
ATOM     45  C   UNL A   1      46.310  24.762  28.759  1.00  0.00     0.031 C 
ATOM     46  C   UNL A   1      39.649  26.462  28.179  1.00  0.00     0.029 A 
ATOM     47  C   UNL A   1      40.524  27.497  28.720  1.00  0.00     0.049 A 
ATOM     48  H   UNL A   1      42.585  27.395  29.003  1.00  0.00     0.167 HD
ATOM     49  C   UNL A   1      46.889  26.988  29.672  1.00  0.00     0.037 A 
ATOM     50  C   UNL A   1      40.127  28.715  29.133  1.00  0.00     0.037 A 
ATOM     51  C   UNL A   1      46.570  28.333  30.070  1.00  0.00     0.049 A 
ATOM     52  C   UNL A   1      41.148  29.680  29.667  1.00  0.00     0.074 A 
ATOM     53  C   UNL A   1      47.427  29.327  30.509  1.00  0.00     0.029 A 
ATOM     54  N   UNL A   1      45.293  28.874  30.071  1.00  0.00    -0.354 N 
ATOM     55  N   UNL A   1      42.442  29.519  29.805  1.00  0.00    -0.248 NA
ATOM     56  C   UNL A   1      40.657  30.996  30.103  1.00  0.00     0.031 C 
ATOM     57  C   UNL A   1      46.663  30.457  30.813  1.00  0.00     0.029 A 
ATOM     58  C   UNL A   1      45.337  30.182  30.524  1.00  0.00     0.049 A 
ATOM     59  H   UNL A   1      44.478  28.399  29.792  1.00  0.00     0.167 HD
ATOM     60  C   UNL A   1      42.922  30.714  30.323  1.00  0.00     0.074 A 
ATOM     61  C   UNL A   1      41.782  31.597  30.463  1.00  0.00     0.031 C 
ATOM     62  C   UNL A   1      44.192  31.047  30.656  1.00  0.00     0.037 A 
BRANCH  49  63
ATOM     63  C   UNL A   1      48.316  26.537  29.776  1.00  0.00     0.057 A 
ATOM     64  C   UNL A   1      48.792  25.859  30.906  1.00  0.00     0.134 A 
ATOM     65  C   UNL A   1      49.212  26.740  28.720  1.00  0.00     0.134 A 
ATOM     66  F   UNL A   1      47.987  25.645  31.959  1.00  0.00    -0.206 F 
ATOM     67  C   UNL A   1      50.113  25.417  30.991  1.00  0.00     0.040 A 
ATOM     68  C   UNL A   1      50.528  26.280  28.782  1.00  0.00     0.040 A 
ATOM     69  F   UNL A   1      48.820  27.379  27.607  1.00  0.00    -0.206 F 
ATOM     70  C   UNL A   1      50.983  25.619  29.922  1.00  0.00     0.006 A 
ENDBRANCH  49  63
BRANCH  50  71
ATOM     71  C   UNL A   1      38.698  29.101  29.021  1.00  0.00     0.057 A 
ATOM     72  C   UNL A   1      37.850  29.037  30.133  1.00  0.00     0.134 A 
ATOM     73  C   UNL A   1      38.153  29.564  27.818  1.00  0.00     0.134 A 
ATOM     74  F   UNL A   1      38.312  28.585  31.309  1.00  0.00    -0.206 F 
ATOM     75  C   UNL A   1      36.509  29.413  30.052  1.00  0.00     0.040 A 
ATOM     76  C   UNL A   1      36.819  29.963  27.728  1.00  0.00     0.040 A 
ATOM     77  F   UNL A   1      38.917  29.656  26.720  1.00  0.00    -0.206 F 
ATOM     78  C   UNL A   1      35.991  29.885  28.846  1.00  0.00     0.006 A 
ENDBRANCH  50  71
BRANCH  62  79
ATOM     79  C   UNL A   1      44.429  32.427  31.193  1.00  0.00     0.057 A 
ATOM     80  C   UNL A   1      44.400  32.694  32.567  1.00  0.00     0.134 A 
ATOM     81  C   UNL A   1      44.764  33.481  30.333  1.00  0.00     0.134 A 
ATOM     82  F   UNL A   1      44.075  31.729  33.440  1.00  0.00    -0.206 F 
ATOM     83  C   UNL A   1      44.689  33.964  33.067  1.00  0.00     0.040 A 
ATOM     84  C   UNL A   1      45.079  34.748  30.823  1.00  0.00     0.040 A 
ATOM     85  F   UNL A   1      44.818  33.287  29.006  1.00  0.00    -0.206 F 
ATOM     86  C   UNL A   1      45.040  34.993  32.194  1.00  0.00     0.006 A 
ENDBRANCH  62  79
ENDBRANCH  36  37
ENDBRANCH  28  31
ENDBRANCH  26  27
ENDBRANCH   1  26
TORSDOF 12
ENDMDL
