MODEL 1
REMARK VINA RESULT:     -12.7      0.000      0.000
REMARK SMILES CC(C)(C)c1cc2c(cc1Cl)C=C(C(=O)NCCCNC(=O)c1ccc(-c3c4nc(c(-c5c(F)cccc5F)c5ccc([nH]5)c(-c5c(F)cccc5F)c5nc(c(-c6c(F)cccc6F)c6ccc3[nH]6)C=C5)C=C4)cc1)[C@@H](C(F)(F)F)O2
REMARK SMILES IDX 18 1 17 2 16 3 14 4 15 5 13 7 5 8 6 9 10 10 7 11 9 12 11 13
REMARK SMILES IDX 8 14 82 15 12 16 77 17 2 18 1 19 3 20 4 21 78 22 79 23 80 24
REMARK SMILES IDX 81 25 19 26 20 27 21 28 22 30 23 31 24 32 76 33 25 34 75 35
REMARK SMILES IDX 26 36 27 37 28 38 69 39 29 40 74 41 68 42 70 43 30 44 73 45
REMARK SMILES IDX 67 46 66 47 31 49 57 50 40 51 56 52 41 53 44 54 55 55 71 56
REMARK SMILES IDX 42 57 43 58 54 60 72 61 45 62 32 63 33 64 38 65 34 66 35 67
REMARK SMILES IDX 37 68 39 69 36 70 58 71 59 72 64 73 60 74 61 75 63 76 65 77
REMARK SMILES IDX 62 78 46 79 47 80 52 81 48 82 49 83 51 84 53 85 50 86
REMARK H PARENT 16 6 20 29 70 48 44 59
REMARK Flexibility Score: inf
ROOT
ATOM      1  C   UNL A   1      37.684  19.793  25.006  1.00  0.00     0.042 C 
ENDROOT
BRANCH   1   2
ATOM      2  C   UNL A   1      36.620  20.879  24.967  1.00  0.00     0.118 C 
BRANCH   2   3
ATOM      3  N   UNL A   1      35.315  20.345  24.605  1.00  0.00    -0.352 N 
ATOM      4  C   UNL A   1      34.028  20.759  24.639  1.00  0.00     0.251 C 
ATOM      5  O   UNL A   1      33.203  19.930  24.241  1.00  0.00    -0.270 OA
ATOM      6  H   UNL A   1      35.390  19.435  24.237  1.00  0.00     0.163 HD
BRANCH   4   7
ATOM      7  C   UNL A   1      33.567  22.098  25.103  1.00  0.00     0.067 C 
ATOM      8  C   UNL A   1      32.710  27.079  25.626  1.00  0.00    -0.020 A 
ATOM      9  C   UNL A   1      32.215  25.895  26.215  1.00  0.00     0.053 A 
ATOM     10  C   UNL A   1      33.592  26.901  24.530  1.00  0.00     0.045 A 
ATOM     11  C   UNL A   1      32.608  24.629  25.781  1.00  0.00     0.128 A 
ATOM     12  C   UNL A   1      33.973  25.618  24.092  1.00  0.00     0.032 A 
ATOM     13  Cl  UNL A   1      34.271  28.200  23.609  1.00  0.00    -0.084 Cl
ATOM     14  C   UNL A   1      33.493  24.477  24.724  1.00  0.00     0.019 A 
ATOM     15  O   UNL A   1      32.051  23.562  26.428  1.00  0.00    -0.475 OA
ATOM     16  C   UNL A   1      33.874  23.136  24.301  1.00  0.00     0.025 C 
ATOM     17  C   UNL A   1      32.837  22.339  26.394  1.00  0.00     0.314 C 
BRANCH   8  18
ATOM     18  C   UNL A   1      32.272  28.450  26.198  1.00  0.00    -0.012 C 
ATOM     19  C   UNL A   1      31.403  28.334  27.486  1.00  0.00     0.016 C 
ATOM     20  C   UNL A   1      31.404  29.209  25.175  1.00  0.00     0.016 C 
ATOM     21  C   UNL A   1      33.492  29.300  26.618  1.00  0.00     0.016 C 
ENDBRANCH   8  18
BRANCH  17  22
ATOM     22  C   UNL A   1      33.763  22.297  27.626  1.00  0.00     0.429 C 
ATOM     23  F   UNL A   1      33.058  22.579  28.751  1.00  0.00    -0.167 F 
ATOM     24  F   UNL A   1      34.319  21.078  27.819  1.00  0.00    -0.167 F 
ATOM     25  F   UNL A   1      34.779  23.184  27.551  1.00  0.00    -0.167 F 
ENDBRANCH  17  22
ENDBRANCH   4   7
ENDBRANCH   2   3
ENDBRANCH   1   2
BRANCH   1  26
ATOM     26  C   UNL A   1      38.935  20.239  25.751  1.00  0.00     0.118 C 
BRANCH  26  27
ATOM     27  N   UNL A   1      39.940  19.179  25.820  1.00  0.00    -0.352 N 
ATOM     28  C   UNL A   1      41.305  19.255  25.966  1.00  0.00     0.251 C 
ATOM     29  H   UNL A   1      39.583  18.266  25.751  1.00  0.00     0.163 HD
ATOM     30  O   UNL A   1      41.998  18.261  25.764  1.00  0.00    -0.269 OA
BRANCH  28  31
ATOM     31  C   UNL A   1      41.937  20.532  26.346  1.00  0.00     0.039 A 
ATOM     32  C   UNL A   1      42.116  20.853  27.691  1.00  0.00     0.014 A 
ATOM     33  C   UNL A   1      42.350  21.425  25.352  1.00  0.00     0.014 A 
ATOM     34  C   UNL A   1      42.504  22.136  28.044  1.00  0.00     0.010 A 
ATOM     35  C   UNL A   1      42.853  22.678  25.712  1.00  0.00     0.010 A 
ATOM     36  C   UNL A   1      42.879  23.065  27.061  1.00  0.00    -0.014 A 
BRANCH  36  37
ATOM     37  C   UNL A   1      43.278  24.432  27.480  1.00  0.00     0.031 A 
ATOM     38  C   UNL A   1      44.711  24.882  27.380  1.00  0.00     0.074 A 
ATOM     39  C   UNL A   1      42.323  25.298  27.876  1.00  0.00     0.049 A 
ATOM     40  N   UNL A   1      45.232  26.048  27.671  1.00  0.00    -0.248 NA
ATOM     41  C   UNL A   1      45.689  23.896  26.894  1.00  0.00     0.031 C 
ATOM     42  C   UNL A   1      40.897  24.983  27.998  1.00  0.00     0.029 A 
ATOM     43  N   UNL A   1      42.399  26.624  28.212  1.00  0.00    -0.354 N 
ATOM     44  C   UNL A   1      46.596  25.926  27.433  1.00  0.00     0.074 A 
ATOM     45  C   UNL A   1      46.828  24.567  26.997  1.00  0.00     0.031 C 
ATOM     46  C   UNL A   1      40.225  26.101  28.308  1.00  0.00     0.029 A 
ATOM     47  C   UNL A   1      41.177  27.191  28.483  1.00  0.00     0.049 A 
ATOM     48  H   UNL A   1      43.246  27.123  28.255  1.00  0.00     0.167 HD
ATOM     49  C   UNL A   1      47.565  26.866  27.557  1.00  0.00     0.037 A 
ATOM     50  C   UNL A   1      40.860  28.446  28.848  1.00  0.00     0.037 A 
ATOM     51  C   UNL A   1      47.326  28.226  27.965  1.00  0.00     0.049 A 
ATOM     52  C   UNL A   1      41.958  29.451  29.020  1.00  0.00     0.074 A 
ATOM     53  C   UNL A   1      48.236  29.260  28.100  1.00  0.00     0.029 A 
ATOM     54  N   UNL A   1      46.083  28.742  28.301  1.00  0.00    -0.354 N 
ATOM     55  N   UNL A   1      43.243  29.319  28.794  1.00  0.00    -0.248 NA
ATOM     56  C   UNL A   1      41.565  30.775  29.519  1.00  0.00     0.031 C 
ATOM     57  C   UNL A   1      47.549  30.392  28.556  1.00  0.00     0.029 A 
ATOM     58  C   UNL A   1      46.205  30.073  28.665  1.00  0.00     0.049 A 
ATOM     59  H   UNL A   1      45.238  28.237  28.284  1.00  0.00     0.167 HD
ATOM     60  C   UNL A   1      43.810  30.545  29.112  1.00  0.00     0.074 A 
ATOM     61  C   UNL A   1      42.725  31.413  29.522  1.00  0.00     0.031 C 
ATOM     62  C   UNL A   1      45.113  30.917  29.076  1.00  0.00     0.037 A 
BRANCH  49  63
ATOM     63  C   UNL A   1      48.976  26.442  27.271  1.00  0.00     0.057 A 
ATOM     64  C   UNL A   1      49.488  26.505  25.967  1.00  0.00     0.134 A 
ATOM     65  C   UNL A   1      49.826  25.958  28.273  1.00  0.00     0.134 A 
ATOM     66  F   UNL A   1      48.726  26.955  24.959  1.00  0.00    -0.206 F 
ATOM     67  C   UNL A   1      50.792  26.106  25.673  1.00  0.00     0.040 A 
ATOM     68  C   UNL A   1      51.141  25.578  27.995  1.00  0.00     0.040 A 
ATOM     69  F   UNL A   1      49.406  25.887  29.545  1.00  0.00    -0.206 F 
ATOM     70  C   UNL A   1      51.626  25.647  26.691  1.00  0.00     0.006 A 
ENDBRANCH  49  63
BRANCH  50  71
ATOM     71  C   UNL A   1      39.443  28.815  29.091  1.00  0.00     0.057 A 
ATOM     72  C   UNL A   1      38.644  29.350  28.074  1.00  0.00     0.134 A 
ATOM     73  C   UNL A   1      38.854  28.630  30.345  1.00  0.00     0.134 A 
ATOM     74  F   UNL A   1      39.152  29.555  26.849  1.00  0.00    -0.206 F 
ATOM     75  C   UNL A   1      37.313  29.702  28.299  1.00  0.00     0.040 A 
ATOM     76  C   UNL A   1      37.516  28.952  30.578  1.00  0.00     0.040 A 
ATOM     77  F   UNL A   1      39.564  28.103  31.354  1.00  0.00    -0.206 F 
ATOM     78  C   UNL A   1      36.744  29.496  29.553  1.00  0.00     0.006 A 
ENDBRANCH  50  71
BRANCH  62  79
ATOM     79  C   UNL A   1      45.418  32.329  29.475  1.00  0.00     0.057 A 
ATOM     80  C   UNL A   1      45.377  33.363  28.531  1.00  0.00     0.134 A 
ATOM     81  C   UNL A   1      45.750  32.666  30.793  1.00  0.00     0.134 A 
ATOM     82  F   UNL A   1      45.070  33.105  27.251  1.00  0.00    -0.206 F 
ATOM     83  C   UNL A   1      45.652  34.684  28.886  1.00  0.00     0.040 A 
ATOM     84  C   UNL A   1      46.003  33.986  31.165  1.00  0.00     0.040 A 
ATOM     85  F   UNL A   1      45.787  31.723  31.747  1.00  0.00    -0.206 F 
ATOM     86  C   UNL A   1      45.958  34.999  30.208  1.00  0.00     0.006 A 
ENDBRANCH  62  79
ENDBRANCH  36  37
ENDBRANCH  28  31
ENDBRANCH  26  27
ENDBRANCH   1  26
TORSDOF 12
ENDMDL
MODEL 2
REMARK VINA RESULT:     -12.5      4.706      9.618
REMARK SMILES CC(C)(C)c1cc2c(cc1Cl)C=C(C(=O)NCCCNC(=O)c1ccc(-c3c4nc(c(-c5c(F)cccc5F)c5ccc([nH]5)c(-c5c(F)cccc5F)c5nc(c(-c6c(F)cccc6F)c6ccc3[nH]6)C=C5)C=C4)cc1)[C@@H](C(F)(F)F)O2
REMARK SMILES IDX 18 1 17 2 16 3 14 4 15 5 13 7 5 8 6 9 10 10 7 11 9 12 11 13
REMARK SMILES IDX 8 14 82 15 12 16 77 17 2 18 1 19 3 20 4 21 78 22 79 23 80 24
REMARK SMILES IDX 81 25 19 26 20 27 21 28 22 30 23 31 24 32 76 33 25 34 75 35
REMARK SMILES IDX 26 36 27 37 28 38 69 39 29 40 74 41 68 42 70 43 30 44 73 45
REMARK SMILES IDX 67 46 66 47 31 49 57 50 40 51 56 52 41 53 44 54 55 55 71 56
REMARK SMILES IDX 42 57 43 58 54 60 72 61 45 62 32 63 33 64 38 65 34 66 35 67
REMARK SMILES IDX 37 68 39 69 36 70 58 71 59 72 64 73 60 74 61 75 63 76 65 77
REMARK SMILES IDX 62 78 46 79 47 80 52 81 48 82 49 83 51 84 53 85 50 86
REMARK H PARENT 16 6 20 29 70 48 44 59
REMARK Flexibility Score: inf
ROOT
ATOM      1  C   UNL A   1      31.477  31.562  26.409  1.00  0.00     0.042 C 
ENDROOT
BRANCH   1   2
ATOM      2  C   UNL A   1      32.019  30.464  25.507  1.00  0.00     0.118 C 
BRANCH   2   3
ATOM      3  N   UNL A   1      30.960  29.816  24.748  1.00  0.00    -0.352 N 
ATOM      4  C   UNL A   1      30.792  28.662  24.062  1.00  0.00     0.251 C 
ATOM      5  O   UNL A   1      29.687  28.530  23.525  1.00  0.00    -0.270 OA
ATOM      6  H   UNL A   1      30.145  30.367  24.727  1.00  0.00     0.163 HD
BRANCH   4   7
ATOM      7  C   UNL A   1      31.815  27.586  23.926  1.00  0.00     0.067 C 
ATOM      8  C   UNL A   1      34.905  23.631  24.716  1.00  0.00    -0.020 A 
ATOM      9  C   UNL A   1      34.543  24.434  23.612  1.00  0.00     0.053 A 
ATOM     10  C   UNL A   1      34.180  23.863  25.912  1.00  0.00     0.045 A 
ATOM     11  C   UNL A   1      33.570  25.429  23.704  1.00  0.00     0.128 A 
ATOM     12  C   UNL A   1      33.190  24.861  25.992  1.00  0.00     0.032 A 
ATOM     13  Cl  UNL A   1      34.399  22.958  27.371  1.00  0.00    -0.084 Cl
ATOM     14  C   UNL A   1      32.890  25.658  24.892  1.00  0.00     0.019 A 
ATOM     15  O   UNL A   1      33.306  26.132  22.564  1.00  0.00    -0.475 OA
ATOM     16  C   UNL A   1      31.878  26.704  24.944  1.00  0.00     0.025 C 
ATOM     17  C   UNL A   1      32.765  27.466  22.769  1.00  0.00     0.314 C 
BRANCH   8  18
ATOM     18  C   UNL A   1      36.035  22.585  24.553  1.00  0.00    -0.012 C 
ATOM     19  C   UNL A   1      35.547  21.115  24.718  1.00  0.00     0.016 C 
ATOM     20  C   UNL A   1      37.118  22.788  25.632  1.00  0.00     0.016 C 
ATOM     21  C   UNL A   1      36.655  22.640  23.139  1.00  0.00     0.016 C 
ENDBRANCH   8  18
BRANCH  17  22
ATOM     22  C   UNL A   1      33.927  28.478  22.838  1.00  0.00     0.429 C 
ATOM     23  F   UNL A   1      33.468  29.735  22.610  1.00  0.00    -0.167 F 
ATOM     24  F   UNL A   1      34.525  28.504  24.052  1.00  0.00    -0.167 F 
ATOM     25  F   UNL A   1      34.896  28.229  21.930  1.00  0.00    -0.167 F 
ENDBRANCH  17  22
ENDBRANCH   4   7
ENDBRANCH   2   3
ENDBRANCH   1   2
BRANCH   1  26
ATOM     26  C   UNL A   1      32.546  32.128  27.334  1.00  0.00     0.118 C 
BRANCH  26  27
ATOM     27  N   UNL A   1      32.348  33.553  27.597  1.00  0.00    -0.352 N 
ATOM     28  C   UNL A   1      33.030  34.408  28.428  1.00  0.00     0.251 C 
ATOM     29  H   UNL A   1      31.607  33.965  27.098  1.00  0.00     0.163 HD
ATOM     30  O   UNL A   1      32.562  35.514  28.687  1.00  0.00    -0.269 OA
BRANCH  28  31
ATOM     31  C   UNL A   1      34.314  33.992  29.023  1.00  0.00     0.039 A 
ATOM     32  C   UNL A   1      35.516  34.328  28.402  1.00  0.00     0.014 A 
ATOM     33  C   UNL A   1      34.321  33.252  30.209  1.00  0.00     0.014 A 
ATOM     34  C   UNL A   1      36.698  33.753  28.839  1.00  0.00     0.010 A 
ATOM     35  C   UNL A   1      35.531  32.769  30.716  1.00  0.00     0.010 A 
ATOM     36  C   UNL A   1      36.723  32.967  30.003  1.00  0.00    -0.014 A 
BRANCH  36  37
ATOM     37  C   UNL A   1      38.008  32.359  30.432  1.00  0.00     0.031 A 
ATOM     38  C   UNL A   1      38.782  32.930  31.589  1.00  0.00     0.074 A 
ATOM     39  C   UNL A   1      38.434  31.235  29.822  1.00  0.00     0.049 A 
ATOM     40  N   UNL A   1      39.904  32.511  32.119  1.00  0.00    -0.248 NA
ATOM     41  C   UNL A   1      38.230  34.132  32.235  1.00  0.00     0.031 C 
ATOM     42  C   UNL A   1      37.760  30.577  28.699  1.00  0.00     0.029 A 
ATOM     43  N   UNL A   1      39.509  30.426  30.083  1.00  0.00    -0.354 N 
ATOM     44  C   UNL A   1      40.205  33.409  33.136  1.00  0.00     0.074 A 
ATOM     45  C   UNL A   1      39.163  34.411  33.135  1.00  0.00     0.031 C 
ATOM     46  C   UNL A   1      38.393  29.430  28.417  1.00  0.00     0.029 A 
ATOM     47  C   UNL A   1      39.559  29.309  29.284  1.00  0.00     0.049 A 
ATOM     48  H   UNL A   1      40.179  30.625  30.775  1.00  0.00     0.167 HD
ATOM     49  C   UNL A   1      41.251  33.393  33.998  1.00  0.00     0.037 A 
ATOM     50  C   UNL A   1      40.455  28.307  29.243  1.00  0.00     0.037 A 
ATOM     51  C   UNL A   1      42.271  32.378  34.014  1.00  0.00     0.049 A 
ATOM     52  C   UNL A   1      41.625  28.341  30.179  1.00  0.00     0.074 A 
ATOM     53  C   UNL A   1      43.360  32.260  34.862  1.00  0.00     0.029 A 
ATOM     54  N   UNL A   1      42.328  31.302  33.141  1.00  0.00    -0.354 N 
ATOM     55  N   UNL A   1      41.898  29.199  31.132  1.00  0.00    -0.248 NA
ATOM     56  C   UNL A   1      42.625  27.277  30.020  1.00  0.00     0.031 C 
ATOM     57  C   UNL A   1      44.096  31.133  34.475  1.00  0.00     0.029 A 
ATOM     58  C   UNL A   1      43.443  30.527  33.413  1.00  0.00     0.049 A 
ATOM     59  H   UNL A   1      41.671  31.116  32.430  1.00  0.00     0.167 HD
ATOM     60  C   UNL A   1      43.092  28.773  31.694  1.00  0.00     0.074 A 
ATOM     61  C   UNL A   1      43.478  27.566  30.990  1.00  0.00     0.031 C 
ATOM     62  C   UNL A   1      43.812  29.334  32.697  1.00  0.00     0.037 A 
BRANCH  49  63
ATOM     63  C   UNL A   1      41.352  34.525  34.979  1.00  0.00     0.057 A 
ATOM     64  C   UNL A   1      40.737  34.436  36.235  1.00  0.00     0.134 A 
ATOM     65  C   UNL A   1      42.043  35.707  34.683  1.00  0.00     0.134 A 
ATOM     66  F   UNL A   1      40.056  33.333  36.582  1.00  0.00    -0.206 F 
ATOM     67  C   UNL A   1      40.806  35.479  37.159  1.00  0.00     0.040 A 
ATOM     68  C   UNL A   1      42.138  36.749  35.609  1.00  0.00     0.040 A 
ATOM     69  F   UNL A   1      42.668  35.852  33.505  1.00  0.00    -0.206 F 
ATOM     70  C   UNL A   1      41.515  36.638  36.850  1.00  0.00     0.006 A 
ENDBRANCH  49  63
BRANCH  50  71
ATOM     71  C   UNL A   1      40.288  27.199  28.269  1.00  0.00     0.057 A 
ATOM     72  C   UNL A   1      39.535  26.061  28.582  1.00  0.00     0.134 A 
ATOM     73  C   UNL A   1      40.871  27.259  27.000  1.00  0.00     0.134 A 
ATOM     74  F   UNL A   1      38.954  25.942  29.785  1.00  0.00    -0.206 F 
ATOM     75  C   UNL A   1      39.380  25.015  27.672  1.00  0.00     0.040 A 
ATOM     76  C   UNL A   1      40.702  26.233  26.069  1.00  0.00     0.040 A 
ATOM     77  F   UNL A   1      41.588  28.333  26.636  1.00  0.00    -0.206 F 
ATOM     78  C   UNL A   1      39.958  25.103  26.408  1.00  0.00     0.006 A 
ENDBRANCH  50  71
BRANCH  62  79
ATOM     79  C   UNL A   1      45.073  28.628  33.093  1.00  0.00     0.057 A 
ATOM     80  C   UNL A   1      46.298  28.972  32.508  1.00  0.00     0.134 A 
ATOM     81  C   UNL A   1      45.076  27.609  34.054  1.00  0.00     0.134 A 
ATOM     82  F   UNL A   1      46.362  29.936  31.578  1.00  0.00    -0.206 F 
ATOM     83  C   UNL A   1      47.483  28.330  32.870  1.00  0.00     0.040 A 
ATOM     84  C   UNL A   1      46.257  26.977  34.441  1.00  0.00     0.040 A 
ATOM     85  F   UNL A   1      43.936  27.248  34.664  1.00  0.00    -0.206 F 
ATOM     86  C   UNL A   1      47.464  27.335  33.845  1.00  0.00     0.006 A 
ENDBRANCH  62  79
ENDBRANCH  36  37
ENDBRANCH  28  31
ENDBRANCH  26  27
ENDBRANCH   1  26
TORSDOF 12
ENDMDL
MODEL 3
REMARK VINA RESULT:     -12.5      5.106     10.002
REMARK SMILES CC(C)(C)c1cc2c(cc1Cl)C=C(C(=O)NCCCNC(=O)c1ccc(-c3c4nc(c(-c5c(F)cccc5F)c5ccc([nH]5)c(-c5c(F)cccc5F)c5nc(c(-c6c(F)cccc6F)c6ccc3[nH]6)C=C5)C=C4)cc1)[C@@H](C(F)(F)F)O2
REMARK SMILES IDX 18 1 17 2 16 3 14 4 15 5 13 7 5 8 6 9 10 10 7 11 9 12 11 13
REMARK SMILES IDX 8 14 82 15 12 16 77 17 2 18 1 19 3 20 4 21 78 22 79 23 80 24
REMARK SMILES IDX 81 25 19 26 20 27 21 28 22 30 23 31 24 32 76 33 25 34 75 35
REMARK SMILES IDX 26 36 27 37 28 38 69 39 29 40 74 41 68 42 70 43 30 44 73 45
REMARK SMILES IDX 67 46 66 47 31 49 57 50 40 51 56 52 41 53 44 54 55 55 71 56
REMARK SMILES IDX 42 57 43 58 54 60 72 61 45 62 32 63 33 64 38 65 34 66 35 67
REMARK SMILES IDX 37 68 39 69 36 70 58 71 59 72 64 73 60 74 61 75 63 76 65 77
REMARK SMILES IDX 62 78 46 79 47 80 52 81 48 82 49 83 51 84 53 85 50 86
REMARK H PARENT 16 6 20 29 70 48 44 59
REMARK Flexibility Score: inf
ROOT
ATOM      1  C   UNL A   1      31.469  31.926  26.521  1.00  0.00     0.042 C 
ENDROOT
BRANCH   1   2
ATOM      2  C   UNL A   1      31.686  30.440  26.283  1.00  0.00     0.118 C 
BRANCH   2   3
ATOM      3  N   UNL A   1      31.417  30.070  24.901  1.00  0.00    -0.352 N 
ATOM      4  C   UNL A   1      31.494  28.955  24.138  1.00  0.00     0.251 C 
ATOM      5  O   UNL A   1      31.179  29.112  22.954  1.00  0.00    -0.270 OA
ATOM      6  H   UNL A   1      31.091  30.839  24.381  1.00  0.00     0.163 HD
BRANCH   4   7
ATOM      7  C   UNL A   1      31.914  27.609  24.621  1.00  0.00     0.067 C 
ATOM      8  C   UNL A   1      34.255  23.150  25.291  1.00  0.00    -0.020 A 
ATOM      9  C   UNL A   1      33.282  23.902  25.985  1.00  0.00     0.053 A 
ATOM     10  C   UNL A   1      34.851  23.792  24.176  1.00  0.00     0.045 A 
ATOM     11  C   UNL A   1      32.891  25.175  25.571  1.00  0.00     0.128 A 
ATOM     12  C   UNL A   1      34.459  25.083  23.772  1.00  0.00     0.032 A 
ATOM     13  Cl  UNL A   1      36.112  23.098  23.215  1.00  0.00    -0.084 Cl
ATOM     14  C   UNL A   1      33.468  25.775  24.461  1.00  0.00     0.019 A 
ATOM     15  O   UNL A   1      31.946  25.801  26.331  1.00  0.00    -0.475 OA
ATOM     16  C   UNL A   1      33.033  27.108  24.064  1.00  0.00     0.025 C 
ATOM     17  C   UNL A   1      31.154  26.802  25.635  1.00  0.00     0.314 C 
BRANCH   8  18
ATOM     18  C   UNL A   1      34.597  21.720  25.777  1.00  0.00    -0.012 C 
ATOM     19  C   UNL A   1      36.127  21.441  25.856  1.00  0.00     0.016 C 
ATOM     20  C   UNL A   1      34.031  20.669  24.801  1.00  0.00     0.016 C 
ATOM     21  C   UNL A   1      34.075  21.472  27.210  1.00  0.00     0.016 C 
ENDBRANCH   8  18
BRANCH  17  22
ATOM     22  C   UNL A   1      29.894  26.133  25.049  1.00  0.00     0.429 C 
ATOM     23  F   UNL A   1      29.161  25.565  26.040  1.00  0.00    -0.167 F 
ATOM     24  F   UNL A   1      29.076  27.014  24.427  1.00  0.00    -0.167 F 
ATOM     25  F   UNL A   1      30.181  25.165  24.151  1.00  0.00    -0.167 F 
ENDBRANCH  17  22
ENDBRANCH   4   7
ENDBRANCH   2   3
ENDBRANCH   1   2
BRANCH   1  26
ATOM     26  C   UNL A   1      32.654  32.575  27.225  1.00  0.00     0.118 C 
BRANCH  26  27
ATOM     27  N   UNL A   1      32.398  33.977  27.553  1.00  0.00    -0.352 N 
ATOM     28  C   UNL A   1      32.972  34.789  28.501  1.00  0.00     0.251 C 
ATOM     29  H   UNL A   1      31.703  34.408  27.006  1.00  0.00     0.163 HD
ATOM     30  O   UNL A   1      32.456  35.869  28.777  1.00  0.00    -0.269 OA
BRANCH  28  31
ATOM     31  C   UNL A   1      34.198  34.357  29.199  1.00  0.00     0.039 A 
ATOM     32  C   UNL A   1      35.448  34.585  28.625  1.00  0.00     0.014 A 
ATOM     33  C   UNL A   1      34.102  33.711  30.435  1.00  0.00     0.014 A 
ATOM     34  C   UNL A   1      36.573  33.987  29.172  1.00  0.00     0.010 A 
ATOM     35  C   UNL A   1      35.254  33.210  31.045  1.00  0.00     0.010 A 
ATOM     36  C   UNL A   1      36.492  33.293  30.389  1.00  0.00    -0.014 A 
BRANCH  36  37
ATOM     37  C   UNL A   1      37.718  32.657  30.936  1.00  0.00     0.031 A 
ATOM     38  C   UNL A   1      38.306  33.115  32.243  1.00  0.00     0.074 A 
ATOM     39  C   UNL A   1      38.252  31.604  30.286  1.00  0.00     0.049 A 
ATOM     40  N   UNL A   1      39.351  32.655  32.885  1.00  0.00    -0.248 NA
ATOM     41  C   UNL A   1      37.639  34.240  32.919  1.00  0.00     0.031 C 
ATOM     42  C   UNL A   1      37.760  31.057  29.018  1.00  0.00     0.029 A 
ATOM     43  N   UNL A   1      39.299  30.784  30.617  1.00  0.00    -0.354 N 
ATOM     44  C   UNL A   1      39.484  33.448  34.018  1.00  0.00     0.074 A 
ATOM     45  C   UNL A   1      38.429  34.436  33.966  1.00  0.00     0.031 C 
ATOM     46  C   UNL A   1      38.454  29.950  28.718  1.00  0.00     0.029 A 
ATOM     47  C   UNL A   1      39.489  29.754  29.727  1.00  0.00     0.049 A 
ATOM     48  H   UNL A   1      39.859  30.918  31.414  1.00  0.00     0.167 HD
ATOM     49  C   UNL A   1      40.397  33.355  35.015  1.00  0.00     0.037 A 
ATOM     50  C   UNL A   1      40.405  28.770  29.716  1.00  0.00     0.037 A 
ATOM     51  C   UNL A   1      41.428  32.353  35.077  1.00  0.00     0.049 A 
ATOM     52  C   UNL A   1      41.430  28.719  30.808  1.00  0.00     0.074 A 
ATOM     53  C   UNL A   1      42.388  32.161  36.056  1.00  0.00     0.029 A 
ATOM     54  N   UNL A   1      41.634  31.372  34.119  1.00  0.00    -0.354 N 
ATOM     55  N   UNL A   1      41.543  29.479  31.871  1.00  0.00    -0.248 NA
ATOM     56  C   UNL A   1      42.467  27.687  30.690  1.00  0.00     0.031 C 
ATOM     57  C   UNL A   1      43.198  31.085  35.670  1.00  0.00     0.029 A 
ATOM     58  C   UNL A   1      42.718  30.584  34.470  1.00  0.00     0.049 A 
ATOM     59  H   UNL A   1      41.090  31.253  33.307  1.00  0.00     0.167 HD
ATOM     60  C   UNL A   1      42.656  29.010  32.554  1.00  0.00     0.074 A 
ATOM     61  C   UNL A   1      43.167  27.885  31.796  1.00  0.00     0.031 C 
ATOM     62  C   UNL A   1      43.213  29.473  33.700  1.00  0.00     0.037 A 
BRANCH  49  63
ATOM     63  C   UNL A   1      40.331  34.383  36.108  1.00  0.00     0.057 A 
ATOM     64  C   UNL A   1      41.025  35.595  35.988  1.00  0.00     0.134 A 
ATOM     65  C   UNL A   1      39.598  34.175  37.283  1.00  0.00     0.134 A 
ATOM     66  F   UNL A   1      41.751  35.857  34.890  1.00  0.00    -0.206 F 
ATOM     67  C   UNL A   1      40.990  36.560  36.994  1.00  0.00     0.040 A 
ATOM     68  C   UNL A   1      39.536  35.144  38.287  1.00  0.00     0.040 A 
ATOM     69  F   UNL A   1      38.897  33.044  37.455  1.00  0.00    -0.206 F 
ATOM     70  C   UNL A   1      40.237  36.339  38.146  1.00  0.00     0.006 A 
ENDBRANCH  49  63
BRANCH  50  71
ATOM     71  C   UNL A   1      40.404  27.765  28.623  1.00  0.00     0.057 A 
ATOM     72  C   UNL A   1      39.682  26.570  28.732  1.00  0.00     0.134 A 
ATOM     73  C   UNL A   1      41.120  27.981  27.442  1.00  0.00     0.134 A 
ATOM     74  F   UNL A   1      38.978  26.302  29.842  1.00  0.00    -0.206 F 
ATOM     75  C   UNL A   1      39.682  25.621  27.710  1.00  0.00     0.040 A 
ATOM     76  C   UNL A   1      41.108  27.053  26.400  1.00  0.00     0.040 A 
ATOM     77  F   UNL A   1      41.816  29.115  27.272  1.00  0.00    -0.206 F 
ATOM     78  C   UNL A   1      40.391  25.865  26.536  1.00  0.00     0.006 A 
ENDBRANCH  50  71
BRANCH  62  79
ATOM     79  C   UNL A   1      44.422  28.743  34.201  1.00  0.00     0.057 A 
ATOM     80  C   UNL A   1      44.287  27.629  35.038  1.00  0.00     0.134 A 
ATOM     81  C   UNL A   1      45.719  29.142  33.854  1.00  0.00     0.134 A 
ATOM     82  F   UNL A   1      43.073  27.199  35.411  1.00  0.00    -0.206 F 
ATOM     83  C   UNL A   1      45.402  26.934  35.509  1.00  0.00     0.040 A 
ATOM     84  C   UNL A   1      46.839  28.441  34.298  1.00  0.00     0.040 A 
ATOM     85  F   UNL A   1      45.912  30.191  33.039  1.00  0.00    -0.206 F 
ATOM     86  C   UNL A   1      46.681  27.335  35.131  1.00  0.00     0.006 A 
ENDBRANCH  62  79
ENDBRANCH  36  37
ENDBRANCH  28  31
ENDBRANCH  26  27
ENDBRANCH   1  26
TORSDOF 12
ENDMDL
