MODEL 1
REMARK VINA RESULT:     -12.2      0.000      0.000
REMARK SMILES Cc1cc(C)c2c(c1)C=C(C(=O)NCCCNC(=O)c1ccc(-c3c4nc(c(-c5c(F)cccc5F)c5ccc([nH]5)c(-c5c(F)cccc5F)c5nc(c(-c6c(F)cccc6F)c6ccc3[nH]6)C=C5)C=C4)cc1)[C@@H](C(F)(F)F)O2
REMARK SMILES IDX 15 1 14 2 13 3 11 4 12 5 10 7 1 8 2 9 3 10 8 11 4 12 7 13
REMARK SMILES IDX 5 14 6 15 9 16 79 17 74 18 75 19 76 20 77 21 78 22 16 23
REMARK SMILES IDX 17 24 18 25 19 27 20 28 21 29 73 30 22 31 72 32 23 33 24 34
REMARK SMILES IDX 25 35 66 36 26 37 71 38 65 39 67 40 27 41 70 42 64 43 63 44
REMARK SMILES IDX 28 46 54 47 37 48 53 49 38 50 41 51 52 52 68 53 39 54 40 55
REMARK SMILES IDX 51 57 69 58 42 59 29 60 30 61 35 62 31 63 32 64 34 65 36 66
REMARK SMILES IDX 33 67 55 68 56 69 61 70 57 71 58 72 60 73 62 74 59 75 43 76
REMARK SMILES IDX 44 77 49 78 45 79 46 80 48 81 50 82 47 83
REMARK H PARENT 13 6 17 26 67 45 41 56
REMARK Flexibility Score: inf
ROOT
ATOM      1  C   UNL A   1      37.771  19.520  24.904  1.00  0.00     0.042 C 
ENDROOT
BRANCH   1   2
ATOM      2  C   UNL A   1      36.659  20.510  24.599  1.00  0.00     0.118 C 
BRANCH   2   3
ATOM      3  N   UNL A   1      35.798  20.728  25.752  1.00  0.00    -0.352 N 
ATOM      4  C   UNL A   1      34.855  21.622  26.130  1.00  0.00     0.251 C 
ATOM      5  O   UNL A   1      34.355  21.421  27.242  1.00  0.00    -0.270 OA
ATOM      6  H   UNL A   1      35.941  20.041  26.443  1.00  0.00     0.163 HD
BRANCH   4   7
ATOM      7  C   UNL A   1      34.407  22.786  25.313  1.00  0.00     0.067 C 
ATOM      8  C   UNL A   1      33.540  28.902  25.604  1.00  0.00     0.044 C 
ATOM      9  C   UNL A   1      33.648  27.548  24.967  1.00  0.00    -0.050 A 
ATOM     10  C   UNL A   1      33.316  27.390  23.614  1.00  0.00     0.010 A 
ATOM     11  C   UNL A   1      34.045  26.432  25.717  1.00  0.00     0.015 A 
ATOM     12  C   UNL A   1      33.396  26.136  22.999  1.00  0.00    -0.008 A 
ATOM     13  C   UNL A   1      34.122  25.172  25.118  1.00  0.00     0.018 A 
ATOM     14  C   UNL A   1      33.034  25.963  21.552  1.00  0.00     0.048 C 
ATOM     15  C   UNL A   1      33.796  25.037  23.766  1.00  0.00     0.130 A 
ATOM     16  C   UNL A   1      34.563  24.001  25.869  1.00  0.00     0.025 C 
ATOM     17  O   UNL A   1      33.893  23.836  23.118  1.00  0.00    -0.475 OA
ATOM     18  C   UNL A   1      33.784  22.659  23.954  1.00  0.00     0.314 C 
BRANCH  18  19
ATOM     19  C   UNL A   1      32.314  22.200  24.012  1.00  0.00     0.429 C 
ATOM     20  F   UNL A   1      32.243  20.844  23.976  1.00  0.00    -0.167 F 
ATOM     21  F   UNL A   1      31.692  22.582  25.154  1.00  0.00    -0.167 F 
ATOM     22  F   UNL A   1      31.571  22.672  22.988  1.00  0.00    -0.167 F 
ENDBRANCH  18  19
ENDBRANCH   4   7
ENDBRANCH   2   3
ENDBRANCH   1   2
BRANCH   1  23
ATOM     23  C   UNL A   1      38.874  20.149  25.744  1.00  0.00     0.118 C 
BRANCH  23  24
ATOM     24  N   UNL A   1      40.046  19.282  25.829  1.00  0.00    -0.352 N 
ATOM     25  C   UNL A   1      41.365  19.596  26.032  1.00  0.00     0.251 C 
ATOM     26  H   UNL A   1      39.861  18.321  25.725  1.00  0.00     0.163 HD
ATOM     27  O   UNL A   1      42.240  18.767  25.781  1.00  0.00    -0.269 OA
BRANCH  25  28
ATOM     28  C   UNL A   1      41.733  20.923  26.553  1.00  0.00     0.039 A 
ATOM     29  C   UNL A   1      42.181  21.909  25.672  1.00  0.00     0.014 A 
ATOM     30  C   UNL A   1      41.657  21.181  27.924  1.00  0.00     0.014 A 
ATOM     31  C   UNL A   1      42.494  23.176  26.164  1.00  0.00     0.010 A 
ATOM     32  C   UNL A   1      41.861  22.468  28.395  1.00  0.00     0.010 A 
ATOM     33  C   UNL A   1      42.305  23.471  27.524  1.00  0.00    -0.014 A 
BRANCH  33  34
ATOM     34  C   UNL A   1      42.597  24.814  28.072  1.00  0.00     0.031 A 
ATOM     35  C   UNL A   1      43.997  25.160  28.491  1.00  0.00     0.074 A 
ATOM     36  C   UNL A   1      41.591  25.689  28.255  1.00  0.00     0.049 A 
ATOM     37  N   UNL A   1      44.445  26.256  29.045  1.00  0.00    -0.248 NA
ATOM     38  C   UNL A   1      45.023  24.123  28.295  1.00  0.00     0.031 C 
ATOM     39  C   UNL A   1      40.186  25.437  27.937  1.00  0.00     0.029 A 
ATOM     40  N   UNL A   1      41.598  26.964  28.760  1.00  0.00    -0.354 N 
ATOM     41  C   UNL A   1      45.796  26.033  29.278  1.00  0.00     0.074 A 
ATOM     42  C   UNL A   1      46.080  24.675  28.871  1.00  0.00     0.031 C 
ATOM     43  C   UNL A   1      39.470  26.537  28.220  1.00  0.00     0.029 A 
ATOM     44  C   UNL A   1      40.359  27.553  28.776  1.00  0.00     0.049 A 
ATOM     45  H   UNL A   1      42.414  27.413  29.081  1.00  0.00     0.167 HD
ATOM     46  C   UNL A   1      46.723  26.894  29.756  1.00  0.00     0.037 A 
ATOM     47  C   UNL A   1      39.982  28.776  29.193  1.00  0.00     0.037 A 
ATOM     48  C   UNL A   1      46.433  28.252  30.131  1.00  0.00     0.049 A 
ATOM     49  C   UNL A   1      41.024  29.719  29.724  1.00  0.00     0.074 A 
ATOM     50  C   UNL A   1      47.309  29.233  30.556  1.00  0.00     0.029 A 
ATOM     51  N   UNL A   1      45.165  28.816  30.129  1.00  0.00    -0.354 N 
ATOM     52  N   UNL A   1      42.314  29.527  29.864  1.00  0.00    -0.248 NA
ATOM     53  C   UNL A   1      40.564  31.048  30.147  1.00  0.00     0.031 C 
ATOM     54  C   UNL A   1      46.564  30.373  30.869  1.00  0.00     0.029 A 
ATOM     55  C   UNL A   1      45.231  30.123  30.582  1.00  0.00     0.049 A 
ATOM     56  H   UNL A   1      44.342  28.357  29.848  1.00  0.00     0.167 HD
ATOM     57  C   UNL A   1      42.823  30.710  30.381  1.00  0.00     0.074 A 
ATOM     58  C   UNL A   1      41.704  31.621  30.510  1.00  0.00     0.031 C 
ATOM     59  C   UNL A   1      44.102  31.012  30.716  1.00  0.00     0.037 A 
BRANCH  46  60
ATOM     60  C   UNL A   1      48.130  26.389  29.895  1.00  0.00     0.057 A 
ATOM     61  C   UNL A   1      49.064  26.492  28.854  1.00  0.00     0.134 A 
ATOM     62  C   UNL A   1      48.563  25.799  31.089  1.00  0.00     0.134 A 
ATOM     63  F   UNL A   1      48.712  27.032  27.676  1.00  0.00    -0.206 F 
ATOM     64  C   UNL A   1      50.363  25.998  28.983  1.00  0.00     0.040 A 
ATOM     65  C   UNL A   1      49.869  25.332  31.242  1.00  0.00     0.040 A 
ATOM     66  F   UNL A   1      47.725  25.671  32.129  1.00  0.00    -0.206 F 
ATOM     67  C   UNL A   1      50.771  25.421  30.183  1.00  0.00     0.006 A 
ENDBRANCH  46  60
BRANCH  47  68
ATOM     68  C   UNL A   1      38.559  29.173  29.068  1.00  0.00     0.057 A 
ATOM     69  C   UNL A   1      37.704  29.139  30.175  1.00  0.00     0.134 A 
ATOM     70  C   UNL A   1      38.042  29.677  27.868  1.00  0.00     0.134 A 
ATOM     71  F   UNL A   1      38.140  28.656  31.349  1.00  0.00    -0.206 F 
ATOM     72  C   UNL A   1      36.388  29.597  30.097  1.00  0.00     0.040 A 
ATOM     73  C   UNL A   1      36.735  30.159  27.781  1.00  0.00     0.040 A 
ATOM     74  F   UNL A   1      38.815  29.749  26.775  1.00  0.00    -0.206 F 
ATOM     75  C   UNL A   1      35.904  30.121  28.899  1.00  0.00     0.006 A 
ENDBRANCH  47  68
BRANCH  59  76
ATOM     76  C   UNL A   1      44.370  32.385  31.261  1.00  0.00     0.057 A 
ATOM     77  C   UNL A   1      44.620  33.474  30.417  1.00  0.00     0.134 A 
ATOM     78  C   UNL A   1      44.290  32.636  32.637  1.00  0.00     0.134 A 
ATOM     79  F   UNL A   1      44.717  33.298  29.090  1.00  0.00    -0.206 F 
ATOM     80  C   UNL A   1      44.789  34.764  30.923  1.00  0.00     0.040 A 
ATOM     81  C   UNL A   1      44.429  33.926  33.151  1.00  0.00     0.040 A 
ATOM     82  F   UNL A   1      44.041  31.639  33.499  1.00  0.00    -0.206 F 
ATOM     83  C   UNL A   1      44.681  34.994  32.293  1.00  0.00     0.006 A 
ENDBRANCH  59  76
ENDBRANCH  33  34
ENDBRANCH  25  28
ENDBRANCH  23  24
ENDBRANCH   1  23
TORSDOF 11
ENDMDL
MODEL 2
REMARK VINA RESULT:     -12.2      1.504      6.294
REMARK SMILES Cc1cc(C)c2c(c1)C=C(C(=O)NCCCNC(=O)c1ccc(-c3c4nc(c(-c5c(F)cccc5F)c5ccc([nH]5)c(-c5c(F)cccc5F)c5nc(c(-c6c(F)cccc6F)c6ccc3[nH]6)C=C5)C=C4)cc1)[C@@H](C(F)(F)F)O2
REMARK SMILES IDX 15 1 14 2 13 3 11 4 12 5 10 7 1 8 2 9 3 10 8 11 4 12 7 13
REMARK SMILES IDX 5 14 6 15 9 16 79 17 74 18 75 19 76 20 77 21 78 22 16 23
REMARK SMILES IDX 17 24 18 25 19 27 20 28 21 29 73 30 22 31 72 32 23 33 24 34
REMARK SMILES IDX 25 35 66 36 26 37 71 38 65 39 67 40 27 41 70 42 64 43 63 44
REMARK SMILES IDX 28 46 54 47 37 48 53 49 38 50 41 51 52 52 68 53 39 54 40 55
REMARK SMILES IDX 51 57 69 58 42 59 29 60 30 61 35 62 31 63 32 64 34 65 36 66
REMARK SMILES IDX 33 67 55 68 56 69 61 70 57 71 58 72 60 73 62 74 59 75 43 76
REMARK SMILES IDX 44 77 49 78 45 79 46 80 48 81 50 82 47 83
REMARK H PARENT 13 6 17 26 67 45 41 56
REMARK Flexibility Score: inf
ROOT
ATOM      1  C   UNL A   1      37.846  19.586  25.001  1.00  0.00     0.042 C 
ENDROOT
BRANCH   1   2
ATOM      2  C   UNL A   1      36.783  20.630  24.697  1.00  0.00     0.118 C 
BRANCH   2   3
ATOM      3  N   UNL A   1      35.774  20.696  25.744  1.00  0.00    -0.352 N 
ATOM      4  C   UNL A   1      34.724  21.488  26.060  1.00  0.00     0.251 C 
ATOM      5  O   UNL A   1      34.112  21.166  27.084  1.00  0.00    -0.270 OA
ATOM      6  H   UNL A   1      35.888  19.969  26.399  1.00  0.00     0.163 HD
BRANCH   4   7
ATOM      7  C   UNL A   1      34.286  22.677  25.275  1.00  0.00     0.067 C 
ATOM      8  C   UNL A   1      33.583  28.807  25.692  1.00  0.00     0.044 C 
ATOM      9  C   UNL A   1      33.641  27.462  25.030  1.00  0.00    -0.050 A 
ATOM     10  C   UNL A   1      33.271  27.336  23.683  1.00  0.00     0.010 A 
ATOM     11  C   UNL A   1      34.028  26.323  25.750  1.00  0.00     0.015 A 
ATOM     12  C   UNL A   1      33.304  26.092  23.045  1.00  0.00    -0.008 A 
ATOM     13  C   UNL A   1      34.057  25.073  25.128  1.00  0.00     0.018 A 
ATOM     14  C   UNL A   1      32.903  25.954  21.604  1.00  0.00     0.048 C 
ATOM     15  C   UNL A   1      33.695  24.969  23.783  1.00  0.00     0.130 A 
ATOM     16  C   UNL A   1      34.486  23.877  25.848  1.00  0.00     0.025 C 
ATOM     17  O   UNL A   1      33.745  23.778  23.112  1.00  0.00    -0.475 OA
ATOM     18  C   UNL A   1      33.627  22.590  23.930  1.00  0.00     0.314 C 
BRANCH  18  19
ATOM     19  C   UNL A   1      32.147  22.167  24.017  1.00  0.00     0.429 C 
ATOM     20  F   UNL A   1      32.045  20.813  24.019  1.00  0.00    -0.167 F 
ATOM     21  F   UNL A   1      31.548  22.595  25.155  1.00  0.00    -0.167 F 
ATOM     22  F   UNL A   1      31.404  22.628  22.988  1.00  0.00    -0.167 F 
ENDBRANCH  18  19
ENDBRANCH   4   7
ENDBRANCH   2   3
ENDBRANCH   1   2
BRANCH   1  23
ATOM     23  C   UNL A   1      39.028  20.185  25.750  1.00  0.00     0.118 C 
BRANCH  23  24
ATOM     24  N   UNL A   1      40.088  19.202  25.957  1.00  0.00    -0.352 N 
ATOM     25  C   UNL A   1      41.440  19.377  26.102  1.00  0.00     0.251 C 
ATOM     26  H   UNL A   1      39.785  18.267  25.999  1.00  0.00     0.163 HD
ATOM     27  O   UNL A   1      42.201  18.419  25.973  1.00  0.00    -0.269 OA
BRANCH  25  28
ATOM     28  C   UNL A   1      41.979  20.711  26.416  1.00  0.00     0.039 A 
ATOM     29  C   UNL A   1      42.270  21.598  25.379  1.00  0.00     0.014 A 
ATOM     30  C   UNL A   1      42.220  21.072  27.744  1.00  0.00     0.014 A 
ATOM     31  C   UNL A   1      42.747  22.874  25.680  1.00  0.00     0.010 A 
ATOM     32  C   UNL A   1      42.586  22.373  28.048  1.00  0.00     0.010 A 
ATOM     33  C   UNL A   1      42.877  23.278  27.019  1.00  0.00    -0.014 A 
BRANCH  33  34
ATOM     34  C   UNL A   1      43.348  24.635  27.374  1.00  0.00     0.031 A 
ATOM     35  C   UNL A   1      42.361  25.674  27.822  1.00  0.00     0.074 A 
ATOM     36  C   UNL A   1      44.649  24.946  27.225  1.00  0.00     0.049 A 
ATOM     37  N   UNL A   1      42.563  26.931  28.121  1.00  0.00    -0.248 NA
ATOM     38  C   UNL A   1      40.953  25.255  27.912  1.00  0.00     0.031 C 
ATOM     39  C   UNL A   1      45.685  24.032  26.744  1.00  0.00     0.029 A 
ATOM     40  N   UNL A   1      45.318  26.120  27.457  1.00  0.00    -0.354 N 
ATOM     41  C   UNL A   1      41.311  27.452  28.415  1.00  0.00     0.074 A 
ATOM     42  C   UNL A   1      40.347  26.398  28.192  1.00  0.00     0.031 C 
ATOM     43  C   UNL A   1      46.866  24.669  26.751  1.00  0.00     0.029 A 
ATOM     44  C   UNL A   1      46.663  26.043  27.198  1.00  0.00     0.049 A 
ATOM     45  H   UNL A   1      44.876  26.939  27.779  1.00  0.00     0.167 HD
ATOM     46  C   UNL A   1      40.996  28.690  28.863  1.00  0.00     0.037 A 
ATOM     47  C   UNL A   1      47.626  26.979  27.308  1.00  0.00     0.037 A 
ATOM     48  C   UNL A   1      41.968  29.721  29.108  1.00  0.00     0.049 A 
ATOM     49  C   UNL A   1      47.259  28.348  27.805  1.00  0.00     0.074 A 
ATOM     50  C   UNL A   1      41.769  30.984  29.632  1.00  0.00     0.029 A 
ATOM     51  N   UNL A   1      43.325  29.606  28.837  1.00  0.00    -0.354 N 
ATOM     52  N   UNL A   1      46.082  28.808  28.158  1.00  0.00    -0.248 NA
ATOM     53  C   UNL A   1      48.348  29.325  27.925  1.00  0.00     0.031 C 
ATOM     54  C   UNL A   1      42.995  31.655  29.624  1.00  0.00     0.029 A 
ATOM     55  C   UNL A   1      43.969  30.790  29.150  1.00  0.00     0.049 A 
ATOM     56  H   UNL A   1      43.763  28.802  28.476  1.00  0.00     0.167 HD
ATOM     57  C   UNL A   1      46.288  30.122  28.554  1.00  0.00     0.074 A 
ATOM     58  C   UNL A   1      47.708  30.379  28.414  1.00  0.00     0.031 C 
ATOM     59  C   UNL A   1      45.383  31.032  28.992  1.00  0.00     0.037 A 
BRANCH  46  60
ATOM     60  C   UNL A   1      39.546  28.985  29.117  1.00  0.00     0.057 A 
ATOM     61  C   UNL A   1      38.698  29.466  28.109  1.00  0.00     0.134 A 
ATOM     62  C   UNL A   1      38.985  28.778  30.383  1.00  0.00     0.134 A 
ATOM     63  F   UNL A   1      39.172  29.702  26.876  1.00  0.00    -0.206 F 
ATOM     64  C   UNL A   1      37.357  29.761  28.359  1.00  0.00     0.040 A 
ATOM     65  C   UNL A   1      37.637  29.038  30.637  1.00  0.00     0.040 A 
ATOM     66  F   UNL A   1      39.736  28.316  31.394  1.00  0.00    -0.206 F 
ATOM     67  C   UNL A   1      36.821  29.541  29.626  1.00  0.00     0.006 A 
ENDBRANCH  46  60
BRANCH  47  68
ATOM     68  C   UNL A   1      49.026  26.613  26.984  1.00  0.00     0.057 A 
ATOM     69  C   UNL A   1      49.851  26.013  27.942  1.00  0.00     0.134 A 
ATOM     70  C   UNL A   1      49.545  26.772  25.694  1.00  0.00     0.134 A 
ATOM     71  F   UNL A   1      49.413  25.845  29.199  1.00  0.00    -0.206 F 
ATOM     72  C   UNL A   1      51.140  25.578  27.628  1.00  0.00     0.040 A 
ATOM     73  C   UNL A   1      50.823  26.322  25.359  1.00  0.00     0.040 A 
ATOM     74  F   UNL A   1      48.798  27.327  24.728  1.00  0.00    -0.206 F 
ATOM     75  C   UNL A   1      51.624  25.721  26.329  1.00  0.00     0.006 A 
ENDBRANCH  47  68
BRANCH  59  76
ATOM     76  C   UNL A   1      45.891  32.397  29.353  1.00  0.00     0.057 A 
ATOM     77  C   UNL A   1      45.903  33.446  28.424  1.00  0.00     0.134 A 
ATOM     78  C   UNL A   1      46.290  32.689  30.664  1.00  0.00     0.134 A 
ATOM     79  F   UNL A   1      45.542  33.230  27.150  1.00  0.00    -0.206 F 
ATOM     80  C   UNL A   1      46.301  34.734  28.785  1.00  0.00     0.040 A 
ATOM     81  C   UNL A   1      46.662  33.979  31.043  1.00  0.00     0.040 A 
ATOM     82  F   UNL A   1      46.290  31.732  31.605  1.00  0.00    -0.206 F 
ATOM     83  C   UNL A   1      46.670  35.005  30.101  1.00  0.00     0.006 A 
ENDBRANCH  59  76
ENDBRANCH  33  34
ENDBRANCH  25  28
ENDBRANCH  23  24
ENDBRANCH   1  23
TORSDOF 11
ENDMDL
MODEL 3
REMARK VINA RESULT:     -12.2      2.028      6.588
REMARK SMILES Cc1cc(C)c2c(c1)C=C(C(=O)NCCCNC(=O)c1ccc(-c3c4nc(c(-c5c(F)cccc5F)c5ccc([nH]5)c(-c5c(F)cccc5F)c5nc(c(-c6c(F)cccc6F)c6ccc3[nH]6)C=C5)C=C4)cc1)[C@@H](C(F)(F)F)O2
REMARK SMILES IDX 15 1 14 2 13 3 11 4 12 5 10 7 1 8 2 9 3 10 8 11 4 12 7 13
REMARK SMILES IDX 5 14 6 15 9 16 79 17 74 18 75 19 76 20 77 21 78 22 16 23
REMARK SMILES IDX 17 24 18 25 19 27 20 28 21 29 73 30 22 31 72 32 23 33 24 34
REMARK SMILES IDX 25 35 66 36 26 37 71 38 65 39 67 40 27 41 70 42 64 43 63 44
REMARK SMILES IDX 28 46 54 47 37 48 53 49 38 50 41 51 52 52 68 53 39 54 40 55
REMARK SMILES IDX 51 57 69 58 42 59 29 60 30 61 35 62 31 63 32 64 34 65 36 66
REMARK SMILES IDX 33 67 55 68 56 69 61 70 57 71 58 72 60 73 62 74 59 75 43 76
REMARK SMILES IDX 44 77 49 78 45 79 46 80 48 81 50 82 47 83
REMARK H PARENT 13 6 17 26 67 45 41 56
REMARK Flexibility Score: inf
ROOT
ATOM      1  C   UNL A   1      37.792  19.586  24.914  1.00  0.00     0.042 C 
ENDROOT
BRANCH   1   2
ATOM      2  C   UNL A   1      36.513  20.385  25.100  1.00  0.00     0.118 C 
BRANCH   2   3
ATOM      3  N   UNL A   1      35.330  19.543  25.001  1.00  0.00    -0.352 N 
ATOM      4  C   UNL A   1      33.993  19.721  24.895  1.00  0.00     0.251 C 
ATOM      5  O   UNL A   1      33.327  18.682  24.836  1.00  0.00    -0.270 OA
ATOM      6  H   UNL A   1      35.567  18.587  25.016  1.00  0.00     0.163 HD
BRANCH   4   7
ATOM      7  C   UNL A   1      33.309  21.045  24.848  1.00  0.00     0.067 C 
ATOM      8  C   UNL A   1      32.434  25.955  21.191  1.00  0.00     0.044 C 
ATOM      9  C   UNL A   1      32.230  25.057  22.375  1.00  0.00    -0.050 A 
ATOM     10  C   UNL A   1      31.408  25.477  23.431  1.00  0.00     0.010 A 
ATOM     11  C   UNL A   1      32.878  23.816  22.456  1.00  0.00     0.015 A 
ATOM     12  C   UNL A   1      31.210  24.666  24.552  1.00  0.00    -0.008 A 
ATOM     13  C   UNL A   1      32.697  22.999  23.574  1.00  0.00     0.018 A 
ATOM     14  C   UNL A   1      30.335  25.117  25.686  1.00  0.00     0.048 C 
ATOM     15  C   UNL A   1      31.866  23.431  24.611  1.00  0.00     0.130 A 
ATOM     16  C   UNL A   1      33.336  21.689  23.668  1.00  0.00     0.025 C 
ATOM     17  O   UNL A   1      31.620  22.653  25.709  1.00  0.00    -0.475 OA
ATOM     18  C   UNL A   1      32.640  21.679  26.031  1.00  0.00     0.314 C 
BRANCH  18  19
ATOM     19  C   UNL A   1      33.643  22.291  27.028  1.00  0.00     0.429 C 
ATOM     20  F   UNL A   1      32.983  22.958  28.010  1.00  0.00    -0.167 F 
ATOM     21  F   UNL A   1      34.400  21.353  27.649  1.00  0.00    -0.167 F 
ATOM     22  F   UNL A   1      34.498  23.162  26.451  1.00  0.00    -0.167 F 
ENDBRANCH  18  19
ENDBRANCH   4   7
ENDBRANCH   2   3
ENDBRANCH   1   2
BRANCH   1  23
ATOM     23  C   UNL A   1      38.948  20.178  25.709  1.00  0.00     0.118 C 
BRANCH  23  24
ATOM     24  N   UNL A   1      40.005  19.195  25.937  1.00  0.00    -0.352 N 
ATOM     25  C   UNL A   1      41.354  19.369  26.102  1.00  0.00     0.251 C 
ATOM     26  H   UNL A   1      39.699  18.260  25.978  1.00  0.00     0.163 HD
ATOM     27  O   UNL A   1      42.116  18.410  25.989  1.00  0.00    -0.269 OA
BRANCH  25  28
ATOM     28  C   UNL A   1      41.890  20.703  26.419  1.00  0.00     0.039 A 
ATOM     29  C   UNL A   1      42.167  21.598  25.384  1.00  0.00     0.014 A 
ATOM     30  C   UNL A   1      42.140  21.059  27.746  1.00  0.00     0.014 A 
ATOM     31  C   UNL A   1      42.640  22.874  25.689  1.00  0.00     0.010 A 
ATOM     32  C   UNL A   1      42.503  22.360  28.055  1.00  0.00     0.010 A 
ATOM     33  C   UNL A   1      42.780  23.272  27.029  1.00  0.00    -0.014 A 
BRANCH  33  34
ATOM     34  C   UNL A   1      43.248  24.629  27.387  1.00  0.00     0.031 A 
ATOM     35  C   UNL A   1      42.258  25.665  27.835  1.00  0.00     0.074 A 
ATOM     36  C   UNL A   1      44.549  24.944  27.240  1.00  0.00     0.049 A 
ATOM     37  N   UNL A   1      42.457  26.922  28.136  1.00  0.00    -0.248 NA
ATOM     38  C   UNL A   1      40.850  25.243  27.922  1.00  0.00     0.031 C 
ATOM     39  C   UNL A   1      45.587  24.032  26.759  1.00  0.00     0.029 A 
ATOM     40  N   UNL A   1      45.215  26.118  27.476  1.00  0.00    -0.354 N 
ATOM     41  C   UNL A   1      41.203  27.440  28.430  1.00  0.00     0.074 A 
ATOM     42  C   UNL A   1      40.241  26.385  28.203  1.00  0.00     0.031 C 
ATOM     43  C   UNL A   1      46.767  24.672  26.769  1.00  0.00     0.029 A 
ATOM     44  C   UNL A   1      46.560  26.045  27.219  1.00  0.00     0.049 A 
ATOM     45  H   UNL A   1      44.770  26.935  27.799  1.00  0.00     0.167 HD
ATOM     46  C   UNL A   1      40.884  28.676  28.880  1.00  0.00     0.037 A 
ATOM     47  C   UNL A   1      47.521  26.982  27.333  1.00  0.00     0.037 A 
ATOM     48  C   UNL A   1      41.854  29.709  29.128  1.00  0.00     0.049 A 
ATOM     49  C   UNL A   1      47.150  28.349  27.832  1.00  0.00     0.074 A 
ATOM     50  C   UNL A   1      41.652  30.971  29.654  1.00  0.00     0.029 A 
ATOM     51  N   UNL A   1      43.211  29.597  28.859  1.00  0.00    -0.354 N 
ATOM     52  N   UNL A   1      45.972  28.806  28.184  1.00  0.00    -0.248 NA
ATOM     53  C   UNL A   1      48.237  29.328  27.956  1.00  0.00     0.031 C 
ATOM     54  C   UNL A   1      42.876  31.644  29.650  1.00  0.00     0.029 A 
ATOM     55  C   UNL A   1      43.853  30.782  29.176  1.00  0.00     0.049 A 
ATOM     56  H   UNL A   1      43.652  28.795  28.498  1.00  0.00     0.167 HD
ATOM     57  C   UNL A   1      46.174  30.120  28.582  1.00  0.00     0.074 A 
ATOM     58  C   UNL A   1      47.593  30.381  28.445  1.00  0.00     0.031 C 
ATOM     59  C   UNL A   1      45.267  31.027  29.021  1.00  0.00     0.037 A 
BRANCH  46  60
ATOM     60  C   UNL A   1      39.433  28.968  29.132  1.00  0.00     0.057 A 
ATOM     61  C   UNL A   1      38.840  28.760  30.385  1.00  0.00     0.134 A 
ATOM     62  C   UNL A   1      38.619  29.474  28.111  1.00  0.00     0.134 A 
ATOM     63  F   UNL A   1      39.558  28.262  31.404  1.00  0.00    -0.206 F 
ATOM     64  C   UNL A   1      37.484  29.012  30.604  1.00  0.00     0.040 A 
ATOM     65  C   UNL A   1      37.270  29.761  28.328  1.00  0.00     0.040 A 
ATOM     66  F   UNL A   1      39.121  29.702  26.888  1.00  0.00    -0.206 F 
ATOM     67  C   UNL A   1      36.697  29.521  29.574  1.00  0.00     0.006 A 
ENDBRANCH  46  60
BRANCH  47  68
ATOM     68  C   UNL A   1      48.922  26.620  27.011  1.00  0.00     0.057 A 
ATOM     69  C   UNL A   1      49.743  26.011  27.966  1.00  0.00     0.134 A 
ATOM     70  C   UNL A   1      49.446  26.792  25.723  1.00  0.00     0.134 A 
ATOM     71  F   UNL A   1      49.301  25.830  29.219  1.00  0.00    -0.206 F 
ATOM     72  C   UNL A   1      51.034  25.579  27.651  1.00  0.00     0.040 A 
ATOM     73  C   UNL A   1      50.725  26.346  25.389  1.00  0.00     0.040 A 
ATOM     74  F   UNL A   1      48.702  27.357  24.760  1.00  0.00    -0.206 F 
ATOM     75  C   UNL A   1      51.523  25.735  26.356  1.00  0.00     0.006 A 
ENDBRANCH  47  68
BRANCH  59  76
ATOM     76  C   UNL A   1      45.771  32.393  29.385  1.00  0.00     0.057 A 
ATOM     77  C   UNL A   1      45.775  33.445  28.461  1.00  0.00     0.134 A 
ATOM     78  C   UNL A   1      46.175  32.680  30.696  1.00  0.00     0.134 A 
ATOM     79  F   UNL A   1      45.408  33.234  27.188  1.00  0.00    -0.206 F 
ATOM     80  C   UNL A   1      46.170  34.733  28.825  1.00  0.00     0.040 A 
ATOM     81  C   UNL A   1      46.545  33.970  31.078  1.00  0.00     0.040 A 
ATOM     82  F   UNL A   1      46.184  31.719  31.632  1.00  0.00    -0.206 F 
ATOM     83  C   UNL A   1      46.544  35.000  30.141  1.00  0.00     0.006 A 
ENDBRANCH  59  76
ENDBRANCH  33  34
ENDBRANCH  25  28
ENDBRANCH  23  24
ENDBRANCH   1  23
TORSDOF 11
ENDMDL
