MODEL 1
REMARK VINA RESULT:     -12.3      0.000      0.000
REMARK SMILES C[C@@H](NC(=O)[C@H]1CC=CC[C@@H]1C(=O)NCCCNC(=O)c1ccc(-c2c3nc(c(-c4c(F)cccc4F)c4ccc([nH]4)c(-c4c(F)cccc4F)c4nc(c(-c5c(F)cccc5F)c5ccc2[nH]5)C=C4)C=C3)cc1)c1ccc(-n2ccnc2)cc1
REMARK SMILES IDX 15 1 14 2 12 3 13 4 11 6 6 7 7 8 8 9 10 10 9 11 4 12 3 13
REMARK SMILES IDX 5 15 2 16 1 17 75 18 76 19 85 20 77 21 84 22 78 23 79 24
REMARK SMILES IDX 80 25 83 26 81 27 82 28 16 29 17 30 18 31 19 32 20 34 21 35
REMARK SMILES IDX 22 36 74 37 23 38 73 39 24 40 25 41 26 42 67 43 27 44 72 45
REMARK SMILES IDX 66 46 68 47 28 48 71 49 65 50 64 51 29 53 55 54 38 55 54 56
REMARK SMILES IDX 39 57 42 58 53 59 69 60 40 61 41 62 52 64 70 65 43 66 30 67
REMARK SMILES IDX 31 68 36 69 32 70 33 71 35 72 37 73 34 74 56 75 57 76 62 77
REMARK SMILES IDX 58 78 59 79 61 80 63 81 60 82 44 83 45 84 50 85 46 86 47 87
REMARK SMILES IDX 49 88 51 89 48 90
REMARK H PARENT 14 5 3 14 18 33 68 52 42 63
REMARK Flexibility Score: inf
ROOT
ATOM      1  C   UNL A   1      31.054  30.742  25.674  1.00  0.00     0.117 C 
ENDROOT
BRANCH   1   2
ATOM      2  N   UNL A   1      31.811  29.853  26.537  1.00  0.00    -0.356 N 
ATOM      3  C   UNL A   1      32.061  28.517  26.461  1.00  0.00     0.224 C 
ATOM      4  O   UNL A   1      32.725  28.030  27.378  1.00  0.00    -0.275 OA
ATOM      5  H   UNL A   1      32.216  30.297  27.318  1.00  0.00     0.163 HD
BRANCH   3   6
ATOM      6  C   UNL A   1      31.506  27.671  25.312  1.00  0.00     0.095 C 
ATOM      7  C   UNL A   1      31.419  26.186  25.750  1.00  0.00     0.095 C 
ATOM      8  C   UNL A   1      32.814  25.520  25.749  1.00  0.00     0.041 C 
ATOM      9  C   UNL A   1      33.777  25.962  24.695  1.00  0.00    -0.030 C 
ATOM     10  C   UNL A   1      32.359  27.898  24.041  1.00  0.00     0.041 C 
ATOM     11  C   UNL A   1      33.565  27.021  23.911  1.00  0.00    -0.030 C 
BRANCH   7  12
ATOM     12  C   UNL A   1      30.463  25.381  24.868  1.00  0.00     0.224 C 
ATOM     13  N   UNL A   1      30.549  24.031  24.712  1.00  0.00    -0.349 N 
ATOM     14  H   UNL A   1      30.387  23.765  23.778  1.00  0.00     0.164 HD
ATOM     15  O   UNL A   1      29.623  25.946  24.161  1.00  0.00    -0.275 OA
BRANCH  13  16
ATOM     16  C   UNL A   1      30.823  22.852  25.572  1.00  0.00     0.109 C 
ATOM     17  C   UNL A   1      30.211  23.114  26.956  1.00  0.00     0.036 C 
BRANCH  16  18
ATOM     18  C   UNL A   1      32.243  22.325  25.589  1.00  0.00    -0.026 A 
ATOM     19  C   UNL A   1      32.904  22.113  24.374  1.00  0.00     0.008 A 
ATOM     20  C   UNL A   1      32.946  22.034  26.770  1.00  0.00     0.008 A 
ATOM     21  C   UNL A   1      34.288  21.952  24.339  1.00  0.00     0.027 A 
ATOM     22  C   UNL A   1      34.315  21.744  26.744  1.00  0.00     0.027 A 
ATOM     23  C   UNL A   1      34.997  21.841  25.532  1.00  0.00     0.046 A 
BRANCH  23  24
ATOM     24  N   UNL A   1      36.398  22.001  25.530  1.00  0.00    -0.306 N 
ATOM     25  C   UNL A   1      37.353  21.036  25.333  1.00  0.00     0.113 A 
ATOM     26  C   UNL A   1      37.074  23.137  25.916  1.00  0.00     0.204 A 
ATOM     27  C   UNL A   1      38.558  21.643  25.595  1.00  0.00     0.131 A 
ATOM     28  N   UNL A   1      38.373  22.940  25.982  1.00  0.00    -0.245 NA
ENDBRANCH  23  24
ENDBRANCH  16  18
ENDBRANCH  13  16
ENDBRANCH   7  12
ENDBRANCH   3   6
ENDBRANCH   1   2
BRANCH   1  29
ATOM     29  C   UNL A   1      31.107  32.188  26.162  1.00  0.00     0.042 C 
BRANCH  29  30
ATOM     30  C   UNL A   1      32.377  32.581  26.922  1.00  0.00     0.118 C 
BRANCH  30  31
ATOM     31  N   UNL A   1      32.299  33.908  27.507  1.00  0.00    -0.352 N 
ATOM     32  C   UNL A   1      33.065  34.528  28.466  1.00  0.00     0.251 C 
ATOM     33  H   UNL A   1      31.567  34.463  27.153  1.00  0.00     0.163 HD
ATOM     34  O   UNL A   1      32.693  35.621  28.888  1.00  0.00    -0.269 OA
BRANCH  32  35
ATOM     35  C   UNL A   1      34.301  33.925  29.035  1.00  0.00     0.039 A 
ATOM     36  C   UNL A   1      34.156  32.897  29.975  1.00  0.00     0.014 A 
ATOM     37  C   UNL A   1      35.585  34.395  28.752  1.00  0.00     0.014 A 
ATOM     38  C   UNL A   1      35.279  32.311  30.575  1.00  0.00     0.010 A 
ATOM     39  C   UNL A   1      36.713  33.772  29.311  1.00  0.00     0.010 A 
ATOM     40  C   UNL A   1      36.577  32.716  30.226  1.00  0.00    -0.014 A 
BRANCH  40  41
ATOM     41  C   UNL A   1      37.765  32.012  30.794  1.00  0.00     0.031 A 
ATOM     42  C   UNL A   1      38.270  32.301  32.184  1.00  0.00     0.074 A 
ATOM     43  C   UNL A   1      38.414  31.097  30.045  1.00  0.00     0.049 A 
ATOM     44  N   UNL A   1      39.261  31.740  32.835  1.00  0.00    -0.248 NA
ATOM     45  C   UNL A   1      37.589  33.367  32.935  1.00  0.00     0.031 C 
ATOM     46  C   UNL A   1      38.080  30.746  28.664  1.00  0.00     0.029 A 
ATOM     47  N   UNL A   1      39.485  30.288  30.341  1.00  0.00    -0.354 N 
ATOM     48  C   UNL A   1      39.318  32.376  34.070  1.00  0.00     0.074 A 
ATOM     49  C   UNL A   1      38.296  33.402  34.057  1.00  0.00     0.031 C 
ATOM     50  C   UNL A   1      38.905  29.774  28.244  1.00  0.00     0.029 A 
ATOM     51  C   UNL A   1      39.844  29.448  29.314  1.00  0.00     0.049 A 
ATOM     52  H   UNL A   1      39.951  30.309  31.208  1.00  0.00     0.167 HD
ATOM     53  C   UNL A   1      40.127  32.117  35.128  1.00  0.00     0.037 A 
ATOM     54  C   UNL A   1      40.813  28.516  29.235  1.00  0.00     0.037 A 
ATOM     55  C   UNL A   1      41.140  31.091  35.164  1.00  0.00     0.049 A 
ATOM     56  C   UNL A   1      41.696  28.246  30.422  1.00  0.00     0.074 A 
ATOM     57  C   UNL A   1      41.965  30.731  36.217  1.00  0.00     0.029 A 
ATOM     58  N   UNL A   1      41.469  30.264  34.103  1.00  0.00    -0.354 N 
ATOM     59  N   UNL A   1      41.684  28.809  31.604  1.00  0.00    -0.248 NA
ATOM     60  C   UNL A   1      42.719  27.202  30.264  1.00  0.00     0.031 C 
ATOM     61  C   UNL A   1      42.819  29.711  35.782  1.00  0.00     0.029 A 
ATOM     62  C   UNL A   1      42.498  29.409  34.470  1.00  0.00     0.049 A 
ATOM     63  H   UNL A   1      41.036  30.279  33.218  1.00  0.00     0.167 HD
ATOM     64  C   UNL A   1      42.684  28.179  32.335  1.00  0.00     0.074 A 
ATOM     65  C   UNL A   1      43.267  27.175  31.470  1.00  0.00     0.031 C 
ATOM     66  C   UNL A   1      43.083  28.415  33.608  1.00  0.00     0.037 A 
BRANCH  53  67
ATOM     67  C   UNL A   1      39.943  32.954  36.361  1.00  0.00     0.057 A 
ATOM     68  C   UNL A   1      40.670  34.136  36.558  1.00  0.00     0.134 A 
ATOM     69  C   UNL A   1      38.988  32.614  37.326  1.00  0.00     0.134 A 
ATOM     70  F   UNL A   1      41.604  34.515  35.672  1.00  0.00    -0.206 F 
ATOM     71  C   UNL A   1      40.467  34.939  37.681  1.00  0.00     0.040 A 
ATOM     72  C   UNL A   1      38.759  33.421  38.443  1.00  0.00     0.040 A 
ATOM     73  F   UNL A   1      38.249  31.502  37.192  1.00  0.00    -0.206 F 
ATOM     74  C   UNL A   1      39.503  34.586  38.624  1.00  0.00     0.006 A 
ENDBRANCH  53  67
BRANCH  54  75
ATOM     75  C   UNL A   1      40.994  27.742  27.981  1.00  0.00     0.057 A 
ATOM     76  C   UNL A   1      40.381  26.497  27.805  1.00  0.00     0.134 A 
ATOM     77  C   UNL A   1      41.794  28.225  26.939  1.00  0.00     0.134 A 
ATOM     78  F   UNL A   1      39.621  25.975  28.779  1.00  0.00    -0.206 F 
ATOM     79  C   UNL A   1      40.572  25.748  26.643  1.00  0.00     0.040 A 
ATOM     80  C   UNL A   1      41.975  27.497  25.762  1.00  0.00     0.040 A 
ATOM     81  F   UNL A   1      42.402  29.415  27.047  1.00  0.00    -0.206 F 
ATOM     82  C   UNL A   1      41.368  26.251  25.616  1.00  0.00     0.006 A 
ENDBRANCH  54  75
BRANCH  66  83
ATOM     83  C   UNL A   1      44.195  27.566  34.147  1.00  0.00     0.057 A 
ATOM     84  C   UNL A   1      45.533  27.981  34.093  1.00  0.00     0.134 A 
ATOM     85  C   UNL A   1      43.929  26.325  34.740  1.00  0.00     0.134 A 
ATOM     86  F   UNL A   1      45.858  29.152  33.525  1.00  0.00    -0.206 F 
ATOM     87  C   UNL A   1      46.567  27.182  34.586  1.00  0.00     0.040 A 
ATOM     88  C   UNL A   1      44.951  25.527  35.257  1.00  0.00     0.040 A 
ATOM     89  F   UNL A   1      42.671  25.870  34.830  1.00  0.00    -0.206 F 
ATOM     90  C   UNL A   1      46.276  25.953  35.176  1.00  0.00     0.006 A 
ENDBRANCH  66  83
ENDBRANCH  40  41
ENDBRANCH  32  35
ENDBRANCH  30  31
ENDBRANCH  29  30
ENDBRANCH   1  29
TORSDOF 14
ENDMDL
MODEL 2
REMARK VINA RESULT:     -12.3      3.831      7.525
REMARK SMILES C[C@@H](NC(=O)[C@H]1CC=CC[C@@H]1C(=O)NCCCNC(=O)c1ccc(-c2c3nc(c(-c4c(F)cccc4F)c4ccc([nH]4)c(-c4c(F)cccc4F)c4nc(c(-c5c(F)cccc5F)c5ccc2[nH]5)C=C4)C=C3)cc1)c1ccc(-n2ccnc2)cc1
REMARK SMILES IDX 15 1 14 2 12 3 13 4 11 6 6 7 7 8 8 9 10 10 9 11 4 12 3 13
REMARK SMILES IDX 5 15 2 16 1 17 75 18 76 19 85 20 77 21 84 22 78 23 79 24
REMARK SMILES IDX 80 25 83 26 81 27 82 28 16 29 17 30 18 31 19 32 20 34 21 35
REMARK SMILES IDX 22 36 74 37 23 38 73 39 24 40 25 41 26 42 67 43 27 44 72 45
REMARK SMILES IDX 66 46 68 47 28 48 71 49 65 50 64 51 29 53 55 54 38 55 54 56
REMARK SMILES IDX 39 57 42 58 53 59 69 60 40 61 41 62 52 64 70 65 43 66 30 67
REMARK SMILES IDX 31 68 36 69 32 70 33 71 35 72 37 73 34 74 56 75 57 76 62 77
REMARK SMILES IDX 58 78 59 79 61 80 63 81 60 82 44 83 45 84 50 85 46 86 47 87
REMARK SMILES IDX 49 88 51 89 48 90
REMARK H PARENT 14 5 3 14 18 33 68 52 42 63
REMARK Flexibility Score: inf
ROOT
ATOM      1  C   UNL A   1      32.912  29.659  24.940  1.00  0.00     0.117 C 
ENDROOT
BRANCH   1   2
ATOM      2  N   UNL A   1      32.351  29.107  23.719  1.00  0.00    -0.356 N 
ATOM      3  C   UNL A   1      31.590  28.001  23.495  1.00  0.00     0.224 C 
ATOM      4  O   UNL A   1      31.287  27.772  22.322  1.00  0.00    -0.275 OA
ATOM      5  H   UNL A   1      32.560  29.626  22.908  1.00  0.00     0.163 HD
BRANCH   3   6
ATOM      6  C   UNL A   1      31.173  27.080  24.644  1.00  0.00     0.095 C 
ATOM      7  C   UNL A   1      32.213  25.940  24.804  1.00  0.00     0.095 C 
ATOM      8  C   UNL A   1      32.043  24.869  23.701  1.00  0.00     0.041 C 
ATOM      9  C   UNL A   1      30.652  24.589  23.235  1.00  0.00    -0.030 C 
ATOM     10  C   UNL A   1      29.728  26.578  24.410  1.00  0.00     0.041 C 
ATOM     11  C   UNL A   1      29.603  25.346  23.569  1.00  0.00    -0.030 C 
BRANCH   7  12
ATOM     12  C   UNL A   1      32.134  25.278  26.180  1.00  0.00     0.224 C 
ATOM     13  N   UNL A   1      32.724  24.085  26.471  1.00  0.00    -0.349 N 
ATOM     14  H   UNL A   1      32.144  23.524  27.034  1.00  0.00     0.164 HD
ATOM     15  O   UNL A   1      31.428  25.754  27.075  1.00  0.00    -0.275 OA
BRANCH  13  16
ATOM     16  C   UNL A   1      34.007  23.403  26.164  1.00  0.00     0.109 C 
ATOM     17  C   UNL A   1      34.965  24.435  25.550  1.00  0.00     0.036 C 
BRANCH  16  18
ATOM     18  C   UNL A   1      33.928  22.083  25.425  1.00  0.00    -0.026 A 
ATOM     19  C   UNL A   1      35.070  21.280  25.344  1.00  0.00     0.008 A 
ATOM     20  C   UNL A   1      32.756  21.611  24.809  1.00  0.00     0.008 A 
ATOM     21  C   UNL A   1      34.970  19.939  24.976  1.00  0.00     0.027 A 
ATOM     22  C   UNL A   1      32.676  20.304  24.316  1.00  0.00     0.027 A 
ATOM     23  C   UNL A   1      33.748  19.440  24.531  1.00  0.00     0.046 A 
BRANCH  23  24
ATOM     24  N   UNL A   1      33.546  18.045  24.464  1.00  0.00    -0.306 N 
ATOM     25  C   UNL A   1      32.819  17.260  25.323  1.00  0.00     0.113 A 
ATOM     26  C   UNL A   1      34.206  17.181  23.619  1.00  0.00     0.204 A 
ATOM     27  C   UNL A   1      33.064  15.963  24.942  1.00  0.00     0.131 A 
ATOM     28  N   UNL A   1      33.948  15.922  23.900  1.00  0.00    -0.245 NA
ENDBRANCH  23  24
ENDBRANCH  16  18
ENDBRANCH  13  16
ENDBRANCH   7  12
ENDBRANCH   3   6
ENDBRANCH   1   2
BRANCH   1  29
ATOM     29  C   UNL A   1      33.975  28.744  25.541  1.00  0.00     0.042 C 
BRANCH  29  30
ATOM     30  C   UNL A   1      33.989  28.665  27.070  1.00  0.00     0.118 C 
BRANCH  30  31
ATOM     31  N   UNL A   1      33.949  29.971  27.705  1.00  0.00    -0.352 N 
ATOM     32  C   UNL A   1      34.879  30.647  28.460  1.00  0.00     0.251 C 
ATOM     33  H   UNL A   1      33.106  30.460  27.569  1.00  0.00     0.163 HD
ATOM     34  O   UNL A   1      34.534  31.695  29.002  1.00  0.00    -0.269 OA
BRANCH  32  35
ATOM     35  C   UNL A   1      36.267  30.154  28.674  1.00  0.00     0.039 A 
ATOM     36  C   UNL A   1      37.172  30.264  27.611  1.00  0.00     0.014 A 
ATOM     37  C   UNL A   1      36.681  29.506  29.840  1.00  0.00     0.014 A 
ATOM     38  C   UNL A   1      38.484  29.787  27.734  1.00  0.00     0.010 A 
ATOM     39  C   UNL A   1      38.011  29.077  29.984  1.00  0.00     0.010 A 
ATOM     40  C   UNL A   1      38.934  29.218  28.936  1.00  0.00    -0.014 A 
BRANCH  40  41
ATOM     41  C   UNL A   1      40.362  28.811  29.090  1.00  0.00     0.031 A 
ATOM     42  C   UNL A   1      40.850  27.451  28.661  1.00  0.00     0.074 A 
ATOM     43  C   UNL A   1      41.244  29.676  29.632  1.00  0.00     0.049 A 
ATOM     44  N   UNL A   1      42.070  26.966  28.687  1.00  0.00    -0.248 NA
ATOM     45  C   UNL A   1      39.843  26.507  28.155  1.00  0.00     0.031 C 
ATOM     46  C   UNL A   1      40.914  31.007  30.144  1.00  0.00     0.029 A 
ATOM     47  N   UNL A   1      42.599  29.569  29.838  1.00  0.00    -0.354 N 
ATOM     48  C   UNL A   1      41.978  25.669  28.196  1.00  0.00     0.074 A 
ATOM     49  C   UNL A   1      40.575  25.424  27.930  1.00  0.00     0.031 C 
ATOM     50  C   UNL A   1      42.038  31.604  30.573  1.00  0.00     0.029 A 
ATOM     51  C   UNL A   1      43.164  30.692  30.393  1.00  0.00     0.049 A 
ATOM     52  H   UNL A   1      43.116  28.763  29.608  1.00  0.00     0.167 HD
ATOM     53  C   UNL A   1      42.967  24.771  27.963  1.00  0.00     0.037 A 
ATOM     54  C   UNL A   1      44.441  30.967  30.719  1.00  0.00     0.037 A 
ATOM     55  C   UNL A   1      44.369  25.002  28.208  1.00  0.00     0.049 A 
ATOM     56  C   UNL A   1      45.521  29.956  30.449  1.00  0.00     0.074 A 
ATOM     57  C   UNL A   1      45.440  24.162  27.949  1.00  0.00     0.029 A 
ATOM     58  N   UNL A   1      44.897  26.153  28.770  1.00  0.00    -0.354 N 
ATOM     59  N   UNL A   1      45.421  28.764  29.917  1.00  0.00    -0.248 NA
ATOM     60  C   UNL A   1      46.893  30.337  30.817  1.00  0.00     0.031 C 
ATOM     61  C   UNL A   1      46.612  24.789  28.389  1.00  0.00     0.029 A 
ATOM     62  C   UNL A   1      46.275  26.036  28.885  1.00  0.00     0.049 A 
ATOM     63  H   UNL A   1      44.372  26.939  29.048  1.00  0.00     0.167 HD
ATOM     64  C   UNL A   1      46.714  28.259  29.871  1.00  0.00     0.074 A 
ATOM     65  C   UNL A   1      47.585  29.283  30.408  1.00  0.00     0.031 C 
ATOM     66  C   UNL A   1      47.140  27.052  29.426  1.00  0.00     0.037 A 
BRANCH  53  67
ATOM     67  C   UNL A   1      42.573  23.438  27.393  1.00  0.00     0.057 A 
ATOM     68  C   UNL A   1      42.599  23.197  26.013  1.00  0.00     0.134 A 
ATOM     69  C   UNL A   1      42.231  22.370  28.231  1.00  0.00     0.134 A 
ATOM     70  F   UNL A   1      42.915  24.180  25.157  1.00  0.00    -0.206 F 
ATOM     71  C   UNL A   1      42.278  21.945  25.486  1.00  0.00     0.040 A 
ATOM     72  C   UNL A   1      41.929  21.107  27.716  1.00  0.00     0.040 A 
ATOM     73  F   UNL A   1      42.200  22.531  29.562  1.00  0.00    -0.206 F 
ATOM     74  C   UNL A   1      41.949  20.894  26.339  1.00  0.00     0.006 A 
ENDBRANCH  53  67
BRANCH  54  75
ATOM     75  C   UNL A   1      44.783  32.278  31.325  1.00  0.00     0.057 A 
ATOM     76  C   UNL A   1      44.742  32.468  32.711  1.00  0.00     0.134 A 
ATOM     77  C   UNL A   1      45.143  33.374  30.532  1.00  0.00     0.134 A 
ATOM     78  F   UNL A   1      44.383  31.459  33.520  1.00  0.00    -0.206 F 
ATOM     79  C   UNL A   1      45.029  33.706  33.287  1.00  0.00     0.040 A 
ATOM     80  C   UNL A   1      45.455  34.611  31.095  1.00  0.00     0.040 A 
ATOM     81  F   UNL A   1      45.205  33.252  29.198  1.00  0.00    -0.206 F 
ATOM     82  C   UNL A   1      45.391  34.781  32.477  1.00  0.00     0.006 A 
ENDBRANCH  54  75
BRANCH  66  83
ATOM     83  C   UNL A   1      48.613  26.778  29.489  1.00  0.00     0.057 A 
ATOM     84  C   UNL A   1      49.195  26.126  30.584  1.00  0.00     0.134 A 
ATOM     85  C   UNL A   1      49.459  27.155  28.438  1.00  0.00     0.134 A 
ATOM     86  F   UNL A   1      48.443  25.752  31.630  1.00  0.00    -0.206 F 
ATOM     87  C   UNL A   1      50.569  25.882  30.644  1.00  0.00     0.040 A 
ATOM     88  C   UNL A   1      50.831  26.896  28.476  1.00  0.00     0.040 A 
ATOM     89  F   UNL A   1      48.967  27.777  27.357  1.00  0.00    -0.206 F 
ATOM     90  C   UNL A   1      51.390  26.264  29.585  1.00  0.00     0.006 A 
ENDBRANCH  66  83
ENDBRANCH  40  41
ENDBRANCH  32  35
ENDBRANCH  30  31
ENDBRANCH  29  30
ENDBRANCH   1  29
TORSDOF 14
ENDMDL
MODEL 3
REMARK VINA RESULT:     -12.2      3.667      5.202
REMARK SMILES C[C@@H](NC(=O)[C@H]1CC=CC[C@@H]1C(=O)NCCCNC(=O)c1ccc(-c2c3nc(c(-c4c(F)cccc4F)c4ccc([nH]4)c(-c4c(F)cccc4F)c4nc(c(-c5c(F)cccc5F)c5ccc2[nH]5)C=C4)C=C3)cc1)c1ccc(-n2ccnc2)cc1
REMARK SMILES IDX 15 1 14 2 12 3 13 4 11 6 6 7 7 8 8 9 10 10 9 11 4 12 3 13
REMARK SMILES IDX 5 15 2 16 1 17 75 18 76 19 85 20 77 21 84 22 78 23 79 24
REMARK SMILES IDX 80 25 83 26 81 27 82 28 16 29 17 30 18 31 19 32 20 34 21 35
REMARK SMILES IDX 22 36 74 37 23 38 73 39 24 40 25 41 26 42 67 43 27 44 72 45
REMARK SMILES IDX 66 46 68 47 28 48 71 49 65 50 64 51 29 53 55 54 38 55 54 56
REMARK SMILES IDX 39 57 42 58 53 59 69 60 40 61 41 62 52 64 70 65 43 66 30 67
REMARK SMILES IDX 31 68 36 69 32 70 33 71 35 72 37 73 34 74 56 75 57 76 62 77
REMARK SMILES IDX 58 78 59 79 61 80 63 81 60 82 44 83 45 84 50 85 46 86 47 87
REMARK SMILES IDX 49 88 51 89 48 90
REMARK H PARENT 14 5 3 14 18 33 68 52 42 63
REMARK Flexibility Score: inf
ROOT
ATOM      1  C   UNL A   1      32.858  29.654  24.913  1.00  0.00     0.117 C 
ENDROOT
BRANCH   1   2
ATOM      2  N   UNL A   1      32.295  29.107  23.691  1.00  0.00    -0.356 N 
ATOM      3  C   UNL A   1      31.517  28.013  23.467  1.00  0.00     0.224 C 
ATOM      4  O   UNL A   1      31.215  27.785  22.294  1.00  0.00    -0.275 OA
ATOM      5  H   UNL A   1      32.515  29.620  22.880  1.00  0.00     0.163 HD
BRANCH   3   6
ATOM      6  C   UNL A   1      31.080  27.101  24.617  1.00  0.00     0.095 C 
ATOM      7  C   UNL A   1      32.100  25.945  24.783  1.00  0.00     0.095 C 
ATOM      8  C   UNL A   1      31.917  24.874  23.683  1.00  0.00     0.041 C 
ATOM      9  C   UNL A   1      30.522  24.616  23.213  1.00  0.00    -0.030 C 
ATOM     10  C   UNL A   1      29.628  26.624  24.379  1.00  0.00     0.041 C 
ATOM     11  C   UNL A   1      29.485  25.391  23.541  1.00  0.00    -0.030 C 
BRANCH   7  12
ATOM     12  C   UNL A   1      32.006  25.288  26.161  1.00  0.00     0.224 C 
ATOM     13  N   UNL A   1      32.605  24.104  26.467  1.00  0.00    -0.349 N 
ATOM     14  H   UNL A   1      32.022  23.538  27.022  1.00  0.00     0.164 HD
ATOM     15  O   UNL A   1      31.279  25.759  27.041  1.00  0.00    -0.275 OA
BRANCH  13  16
ATOM     16  C   UNL A   1      33.902  23.437  26.186  1.00  0.00     0.109 C 
ATOM     17  C   UNL A   1      34.861  24.480  25.596  1.00  0.00     0.036 C 
BRANCH  16  18
ATOM     18  C   UNL A   1      33.852  22.119  25.441  1.00  0.00    -0.026 A 
ATOM     19  C   UNL A   1      35.001  21.321  25.394  1.00  0.00     0.008 A 
ATOM     20  C   UNL A   1      32.704  21.643  24.786  1.00  0.00     0.008 A 
ATOM     21  C   UNL A   1      34.918  19.981  25.019  1.00  0.00     0.027 A 
ATOM     22  C   UNL A   1      32.645  20.337  24.287  1.00  0.00     0.027 A 
ATOM     23  C   UNL A   1      33.714  19.477  24.533  1.00  0.00     0.046 A 
BRANCH  23  24
ATOM     24  N   UNL A   1      33.521  18.082  24.456  1.00  0.00    -0.306 N 
ATOM     25  C   UNL A   1      32.796  17.286  25.307  1.00  0.00     0.113 A 
ATOM     26  C   UNL A   1      34.189  17.228  23.606  1.00  0.00     0.204 A 
ATOM     27  C   UNL A   1      33.051  15.993  24.917  1.00  0.00     0.131 A 
ATOM     28  N   UNL A   1      33.938  15.966  23.877  1.00  0.00    -0.245 NA
ENDBRANCH  23  24
ENDBRANCH  16  18
ENDBRANCH  13  16
ENDBRANCH   7  12
ENDBRANCH   3   6
ENDBRANCH   1   2
BRANCH   1  29
ATOM     29  C   UNL A   1      33.869  28.703  25.547  1.00  0.00     0.042 C 
BRANCH  29  30
ATOM     30  C   UNL A   1      33.844  28.638  27.077  1.00  0.00     0.118 C 
BRANCH  30  31
ATOM     31  N   UNL A   1      33.788  29.950  27.698  1.00  0.00    -0.352 N 
ATOM     32  C   UNL A   1      34.713  30.651  28.435  1.00  0.00     0.251 C 
ATOM     33  H   UNL A   1      32.934  30.423  27.567  1.00  0.00     0.163 HD
ATOM     34  O   UNL A   1      34.356  31.698  28.970  1.00  0.00    -0.269 OA
BRANCH  32  35
ATOM     35  C   UNL A   1      36.113  30.185  28.638  1.00  0.00     0.039 A 
ATOM     36  C   UNL A   1      36.997  30.280  27.556  1.00  0.00     0.014 A 
ATOM     37  C   UNL A   1      36.557  29.577  29.814  1.00  0.00     0.014 A 
ATOM     38  C   UNL A   1      38.318  29.827  27.669  1.00  0.00     0.010 A 
ATOM     39  C   UNL A   1      37.896  29.173  29.946  1.00  0.00     0.010 A 
ATOM     40  C   UNL A   1      38.798  29.298  28.878  1.00  0.00    -0.014 A 
BRANCH  40  41
ATOM     41  C   UNL A   1      40.235  28.917  29.017  1.00  0.00     0.031 A 
ATOM     42  C   UNL A   1      41.249  29.852  29.627  1.00  0.00     0.074 A 
ATOM     43  C   UNL A   1      40.647  27.709  28.582  1.00  0.00     0.049 A 
ATOM     44  N   UNL A   1      42.524  29.649  29.858  1.00  0.00    -0.248 NA
ATOM     45  C   UNL A   1      40.778  31.192  30.009  1.00  0.00     0.031 C 
ATOM     46  C   UNL A   1      39.797  26.715  27.922  1.00  0.00     0.029 A 
ATOM     47  N   UNL A   1      41.881  27.106  28.634  1.00  0.00    -0.354 N 
ATOM     48  C   UNL A   1      43.005  30.826  30.418  1.00  0.00     0.074 A 
ATOM     49  C   UNL A   1      41.897  31.758  30.442  1.00  0.00     0.031 C 
ATOM     50  C   UNL A   1      40.525  25.618  27.661  1.00  0.00     0.029 A 
ATOM     51  C   UNL A   1      41.898  25.835  28.109  1.00  0.00     0.049 A 
ATOM     52  H   UNL A   1      42.677  27.543  29.012  1.00  0.00     0.167 HD
ATOM     53  C   UNL A   1      44.246  31.103  30.893  1.00  0.00     0.037 A 
ATOM     54  C   UNL A   1      42.898  24.939  28.001  1.00  0.00     0.037 A 
ATOM     55  C   UNL A   1      45.357  30.183  30.889  1.00  0.00     0.049 A 
ATOM     56  C   UNL A   1      44.264  25.268  28.537  1.00  0.00     0.074 A 
ATOM     57  C   UNL A   1      46.631  30.370  31.400  1.00  0.00     0.029 A 
ATOM     58  N   UNL A   1      45.330  28.908  30.350  1.00  0.00    -0.354 N 
ATOM     59  N   UNL A   1      44.677  26.361  29.128  1.00  0.00    -0.248 NA
ATOM     60  C   UNL A   1      45.298  24.232  28.397  1.00  0.00     0.031 C 
ATOM     61  C   UNL A   1      47.387  29.222  31.136  1.00  0.00     0.029 A 
ATOM     62  C   UNL A   1      46.571  28.305  30.496  1.00  0.00     0.049 A 
ATOM     63  H   UNL A   1      44.545  28.491  29.924  1.00  0.00     0.167 HD
ATOM     64  C   UNL A   1      46.012  26.139  29.445  1.00  0.00     0.074 A 
ATOM     65  C   UNL A   1      46.332  24.799  29.001  1.00  0.00     0.031 C 
ATOM     66  C   UNL A   1      46.891  26.975  30.048  1.00  0.00     0.037 A 
BRANCH  53  67
ATOM     67  C   UNL A   1      44.475  32.467  31.478  1.00  0.00     0.057 A 
ATOM     68  C   UNL A   1      44.266  32.723  32.840  1.00  0.00     0.134 A 
ATOM     69  C   UNL A   1      44.972  33.513  30.692  1.00  0.00     0.134 A 
ATOM     70  F   UNL A   1      43.787  31.763  33.645  1.00  0.00    -0.206 F 
ATOM     71  C   UNL A   1      44.523  33.978  33.394  1.00  0.00     0.040 A 
ATOM     72  C   UNL A   1      45.255  34.767  31.239  1.00  0.00     0.040 A 
ATOM     73  F   UNL A   1      45.207  33.331  29.383  1.00  0.00    -0.206 F 
ATOM     74  C   UNL A   1      45.027  35.002  32.594  1.00  0.00     0.006 A 
ENDBRANCH  53  67
BRANCH  54  75
ATOM     75  C   UNL A   1      42.642  23.620  27.373  1.00  0.00     0.057 A 
ATOM     76  C   UNL A   1      42.753  23.443  25.989  1.00  0.00     0.134 A 
ATOM     77  C   UNL A   1      42.266  22.510  28.139  1.00  0.00     0.134 A 
ATOM     78  F   UNL A   1      43.090  24.476  25.202  1.00  0.00    -0.206 F 
ATOM     79  C   UNL A   1      42.482  22.214  25.386  1.00  0.00     0.040 A 
ATOM     80  C   UNL A   1      42.014  21.270  27.552  1.00  0.00     0.040 A 
ATOM     81  F   UNL A   1      42.147  22.616  29.471  1.00  0.00    -0.206 F 
ATOM     82  C   UNL A   1      42.115  21.122  26.170  1.00  0.00     0.006 A 
ENDBRANCH  54  75
BRANCH  66  83
ATOM     83  C   UNL A   1      48.282  26.460  30.274  1.00  0.00     0.057 A 
ATOM     84  C   UNL A   1      49.305  26.667  29.339  1.00  0.00     0.134 A 
ATOM     85  C   UNL A   1      48.608  25.762  31.444  1.00  0.00     0.134 A 
ATOM     86  F   UNL A   1      49.056  27.315  28.191  1.00  0.00    -0.206 F 
ATOM     87  C   UNL A   1      50.597  26.176  29.548  1.00  0.00     0.040 A 
ATOM     88  C   UNL A   1      49.900  25.286  31.674  1.00  0.00     0.040 A 
ATOM     89  F   UNL A   1      47.678  25.534  32.382  1.00  0.00    -0.206 F 
ATOM     90  C   UNL A   1      50.897  25.488  30.722  1.00  0.00     0.006 A 
ENDBRANCH  66  83
ENDBRANCH  40  41
ENDBRANCH  32  35
ENDBRANCH  30  31
ENDBRANCH  29  30
ENDBRANCH   1  29
TORSDOF 14
ENDMDL
