MODEL 1
REMARK VINA RESULT:     -14.0      0.000      0.000
REMARK SMILES O=C(NCCCNC(=O)c1ccccc1-c1ccc(/C=C2/SC(=S)N(Cc3ccccc3)C2=O)o1)c1ccc(-c2c3nc(c(-c4c(F)cccc4F)c4ccc([nH]4)c(-c4c(F)cccc4F)c4nc(c(-c5c(F)cccc5F)c5ccc2[nH]5)C=C4)C=C3)cc1
REMARK SMILES IDX 6 1 5 2 4 3 3 4 1 5 2 6 36 8 37 9 89 10 38 11 88 12 39 13
REMARK SMILES IDX 40 14 41 15 82 16 42 17 87 18 81 19 83 20 43 21 86 22 80 23
REMARK SMILES IDX 79 24 44 26 70 27 53 28 69 29 54 30 57 31 68 32 84 33 55 34
REMARK SMILES IDX 56 35 67 37 85 38 58 39 45 40 46 41 51 42 47 43 48 44 50 45
REMARK SMILES IDX 52 46 49 47 71 48 72 49 77 50 73 51 74 52 76 53 78 54 75 55
REMARK SMILES IDX 59 56 60 57 65 58 61 59 62 60 64 61 66 62 63 63 7 64 8 65
REMARK SMILES IDX 9 67 10 68 11 69 15 70 12 71 14 72 13 73 16 74 17 75 35 76
REMARK SMILES IDX 18 77 19 78 20 79 21 80 22 81 33 82 23 83 25 84 34 85 24 86
REMARK SMILES IDX 26 87 27 88 28 89 32 90 29 91 31 92 30 93
REMARK H PARENT 3 7 83 25 57 36 7 66
REMARK Flexibility Score: inf
ROOT
ATOM      1  C   UNL A   1      31.675  29.971  26.011  1.00  0.00     0.118 C 
ENDROOT
BRANCH   1   2
ATOM      2  C   UNL A   1      31.436  31.425  26.357  1.00  0.00     0.042 C 
BRANCH   2   3
ATOM      3  C   UNL A   1      32.635  32.095  27.013  1.00  0.00     0.118 C 
BRANCH   3   4
ATOM      4  N   UNL A   1      32.406  33.493  27.374  1.00  0.00    -0.352 N 
ATOM      5  O   UNL A   1      32.569  35.406  28.552  1.00  0.00    -0.269 OA
ATOM      6  C   UNL A   1      33.031  34.298  28.297  1.00  0.00     0.251 C 
ATOM      7  H   UNL A   1      31.681  33.931  26.873  1.00  0.00     0.163 HD
BRANCH   6   8
ATOM      8  C   UNL A   1      34.230  33.813  29.016  1.00  0.00     0.039 A 
ATOM      9  C   UNL A   1      35.503  34.272  28.677  1.00  0.00     0.014 A 
ATOM     10  C   UNL A   1      34.078  32.872  30.036  1.00  0.00     0.014 A 
ATOM     11  C   UNL A   1      36.626  33.638  29.190  1.00  0.00     0.010 A 
ATOM     12  C   UNL A   1      35.209  32.323  30.644  1.00  0.00     0.010 A 
ATOM     13  C   UNL A   1      36.493  32.666  30.190  1.00  0.00    -0.014 A 
BRANCH  13  14
ATOM     14  C   UNL A   1      37.703  32.052  30.791  1.00  0.00     0.031 A 
ATOM     15  C   UNL A   1      38.459  30.977  30.065  1.00  0.00     0.074 A 
ATOM     16  C   UNL A   1      38.105  32.463  32.007  1.00  0.00     0.049 A 
ATOM     17  N   UNL A   1      39.470  30.256  30.481  1.00  0.00    -0.248 NA
ATOM     18  C   UNL A   1      38.018  30.661  28.699  1.00  0.00     0.031 C 
ATOM     19  C   UNL A   1      37.457  33.509  32.801  1.00  0.00     0.029 A 
ATOM     20  N   UNL A   1      39.147  32.046  32.795  1.00  0.00    -0.354 N 
ATOM     21  C   UNL A   1      39.763  29.379  29.444  1.00  0.00     0.074 A 
ATOM     22  C   UNL A   1      38.810  29.645  28.387  1.00  0.00     0.031 C 
ATOM     23  C   UNL A   1      38.120  33.660  33.955  1.00  0.00     0.029 A 
ATOM     24  C   UNL A   1      39.187  32.669  34.017  1.00  0.00     0.049 A 
ATOM     25  H   UNL A   1      39.801  31.366  32.513  1.00  0.00     0.167 HD
ATOM     26  C   UNL A   1      40.738  28.438  29.384  1.00  0.00     0.037 A 
ATOM     27  C   UNL A   1      39.963  32.441  35.092  1.00  0.00     0.037 A 
ATOM     28  C   UNL A   1      41.683  28.192  30.443  1.00  0.00     0.049 A 
ATOM     29  C   UNL A   1      41.001  31.364  35.024  1.00  0.00     0.074 A 
ATOM     30  C   UNL A   1      42.732  27.289  30.469  1.00  0.00     0.029 A 
ATOM     31  N   UNL A   1      41.684  28.842  31.669  1.00  0.00    -0.354 N 
ATOM     32  N   UNL A   1      41.284  30.555  34.032  1.00  0.00    -0.248 NA
ATOM     33  C   UNL A   1      41.828  31.163  36.221  1.00  0.00     0.031 C 
ATOM     34  C   UNL A   1      43.329  27.351  31.732  1.00  0.00     0.029 A 
ATOM     35  C   UNL A   1      42.697  28.339  32.472  1.00  0.00     0.049 A 
ATOM     36  H   UNL A   1      41.059  29.556  31.931  1.00  0.00     0.167 HD
ATOM     37  C   UNL A   1      42.338  29.767  34.472  1.00  0.00     0.074 A 
ATOM     38  C   UNL A   1      42.644  30.197  35.822  1.00  0.00     0.031 C 
ATOM     39  C   UNL A   1      42.996  28.784  33.810  1.00  0.00     0.037 A 
BRANCH  26  40
ATOM     40  C   UNL A   1      40.797  27.579  28.152  1.00  0.00     0.057 A 
ATOM     41  C   UNL A   1      40.107  26.364  28.051  1.00  0.00     0.134 A 
ATOM     42  C   UNL A   1      41.555  27.981  27.043  1.00  0.00     0.134 A 
ATOM     43  F   UNL A   1      39.369  25.913  29.076  1.00  0.00    -0.206 F 
ATOM     44  C   UNL A   1      40.201  25.563  26.909  1.00  0.00     0.040 A 
ATOM     45  C   UNL A   1      41.632  27.204  25.887  1.00  0.00     0.040 A 
ATOM     46  F   UNL A   1      42.234  29.139  27.065  1.00  0.00    -0.206 F 
ATOM     47  C   UNL A   1      40.962  25.984  25.822  1.00  0.00     0.006 A 
ENDBRANCH  26  40
BRANCH  27  48
ATOM     48  C   UNL A   1      39.747  33.246  36.318  1.00  0.00     0.057 A 
ATOM     49  C   UNL A   1      40.428  34.449  36.525  1.00  0.00     0.134 A 
ATOM     50  C   UNL A   1      38.803  32.864  37.280  1.00  0.00     0.134 A 
ATOM     51  F   UNL A   1      41.351  34.862  35.643  1.00  0.00    -0.206 F 
ATOM     52  C   UNL A   1      40.178  35.246  37.642  1.00  0.00     0.040 A 
ATOM     53  C   UNL A   1      38.523  33.662  38.388  1.00  0.00     0.040 A 
ATOM     54  F   UNL A   1      38.105  31.727  37.129  1.00  0.00    -0.206 F 
ATOM     55  C   UNL A   1      39.215  34.857  38.574  1.00  0.00     0.006 A 
ENDBRANCH  27  48
BRANCH  39  56
ATOM     56  C   UNL A   1      44.150  28.132  34.512  1.00  0.00     0.057 A 
ATOM     57  C   UNL A   1      43.999  26.960  35.262  1.00  0.00     0.134 A 
ATOM     58  C   UNL A   1      45.444  28.650  34.372  1.00  0.00     0.134 A 
ATOM     59  F   UNL A   1      42.784  26.422  35.448  1.00  0.00    -0.206 F 
ATOM     60  C   UNL A   1      45.096  26.328  35.852  1.00  0.00     0.040 A 
ATOM     61  C   UNL A   1      46.550  28.013  34.934  1.00  0.00     0.040 A 
ATOM     62  F   UNL A   1      45.656  29.769  33.662  1.00  0.00    -0.206 F 
ATOM     63  C   UNL A   1      46.378  26.849  35.678  1.00  0.00     0.006 A 
ENDBRANCH  39  56
ENDBRANCH  13  14
ENDBRANCH   6   8
ENDBRANCH   3   4
ENDBRANCH   2   3
ENDBRANCH   1   2
BRANCH   1  64
ATOM     64  N   UNL A   1      32.301  29.755  24.720  1.00  0.00    -0.352 N 
ATOM     65  C   UNL A   1      31.807  29.083  23.630  1.00  0.00     0.252 C 
ATOM     66  H   UNL A   1      33.201  30.140  24.613  1.00  0.00     0.163 HD
ATOM     67  O   UNL A   1      32.456  29.060  22.587  1.00  0.00    -0.269 OA
BRANCH  65  68
ATOM     68  C   UNL A   1      30.537  28.329  23.711  1.00  0.00     0.050 A 
ATOM     69  C   UNL A   1      29.406  28.987  23.202  1.00  0.00     0.014 A 
ATOM     70  C   UNL A   1      30.423  27.042  24.269  1.00  0.00     0.030 A 
ATOM     71  C   UNL A   1      28.166  28.352  23.205  1.00  0.00     0.001 A 
ATOM     72  C   UNL A   1      29.170  26.412  24.247  1.00  0.00     0.013 A 
ATOM     73  C   UNL A   1      28.051  27.061  23.719  1.00  0.00     0.001 A 
BRANCH  70  74
ATOM     74  C   UNL A   1      31.558  26.349  24.853  1.00  0.00     0.135 A 
ATOM     75  C   UNL A   1      31.975  26.117  26.143  1.00  0.00     0.051 A 
ATOM     76  O   UNL A   1      32.514  25.938  23.969  1.00  0.00    -0.457 OA
ATOM     77  C   UNL A   1      33.277  25.580  26.038  1.00  0.00     0.051 A 
ATOM     78  C   UNL A   1      33.589  25.474  24.684  1.00  0.00     0.128 A 
BRANCH  78  79
ATOM     79  C   UNL A   1      34.805  25.024  24.102  1.00  0.00     0.068 C 
ATOM     80  C   UNL A   1      35.074  23.716  24.026  1.00  0.00     0.084 C 
ATOM     81  S   UNL A   1      36.631  23.036  23.776  1.00  0.00    -0.054 SA
ATOM     82  C   UNL A   1      34.121  22.632  24.348  1.00  0.00     0.266 C 
ATOM     83  C   UNL A   1      36.162  21.527  24.579  1.00  0.00     0.148 C 
ATOM     84  N   UNL A   1      34.808  21.539  24.828  1.00  0.00    -0.288 N 
ATOM     85  O   UNL A   1      32.911  22.699  24.168  1.00  0.00    -0.268 OA
ATOM     86  S   UNL A   1      37.267  20.329  24.928  1.00  0.00    -0.052 S 
BRANCH  84  87
ATOM     87  C   UNL A   1      34.039  20.487  25.487  1.00  0.00     0.163 C 
BRANCH  87  88
ATOM     88  C   UNL A   1      33.708  19.335  24.552  1.00  0.00    -0.028 A 
ATOM     89  C   UNL A   1      34.528  18.200  24.504  1.00  0.00     0.005 A 
ATOM     90  C   UNL A   1      32.603  19.393  23.683  1.00  0.00     0.005 A 
ATOM     91  C   UNL A   1      34.249  17.158  23.614  1.00  0.00     0.000 A 
ATOM     92  C   UNL A   1      32.311  18.341  22.813  1.00  0.00     0.000 A 
ATOM     93  C   UNL A   1      33.140  17.226  22.774  1.00  0.00     0.000 A 
ENDBRANCH  87  88
ENDBRANCH  84  87
ENDBRANCH  78  79
ENDBRANCH  70  74
ENDBRANCH  65  68
ENDBRANCH   1  64
TORSDOF 14
ENDMDL
MODEL 2
REMARK VINA RESULT:     -13.9      4.525     10.202
REMARK SMILES O=C(NCCCNC(=O)c1ccccc1-c1ccc(/C=C2/SC(=S)N(Cc3ccccc3)C2=O)o1)c1ccc(-c2c3nc(c(-c4c(F)cccc4F)c4ccc([nH]4)c(-c4c(F)cccc4F)c4nc(c(-c5c(F)cccc5F)c5ccc2[nH]5)C=C4)C=C3)cc1
REMARK SMILES IDX 6 1 5 2 4 3 3 4 1 5 2 6 36 8 37 9 89 10 38 11 88 12 39 13
REMARK SMILES IDX 40 14 41 15 82 16 42 17 87 18 81 19 83 20 43 21 86 22 80 23
REMARK SMILES IDX 79 24 44 26 70 27 53 28 69 29 54 30 57 31 68 32 84 33 55 34
REMARK SMILES IDX 56 35 67 37 85 38 58 39 45 40 46 41 51 42 47 43 48 44 50 45
REMARK SMILES IDX 52 46 49 47 71 48 72 49 77 50 73 51 74 52 76 53 78 54 75 55
REMARK SMILES IDX 59 56 60 57 65 58 61 59 62 60 64 61 66 62 63 63 7 64 8 65
REMARK SMILES IDX 9 67 10 68 11 69 15 70 12 71 14 72 13 73 16 74 17 75 35 76
REMARK SMILES IDX 18 77 19 78 20 79 21 80 22 81 33 82 23 83 25 84 34 85 24 86
REMARK SMILES IDX 26 87 27 88 28 89 32 90 29 91 31 92 30 93
REMARK H PARENT 3 7 83 25 57 36 7 66
REMARK Flexibility Score: inf
ROOT
ATOM      1  C   UNL A   1      36.603  20.975  24.870  1.00  0.00     0.118 C 
ENDROOT
BRANCH   1   2
ATOM      2  C   UNL A   1      37.608  19.852  25.014  1.00  0.00     0.042 C 
BRANCH   2   3
ATOM      3  C   UNL A   1      38.870  20.263  25.760  1.00  0.00     0.118 C 
BRANCH   3   4
ATOM      4  N   UNL A   1      39.898  19.225  25.797  1.00  0.00    -0.352 N 
ATOM      5  O   UNL A   1      41.959  18.319  25.866  1.00  0.00    -0.269 OA
ATOM      6  C   UNL A   1      41.249  19.304  26.043  1.00  0.00     0.251 C 
ATOM      7  H   UNL A   1      39.567  18.316  25.616  1.00  0.00     0.163 HD
BRANCH   6   8
ATOM      8  C   UNL A   1      41.853  20.585  26.472  1.00  0.00     0.039 A 
ATOM      9  C   UNL A   1      42.024  20.878  27.825  1.00  0.00     0.014 A 
ATOM     10  C   UNL A   1      42.240  21.513  25.504  1.00  0.00     0.014 A 
ATOM     11  C   UNL A   1      42.366  22.165  28.215  1.00  0.00     0.010 A 
ATOM     12  C   UNL A   1      42.706  22.769  25.898  1.00  0.00     0.010 A 
ATOM     13  C   UNL A   1      42.725  23.122  27.257  1.00  0.00    -0.014 A 
BRANCH  13  14
ATOM     14  C   UNL A   1      43.168  24.471  27.689  1.00  0.00     0.031 A 
ATOM     15  C   UNL A   1      42.168  25.513  28.099  1.00  0.00     0.074 A 
ATOM     16  C   UNL A   1      44.483  24.754  27.691  1.00  0.00     0.049 A 
ATOM     17  N   UNL A   1      42.365  26.771  28.401  1.00  0.00    -0.248 NA
ATOM     18  C   UNL A   1      40.761  25.091  28.170  1.00  0.00     0.031 C 
ATOM     19  C   UNL A   1      45.548  23.817  27.324  1.00  0.00     0.029 A 
ATOM     20  N   UNL A   1      45.150  25.911  28.001  1.00  0.00    -0.354 N 
ATOM     21  C   UNL A   1      41.107  27.301  28.663  1.00  0.00     0.074 A 
ATOM     22  C   UNL A   1      40.152  26.230  28.466  1.00  0.00     0.031 C 
ATOM     23  C   UNL A   1      46.733  24.431  27.441  1.00  0.00     0.029 A 
ATOM     24  C   UNL A   1      46.507  25.822  27.811  1.00  0.00     0.049 A 
ATOM     25  H   UNL A   1      44.701  26.724  28.327  1.00  0.00     0.167 HD
ATOM     26  C   UNL A   1      40.783  28.564  29.032  1.00  0.00     0.037 A 
ATOM     27  C   UNL A   1      47.463  26.765  27.878  1.00  0.00     0.037 A 
ATOM     28  C   UNL A   1      41.748  29.616  29.231  1.00  0.00     0.049 A 
ATOM     29  C   UNL A   1      47.080  28.168  28.239  1.00  0.00     0.074 A 
ATOM     30  C   UNL A   1      41.530  30.919  29.641  1.00  0.00     0.029 A 
ATOM     31  N   UNL A   1      43.114  29.485  29.021  1.00  0.00    -0.354 N 
ATOM     32  N   UNL A   1      45.891  28.652  28.506  1.00  0.00    -0.248 NA
ATOM     33  C   UNL A   1      48.164  29.155  28.309  1.00  0.00     0.031 C 
ATOM     34  C   UNL A   1      42.755  31.594  29.621  1.00  0.00     0.029 A 
ATOM     35  C   UNL A   1      43.748  30.695  29.264  1.00  0.00     0.049 A 
ATOM     36  H   UNL A   1      43.566  28.657  28.742  1.00  0.00     0.167 HD
ATOM     37  C   UNL A   1      46.085  29.994  28.802  1.00  0.00     0.074 A 
ATOM     38  C   UNL A   1      47.508  30.245  28.681  1.00  0.00     0.031 C 
ATOM     39  C   UNL A   1      45.166  30.927  29.149  1.00  0.00     0.037 A 
BRANCH  26  40
ATOM     40  C   UNL A   1      39.324  28.885  29.199  1.00  0.00     0.057 A 
ATOM     41  C   UNL A   1      38.657  28.733  30.422  1.00  0.00     0.134 A 
ATOM     42  C   UNL A   1      38.575  29.364  28.115  1.00  0.00     0.134 A 
ATOM     43  F   UNL A   1      39.309  28.272  31.499  1.00  0.00    -0.206 F 
ATOM     44  C   UNL A   1      37.293  29.006  30.549  1.00  0.00     0.040 A 
ATOM     45  C   UNL A   1      37.219  29.668  28.238  1.00  0.00     0.040 A 
ATOM     46  F   UNL A   1      39.150  29.545  26.916  1.00  0.00    -0.206 F 
ATOM     47  C   UNL A   1      36.570  29.478  29.456  1.00  0.00     0.006 A 
ENDBRANCH  26  40
BRANCH  27  48
ATOM     48  C   UNL A   1      48.864  26.392  27.566  1.00  0.00     0.057 A 
ATOM     49  C   UNL A   1      49.737  25.953  28.566  1.00  0.00     0.134 A 
ATOM     50  C   UNL A   1      49.341  26.400  26.249  1.00  0.00     0.134 A 
ATOM     51  F   UNL A   1      49.340  25.933  29.847  1.00  0.00    -0.206 F 
ATOM     52  C   UNL A   1      51.034  25.534  28.268  1.00  0.00     0.040 A 
ATOM     53  C   UNL A   1      50.625  25.958  25.932  1.00  0.00     0.040 A 
ATOM     54  F   UNL A   1      48.545  26.794  25.243  1.00  0.00    -0.206 F 
ATOM     55  C   UNL A   1      51.478  25.526  26.946  1.00  0.00     0.006 A 
ENDBRANCH  27  48
BRANCH  39  56
ATOM     56  C   UNL A   1      45.669  32.302  29.478  1.00  0.00     0.057 A 
ATOM     57  C   UNL A   1      45.720  33.323  28.522  1.00  0.00     0.134 A 
ATOM     58  C   UNL A   1      46.036  32.623  30.791  1.00  0.00     0.134 A 
ATOM     59  F   UNL A   1      45.397  33.077  27.243  1.00  0.00    -0.206 F 
ATOM     60  C   UNL A   1      46.125  34.616  28.861  1.00  0.00     0.040 A 
ATOM     61  C   UNL A   1      46.417  33.917  31.146  1.00  0.00     0.040 A 
ATOM     62  F   UNL A   1      46.004  31.690  31.755  1.00  0.00    -0.206 F 
ATOM     63  C   UNL A   1      46.463  34.918  30.179  1.00  0.00     0.006 A 
ENDBRANCH  39  56
ENDBRANCH  13  14
ENDBRANCH   6   8
ENDBRANCH   3   4
ENDBRANCH   2   3
ENDBRANCH   1   2
BRANCH   1  64
ATOM     64  N   UNL A   1      35.694  21.117  25.991  1.00  0.00    -0.352 N 
ATOM     65  C   UNL A   1      34.330  20.960  26.014  1.00  0.00     0.252 C 
ATOM     66  H   UNL A   1      36.109  21.360  26.850  1.00  0.00     0.163 HD
ATOM     67  O   UNL A   1      33.727  21.052  27.080  1.00  0.00    -0.269 OA
BRANCH  65  68
ATOM     68  C   UNL A   1      33.567  20.747  24.764  1.00  0.00     0.050 A 
ATOM     69  C   UNL A   1      33.288  19.410  24.442  1.00  0.00     0.014 A 
ATOM     70  C   UNL A   1      33.144  21.788  23.917  1.00  0.00     0.030 A 
ATOM     71  C   UNL A   1      32.550  19.104  23.301  1.00  0.00     0.001 A 
ATOM     72  C   UNL A   1      32.388  21.462  22.782  1.00  0.00     0.013 A 
ATOM     73  C   UNL A   1      32.093  20.131  22.477  1.00  0.00     0.001 A 
BRANCH  70  74
ATOM     74  C   UNL A   1      33.457  23.181  24.187  1.00  0.00     0.135 A 
ATOM     75  C   UNL A   1      34.373  24.070  23.674  1.00  0.00     0.051 A 
ATOM     76  O   UNL A   1      32.824  23.727  25.265  1.00  0.00    -0.457 OA
ATOM     77  C   UNL A   1      34.326  25.202  24.519  1.00  0.00     0.051 A 
ATOM     78  C   UNL A   1      33.358  24.971  25.493  1.00  0.00     0.128 A 
BRANCH  78  79
ATOM     79  C   UNL A   1      32.993  25.813  26.577  1.00  0.00     0.068 C 
ATOM     80  C   UNL A   1      32.278  26.922  26.360  1.00  0.00     0.084 C 
ATOM     81  S   UNL A   1      32.139  28.243  27.449  1.00  0.00    -0.054 SA
ATOM     82  C   UNL A   1      31.655  27.293  25.070  1.00  0.00     0.266 C 
ATOM     83  C   UNL A   1      31.790  29.369  26.125  1.00  0.00     0.148 C 
ATOM     84  N   UNL A   1      31.611  28.664  24.955  1.00  0.00    -0.288 N 
ATOM     85  O   UNL A   1      31.213  26.488  24.260  1.00  0.00    -0.268 OA
ATOM     86  S   UNL A   1      31.701  31.016  26.364  1.00  0.00    -0.052 S 
BRANCH  84  87
ATOM     87  C   UNL A   1      31.321  29.229  23.640  1.00  0.00     0.163 C 
BRANCH  87  88
ATOM     88  C   UNL A   1      29.854  29.586  23.471  1.00  0.00    -0.028 A 
ATOM     89  C   UNL A   1      28.928  28.617  23.061  1.00  0.00     0.005 A 
ATOM     90  C   UNL A   1      29.392  30.899  23.676  1.00  0.00     0.005 A 
ATOM     91  C   UNL A   1      27.585  28.954  22.864  1.00  0.00     0.000 A 
ATOM     92  C   UNL A   1      28.047  31.229  23.503  1.00  0.00     0.000 A 
ATOM     93  C   UNL A   1      27.144  30.256  23.090  1.00  0.00     0.000 A 
ENDBRANCH  87  88
ENDBRANCH  84  87
ENDBRANCH  78  79
ENDBRANCH  70  74
ENDBRANCH  65  68
ENDBRANCH   1  64
TORSDOF 14
ENDMDL
MODEL 3
REMARK VINA RESULT:     -13.6      4.367      9.447
REMARK SMILES O=C(NCCCNC(=O)c1ccccc1-c1ccc(/C=C2/SC(=S)N(Cc3ccccc3)C2=O)o1)c1ccc(-c2c3nc(c(-c4c(F)cccc4F)c4ccc([nH]4)c(-c4c(F)cccc4F)c4nc(c(-c5c(F)cccc5F)c5ccc2[nH]5)C=C4)C=C3)cc1
REMARK SMILES IDX 6 1 5 2 4 3 3 4 1 5 2 6 36 8 37 9 89 10 38 11 88 12 39 13
REMARK SMILES IDX 40 14 41 15 82 16 42 17 87 18 81 19 83 20 43 21 86 22 80 23
REMARK SMILES IDX 79 24 44 26 70 27 53 28 69 29 54 30 57 31 68 32 84 33 55 34
REMARK SMILES IDX 56 35 67 37 85 38 58 39 45 40 46 41 51 42 47 43 48 44 50 45
REMARK SMILES IDX 52 46 49 47 71 48 72 49 77 50 73 51 74 52 76 53 78 54 75 55
REMARK SMILES IDX 59 56 60 57 65 58 61 59 62 60 64 61 66 62 63 63 7 64 8 65
REMARK SMILES IDX 9 67 10 68 11 69 15 70 12 71 14 72 13 73 16 74 17 75 35 76
REMARK SMILES IDX 18 77 19 78 20 79 21 80 22 81 33 82 23 83 25 84 34 85 24 86
REMARK SMILES IDX 26 87 27 88 28 89 32 90 29 91 31 92 30 93
REMARK H PARENT 3 7 83 25 57 36 7 66
REMARK Flexibility Score: inf
ROOT
ATOM      1  C   UNL A   1      36.597  20.901  24.801  1.00  0.00     0.118 C 
ENDROOT
BRANCH   1   2
ATOM      2  C   UNL A   1      37.652  19.831  24.987  1.00  0.00     0.042 C 
BRANCH   2   3
ATOM      3  C   UNL A   1      38.887  20.322  25.730  1.00  0.00     0.118 C 
BRANCH   3   4
ATOM      4  N   UNL A   1      39.940  19.317  25.852  1.00  0.00    -0.352 N 
ATOM      5  O   UNL A   1      42.023  18.474  26.015  1.00  0.00    -0.269 OA
ATOM      6  C   UNL A   1      41.284  19.449  26.115  1.00  0.00     0.251 C 
ATOM      7  H   UNL A   1      39.637  18.389  25.726  1.00  0.00     0.163 HD
BRANCH   6   8
ATOM      8  C   UNL A   1      41.847  20.771  26.468  1.00  0.00     0.039 A 
ATOM      9  C   UNL A   1      41.965  21.166  27.800  1.00  0.00     0.014 A 
ATOM     10  C   UNL A   1      42.248  21.635  25.447  1.00  0.00     0.014 A 
ATOM     11  C   UNL A   1      42.267  22.486  28.106  1.00  0.00     0.010 A 
ATOM     12  C   UNL A   1      42.674  22.927  25.763  1.00  0.00     0.010 A 
ATOM     13  C   UNL A   1      42.639  23.378  27.092  1.00  0.00    -0.014 A 
BRANCH  13  14
ATOM     14  C   UNL A   1      43.039  24.764  27.437  1.00  0.00     0.031 A 
ATOM     15  C   UNL A   1      44.485  25.168  27.444  1.00  0.00     0.074 A 
ATOM     16  C   UNL A   1      42.084  25.655  27.762  1.00  0.00     0.049 A 
ATOM     17  N   UNL A   1      45.024  26.300  27.823  1.00  0.00    -0.248 NA
ATOM     18  C   UNL A   1      45.455  24.168  26.975  1.00  0.00     0.031 C 
ATOM     19  C   UNL A   1      40.645  25.380  27.778  1.00  0.00     0.029 A 
ATOM     20  N   UNL A   1      42.176  26.966  28.152  1.00  0.00    -0.354 N 
ATOM     21  C   UNL A   1      46.396  26.136  27.672  1.00  0.00     0.074 A 
ATOM     22  C   UNL A   1      46.607  24.789  27.185  1.00  0.00     0.031 C 
ATOM     23  C   UNL A   1      39.990  26.489  28.146  1.00  0.00     0.029 A 
ATOM     24  C   UNL A   1      40.963  27.524  28.469  1.00  0.00     0.049 A 
ATOM     25  H   UNL A   1      43.028  27.457  28.201  1.00  0.00     0.167 HD
ATOM     26  C   UNL A   1      47.384  27.031  27.919  1.00  0.00     0.037 A 
ATOM     27  C   UNL A   1      40.664  28.720  29.006  1.00  0.00     0.037 A 
ATOM     28  C   UNL A   1      47.154  28.371  28.397  1.00  0.00     0.049 A 
ATOM     29  C   UNL A   1      41.773  29.677  29.320  1.00  0.00     0.074 A 
ATOM     30  C   UNL A   1      48.081  29.368  28.644  1.00  0.00     0.029 A 
ATOM     31  N   UNL A   1      45.909  28.895  28.712  1.00  0.00    -0.354 N 
ATOM     32  N   UNL A   1      43.065  29.521  29.153  1.00  0.00    -0.248 NA
ATOM     33  C   UNL A   1      41.390  30.972  29.895  1.00  0.00     0.031 C 
ATOM     34  C   UNL A   1      47.403  30.475  29.165  1.00  0.00     0.029 A 
ATOM     35  C   UNL A   1      46.046  30.193  29.181  1.00  0.00     0.049 A 
ATOM     36  H   UNL A   1      45.054  28.418  28.616  1.00  0.00     0.167 HD
ATOM     37  C   UNL A   1      43.649  30.707  29.577  1.00  0.00     0.074 A 
ATOM     38  C   UNL A   1      42.568  31.572  30.007  1.00  0.00     0.031 C 
ATOM     39  C   UNL A   1      44.960  31.046  29.597  1.00  0.00     0.037 A 
BRANCH  26  40
ATOM     40  C   UNL A   1      48.801  26.570  27.721  1.00  0.00     0.057 A 
ATOM     41  C   UNL A   1      49.474  26.716  26.500  1.00  0.00     0.134 A 
ATOM     42  C   UNL A   1      49.507  25.976  28.776  1.00  0.00     0.134 A 
ATOM     43  F   UNL A   1      48.857  27.269  25.446  1.00  0.00    -0.206 F 
ATOM     44  C   UNL A   1      50.780  26.253  26.326  1.00  0.00     0.040 A 
ATOM     45  C   UNL A   1      50.823  25.536  28.622  1.00  0.00     0.040 A 
ATOM     46  F   UNL A   1      48.931  25.813  29.977  1.00  0.00    -0.206 F 
ATOM     47  C   UNL A   1      51.460  25.663  27.389  1.00  0.00     0.006 A 
ENDBRANCH  26  40
BRANCH  27  48
ATOM     48  C   UNL A   1      39.246  29.044  29.296  1.00  0.00     0.057 A 
ATOM     49  C   UNL A   1      38.389  29.508  28.294  1.00  0.00     0.134 A 
ATOM     50  C   UNL A   1      38.698  28.829  30.568  1.00  0.00     0.134 A 
ATOM     51  F   UNL A   1      38.858  29.741  27.059  1.00  0.00    -0.206 F 
ATOM     52  C   UNL A   1      37.037  29.747  28.544  1.00  0.00     0.040 A 
ATOM     53  C   UNL A   1      37.344  29.038  30.826  1.00  0.00     0.040 A 
ATOM     54  F   UNL A   1      39.467  28.368  31.567  1.00  0.00    -0.206 F 
ATOM     55  C   UNL A   1      36.509  29.502  29.812  1.00  0.00     0.006 A 
ENDBRANCH  27  48
BRANCH  39  56
ATOM     56  C   UNL A   1      45.307  32.432  30.053  1.00  0.00     0.057 A 
ATOM     57  C   UNL A   1      45.308  33.524  29.177  1.00  0.00     0.134 A 
ATOM     58  C   UNL A   1      45.572  32.685  31.405  1.00  0.00     0.134 A 
ATOM     59  F   UNL A   1      45.078  33.348  27.867  1.00  0.00    -0.206 F 
ATOM     60  C   UNL A   1      45.566  34.820  29.631  1.00  0.00     0.040 A 
ATOM     61  C   UNL A   1      45.804  33.977  31.874  1.00  0.00     0.040 A 
ATOM     62  F   UNL A   1      45.581  31.681  32.296  1.00  0.00    -0.206 F 
ATOM     63  C   UNL A   1      45.803  35.050  30.986  1.00  0.00     0.006 A 
ENDBRANCH  39  56
ENDBRANCH  13  14
ENDBRANCH   6   8
ENDBRANCH   3   4
ENDBRANCH   2   3
ENDBRANCH   1   2
BRANCH   1  64
ATOM     64  N   UNL A   1      35.706  21.069  25.934  1.00  0.00    -0.352 N 
ATOM     65  C   UNL A   1      34.340  20.943  25.975  1.00  0.00     0.252 C 
ATOM     66  H   UNL A   1      36.138  21.307  26.786  1.00  0.00     0.163 HD
ATOM     67  O   UNL A   1      33.752  21.055  27.048  1.00  0.00    -0.269 OA
BRANCH  65  68
ATOM     68  C   UNL A   1      33.556  20.742  24.737  1.00  0.00     0.050 A 
ATOM     69  C   UNL A   1      33.262  19.407  24.413  1.00  0.00     0.014 A 
ATOM     70  C   UNL A   1      33.127  21.790  23.901  1.00  0.00     0.030 A 
ATOM     71  C   UNL A   1      32.504  19.112  23.283  1.00  0.00     0.001 A 
ATOM     72  C   UNL A   1      32.350  21.473  22.776  1.00  0.00     0.013 A 
ATOM     73  C   UNL A   1      32.041  20.145  22.470  1.00  0.00     0.001 A 
BRANCH  70  74
ATOM     74  C   UNL A   1      33.454  23.179  24.171  1.00  0.00     0.135 A 
ATOM     75  C   UNL A   1      34.376  24.060  23.657  1.00  0.00     0.051 A 
ATOM     76  O   UNL A   1      32.828  23.730  25.251  1.00  0.00    -0.457 OA
ATOM     77  C   UNL A   1      34.343  25.191  24.503  1.00  0.00     0.051 A 
ATOM     78  C   UNL A   1      33.376  24.968  25.480  1.00  0.00     0.128 A 
BRANCH  78  79
ATOM     79  C   UNL A   1      33.021  25.813  26.566  1.00  0.00     0.068 C 
ATOM     80  C   UNL A   1      32.310  26.925  26.353  1.00  0.00     0.084 C 
ATOM     81  S   UNL A   1      32.185  28.247  27.442  1.00  0.00    -0.054 SA
ATOM     82  C   UNL A   1      31.683  27.299  25.066  1.00  0.00     0.266 C 
ATOM     83  C   UNL A   1      31.835  29.374  26.120  1.00  0.00     0.148 C 
ATOM     84  N   UNL A   1      31.645  28.671  24.952  1.00  0.00    -0.288 N 
ATOM     85  O   UNL A   1      31.232  26.496  24.259  1.00  0.00    -0.268 OA
ATOM     86  S   UNL A   1      31.756  31.022  26.359  1.00  0.00    -0.052 S 
BRANCH  84  87
ATOM     87  C   UNL A   1      31.351  29.236  23.638  1.00  0.00     0.163 C 
BRANCH  87  88
ATOM     88  C   UNL A   1      29.881  29.585  23.470  1.00  0.00    -0.028 A 
ATOM     89  C   UNL A   1      28.964  28.615  23.041  1.00  0.00     0.005 A 
ATOM     90  C   UNL A   1      29.408  30.890  23.697  1.00  0.00     0.005 A 
ATOM     91  C   UNL A   1      27.619  28.945  22.846  1.00  0.00     0.000 A 
ATOM     92  C   UNL A   1      28.060  31.211  23.526  1.00  0.00     0.000 A 
ATOM     93  C   UNL A   1      27.167  30.239  23.093  1.00  0.00     0.000 A 
ENDBRANCH  87  88
ENDBRANCH  84  87
ENDBRANCH  78  79
ENDBRANCH  70  74
ENDBRANCH  65  68
ENDBRANCH   1  64
TORSDOF 14
ENDMDL
