MODEL 1
REMARK VINA RESULT:     -11.4      0.000      0.000
REMARK SMILES O=C(NCCCNC(=O)[C@H]1CC[C@@H](CNc2ccccc2C(F)(F)F)O1)c1ccc(-c2c3nc(c(-c4c(F)cccc4F)c4ccc([nH]4)c(-c4c(F)cccc4F)c4nc(c(-c5c(F)cccc5F)c5ccc2[nH]5)C=C4)C=C3)cc1
REMARK SMILES IDX 6 1 5 2 4 3 3 4 1 5 2 6 27 8 28 9 80 10 29 11 79 12 30 13
REMARK SMILES IDX 31 14 32 15 73 16 33 17 78 18 72 19 74 20 34 21 77 22 71 23
REMARK SMILES IDX 70 24 35 26 61 27 44 28 60 29 45 30 48 31 59 32 75 33 46 34
REMARK SMILES IDX 47 35 58 37 76 38 49 39 36 40 37 41 42 42 38 43 39 44 41 45
REMARK SMILES IDX 43 46 40 47 62 48 63 49 68 50 64 51 65 52 67 53 69 54 66 55
REMARK SMILES IDX 50 56 51 57 56 58 52 59 53 60 55 61 57 62 54 63 7 64 8 65
REMARK SMILES IDX 9 67 10 68 11 69 26 70 12 71 13 72 14 73 15 74 16 76 17 77
REMARK SMILES IDX 21 78 18 79 20 80 19 81 22 82 23 83 24 84 25 85
REMARK H PARENT 3 7 74 25 48 36 7 66 15 75
REMARK Flexibility Score: inf
ROOT
ATOM      1  C   UNL A   1      36.915  20.806  24.676  1.00  0.00     0.117 C 
ENDROOT
BRANCH   1   2
ATOM      2  C   UNL A   1      37.908  19.687  24.964  1.00  0.00     0.042 C 
BRANCH   2   3
ATOM      3  C   UNL A   1      39.019  20.061  25.941  1.00  0.00     0.118 C 
BRANCH   3   4
ATOM      4  N   UNL A   1      40.217  19.240  25.798  1.00  0.00    -0.352 N 
ATOM      5  O   UNL A   1      42.410  18.743  25.692  1.00  0.00    -0.269 OA
ATOM      6  C   UNL A   1      41.539  19.553  26.003  1.00  0.00     0.251 C 
ATOM      7  H   UNL A   1      40.050  18.314  25.511  1.00  0.00     0.163 HD
BRANCH   6   8
ATOM      8  C   UNL A   1      41.928  20.863  26.571  1.00  0.00     0.039 A 
ATOM      9  C   UNL A   1      41.959  21.070  27.949  1.00  0.00     0.014 A 
ATOM     10  C   UNL A   1      42.298  21.900  25.704  1.00  0.00     0.014 A 
ATOM     11  C   UNL A   1      42.197  22.344  28.453  1.00  0.00     0.010 A 
ATOM     12  C   UNL A   1      42.627  23.159  26.218  1.00  0.00     0.010 A 
ATOM     13  C   UNL A   1      42.543  23.402  27.596  1.00  0.00    -0.014 A 
BRANCH  13  14
ATOM     14  C   UNL A   1      42.857  24.729  28.187  1.00  0.00     0.031 A 
ATOM     15  C   UNL A   1      44.272  25.139  28.488  1.00  0.00     0.074 A 
ATOM     16  C   UNL A   1      41.847  25.598  28.391  1.00  0.00     0.049 A 
ATOM     17  N   UNL A   1      44.719  26.289  28.929  1.00  0.00    -0.248 NA
ATOM     18  C   UNL A   1      45.322  24.131  28.275  1.00  0.00     0.031 C 
ATOM     19  C   UNL A   1      40.429  25.308  28.161  1.00  0.00     0.029 A 
ATOM     20  N   UNL A   1      41.855  26.905  28.804  1.00  0.00    -0.354 N 
ATOM     21  C   UNL A   1      46.095  26.143  29.051  1.00  0.00     0.074 A 
ATOM     22  C   UNL A   1      46.407  24.781  28.671  1.00  0.00     0.031 C 
ATOM     23  C   UNL A   1      39.712  26.418  28.383  1.00  0.00     0.029 A 
ATOM     24  C   UNL A   1      40.609  27.483  28.817  1.00  0.00     0.049 A 
ATOM     25  H   UNL A   1      42.675  27.383  29.067  1.00  0.00     0.167 HD
ATOM     26  C   UNL A   1      47.014  27.064  29.430  1.00  0.00     0.037 A 
ATOM     27  C   UNL A   1      40.227  28.730  29.144  1.00  0.00     0.037 A 
ATOM     28  C   UNL A   1      46.703  28.422  29.799  1.00  0.00     0.049 A 
ATOM     29  C   UNL A   1      41.266  29.730  29.556  1.00  0.00     0.074 A 
ATOM     30  C   UNL A   1      47.567  29.430  30.192  1.00  0.00     0.029 A 
ATOM     31  N   UNL A   1      45.427  28.964  29.814  1.00  0.00    -0.354 N 
ATOM     32  N   UNL A   1      42.565  29.578  29.645  1.00  0.00    -0.248 NA
ATOM     33  C   UNL A   1      40.787  31.072  29.912  1.00  0.00     0.031 C 
ATOM     34  C   UNL A   1      46.810  30.573  30.474  1.00  0.00     0.029 A 
ATOM     35  C   UNL A   1      45.479  30.289  30.220  1.00  0.00     0.049 A 
ATOM     36  H   UNL A   1      44.604  28.480  29.573  1.00  0.00     0.167 HD
ATOM     37  C   UNL A   1      43.060  30.807  30.061  1.00  0.00     0.074 A 
ATOM     38  C   UNL A   1      41.925  31.700  30.176  1.00  0.00     0.031 C 
ATOM     39  C   UNL A   1      44.340  31.161  30.333  1.00  0.00     0.037 A 
BRANCH  26  40
ATOM     40  C   UNL A   1      48.452  26.636  29.467  1.00  0.00     0.057 A 
ATOM     41  C   UNL A   1      49.308  26.839  28.376  1.00  0.00     0.134 A 
ATOM     42  C   UNL A   1      49.003  26.068  30.623  1.00  0.00     0.134 A 
ATOM     43  F   UNL A   1      48.841  27.369  27.236  1.00  0.00    -0.206 F 
ATOM     44  C   UNL A   1      50.656  26.479  28.429  1.00  0.00     0.040 A 
ATOM     45  C   UNL A   1      50.354  25.724  30.695  1.00  0.00     0.040 A 
ATOM     46  F   UNL A   1      48.241  25.853  31.706  1.00  0.00    -0.206 F 
ATOM     47  C   UNL A   1      51.185  25.927  29.594  1.00  0.00     0.006 A 
ENDBRANCH  26  40
BRANCH  27  48
ATOM     48  C   UNL A   1      38.790  29.097  29.094  1.00  0.00     0.057 A 
ATOM     49  C   UNL A   1      37.974  29.001  30.227  1.00  0.00     0.134 A 
ATOM     50  C   UNL A   1      38.202  29.559  27.911  1.00  0.00     0.134 A 
ATOM     51  F   UNL A   1      38.478  28.549  31.385  1.00  0.00    -0.206 F 
ATOM     52  C   UNL A   1      36.621  29.336  30.182  1.00  0.00     0.040 A 
ATOM     53  C   UNL A   1      36.856  29.924  27.858  1.00  0.00     0.040 A 
ATOM     54  F   UNL A   1      38.934  29.682  26.794  1.00  0.00    -0.206 F 
ATOM     55  C   UNL A   1      36.060  29.806  28.995  1.00  0.00     0.006 A 
ENDBRANCH  27  48
BRANCH  39  56
ATOM     56  C   UNL A   1      44.569  32.576  30.770  1.00  0.00     0.057 A 
ATOM     57  C   UNL A   1      44.590  32.932  32.126  1.00  0.00     0.134 A 
ATOM     58  C   UNL A   1      44.778  33.590  29.829  1.00  0.00     0.134 A 
ATOM     59  F   UNL A   1      44.381  32.007  33.074  1.00  0.00    -0.206 F 
ATOM     60  C   UNL A   1      44.783  34.254  32.528  1.00  0.00     0.040 A 
ATOM     61  C   UNL A   1      44.996  34.912  30.220  1.00  0.00     0.040 A 
ATOM     62  F   UNL A   1      44.776  33.314  28.517  1.00  0.00    -0.206 F 
ATOM     63  C   UNL A   1      44.989  35.248  31.573  1.00  0.00     0.006 A 
ENDBRANCH  39  56
ENDBRANCH  13  14
ENDBRANCH   6   8
ENDBRANCH   3   4
ENDBRANCH   2   3
ENDBRANCH   1   2
BRANCH   1  64
ATOM     64  N   UNL A   1      35.624  20.571  25.294  1.00  0.00    -0.354 N 
ATOM     65  C   UNL A   1      34.821  21.450  25.963  1.00  0.00     0.249 C 
ATOM     66  H   UNL A   1      35.279  19.652  25.221  1.00  0.00     0.163 HD
ATOM     67  O   UNL A   1      33.745  21.030  26.392  1.00  0.00    -0.272 OA
BRANCH  65  68
ATOM     68  C   UNL A   1      35.275  22.919  26.122  1.00  0.00     0.207 C 
ATOM     69  C   UNL A   1      35.293  23.666  24.801  1.00  0.00     0.045 C 
ATOM     70  O   UNL A   1      34.380  23.662  26.964  1.00  0.00    -0.363 OA
ATOM     71  C   UNL A   1      33.859  24.117  24.679  1.00  0.00     0.037 C 
ATOM     72  C   UNL A   1      33.486  24.434  26.122  1.00  0.00     0.138 C 
BRANCH  72  73
ATOM     73  C   UNL A   1      32.034  24.108  26.509  1.00  0.00     0.145 C 
BRANCH  73  74
ATOM     74  N   UNL A   1      31.215  25.291  26.752  1.00  0.00    -0.382 N 
ATOM     75  H   UNL A   1      30.803  25.418  27.637  1.00  0.00     0.160 HD
BRANCH  74  76
ATOM     76  C   UNL A   1      31.007  26.244  25.762  1.00  0.00     0.046 A 
ATOM     77  C   UNL A   1      30.350  25.813  24.593  1.00  0.00     0.026 A 
ATOM     78  C   UNL A   1      31.324  27.611  25.874  1.00  0.00     0.079 A 
ATOM     79  C   UNL A   1      29.989  26.698  23.574  1.00  0.00     0.002 A 
ATOM     80  C   UNL A   1      30.938  28.499  24.841  1.00  0.00     0.015 A 
ATOM     81  C   UNL A   1      30.277  28.047  23.702  1.00  0.00     0.001 A 
BRANCH  78  82
ATOM     82  C   UNL A   1      32.078  28.206  27.039  1.00  0.00     0.418 C 
ATOM     83  F   UNL A   1      32.345  29.537  26.871  1.00  0.00    -0.166 F 
ATOM     84  F   UNL A   1      31.375  28.136  28.209  1.00  0.00    -0.166 F 
ATOM     85  F   UNL A   1      33.289  27.639  27.296  1.00  0.00    -0.166 F 
ENDBRANCH  78  82
ENDBRANCH  74  76
ENDBRANCH  73  74
ENDBRANCH  72  73
ENDBRANCH  65  68
ENDBRANCH   1  64
TORSDOF 14
ENDMDL
MODEL 2
REMARK VINA RESULT:     -11.4      1.250      2.327
REMARK SMILES O=C(NCCCNC(=O)[C@H]1CC[C@@H](CNc2ccccc2C(F)(F)F)O1)c1ccc(-c2c3nc(c(-c4c(F)cccc4F)c4ccc([nH]4)c(-c4c(F)cccc4F)c4nc(c(-c5c(F)cccc5F)c5ccc2[nH]5)C=C4)C=C3)cc1
REMARK SMILES IDX 6 1 5 2 4 3 3 4 1 5 2 6 27 8 28 9 80 10 29 11 79 12 30 13
REMARK SMILES IDX 31 14 32 15 73 16 33 17 78 18 72 19 74 20 34 21 77 22 71 23
REMARK SMILES IDX 70 24 35 26 61 27 44 28 60 29 45 30 48 31 59 32 75 33 46 34
REMARK SMILES IDX 47 35 58 37 76 38 49 39 36 40 37 41 42 42 38 43 39 44 41 45
REMARK SMILES IDX 43 46 40 47 62 48 63 49 68 50 64 51 65 52 67 53 69 54 66 55
REMARK SMILES IDX 50 56 51 57 56 58 52 59 53 60 55 61 57 62 54 63 7 64 8 65
REMARK SMILES IDX 9 67 10 68 11 69 26 70 12 71 13 72 14 73 15 74 16 76 17 77
REMARK SMILES IDX 21 78 18 79 20 80 19 81 22 82 23 83 24 84 25 85
REMARK H PARENT 3 7 74 25 48 36 7 66 15 75
REMARK Flexibility Score: inf
ROOT
ATOM      1  C   UNL A   1      36.399  20.213  25.061  1.00  0.00     0.117 C 
ENDROOT
BRANCH   1   2
ATOM      2  C   UNL A   1      37.829  19.839  24.694  1.00  0.00     0.042 C 
BRANCH   2   3
ATOM      3  C   UNL A   1      38.869  20.199  25.750  1.00  0.00     0.118 C 
BRANCH   3   4
ATOM      4  N   UNL A   1      40.020  19.302  25.760  1.00  0.00    -0.352 N 
ATOM      5  O   UNL A   1      42.177  18.670  25.891  1.00  0.00    -0.269 OA
ATOM      6  C   UNL A   1      41.335  19.544  26.081  1.00  0.00     0.251 C 
ATOM      7  H   UNL A   1      39.824  18.375  25.494  1.00  0.00     0.163 HD
BRANCH   6   8
ATOM      8  C   UNL A   1      41.751  20.853  26.632  1.00  0.00     0.039 A 
ATOM      9  C   UNL A   1      41.784  21.077  28.008  1.00  0.00     0.014 A 
ATOM     10  C   UNL A   1      42.142  21.870  25.753  1.00  0.00     0.014 A 
ATOM     11  C   UNL A   1      42.048  22.352  28.495  1.00  0.00     0.010 A 
ATOM     12  C   UNL A   1      42.497  23.129  26.251  1.00  0.00     0.010 A 
ATOM     13  C   UNL A   1      42.417  23.392  27.625  1.00  0.00    -0.014 A 
BRANCH  13  14
ATOM     14  C   UNL A   1      42.758  24.720  28.199  1.00  0.00     0.031 A 
ATOM     15  C   UNL A   1      44.184  25.117  28.462  1.00  0.00     0.074 A 
ATOM     16  C   UNL A   1      41.762  25.600  28.421  1.00  0.00     0.049 A 
ATOM     17  N   UNL A   1      44.653  26.265  28.885  1.00  0.00    -0.248 NA
ATOM     18  C   UNL A   1      45.219  24.098  28.232  1.00  0.00     0.031 C 
ATOM     19  C   UNL A   1      40.336  25.322  28.227  1.00  0.00     0.029 A 
ATOM     20  N   UNL A   1      41.793  26.910  28.825  1.00  0.00    -0.354 N 
ATOM     21  C   UNL A   1      46.030  26.107  28.974  1.00  0.00     0.074 A 
ATOM     22  C   UNL A   1      46.320  24.739  28.597  1.00  0.00     0.031 C 
ATOM     23  C   UNL A   1      39.635  26.441  28.458  1.00  0.00     0.029 A 
ATOM     24  C   UNL A   1      40.553  27.500  28.864  1.00  0.00     0.049 A 
ATOM     25  H   UNL A   1      42.623  27.381  29.064  1.00  0.00     0.167 HD
ATOM     26  C   UNL A   1      46.967  27.022  29.325  1.00  0.00     0.037 A 
ATOM     27  C   UNL A   1      40.191  28.753  29.190  1.00  0.00     0.037 A 
ATOM     28  C   UNL A   1      46.678  28.385  29.691  1.00  0.00     0.049 A 
ATOM     29  C   UNL A   1      41.251  29.745  29.570  1.00  0.00     0.074 A 
ATOM     30  C   UNL A   1      47.561  29.387  30.056  1.00  0.00     0.029 A 
ATOM     31  N   UNL A   1      45.408  28.939  29.733  1.00  0.00    -0.354 N 
ATOM     32  N   UNL A   1      42.550  29.582  29.629  1.00  0.00    -0.248 NA
ATOM     33  C   UNL A   1      40.793  31.094  29.928  1.00  0.00     0.031 C 
ATOM     34  C   UNL A   1      46.823  30.539  30.349  1.00  0.00     0.029 A 
ATOM     35  C   UNL A   1      45.484  30.267  30.128  1.00  0.00     0.049 A 
ATOM     36  H   UNL A   1      44.576  28.462  29.515  1.00  0.00     0.167 HD
ATOM     37  C   UNL A   1      43.066  30.808  30.024  1.00  0.00     0.074 A 
ATOM     38  C   UNL A   1      41.943  31.712  30.160  1.00  0.00     0.031 C 
ATOM     39  C   UNL A   1      44.355  31.151  30.263  1.00  0.00     0.037 A 
BRANCH  26  40
ATOM     40  C   UNL A   1      48.402  26.580  29.330  1.00  0.00     0.057 A 
ATOM     41  C   UNL A   1      48.981  25.977  30.453  1.00  0.00     0.134 A 
ATOM     42  C   UNL A   1      49.196  26.707  28.183  1.00  0.00     0.134 A 
ATOM     43  F   UNL A   1      48.278  25.834  31.587  1.00  0.00    -0.206 F 
ATOM     44  C   UNL A   1      50.303  25.528  30.440  1.00  0.00     0.040 A 
ATOM     45  C   UNL A   1      50.512  26.243  28.151  1.00  0.00     0.040 A 
ATOM     46  F   UNL A   1      48.701  27.270  27.070  1.00  0.00    -0.206 F 
ATOM     47  C   UNL A   1      51.071  25.653  29.284  1.00  0.00     0.006 A 
ENDBRANCH  26  40
BRANCH  27  48
ATOM     48  C   UNL A   1      38.757  29.134  29.173  1.00  0.00     0.057 A 
ATOM     49  C   UNL A   1      38.135  29.574  28.000  1.00  0.00     0.134 A 
ATOM     50  C   UNL A   1      37.975  29.061  30.331  1.00  0.00     0.134 A 
ATOM     51  F   UNL A   1      38.838  29.681  26.862  1.00  0.00    -0.206 F 
ATOM     52  C   UNL A   1      36.790  29.942  27.981  1.00  0.00     0.040 A 
ATOM     53  C   UNL A   1      36.622  29.400  30.322  1.00  0.00     0.040 A 
ATOM     54  F   UNL A   1      38.512  28.637  31.485  1.00  0.00    -0.206 F 
ATOM     55  C   UNL A   1      36.028  29.849  29.145  1.00  0.00     0.006 A 
ENDBRANCH  27  48
BRANCH  39  56
ATOM     56  C   UNL A   1      44.610  32.567  30.684  1.00  0.00     0.057 A 
ATOM     57  C   UNL A   1      44.832  33.583  29.746  1.00  0.00     0.134 A 
ATOM     58  C   UNL A   1      44.625  32.918  32.039  1.00  0.00     0.134 A 
ATOM     59  F   UNL A   1      44.845  33.305  28.434  1.00  0.00    -0.206 F 
ATOM     60  C   UNL A   1      45.090  34.896  30.142  1.00  0.00     0.040 A 
ATOM     61  C   UNL A   1      44.858  34.233  32.446  1.00  0.00     0.040 A 
ATOM     62  F   UNL A   1      44.412  31.993  32.986  1.00  0.00    -0.206 F 
ATOM     63  C   UNL A   1      45.100  35.224  31.497  1.00  0.00     0.006 A 
ENDBRANCH  39  56
ENDBRANCH  13  14
ENDBRANCH   6   8
ENDBRANCH   3   4
ENDBRANCH   2   3
ENDBRANCH   1   2
BRANCH   1  64
ATOM     64  N   UNL A   1      36.300  21.557  25.596  1.00  0.00    -0.354 N 
ATOM     65  C   UNL A   1      35.775  22.675  25.014  1.00  0.00     0.249 C 
ATOM     66  H   UNL A   1      36.660  21.680  26.504  1.00  0.00     0.163 HD
ATOM     67  O   UNL A   1      35.779  23.719  25.670  1.00  0.00    -0.272 OA
BRANCH  65  68
ATOM     68  C   UNL A   1      35.178  22.579  23.592  1.00  0.00     0.207 C 
ATOM     69  C   UNL A   1      33.764  22.026  23.593  1.00  0.00     0.045 C 
ATOM     70  O   UNL A   1      35.078  23.869  22.970  1.00  0.00    -0.363 OA
ATOM     71  C   UNL A   1      32.946  23.265  23.858  1.00  0.00     0.037 C 
ATOM     72  C   UNL A   1      33.712  24.338  23.094  1.00  0.00     0.138 C 
BRANCH  72  73
ATOM     73  C   UNL A   1      33.721  25.728  23.751  1.00  0.00     0.145 C 
BRANCH  73  74
ATOM     74  N   UNL A   1      33.730  25.685  25.210  1.00  0.00    -0.382 N 
ATOM     75  H   UNL A   1      34.195  24.947  25.667  1.00  0.00     0.160 HD
BRANCH  74  76
ATOM     76  C   UNL A   1      33.096  26.663  25.968  1.00  0.00     0.046 A 
ATOM     77  C   UNL A   1      33.878  27.765  26.364  1.00  0.00     0.026 A 
ATOM     78  C   UNL A   1      31.727  26.675  26.294  1.00  0.00     0.079 A 
ATOM     79  C   UNL A   1      33.331  28.860  27.036  1.00  0.00     0.002 A 
ATOM     80  C   UNL A   1      31.184  27.799  26.961  1.00  0.00     0.015 A 
ATOM     81  C   UNL A   1      31.977  28.881  27.329  1.00  0.00     0.001 A 
BRANCH  78  82
ATOM     82  C   UNL A   1      30.780  25.539  25.987  1.00  0.00     0.418 C 
ATOM     83  F   UNL A   1      30.630  25.324  24.644  1.00  0.00    -0.166 F 
ATOM     84  F   UNL A   1      31.217  24.344  26.485  1.00  0.00    -0.166 F 
ATOM     85  F   UNL A   1      29.512  25.699  26.456  1.00  0.00    -0.166 F 
ENDBRANCH  78  82
ENDBRANCH  74  76
ENDBRANCH  73  74
ENDBRANCH  72  73
ENDBRANCH  65  68
ENDBRANCH   1  64
TORSDOF 14
ENDMDL
MODEL 3
REMARK VINA RESULT:     -11.4      4.718     10.190
REMARK SMILES O=C(NCCCNC(=O)[C@H]1CC[C@@H](CNc2ccccc2C(F)(F)F)O1)c1ccc(-c2c3nc(c(-c4c(F)cccc4F)c4ccc([nH]4)c(-c4c(F)cccc4F)c4nc(c(-c5c(F)cccc5F)c5ccc2[nH]5)C=C4)C=C3)cc1
REMARK SMILES IDX 6 1 5 2 4 3 3 4 1 5 2 6 27 8 28 9 80 10 29 11 79 12 30 13
REMARK SMILES IDX 31 14 32 15 73 16 33 17 78 18 72 19 74 20 34 21 77 22 71 23
REMARK SMILES IDX 70 24 35 26 61 27 44 28 60 29 45 30 48 31 59 32 75 33 46 34
REMARK SMILES IDX 47 35 58 37 76 38 49 39 36 40 37 41 42 42 38 43 39 44 41 45
REMARK SMILES IDX 43 46 40 47 62 48 63 49 68 50 64 51 65 52 67 53 69 54 66 55
REMARK SMILES IDX 50 56 51 57 56 58 52 59 53 60 55 61 57 62 54 63 7 64 8 65
REMARK SMILES IDX 9 67 10 68 11 69 26 70 12 71 13 72 14 73 15 74 16 76 17 77
REMARK SMILES IDX 21 78 18 79 20 80 19 81 22 82 23 83 24 84 25 85
REMARK H PARENT 3 7 74 25 48 36 7 66 15 75
REMARK Flexibility Score: inf
ROOT
ATOM      1  C   UNL A   1      33.653  34.465  30.101  1.00  0.00     0.117 C 
ENDROOT
BRANCH   1   2
ATOM      2  C   UNL A   1      34.314  34.520  28.730  1.00  0.00     0.042 C 
BRANCH   2   3
ATOM      3  C   UNL A   1      35.111  33.273  28.360  1.00  0.00     0.118 C 
BRANCH   3   4
ATOM      4  N   UNL A   1      34.279  32.176  27.875  1.00  0.00    -0.352 N 
ATOM      5  O   UNL A   1      33.756  30.104  27.169  1.00  0.00    -0.269 OA
ATOM      6  C   UNL A   1      34.566  30.840  27.727  1.00  0.00     0.251 C 
ATOM      7  H   UNL A   1      33.367  32.435  27.612  1.00  0.00     0.163 HD
BRANCH   6   8
ATOM      8  C   UNL A   1      35.848  30.282  28.212  1.00  0.00     0.039 A 
ATOM      9  C   UNL A   1      35.936  29.657  29.455  1.00  0.00     0.014 A 
ATOM     10  C   UNL A   1      36.981  30.363  27.392  1.00  0.00     0.014 A 
ATOM     11  C   UNL A   1      37.177  29.262  29.944  1.00  0.00     0.010 A 
ATOM     12  C   UNL A   1      38.213  29.881  27.850  1.00  0.00     0.010 A 
ATOM     13  C   UNL A   1      38.328  29.360  29.146  1.00  0.00    -0.014 A 
BRANCH  13  14
ATOM     14  C   UNL A   1      39.620  28.860  29.686  1.00  0.00     0.031 A 
ATOM     15  C   UNL A   1      40.214  29.425  30.946  1.00  0.00     0.074 A 
ATOM     16  C   UNL A   1      40.226  27.835  29.057  1.00  0.00     0.049 A 
ATOM     17  N   UNL A   1      41.290  29.046  31.590  1.00  0.00    -0.248 NA
ATOM     18  C   UNL A   1      39.520  30.566  31.562  1.00  0.00     0.031 C 
ATOM     19  C   UNL A   1      39.761  27.217  27.812  1.00  0.00     0.029 A 
ATOM     20  N   UNL A   1      41.342  27.109  29.389  1.00  0.00    -0.354 N 
ATOM     21  C   UNL A   1      41.405  29.900  32.679  1.00  0.00     0.074 A 
ATOM     22  C   UNL A   1      40.309  30.842  32.592  1.00  0.00     0.031 C 
ATOM     23  C   UNL A   1      40.549  26.175  27.516  1.00  0.00     0.029 A 
ATOM     24  C   UNL A   1      41.604  26.079  28.520  1.00  0.00     0.049 A 
ATOM     25  H   UNL A   1      41.901  27.308  30.175  1.00  0.00     0.167 HD
ATOM     26  C   UNL A   1      42.331  29.890  33.669  1.00  0.00     0.037 A 
ATOM     27  C   UNL A   1      42.584  25.158  28.525  1.00  0.00     0.037 A 
ATOM     28  C   UNL A   1      43.416  28.947  33.760  1.00  0.00     0.049 A 
ATOM     29  C   UNL A   1      43.592  25.169  29.635  1.00  0.00     0.074 A 
ATOM     30  C   UNL A   1      44.402  28.854  34.730  1.00  0.00     0.029 A 
ATOM     31  N   UNL A   1      43.656  27.928  32.851  1.00  0.00    -0.354 N 
ATOM     32  N   UNL A   1      43.672  25.972  30.668  1.00  0.00    -0.248 NA
ATOM     33  C   UNL A   1      44.644  24.146  29.581  1.00  0.00     0.031 C 
ATOM     34  C   UNL A   1      45.255  27.799  34.390  1.00  0.00     0.029 A 
ATOM     35  C   UNL A   1      44.779  27.209  33.231  1.00  0.00     0.049 A 
ATOM     36  H   UNL A   1      43.110  27.742  32.054  1.00  0.00     0.167 HD
ATOM     37  C   UNL A   1      44.779  25.548  31.390  1.00  0.00     0.074 A 
ATOM     38  C   UNL A   1      45.319  24.398  30.694  1.00  0.00     0.031 C 
ATOM     39  C   UNL A   1      45.307  26.071  32.524  1.00  0.00     0.037 A 
BRANCH  26  40
ATOM     40  C   UNL A   1      42.214  30.935  34.741  1.00  0.00     0.057 A 
ATOM     41  C   UNL A   1      41.311  30.799  35.804  1.00  0.00     0.134 A 
ATOM     42  C   UNL A   1      43.050  32.059  34.743  1.00  0.00     0.134 A 
ATOM     43  F   UNL A   1      40.476  29.751  35.856  1.00  0.00    -0.206 F 
ATOM     44  C   UNL A   1      41.235  31.752  36.822  1.00  0.00     0.040 A 
ATOM     45  C   UNL A   1      42.997  33.006  35.767  1.00  0.00     0.040 A 
ATOM     46  F   UNL A   1      43.942  32.246  33.758  1.00  0.00    -0.206 F 
ATOM     47  C   UNL A   1      42.085  32.855  36.810  1.00  0.00     0.006 A 
ENDBRANCH  26  40
BRANCH  27  48
ATOM     48  C   UNL A   1      42.654  24.151  27.437  1.00  0.00     0.057 A 
ATOM     49  C   UNL A   1      43.269  24.442  26.215  1.00  0.00     0.134 A 
ATOM     50  C   UNL A   1      42.112  22.871  27.600  1.00  0.00     0.134 A 
ATOM     51  F   UNL A   1      43.792  25.657  25.994  1.00  0.00    -0.206 F 
ATOM     52  C   UNL A   1      43.329  23.501  25.186  1.00  0.00     0.040 A 
ATOM     53  C   UNL A   1      42.189  21.911  26.590  1.00  0.00     0.040 A 
ATOM     54  F   UNL A   1      41.518  22.529  28.753  1.00  0.00    -0.206 F 
ATOM     55  C   UNL A   1      42.793  22.228  25.376  1.00  0.00     0.006 A 
ENDBRANCH  27  48
BRANCH  39  56
ATOM     56  C   UNL A   1      46.522  25.391  33.078  1.00  0.00     0.057 A 
ATOM     57  C   UNL A   1      47.815  25.777  32.699  1.00  0.00     0.134 A 
ATOM     58  C   UNL A   1      46.399  24.348  34.002  1.00  0.00     0.134 A 
ATOM     59  F   UNL A   1      47.997  26.760  31.805  1.00  0.00    -0.206 F 
ATOM     60  C   UNL A   1      48.944  25.127  33.200  1.00  0.00     0.040 A 
ATOM     61  C   UNL A   1      47.522  23.707  34.528  1.00  0.00     0.040 A 
ATOM     62  F   UNL A   1      45.190  23.936  34.409  1.00  0.00    -0.206 F 
ATOM     63  C   UNL A   1      48.798  24.091  34.121  1.00  0.00     0.006 A 
ENDBRANCH  39  56
ENDBRANCH  13  14
ENDBRANCH   6   8
ENDBRANCH   3   4
ENDBRANCH   2   3
ENDBRANCH   1   2
BRANCH   1  64
ATOM     64  N   UNL A   1      34.321  35.311  31.071  1.00  0.00    -0.354 N 
ATOM     65  C   UNL A   1      34.719  35.009  32.343  1.00  0.00     0.249 C 
ATOM     66  H   UNL A   1      34.516  36.228  30.772  1.00  0.00     0.163 HD
ATOM     67  O   UNL A   1      35.294  35.888  32.987  1.00  0.00    -0.272 OA
BRANCH  65  68
ATOM     68  C   UNL A   1      34.464  33.589  32.898  1.00  0.00     0.207 C 
ATOM     69  C   UNL A   1      34.695  32.509  31.858  1.00  0.00     0.045 C 
ATOM     70  O   UNL A   1      35.358  33.274  33.976  1.00  0.00    -0.363 OA
ATOM     71  C   UNL A   1      36.184  32.289  31.963  1.00  0.00     0.037 C 
ATOM     72  C   UNL A   1      36.439  32.458  33.456  1.00  0.00     0.138 C 
BRANCH  72  73
ATOM     73  C   UNL A   1      37.779  33.117  33.821  1.00  0.00     0.145 C 
BRANCH  73  74
ATOM     74  N   UNL A   1      38.121  34.253  32.972  1.00  0.00    -0.382 N 
ATOM     75  H   UNL A   1      37.451  34.958  32.817  1.00  0.00     0.160 HD
BRANCH  74  76
ATOM     76  C   UNL A   1      39.374  34.363  32.378  1.00  0.00     0.046 A 
ATOM     77  C   UNL A   1      40.470  34.568  33.238  1.00  0.00     0.026 A 
ATOM     78  C   UNL A   1      39.635  34.203  31.004  1.00  0.00     0.079 A 
ATOM     79  C   UNL A   1      41.786  34.588  32.773  1.00  0.00     0.002 A 
ATOM     80  C   UNL A   1      40.976  34.210  30.549  1.00  0.00     0.015 A 
ATOM     81  C   UNL A   1      42.041  34.400  31.424  1.00  0.00     0.001 A 
BRANCH  78  82
ATOM     82  C   UNL A   1      38.559  34.036  29.957  1.00  0.00     0.418 C 
ATOM     83  F   UNL A   1      38.907  34.579  28.751  1.00  0.00    -0.166 F 
ATOM     84  F   UNL A   1      38.292  32.724  29.686  1.00  0.00    -0.166 F 
ATOM     85  F   UNL A   1      37.361  34.608  30.262  1.00  0.00    -0.166 F 
ENDBRANCH  78  82
ENDBRANCH  74  76
ENDBRANCH  73  74
ENDBRANCH  72  73
ENDBRANCH  65  68
ENDBRANCH   1  64
TORSDOF 14
ENDMDL
