MODEL 1
REMARK VINA RESULT:      -9.9      0.000      0.000
REMARK SMILES O=C(COCC(=O)Nc1cccc([N+](=O)[O-])c1)NCCCNC(=O)c1ccc(-c2c3nc(c(-c4c(F)cccc4F)c4ccc([nH]4)c(-c4c(F)cccc4F)c4nc(c(-c5c(F)cccc5F)c5ccc2[nH]5)C=C4)C=C3)cc1
REMARK SMILES IDX 1 1 2 2 18 3 3 5 4 6 5 7 6 8 7 9 8 10 9 12 10 13 17 14 11 15
REMARK SMILES IDX 13 16 12 17 14 18 15 19 16 20 19 21 20 22 21 23 22 24 23 25
REMARK SMILES IDX 24 27 25 28 26 29 78 30 27 31 77 32 28 33 29 34 30 35 71 36
REMARK SMILES IDX 31 37 76 38 70 39 72 40 32 41 75 42 69 43 68 44 33 46 59 47
REMARK SMILES IDX 42 48 58 49 43 50 46 51 57 52 73 53 44 54 45 55 56 57 74 58
REMARK SMILES IDX 47 59 34 60 35 61 40 62 36 63 37 64 39 65 41 66 38 67 60 68
REMARK SMILES IDX 61 69 66 70 62 71 63 72 65 73 67 74 64 75 48 76 49 77 54 78
REMARK SMILES IDX 50 79 51 80 53 81 55 82 52 83
REMARK H PARENT 18 4 8 11 22 26 72 45 46 56
REMARK Flexibility Score: inf
ROOT
ATOM      1  O   UNL A   1      36.042  35.332  32.761  1.00  0.00    -0.272 OA
ATOM      2  C   UNL A   1      35.167  34.942  33.528  1.00  0.00     0.246 C 
ATOM      3  N   UNL A   1      33.985  35.614  33.755  1.00  0.00    -0.354 N 
ATOM      4  H   UNL A   1      33.319  35.209  34.357  1.00  0.00     0.163 HD
ENDROOT
BRANCH   2   5
ATOM      5  C   UNL A   1      35.250  33.612  34.274  1.00  0.00     0.260 C 
BRANCH   5   6
ATOM      6  O   UNL A   1      35.921  33.702  35.527  1.00  0.00    -0.362 OA
BRANCH   6   7
ATOM      7  C   UNL A   1      37.312  33.455  35.452  1.00  0.00     0.261 C 
BRANCH   7   8
ATOM      8  C   UNL A   1      38.082  32.925  36.676  1.00  0.00     0.250 C 
ATOM      9  O   UNL A   1      38.021  33.522  37.755  1.00  0.00    -0.272 OA
ATOM     10  N   UNL A   1      38.740  31.726  36.638  1.00  0.00    -0.324 N 
ATOM     11  H   UNL A   1      38.984  31.372  37.524  1.00  0.00     0.170 HD
BRANCH  10  12
ATOM     12  C   UNL A   1      39.130  30.910  35.567  1.00  0.00     0.048 A 
ATOM     13  C   UNL A   1      40.491  30.606  35.448  1.00  0.00     0.026 A 
ATOM     14  C   UNL A   1      38.252  30.454  34.587  1.00  0.00     0.111 A 
ATOM     15  C   UNL A   1      40.954  29.784  34.415  1.00  0.00     0.009 A 
ATOM     16  C   UNL A   1      38.714  29.633  33.549  1.00  0.00     0.271 A 
ATOM     17  C   UNL A   1      40.064  29.282  33.468  1.00  0.00     0.086 A 
BRANCH  16  18
ATOM     18  N   UNL A   1      37.768  29.156  32.531  1.00  0.00     0.062 N 
ATOM     19  O   UNL A   1      38.139  28.237  31.788  1.00  0.00    -0.258 OA
ATOM     20  O   UNL A   1      36.655  29.699  32.475  1.00  0.00    -0.258 OA
ENDBRANCH  16  18
ENDBRANCH  10  12
ENDBRANCH   7   8
ENDBRANCH   6   7
ENDBRANCH   5   6
ENDBRANCH   2   5
BRANCH   3  21
ATOM     21  C   UNL A   1      33.685  36.888  33.145  1.00  0.00     0.117 C 
BRANCH  21  22
ATOM     22  C   UNL A   1      32.774  36.758  31.930  1.00  0.00     0.042 C 
BRANCH  22  23
ATOM     23  C   UNL A   1      33.507  36.619  30.598  1.00  0.00     0.118 C 
BRANCH  23  24
ATOM     24  N   UNL A   1      32.785  35.811  29.626  1.00  0.00    -0.352 N 
ATOM     25  C   UNL A   1      33.147  34.668  28.960  1.00  0.00     0.251 C 
ATOM     26  H   UNL A   1      31.883  36.140  29.411  1.00  0.00     0.163 HD
ATOM     27  O   UNL A   1      32.410  34.236  28.072  1.00  0.00    -0.269 OA
BRANCH  25  28
ATOM     28  C   UNL A   1      34.411  33.960  29.263  1.00  0.00     0.039 A 
ATOM     29  C   UNL A   1      35.500  34.154  28.407  1.00  0.00     0.014 A 
ATOM     30  C   UNL A   1      34.530  33.080  30.342  1.00  0.00     0.014 A 
ATOM     31  C   UNL A   1      36.717  33.520  28.667  1.00  0.00     0.010 A 
ATOM     32  C   UNL A   1      35.766  32.505  30.644  1.00  0.00     0.010 A 
ATOM     33  C   UNL A   1      36.873  32.718  29.810  1.00  0.00    -0.014 A 
BRANCH  33  34
ATOM     34  C   UNL A   1      38.197  32.130  30.142  1.00  0.00     0.031 A 
ATOM     35  C   UNL A   1      39.154  32.839  31.060  1.00  0.00     0.074 A 
ATOM     36  C   UNL A   1      38.553  30.956  29.583  1.00  0.00     0.049 A 
ATOM     37  N   UNL A   1      40.338  32.457  31.473  1.00  0.00    -0.248 NA
ATOM     38  C   UNL A   1      38.742  34.158  31.562  1.00  0.00     0.031 C 
ATOM     39  C   UNL A   1      37.746  30.197  28.625  1.00  0.00     0.029 A 
ATOM     40  N   UNL A   1      39.684  30.194  29.742  1.00  0.00    -0.354 N 
ATOM     41  C   UNL A   1      40.812  33.489  32.274  1.00  0.00     0.074 A 
ATOM     42  C   UNL A   1      39.812  34.535  32.247  1.00  0.00     0.031 C 
ATOM     43  C   UNL A   1      38.390  29.062  28.311  1.00  0.00     0.029 A 
ATOM     44  C   UNL A   1      39.665  29.025  29.020  1.00  0.00     0.049 A 
ATOM     45  H   UNL A   1      40.437  30.460  30.318  1.00  0.00     0.167 HD
ATOM     46  C   UNL A   1      41.963  33.551  32.987  1.00  0.00     0.037 A 
ATOM     47  C   UNL A   1      40.568  28.029  28.944  1.00  0.00     0.037 A 
ATOM     48  C   UNL A   1      42.952  32.504  33.029  1.00  0.00     0.049 A 
ATOM     49  C   UNL A   1      41.823  28.110  29.765  1.00  0.00     0.074 A 
ATOM     50  C   UNL A   1      44.123  32.451  33.766  1.00  0.00     0.029 A 
ATOM     51  N   UNL A   1      42.885  31.324  32.303  1.00  0.00    -0.354 N 
ATOM     52  N   UNL A   1      42.221  29.058  30.579  1.00  0.00    -0.248 NA
ATOM     53  C   UNL A   1      42.749  26.973  29.667  1.00  0.00     0.031 C 
ATOM     54  C   UNL A   1      44.784  31.257  33.455  1.00  0.00     0.029 A 
ATOM     55  C   UNL A   1      44.001  30.544  32.562  1.00  0.00     0.049 A 
ATOM     56  H   UNL A   1      42.153  31.076  31.693  1.00  0.00     0.167 HD
ATOM     57  C   UNL A   1      43.427  28.620  31.110  1.00  0.00     0.074 A 
ATOM     58  C   UNL A   1      43.686  27.314  30.541  1.00  0.00     0.031 C 
ATOM     59  C   UNL A   1      44.248  29.245  31.990  1.00  0.00     0.037 A 
BRANCH  46  60
ATOM     60  C   UNL A   1      42.213  34.796  33.789  1.00  0.00     0.057 A 
ATOM     61  C   UNL A   1      42.863  35.910  33.239  1.00  0.00     0.134 A 
ATOM     62  C   UNL A   1      41.770  34.898  35.114  1.00  0.00     0.134 A 
ATOM     63  F   UNL A   1      43.321  35.876  31.979  1.00  0.00    -0.206 F 
ATOM     64  C   UNL A   1      43.084  37.069  33.985  1.00  0.00     0.040 A 
ATOM     65  C   UNL A   1      41.961  36.061  35.861  1.00  0.00     0.040 A 
ATOM     66  F   UNL A   1      41.134  33.872  35.700  1.00  0.00    -0.206 F 
ATOM     67  C   UNL A   1      42.626  37.149  35.299  1.00  0.00     0.006 A 
ENDBRANCH  46  60
BRANCH  47  68
ATOM     68  C   UNL A   1      40.296  26.846  28.092  1.00  0.00     0.057 A 
ATOM     69  C   UNL A   1      40.873  26.724  26.822  1.00  0.00     0.134 A 
ATOM     70  C   UNL A   1      39.452  25.815  28.519  1.00  0.00     0.134 A 
ATOM     71  F   UNL A   1      41.677  27.688  26.350  1.00  0.00    -0.206 F 
ATOM     72  C   UNL A   1      40.604  25.629  25.999  1.00  0.00     0.040 A 
ATOM     73  C   UNL A   1      39.195  24.702  27.717  1.00  0.00     0.040 A 
ATOM     74  F   UNL A   1      38.876  25.870  29.730  1.00  0.00    -0.206 F 
ATOM     75  C   UNL A   1      39.765  24.611  26.449  1.00  0.00     0.006 A 
ENDBRANCH  47  68
BRANCH  59  76
ATOM     76  C   UNL A   1      45.482  28.504  32.413  1.00  0.00     0.057 A 
ATOM     77  C   UNL A   1      45.485  27.631  33.509  1.00  0.00     0.134 A 
ATOM     78  C   UNL A   1      46.684  28.664  31.713  1.00  0.00     0.134 A 
ATOM     79  F   UNL A   1      44.369  27.443  34.231  1.00  0.00    -0.206 F 
ATOM     80  C   UNL A   1      46.646  26.974  33.916  1.00  0.00     0.040 A 
ATOM     81  C   UNL A   1      47.846  27.989  32.094  1.00  0.00     0.040 A 
ATOM     82  F   UNL A   1      46.751  29.477  30.648  1.00  0.00    -0.206 F 
ATOM     83  C   UNL A   1      47.832  27.150  33.204  1.00  0.00     0.006 A 
ENDBRANCH  59  76
ENDBRANCH  33  34
ENDBRANCH  25  28
ENDBRANCH  23  24
ENDBRANCH  22  23
ENDBRANCH  21  22
ENDBRANCH   3  21
TORSDOF 15
ENDMDL
MODEL 2
REMARK VINA RESULT:      -9.1      5.378     10.897
REMARK SMILES O=C(COCC(=O)Nc1cccc([N+](=O)[O-])c1)NCCCNC(=O)c1ccc(-c2c3nc(c(-c4c(F)cccc4F)c4ccc([nH]4)c(-c4c(F)cccc4F)c4nc(c(-c5c(F)cccc5F)c5ccc2[nH]5)C=C4)C=C3)cc1
REMARK SMILES IDX 1 1 2 2 18 3 3 5 4 6 5 7 6 8 7 9 8 10 9 12 10 13 17 14 11 15
REMARK SMILES IDX 13 16 12 17 14 18 15 19 16 20 19 21 20 22 21 23 22 24 23 25
REMARK SMILES IDX 24 27 25 28 26 29 78 30 27 31 77 32 28 33 29 34 30 35 71 36
REMARK SMILES IDX 31 37 76 38 70 39 72 40 32 41 75 42 69 43 68 44 33 46 59 47
REMARK SMILES IDX 42 48 58 49 43 50 46 51 57 52 73 53 44 54 45 55 56 57 74 58
REMARK SMILES IDX 47 59 34 60 35 61 40 62 36 63 37 64 39 65 41 66 38 67 60 68
REMARK SMILES IDX 61 69 66 70 62 71 63 72 65 73 67 74 64 75 48 76 49 77 54 78
REMARK SMILES IDX 50 79 51 80 53 81 55 82 52 83
REMARK H PARENT 18 4 8 11 22 26 72 45 46 56
REMARK Flexibility Score: inf
ROOT
ATOM      1  O   UNL A   1      35.461  22.928  26.286  1.00  0.00    -0.272 OA
ATOM      2  C   UNL A   1      34.944  21.821  26.392  1.00  0.00     0.246 C 
ATOM      3  N   UNL A   1      35.339  20.712  25.674  1.00  0.00    -0.354 N 
ATOM      4  H   UNL A   1      34.894  19.851  25.851  1.00  0.00     0.163 HD
ENDROOT
BRANCH   2   5
ATOM      5  C   UNL A   1      33.837  21.516  27.399  1.00  0.00     0.260 C 
BRANCH   5   6
ATOM      6  O   UNL A   1      32.927  22.596  27.591  1.00  0.00    -0.362 OA
BRANCH   6   7
ATOM      7  C   UNL A   1      31.835  22.593  26.693  1.00  0.00     0.261 C 
BRANCH   7   8
ATOM      8  C   UNL A   1      30.668  23.582  26.875  1.00  0.00     0.250 C 
ATOM      9  O   UNL A   1      29.636  23.228  27.452  1.00  0.00    -0.272 OA
ATOM     10  N   UNL A   1      30.790  24.899  26.522  1.00  0.00    -0.324 N 
ATOM     11  H   UNL A   1      30.093  25.483  26.898  1.00  0.00     0.170 HD
BRANCH  10  12
ATOM     12  C   UNL A   1      31.729  25.567  25.722  1.00  0.00     0.048 A 
ATOM     13  C   UNL A   1      32.673  26.371  26.369  1.00  0.00     0.026 A 
ATOM     14  C   UNL A   1      31.719  25.529  24.329  1.00  0.00     0.111 A 
ATOM     15  C   UNL A   1      33.651  27.055  25.640  1.00  0.00     0.009 A 
ATOM     16  C   UNL A   1      32.696  26.216  23.596  1.00  0.00     0.271 A 
ATOM     17  C   UNL A   1      33.676  26.969  24.248  1.00  0.00     0.086 A 
BRANCH  16  18
ATOM     18  N   UNL A   1      32.674  26.153  22.129  1.00  0.00     0.062 N 
ATOM     19  O   UNL A   1      31.603  26.407  21.559  1.00  0.00    -0.258 OA
ATOM     20  O   UNL A   1      33.724  25.850  21.545  1.00  0.00    -0.258 OA
ENDBRANCH  16  18
ENDBRANCH  10  12
ENDBRANCH   7   8
ENDBRANCH   6   7
ENDBRANCH   5   6
ENDBRANCH   2   5
BRANCH   3  21
ATOM     21  C   UNL A   1      36.378  20.764  24.673  1.00  0.00     0.117 C 
BRANCH  21  22
ATOM     22  C   UNL A   1      37.489  19.751  24.927  1.00  0.00     0.042 C 
BRANCH  22  23
ATOM     23  C   UNL A   1      38.664  20.288  25.743  1.00  0.00     0.118 C 
BRANCH  23  24
ATOM     24  N   UNL A   1      39.816  19.399  25.742  1.00  0.00    -0.352 N 
ATOM     25  C   UNL A   1      41.127  19.626  26.071  1.00  0.00     0.251 C 
ATOM     26  H   UNL A   1      39.621  18.477  25.457  1.00  0.00     0.163 HD
ATOM     27  O   UNL A   1      41.959  18.741  25.858  1.00  0.00    -0.269 OA
BRANCH  25  28
ATOM     28  C   UNL A   1      41.571  20.914  26.650  1.00  0.00     0.039 A 
ATOM     29  C   UNL A   1      42.008  21.916  25.777  1.00  0.00     0.014 A 
ATOM     30  C   UNL A   1      41.606  21.136  28.029  1.00  0.00     0.014 A 
ATOM     31  C   UNL A   1      42.416  23.154  26.280  1.00  0.00     0.010 A 
ATOM     32  C   UNL A   1      41.944  22.397  28.527  1.00  0.00     0.010 A 
ATOM     33  C   UNL A   1      42.353  23.419  27.658  1.00  0.00    -0.014 A 
BRANCH  33  34
ATOM     34  C   UNL A   1      42.688  24.769  28.181  1.00  0.00     0.031 A 
ATOM     35  C   UNL A   1      44.108  25.149  28.498  1.00  0.00     0.074 A 
ATOM     36  C   UNL A   1      41.694  25.654  28.402  1.00  0.00     0.049 A 
ATOM     37  N   UNL A   1      44.579  26.290  28.939  1.00  0.00    -0.248 NA
ATOM     38  C   UNL A   1      45.131  24.108  28.321  1.00  0.00     0.031 C 
ATOM     39  C   UNL A   1      40.268  25.391  28.200  1.00  0.00     0.029 A 
ATOM     40  N   UNL A   1      41.733  26.953  28.844  1.00  0.00    -0.354 N 
ATOM     41  C   UNL A   1      45.947  26.100  29.098  1.00  0.00     0.074 A 
ATOM     42  C   UNL A   1      46.222  24.721  28.758  1.00  0.00     0.031 C 
ATOM     43  C   UNL A   1      39.573  26.504  28.480  1.00  0.00     0.029 A 
ATOM     44  C   UNL A   1      40.497  27.549  28.908  1.00  0.00     0.049 A 
ATOM     45  H   UNL A   1      42.567  27.414  29.091  1.00  0.00     0.167 HD
ATOM     46  C   UNL A   1      46.891  26.999  29.471  1.00  0.00     0.037 A 
ATOM     47  C   UNL A   1      40.146  28.799  29.263  1.00  0.00     0.037 A 
ATOM     48  C   UNL A   1      46.621  28.376  29.794  1.00  0.00     0.049 A 
ATOM     49  C   UNL A   1      41.215  29.783  29.646  1.00  0.00     0.074 A 
ATOM     50  C   UNL A   1      47.519  29.377  30.128  1.00  0.00     0.029 A 
ATOM     51  N   UNL A   1      45.358  28.948  29.824  1.00  0.00    -0.354 N 
ATOM     52  N   UNL A   1      42.513  29.611  29.716  1.00  0.00    -0.248 NA
ATOM     53  C   UNL A   1      40.769  31.142  29.985  1.00  0.00     0.031 C 
ATOM     54  C   UNL A   1      46.795  30.544  30.399  1.00  0.00     0.029 A 
ATOM     55  C   UNL A   1      45.452  30.283  30.186  1.00  0.00     0.049 A 
ATOM     56  H   UNL A   1      44.519  28.477  29.619  1.00  0.00     0.167 HD
ATOM     57  C   UNL A   1      43.040  30.843  30.079  1.00  0.00     0.074 A 
ATOM     58  C   UNL A   1      41.924  31.758  30.196  1.00  0.00     0.031 C 
ATOM     59  C   UNL A   1      44.333  31.185  30.298  1.00  0.00     0.037 A 
BRANCH  46  60
ATOM     60  C   UNL A   1      48.312  26.518  29.542  1.00  0.00     0.057 A 
ATOM     61  C   UNL A   1      49.183  26.630  28.450  1.00  0.00     0.134 A 
ATOM     62  C   UNL A   1      48.827  25.970  30.724  1.00  0.00     0.134 A 
ATOM     63  F   UNL A   1      48.752  27.137  27.285  1.00  0.00    -0.206 F 
ATOM     64  C   UNL A   1      50.507  26.192  28.523  1.00  0.00     0.040 A 
ATOM     65  C   UNL A   1      50.155  25.553  30.817  1.00  0.00     0.040 A 
ATOM     66  F   UNL A   1      48.050  25.840  31.809  1.00  0.00    -0.206 F 
ATOM     67  C   UNL A   1      50.998  25.657  29.712  1.00  0.00     0.006 A 
ENDBRANCH  46  60
BRANCH  47  68
ATOM     68  C   UNL A   1      38.720  29.207  29.229  1.00  0.00     0.057 A 
ATOM     69  C   UNL A   1      38.130  29.669  28.046  1.00  0.00     0.134 A 
ATOM     70  C   UNL A   1      37.915  29.151  30.372  1.00  0.00     0.134 A 
ATOM     71  F   UNL A   1      38.856  29.762  26.921  1.00  0.00    -0.206 F 
ATOM     72  C   UNL A   1      36.798  30.082  28.006  1.00  0.00     0.040 A 
ATOM     73  C   UNL A   1      36.574  29.537  30.340  1.00  0.00     0.040 A 
ATOM     74  F   UNL A   1      38.420  28.709  31.534  1.00  0.00    -0.206 F 
ATOM     75  C   UNL A   1      36.014  30.011  29.156  1.00  0.00     0.006 A 
ENDBRANCH  47  68
BRANCH  59  76
ATOM     76  C   UNL A   1      44.607  32.618  30.651  1.00  0.00     0.057 A 
ATOM     77  C   UNL A   1      44.589  33.073  31.977  1.00  0.00     0.134 A 
ATOM     78  C   UNL A   1      44.893  33.556  29.652  1.00  0.00     0.134 A 
ATOM     79  F   UNL A   1      44.307  32.227  32.980  1.00  0.00    -0.206 F 
ATOM     80  C   UNL A   1      44.809  34.413  32.291  1.00  0.00     0.040 A 
ATOM     81  C   UNL A   1      45.144  34.895  29.957  1.00  0.00     0.040 A 
ATOM     82  F   UNL A   1      44.936  33.187  28.363  1.00  0.00    -0.206 F 
ATOM     83  C   UNL A   1      45.091  35.329  31.279  1.00  0.00     0.006 A 
ENDBRANCH  59  76
ENDBRANCH  33  34
ENDBRANCH  25  28
ENDBRANCH  23  24
ENDBRANCH  22  23
ENDBRANCH  21  22
ENDBRANCH   3  21
TORSDOF 15
ENDMDL
MODEL 3
REMARK VINA RESULT:      -9.0      5.446     10.973
REMARK SMILES O=C(COCC(=O)Nc1cccc([N+](=O)[O-])c1)NCCCNC(=O)c1ccc(-c2c3nc(c(-c4c(F)cccc4F)c4ccc([nH]4)c(-c4c(F)cccc4F)c4nc(c(-c5c(F)cccc5F)c5ccc2[nH]5)C=C4)C=C3)cc1
REMARK SMILES IDX 1 1 2 2 18 3 3 5 4 6 5 7 6 8 7 9 8 10 9 12 10 13 17 14 11 15
REMARK SMILES IDX 13 16 12 17 14 18 15 19 16 20 19 21 20 22 21 23 22 24 23 25
REMARK SMILES IDX 24 27 25 28 26 29 78 30 27 31 77 32 28 33 29 34 30 35 71 36
REMARK SMILES IDX 31 37 76 38 70 39 72 40 32 41 75 42 69 43 68 44 33 46 59 47
REMARK SMILES IDX 42 48 58 49 43 50 46 51 57 52 73 53 44 54 45 55 56 57 74 58
REMARK SMILES IDX 47 59 34 60 35 61 40 62 36 63 37 64 39 65 41 66 38 67 60 68
REMARK SMILES IDX 61 69 66 70 62 71 63 72 65 73 67 74 64 75 48 76 49 77 54 78
REMARK SMILES IDX 50 79 51 80 53 81 55 82 52 83
REMARK H PARENT 18 4 8 11 22 26 72 45 46 56
REMARK Flexibility Score: inf
ROOT
ATOM      1  O   UNL A   1      35.663  23.074  26.207  1.00  0.00    -0.272 OA
ATOM      2  C   UNL A   1      35.097  21.995  26.354  1.00  0.00     0.246 C 
ATOM      3  N   UNL A   1      35.423  20.851  25.657  1.00  0.00    -0.354 N 
ATOM      4  H   UNL A   1      34.942  20.017  25.867  1.00  0.00     0.163 HD
ENDROOT
BRANCH   2   5
ATOM      5  C   UNL A   1      34.001  21.769  27.393  1.00  0.00     0.260 C 
BRANCH   5   6
ATOM      6  O   UNL A   1      33.068  22.842  27.481  1.00  0.00    -0.362 OA
BRANCH   6   7
ATOM      7  C   UNL A   1      31.877  22.629  26.749  1.00  0.00     0.261 C 
BRANCH   7   8
ATOM      8  C   UNL A   1      30.692  23.605  26.878  1.00  0.00     0.250 C 
ATOM      9  O   UNL A   1      29.664  23.261  27.469  1.00  0.00    -0.272 OA
ATOM     10  N   UNL A   1      30.792  24.904  26.460  1.00  0.00    -0.324 N 
ATOM     11  H   UNL A   1      30.082  25.494  26.805  1.00  0.00     0.170 HD
BRANCH  10  12
ATOM     12  C   UNL A   1      31.721  25.549  25.631  1.00  0.00     0.048 A 
ATOM     13  C   UNL A   1      32.673  26.371  26.244  1.00  0.00     0.026 A 
ATOM     14  C   UNL A   1      31.695  25.472  24.240  1.00  0.00     0.111 A 
ATOM     15  C   UNL A   1      33.642  27.033  25.485  1.00  0.00     0.009 A 
ATOM     16  C   UNL A   1      32.664  26.138  23.477  1.00  0.00     0.271 A 
ATOM     17  C   UNL A   1      33.651  26.908  24.096  1.00  0.00     0.086 A 
BRANCH  16  18
ATOM     18  N   UNL A   1      32.624  26.034  22.012  1.00  0.00     0.062 N 
ATOM     19  O   UNL A   1      33.653  25.658  21.434  1.00  0.00    -0.258 OA
ATOM     20  O   UNL A   1      31.565  26.328  21.438  1.00  0.00    -0.258 OA
ENDBRANCH  16  18
ENDBRANCH  10  12
ENDBRANCH   7   8
ENDBRANCH   6   7
ENDBRANCH   5   6
ENDBRANCH   2   5
BRANCH   3  21
ATOM     21  C   UNL A   1      36.440  20.828  24.633  1.00  0.00     0.117 C 
BRANCH  21  22
ATOM     22  C   UNL A   1      37.523  19.789  24.903  1.00  0.00     0.042 C 
BRANCH  22  23
ATOM     23  C   UNL A   1      38.685  20.291  25.756  1.00  0.00     0.118 C 
BRANCH  23  24
ATOM     24  N   UNL A   1      39.814  19.372  25.786  1.00  0.00    -0.352 N 
ATOM     25  C   UNL A   1      41.135  19.578  26.091  1.00  0.00     0.251 C 
ATOM     26  H   UNL A   1      39.591  18.443  25.545  1.00  0.00     0.163 HD
ATOM     27  O   UNL A   1      41.939  18.662  25.910  1.00  0.00    -0.269 OA
BRANCH  25  28
ATOM     28  C   UNL A   1      41.619  20.879  26.605  1.00  0.00     0.039 A 
ATOM     29  C   UNL A   1      42.042  21.840  25.680  1.00  0.00     0.014 A 
ATOM     30  C   UNL A   1      41.704  21.153  27.972  1.00  0.00     0.014 A 
ATOM     31  C   UNL A   1      42.487  23.088  26.121  1.00  0.00     0.010 A 
ATOM     32  C   UNL A   1      42.079  22.425  28.409  1.00  0.00     0.010 A 
ATOM     33  C   UNL A   1      42.475  23.407  27.489  1.00  0.00    -0.014 A 
BRANCH  33  34
ATOM     34  C   UNL A   1      42.850  24.769  27.948  1.00  0.00     0.031 A 
ATOM     35  C   UNL A   1      41.802  25.812  28.224  1.00  0.00     0.074 A 
ATOM     36  C   UNL A   1      44.155  25.080  28.088  1.00  0.00     0.049 A 
ATOM     37  N   UNL A   1      41.952  27.042  28.652  1.00  0.00    -0.248 NA
ATOM     38  C   UNL A   1      40.404  25.436  27.963  1.00  0.00     0.031 C 
ATOM     39  C   UNL A   1      45.273  24.184  27.790  1.00  0.00     0.029 A 
ATOM     40  N   UNL A   1      44.760  26.235  28.518  1.00  0.00    -0.354 N 
ATOM     41  C   UNL A   1      40.674  27.585  28.704  1.00  0.00     0.074 A 
ATOM     42  C   UNL A   1      39.766  26.570  28.214  1.00  0.00     0.031 C 
ATOM     43  C   UNL A   1      46.425  24.808  28.082  1.00  0.00     0.029 A 
ATOM     44  C   UNL A   1      46.130  26.155  28.559  1.00  0.00     0.049 A 
ATOM     45  H   UNL A   1      44.259  27.044  28.773  1.00  0.00     0.167 HD
ATOM     46  C   UNL A   1      40.289  28.809  29.142  1.00  0.00     0.037 A 
ATOM     47  C   UNL A   1      47.048  27.061  28.946  1.00  0.00     0.037 A 
ATOM     48  C   UNL A   1      41.190  29.814  29.646  1.00  0.00     0.049 A 
ATOM     49  C   UNL A   1      46.592  28.400  29.453  1.00  0.00     0.074 A 
ATOM     50  C   UNL A   1      40.888  31.062  30.164  1.00  0.00     0.029 A 
ATOM     51  N   UNL A   1      42.569  29.686  29.694  1.00  0.00    -0.354 N 
ATOM     52  N   UNL A   1      45.375  28.871  29.570  1.00  0.00    -0.248 NA
ATOM     53  C   UNL A   1      47.642  29.328  29.896  1.00  0.00     0.031 C 
ATOM     54  C   UNL A   1      42.088  31.705  30.489  1.00  0.00     0.029 A 
ATOM     55  C   UNL A   1      43.134  30.838  30.219  1.00  0.00     0.049 A 
ATOM     56  H   UNL A   1      43.075  28.894  29.399  1.00  0.00     0.167 HD
ATOM     57  C   UNL A   1      45.509  30.137  30.124  1.00  0.00     0.074 A 
ATOM     58  C   UNL A   1      46.925  30.352  30.338  1.00  0.00     0.031 C 
ATOM     59  C   UNL A   1      44.546  31.040  30.428  1.00  0.00     0.037 A 
BRANCH  46  60
ATOM     60  C   UNL A   1      38.822  29.126  29.102  1.00  0.00     0.057 A 
ATOM     61  C   UNL A   1      38.014  29.023  30.243  1.00  0.00     0.134 A 
ATOM     62  C   UNL A   1      38.215  29.574  27.922  1.00  0.00     0.134 A 
ATOM     63  F   UNL A   1      38.529  28.591  31.404  1.00  0.00    -0.206 F 
ATOM     64  C   UNL A   1      36.652  29.328  30.205  1.00  0.00     0.040 A 
ATOM     65  C   UNL A   1      36.861  29.908  27.878  1.00  0.00     0.040 A 
ATOM     66  F   UNL A   1      38.931  29.703  26.795  1.00  0.00    -0.206 F 
ATOM     67  C   UNL A   1      36.074  29.780  29.020  1.00  0.00     0.006 A 
ENDBRANCH  46  60
BRANCH  47  68
ATOM     68  C   UNL A   1      48.491  26.715  28.913  1.00  0.00     0.057 A 
ATOM     69  C   UNL A   1      49.106  26.085  30.001  1.00  0.00     0.134 A 
ATOM     70  C   UNL A   1      49.288  27.009  27.802  1.00  0.00     0.134 A 
ATOM     71  F   UNL A   1      48.397  25.793  31.102  1.00  0.00    -0.206 F 
ATOM     72  C   UNL A   1      50.468  25.779  29.995  1.00  0.00     0.040 A 
ATOM     73  C   UNL A   1      50.646  26.686  27.771  1.00  0.00     0.040 A 
ATOM     74  F   UNL A   1      48.755  27.605  26.724  1.00  0.00    -0.206 F 
ATOM     75  C   UNL A   1      51.241  26.076  28.874  1.00  0.00     0.006 A 
ENDBRANCH  47  68
BRANCH  59  76
ATOM     76  C   UNL A   1      44.995  32.328  31.055  1.00  0.00     0.057 A 
ATOM     77  C   UNL A   1      45.310  33.458  30.288  1.00  0.00     0.134 A 
ATOM     78  C   UNL A   1      45.112  32.440  32.446  1.00  0.00     0.134 A 
ATOM     79  F   UNL A   1      45.231  33.412  28.949  1.00  0.00    -0.206 F 
ATOM     80  C   UNL A   1      45.760  34.638  30.878  1.00  0.00     0.040 A 
ATOM     81  C   UNL A   1      45.534  33.626  33.050  1.00  0.00     0.040 A 
ATOM     82  F   UNL A   1      44.817  31.400  33.241  1.00  0.00    -0.206 F 
ATOM     83  C   UNL A   1      45.870  34.725  32.266  1.00  0.00     0.006 A 
ENDBRANCH  59  76
ENDBRANCH  33  34
ENDBRANCH  25  28
ENDBRANCH  23  24
ENDBRANCH  22  23
ENDBRANCH  21  22
ENDBRANCH   3  21
TORSDOF 15
ENDMDL
