MODEL 1
REMARK VINA RESULT:     -12.0      0.000      0.000
REMARK SMILES Cc1cscc1-c1nc(C)c(C(=O)NCCCNC(=O)c2ccc(-c3c4nc(c(-c5c(F)cccc5F)c5ccc([nH]5)c(-c5c(F)cccc5F)c5nc(c(-c6c(F)cccc6F)c6ccc3[nH]6)C=C5)C=C4)cc2)c(C)n1
REMARK SMILES IDX 16 1 15 2 14 3 12 4 13 5 11 7 7 8 8 9 77 10 9 11 75 12 10 13
REMARK SMILES IDX 76 14 6 15 1 16 2 17 3 18 4 19 5 20 17 21 18 22 19 23 20 25
REMARK SMILES IDX 21 26 22 27 74 28 23 29 73 30 24 31 25 32 26 33 67 34 27 35
REMARK SMILES IDX 72 36 66 37 68 38 28 39 71 40 65 41 64 42 29 44 55 45 38 46
REMARK SMILES IDX 54 47 39 48 42 49 53 50 69 51 40 52 41 53 52 55 70 56 43 57
REMARK SMILES IDX 30 58 31 59 36 60 32 61 33 62 35 63 37 64 34 65 56 66 57 67
REMARK SMILES IDX 62 68 58 69 59 70 61 71 63 72 60 73 44 74 45 75 50 76 46 77
REMARK SMILES IDX 47 78 49 79 51 80 48 81
REMARK H PARENT 14 6 18 24 68 43 42 54
REMARK Flexibility Score: inf
ROOT
ATOM      1  C   UNL A   1      37.609  19.750  24.970  1.00  0.00     0.042 C 
ENDROOT
BRANCH   1   2
ATOM      2  C   UNL A   1      36.445  20.744  25.001  1.00  0.00     0.118 C 
BRANCH   2   3
ATOM      3  N   UNL A   1      35.209  20.055  25.291  1.00  0.00    -0.352 N 
ATOM      4  C   UNL A   1      33.870  20.328  25.272  1.00  0.00     0.254 C 
ATOM      5  O   UNL A   1      33.213  19.397  25.751  1.00  0.00    -0.269 OA
ATOM      6  H   UNL A   1      35.378  19.130  25.583  1.00  0.00     0.163 HD
BRANCH   4   7
ATOM      7  C   UNL A   1      33.144  21.536  24.749  1.00  0.00     0.082 A 
ATOM      8  C   UNL A   1      32.011  23.928  23.978  1.00  0.00     0.160 A 
ATOM      9  N   UNL A   1      31.814  22.852  23.222  1.00  0.00    -0.232 NA
ATOM     10  N   UNL A   1      32.727  23.938  25.095  1.00  0.00    -0.232 NA
ATOM     11  C   UNL A   1      32.406  21.684  23.573  1.00  0.00     0.054 A 
ATOM     12  C   UNL A   1      33.266  22.745  25.483  1.00  0.00     0.054 A 
ATOM     13  C   UNL A   1      32.153  20.696  22.492  1.00  0.00     0.068 C 
ATOM     14  C   UNL A   1      34.010  22.871  26.789  1.00  0.00     0.068 C 
BRANCH   8  15
ATOM     15  C   UNL A   1      31.359  25.134  23.513  1.00  0.00     0.033 A 
ATOM     16  C   UNL A   1      33.038  25.736  21.626  1.00  0.00     0.046 C 
ATOM     17  C   UNL A   1      31.839  26.015  22.474  1.00  0.00    -0.029 A 
ATOM     18  C   UNL A   1      31.050  27.145  22.381  1.00  0.00     0.069 A 
ATOM     19  S   UNL A   1      29.759  27.147  23.503  1.00  0.00    -0.151 S 
ATOM     20  C   UNL A   1      30.235  25.634  24.142  1.00  0.00     0.077 A 
ENDBRANCH   8  15
ENDBRANCH   4   7
ENDBRANCH   2   3
ENDBRANCH   1   2
BRANCH   1  21
ATOM     21  C   UNL A   1      38.861  20.262  25.668  1.00  0.00     0.118 C 
BRANCH  21  22
ATOM     22  N   UNL A   1      39.847  19.203  25.834  1.00  0.00    -0.352 N 
ATOM     23  C   UNL A   1      41.202  19.289  26.012  1.00  0.00     0.251 C 
ATOM     24  H   UNL A   1      39.485  18.288  25.816  1.00  0.00     0.163 HD
ATOM     25  O   UNL A   1      41.902  18.286  25.850  1.00  0.00    -0.269 OA
BRANCH  23  26
ATOM     26  C   UNL A   1      41.831  20.572  26.385  1.00  0.00     0.039 A 
ATOM     27  C   UNL A   1      42.252  21.442  25.376  1.00  0.00     0.014 A 
ATOM     28  C   UNL A   1      42.024  20.909  27.727  1.00  0.00     0.014 A 
ATOM     29  C   UNL A   1      42.800  22.681  25.714  1.00  0.00     0.010 A 
ATOM     30  C   UNL A   1      42.489  22.175  28.062  1.00  0.00     0.010 A 
ATOM     31  C   UNL A   1      42.882  23.074  27.060  1.00  0.00    -0.014 A 
BRANCH  31  32
ATOM     32  C   UNL A   1      43.355  24.425  27.447  1.00  0.00     0.031 A 
ATOM     33  C   UNL A   1      42.370  25.474  27.877  1.00  0.00     0.074 A 
ATOM     34  C   UNL A   1      44.662  24.727  27.324  1.00  0.00     0.049 A 
ATOM     35  N   UNL A   1      42.573  26.738  28.145  1.00  0.00    -0.248 NA
ATOM     36  C   UNL A   1      40.963  25.054  27.990  1.00  0.00     0.031 C 
ATOM     37  C   UNL A   1      45.706  23.803  26.874  1.00  0.00     0.029 A 
ATOM     38  N   UNL A   1      45.335  25.900  27.550  1.00  0.00    -0.354 N 
ATOM     39  C   UNL A   1      41.323  27.266  28.445  1.00  0.00     0.074 A 
ATOM     40  C   UNL A   1      40.361  26.200  28.271  1.00  0.00     0.031 C 
ATOM     41  C   UNL A   1      46.888  24.438  26.876  1.00  0.00     0.029 A 
ATOM     42  C   UNL A   1      46.680  25.825  27.281  1.00  0.00     0.049 A 
ATOM     43  H   UNL A   1      44.896  26.720  27.876  1.00  0.00     0.167 HD
ATOM     44  C   UNL A   1      41.011  28.520  28.849  1.00  0.00     0.037 A 
ATOM     45  C   UNL A   1      47.635  26.772  27.336  1.00  0.00     0.037 A 
ATOM     46  C   UNL A   1      41.979  29.569  29.035  1.00  0.00     0.049 A 
ATOM     47  C   UNL A   1      47.257  28.163  27.760  1.00  0.00     0.074 A 
ATOM     48  C   UNL A   1      41.776  30.856  29.501  1.00  0.00     0.029 A 
ATOM     49  N   UNL A   1      43.334  29.451  28.759  1.00  0.00    -0.354 N 
ATOM     50  N   UNL A   1      46.083  28.632  28.108  1.00  0.00    -0.248 NA
ATOM     51  C   UNL A   1      48.337  29.160  27.797  1.00  0.00     0.031 C 
ATOM     52  C   UNL A   1      42.999  31.533  29.457  1.00  0.00     0.029 A 
ATOM     53  C   UNL A   1      43.974  30.652  29.016  1.00  0.00     0.049 A 
ATOM     54  H   UNL A   1      43.774  28.635  28.431  1.00  0.00     0.167 HD
ATOM     55  C   UNL A   1      46.285  29.967  28.429  1.00  0.00     0.074 A 
ATOM     56  C   UNL A   1      47.698  30.230  28.249  1.00  0.00     0.031 C 
ATOM     57  C   UNL A   1      45.382  30.893  28.834  1.00  0.00     0.037 A 
BRANCH  44  58
ATOM     58  C   UNL A   1      39.565  28.825  29.116  1.00  0.00     0.057 A 
ATOM     59  C   UNL A   1      38.997  28.660  30.386  1.00  0.00     0.134 A 
ATOM     60  C   UNL A   1      38.739  29.321  28.101  1.00  0.00     0.134 A 
ATOM     61  F   UNL A   1      39.731  28.177  31.401  1.00  0.00    -0.206 F 
ATOM     62  C   UNL A   1      37.654  28.952  30.630  1.00  0.00     0.040 A 
ATOM     63  C   UNL A   1      37.402  29.644  28.339  1.00  0.00     0.040 A 
ATOM     64  F   UNL A   1      39.218  29.509  26.862  1.00  0.00    -0.206 F 
ATOM     65  C   UNL A   1      36.854  29.453  29.605  1.00  0.00     0.006 A 
ENDBRANCH  44  58
BRANCH  45  66
ATOM     66  C   UNL A   1      49.039  26.434  26.991  1.00  0.00     0.057 A 
ATOM     67  C   UNL A   1      49.911  25.908  27.951  1.00  0.00     0.134 A 
ATOM     68  C   UNL A   1      49.545  26.630  25.700  1.00  0.00     0.134 A 
ATOM     69  F   UNL A   1      49.490  25.713  29.209  1.00  0.00    -0.206 F 
ATOM     70  C   UNL A   1      51.240  25.608  27.646  1.00  0.00     0.040 A 
ATOM     71  C   UNL A   1      50.864  26.309  25.374  1.00  0.00     0.040 A 
ATOM     72  F   UNL A   1      48.759  27.122  24.730  1.00  0.00    -0.206 F 
ATOM     73  C   UNL A   1      51.718  25.803  26.352  1.00  0.00     0.006 A 
ENDBRANCH  45  66
BRANCH  57  74
ATOM     74  C   UNL A   1      45.899  32.270  29.134  1.00  0.00     0.057 A 
ATOM     75  C   UNL A   1      45.986  33.257  28.145  1.00  0.00     0.134 A 
ATOM     76  C   UNL A   1      46.261  32.626  30.439  1.00  0.00     0.134 A 
ATOM     77  F   UNL A   1      45.668  32.975  26.873  1.00  0.00    -0.206 F 
ATOM     78  C   UNL A   1      46.433  34.546  28.441  1.00  0.00     0.040 A 
ATOM     79  C   UNL A   1      46.683  33.918  30.753  1.00  0.00     0.040 A 
ATOM     80  F   UNL A   1      46.192  31.729  31.435  1.00  0.00    -0.206 F 
ATOM     81  C   UNL A   1      46.774  34.881  29.750  1.00  0.00     0.006 A 
ENDBRANCH  57  74
ENDBRANCH  31  32
ENDBRANCH  23  26
ENDBRANCH  21  22
ENDBRANCH   1  21
TORSDOF 11
ENDMDL
MODEL 2
REMARK VINA RESULT:     -12.0      5.501     10.305
REMARK SMILES Cc1cscc1-c1nc(C)c(C(=O)NCCCNC(=O)c2ccc(-c3c4nc(c(-c5c(F)cccc5F)c5ccc([nH]5)c(-c5c(F)cccc5F)c5nc(c(-c6c(F)cccc6F)c6ccc3[nH]6)C=C5)C=C4)cc2)c(C)n1
REMARK SMILES IDX 16 1 15 2 14 3 12 4 13 5 11 7 7 8 8 9 77 10 9 11 75 12 10 13
REMARK SMILES IDX 76 14 6 15 1 16 2 17 3 18 4 19 5 20 17 21 18 22 19 23 20 25
REMARK SMILES IDX 21 26 22 27 74 28 23 29 73 30 24 31 25 32 26 33 67 34 27 35
REMARK SMILES IDX 72 36 66 37 68 38 28 39 71 40 65 41 64 42 29 44 55 45 38 46
REMARK SMILES IDX 54 47 39 48 42 49 53 50 69 51 40 52 41 53 52 55 70 56 43 57
REMARK SMILES IDX 30 58 31 59 36 60 32 61 33 62 35 63 37 64 34 65 56 66 57 67
REMARK SMILES IDX 62 68 58 69 59 70 61 71 63 72 60 73 44 74 45 75 50 76 46 77
REMARK SMILES IDX 47 78 49 79 51 80 48 81
REMARK H PARENT 14 6 18 24 68 43 42 54
REMARK Flexibility Score: inf
ROOT
ATOM      1  C   UNL A   1      31.394  31.619  26.411  1.00  0.00     0.042 C 
ENDROOT
BRANCH   1   2
ATOM      2  C   UNL A   1      31.592  30.197  25.881  1.00  0.00     0.118 C 
BRANCH   2   3
ATOM      3  N   UNL A   1      31.039  30.078  24.552  1.00  0.00    -0.352 N 
ATOM      4  C   UNL A   1      30.815  29.091  23.634  1.00  0.00     0.254 C 
ATOM      5  O   UNL A   1      30.418  29.555  22.560  1.00  0.00    -0.269 OA
ATOM      6  H   UNL A   1      30.740  30.952  24.213  1.00  0.00     0.163 HD
BRANCH   4   7
ATOM      7  C   UNL A   1      30.958  27.601  23.772  1.00  0.00     0.082 A 
ATOM      8  C   UNL A   1      31.518  24.928  24.146  1.00  0.00     0.160 A 
ATOM      9  N   UNL A   1      30.251  25.303  24.002  1.00  0.00    -0.232 NA
ATOM     10  N   UNL A   1      32.552  25.758  24.125  1.00  0.00    -0.232 NA
ATOM     11  C   UNL A   1      29.967  26.621  23.863  1.00  0.00     0.054 A 
ATOM     12  C   UNL A   1      32.270  27.078  23.917  1.00  0.00     0.054 A 
ATOM     13  C   UNL A   1      28.489  26.778  23.876  1.00  0.00     0.068 C 
ATOM     14  C   UNL A   1      33.525  27.911  23.861  1.00  0.00     0.068 C 
BRANCH   8  15
ATOM     15  C   UNL A   1      31.723  23.504  24.310  1.00  0.00     0.033 A 
ATOM     16  C   UNL A   1      31.038  23.337  26.810  1.00  0.00     0.046 C 
ATOM     17  C   UNL A   1      31.566  22.757  25.537  1.00  0.00    -0.029 A 
ATOM     18  C   UNL A   1      31.978  21.449  25.376  1.00  0.00     0.069 A 
ATOM     19  S   UNL A   1      32.529  21.118  23.791  1.00  0.00    -0.151 S 
ATOM     20  C   UNL A   1      32.232  22.726  23.290  1.00  0.00     0.077 A 
ENDBRANCH   8  15
ENDBRANCH   4   7
ENDBRANCH   2   3
ENDBRANCH   1   2
BRANCH   1  21
ATOM     21  C   UNL A   1      32.637  32.199  27.070  1.00  0.00     0.118 C 
BRANCH  21  22
ATOM     22  N   UNL A   1      32.463  33.610  27.383  1.00  0.00    -0.352 N 
ATOM     23  C   UNL A   1      33.036  34.363  28.374  1.00  0.00     0.251 C 
ATOM     24  H   UNL A   1      31.841  34.096  26.795  1.00  0.00     0.163 HD
ATOM     25  O   UNL A   1      32.554  35.463  28.657  1.00  0.00    -0.269 OA
BRANCH  23  26
ATOM     26  C   UNL A   1      34.215  33.865  29.110  1.00  0.00     0.039 A 
ATOM     27  C   UNL A   1      34.028  32.990  30.183  1.00  0.00     0.014 A 
ATOM     28  C   UNL A   1      35.502  34.276  28.756  1.00  0.00     0.014 A 
ATOM     29  C   UNL A   1      35.137  32.471  30.854  1.00  0.00     0.010 A 
ATOM     30  C   UNL A   1      36.607  33.694  29.368  1.00  0.00     0.010 A 
ATOM     31  C   UNL A   1      36.435  32.786  30.422  1.00  0.00    -0.014 A 
BRANCH  31  32
ATOM     32  C   UNL A   1      37.631  32.165  31.042  1.00  0.00     0.031 A 
ATOM     33  C   UNL A   1      38.356  31.054  30.335  1.00  0.00     0.074 A 
ATOM     34  C   UNL A   1      38.006  32.544  32.279  1.00  0.00     0.049 A 
ATOM     35  N   UNL A   1      39.347  30.314  30.758  1.00  0.00    -0.248 NA
ATOM     36  C   UNL A   1      37.882  30.710  28.984  1.00  0.00     0.031 C 
ATOM     37  C   UNL A   1      37.352  33.581  33.081  1.00  0.00     0.029 A 
ATOM     38  N   UNL A   1      39.018  32.091  33.085  1.00  0.00    -0.354 N 
ATOM     39  C   UNL A   1      39.606  29.410  29.736  1.00  0.00     0.074 A 
ATOM     40  C   UNL A   1      38.633  29.657  28.695  1.00  0.00     0.031 C 
ATOM     41  C   UNL A   1      37.991  33.697  34.255  1.00  0.00     0.029 A 
ATOM     42  C   UNL A   1      39.067  32.714  34.310  1.00  0.00     0.049 A 
ATOM     43  H   UNL A   1      39.651  31.386  32.814  1.00  0.00     0.167 HD
ATOM     44  C   UNL A   1      40.582  28.474  29.664  1.00  0.00     0.037 A 
ATOM     45  C   UNL A   1      39.878  32.503  35.363  1.00  0.00     0.037 A 
ATOM     46  C   UNL A   1      41.557  28.247  30.698  1.00  0.00     0.049 A 
ATOM     47  C   UNL A   1      40.934  31.438  35.269  1.00  0.00     0.074 A 
ATOM     48  C   UNL A   1      42.624  27.366  30.698  1.00  0.00     0.029 A 
ATOM     49  N   UNL A   1      41.578  28.904  31.920  1.00  0.00    -0.354 N 
ATOM     50  N   UNL A   1      41.214  30.637  34.269  1.00  0.00    -0.248 NA
ATOM     51  C   UNL A   1      41.788  31.245  36.450  1.00  0.00     0.031 C 
ATOM     52  C   UNL A   1      43.260  27.453  31.940  1.00  0.00     0.029 A 
ATOM     53  C   UNL A   1      42.623  28.425  32.694  1.00  0.00     0.049 A 
ATOM     54  H   UNL A   1      40.946  29.606  32.195  1.00  0.00     0.167 HD
ATOM     55  C   UNL A   1      42.287  29.864  34.687  1.00  0.00     0.074 A 
ATOM     56  C   UNL A   1      42.619  30.302  36.028  1.00  0.00     0.031 C 
ATOM     57  C   UNL A   1      42.939  28.878  34.025  1.00  0.00     0.037 A 
BRANCH  44  58
ATOM     58  C   UNL A   1      40.641  27.626  28.425  1.00  0.00     0.057 A 
ATOM     59  C   UNL A   1      41.385  28.009  27.301  1.00  0.00     0.134 A 
ATOM     60  C   UNL A   1      39.975  26.396  28.368  1.00  0.00     0.134 A 
ATOM     61  F   UNL A   1      42.039  29.181  27.287  1.00  0.00    -0.206 F 
ATOM     62  C   UNL A   1      41.443  27.213  26.156  1.00  0.00     0.040 A 
ATOM     63  C   UNL A   1      40.049  25.577  27.239  1.00  0.00     0.040 A 
ATOM     64  F   UNL A   1      39.249  25.963  29.410  1.00  0.00    -0.206 F 
ATOM     65  C   UNL A   1      40.778  25.989  26.126  1.00  0.00     0.006 A 
ENDBRANCH  44  58
BRANCH  45  66
ATOM     66  C   UNL A   1      39.729  33.321  36.593  1.00  0.00     0.057 A 
ATOM     67  C   UNL A   1      38.834  32.950  37.603  1.00  0.00     0.134 A 
ATOM     68  C   UNL A   1      40.470  34.493  36.789  1.00  0.00     0.134 A 
ATOM     69  F   UNL A   1      38.083  31.847  37.466  1.00  0.00    -0.206 F 
ATOM     70  C   UNL A   1      38.666  33.722  38.754  1.00  0.00     0.040 A 
ATOM     71  C   UNL A   1      40.333  35.261  37.947  1.00  0.00     0.040 A 
ATOM     72  F   UNL A   1      41.352  34.901  35.864  1.00  0.00    -0.206 F 
ATOM     73  C   UNL A   1      39.423  34.879  38.930  1.00  0.00     0.006 A 
ENDBRANCH  45  66
BRANCH  57  74
ATOM     74  C   UNL A   1      44.092  28.223  34.728  1.00  0.00     0.057 A 
ATOM     75  C   UNL A   1      43.930  27.053  35.479  1.00  0.00     0.134 A 
ATOM     76  C   UNL A   1      45.387  28.741  34.606  1.00  0.00     0.134 A 
ATOM     77  F   UNL A   1      42.712  26.515  35.646  1.00  0.00    -0.206 F 
ATOM     78  C   UNL A   1      45.014  26.430  36.100  1.00  0.00     0.040 A 
ATOM     79  C   UNL A   1      46.483  28.112  35.198  1.00  0.00     0.040 A 
ATOM     80  F   UNL A   1      45.612  29.854  33.893  1.00  0.00    -0.206 F 
ATOM     81  C   UNL A   1      46.296  26.956  35.952  1.00  0.00     0.006 A 
ENDBRANCH  57  74
ENDBRANCH  31  32
ENDBRANCH  23  26
ENDBRANCH  21  22
ENDBRANCH   1  21
TORSDOF 11
ENDMDL
MODEL 3
REMARK VINA RESULT:     -11.9      0.874      1.705
REMARK SMILES Cc1cscc1-c1nc(C)c(C(=O)NCCCNC(=O)c2ccc(-c3c4nc(c(-c5c(F)cccc5F)c5ccc([nH]5)c(-c5c(F)cccc5F)c5nc(c(-c6c(F)cccc6F)c6ccc3[nH]6)C=C5)C=C4)cc2)c(C)n1
REMARK SMILES IDX 16 1 15 2 14 3 12 4 13 5 11 7 7 8 8 9 77 10 9 11 75 12 10 13
REMARK SMILES IDX 76 14 6 15 1 16 2 17 3 18 4 19 5 20 17 21 18 22 19 23 20 25
REMARK SMILES IDX 21 26 22 27 74 28 23 29 73 30 24 31 25 32 26 33 67 34 27 35
REMARK SMILES IDX 72 36 66 37 68 38 28 39 71 40 65 41 64 42 29 44 55 45 38 46
REMARK SMILES IDX 54 47 39 48 42 49 53 50 69 51 40 52 41 53 52 55 70 56 43 57
REMARK SMILES IDX 30 58 31 59 36 60 32 61 33 62 35 63 37 64 34 65 56 66 57 67
REMARK SMILES IDX 62 68 58 69 59 70 61 71 63 72 60 73 44 74 45 75 50 76 46 77
REMARK SMILES IDX 47 78 49 79 51 80 48 81
REMARK H PARENT 14 6 18 24 68 43 42 54
REMARK Flexibility Score: inf
ROOT
ATOM      1  C   UNL A   1      37.785  19.731  25.002  1.00  0.00     0.042 C 
ENDROOT
BRANCH   1   2
ATOM      2  C   UNL A   1      36.751  20.833  24.757  1.00  0.00     0.118 C 
BRANCH   2   3
ATOM      3  N   UNL A   1      35.419  20.331  25.000  1.00  0.00    -0.352 N 
ATOM      4  C   UNL A   1      34.164  20.839  25.181  1.00  0.00     0.254 C 
ATOM      5  O   UNL A   1      33.359  19.954  25.492  1.00  0.00    -0.269 OA
ATOM      6  H   UNL A   1      35.414  19.348  25.049  1.00  0.00     0.163 HD
BRANCH   4   7
ATOM      7  C   UNL A   1      33.668  22.251  25.031  1.00  0.00     0.082 A 
ATOM      8  C   UNL A   1      32.951  24.912  25.010  1.00  0.00     0.160 A 
ATOM      9  N   UNL A   1      32.730  24.181  23.922  1.00  0.00    -0.232 NA
ATOM     10  N   UNL A   1      33.502  24.450  26.125  1.00  0.00    -0.232 NA
ATOM     11  C   UNL A   1      33.122  22.883  23.912  1.00  0.00     0.054 A 
ATOM     12  C   UNL A   1      33.834  23.126  26.136  1.00  0.00     0.054 A 
ATOM     13  C   UNL A   1      32.902  22.345  22.544  1.00  0.00     0.068 C 
ATOM     14  C   UNL A   1      34.401  22.708  27.470  1.00  0.00     0.068 C 
BRANCH   8  15
ATOM     15  C   UNL A   1      32.520  26.292  24.921  1.00  0.00     0.033 A 
ATOM     16  C   UNL A   1      30.079  25.950  25.739  1.00  0.00     0.046 C 
ATOM     17  C   UNL A   1      31.192  26.788  25.194  1.00  0.00    -0.029 A 
ATOM     18  C   UNL A   1      31.089  28.128  24.875  1.00  0.00     0.069 A 
ATOM     19  S   UNL A   1      32.551  28.780  24.273  1.00  0.00    -0.151 S 
ATOM     20  C   UNL A   1      33.351  27.276  24.422  1.00  0.00     0.077 A 
ENDBRANCH   8  15
ENDBRANCH   4   7
ENDBRANCH   2   3
ENDBRANCH   1   2
BRANCH   1  21
ATOM     21  C   UNL A   1      38.986  20.197  25.813  1.00  0.00     0.118 C 
BRANCH  21  22
ATOM     22  N   UNL A   1      39.999  19.155  25.907  1.00  0.00    -0.352 N 
ATOM     23  C   UNL A   1      41.360  19.265  26.019  1.00  0.00     0.251 C 
ATOM     24  H   UNL A   1      39.654  18.233  25.888  1.00  0.00     0.163 HD
ATOM     25  O   UNL A   1      42.070  18.280  25.801  1.00  0.00    -0.269 OA
BRANCH  23  26
ATOM     26  C   UNL A   1      41.981  20.553  26.387  1.00  0.00     0.039 A 
ATOM     27  C   UNL A   1      42.403  21.419  25.376  1.00  0.00     0.014 A 
ATOM     28  C   UNL A   1      42.167  20.898  27.728  1.00  0.00     0.014 A 
ATOM     29  C   UNL A   1      42.944  22.661  25.709  1.00  0.00     0.010 A 
ATOM     30  C   UNL A   1      42.626  22.168  28.059  1.00  0.00     0.010 A 
ATOM     31  C   UNL A   1      43.019  23.062  27.053  1.00  0.00    -0.014 A 
BRANCH  31  32
ATOM     32  C   UNL A   1      43.485  24.417  27.434  1.00  0.00     0.031 A 
ATOM     33  C   UNL A   1      42.495  25.459  27.874  1.00  0.00     0.074 A 
ATOM     34  C   UNL A   1      44.788  24.730  27.298  1.00  0.00     0.049 A 
ATOM     35  N   UNL A   1      42.691  26.725  28.139  1.00  0.00    -0.248 NA
ATOM     36  C   UNL A   1      41.093  25.027  28.002  1.00  0.00     0.031 C 
ATOM     37  C   UNL A   1      45.835  23.814  26.838  1.00  0.00     0.029 A 
ATOM     38  N   UNL A   1      45.453  25.909  27.517  1.00  0.00    -0.354 N 
ATOM     39  C   UNL A   1      41.440  27.242  28.451  1.00  0.00     0.074 A 
ATOM     40  C   UNL A   1      40.484  26.169  28.288  1.00  0.00     0.031 C 
ATOM     41  C   UNL A   1      47.011  24.460  26.828  1.00  0.00     0.029 A 
ATOM     42  C   UNL A   1      46.796  25.845  27.234  1.00  0.00     0.049 A 
ATOM     43  H   UNL A   1      45.011  26.726  27.846  1.00  0.00     0.167 HD
ATOM     44  C   UNL A   1      41.121  28.494  28.858  1.00  0.00     0.037 A 
ATOM     45  C   UNL A   1      47.743  26.800  27.278  1.00  0.00     0.037 A 
ATOM     46  C   UNL A   1      42.082  29.551  29.034  1.00  0.00     0.049 A 
ATOM     47  C   UNL A   1      47.359  28.189  27.706  1.00  0.00     0.074 A 
ATOM     48  C   UNL A   1      41.873  30.837  29.501  1.00  0.00     0.029 A 
ATOM     49  N   UNL A   1      43.435  29.444  28.744  1.00  0.00    -0.354 N 
ATOM     50  N   UNL A   1      46.185  28.648  28.066  1.00  0.00    -0.248 NA
ATOM     51  C   UNL A   1      48.431  29.194  27.732  1.00  0.00     0.031 C 
ATOM     52  C   UNL A   1      43.090  31.523  29.445  1.00  0.00     0.029 A 
ATOM     53  C   UNL A   1      44.067  30.651  28.994  1.00  0.00     0.049 A 
ATOM     54  H   UNL A   1      43.879  28.631  28.412  1.00  0.00     0.167 HD
ATOM     55  C   UNL A   1      46.378  29.985  28.384  1.00  0.00     0.074 A 
ATOM     56  C   UNL A   1      47.787  30.259  28.190  1.00  0.00     0.031 C 
ATOM     57  C   UNL A   1      45.472  30.903  28.797  1.00  0.00     0.037 A 
BRANCH  44  58
ATOM     58  C   UNL A   1      39.675  28.787  29.140  1.00  0.00     0.057 A 
ATOM     59  C   UNL A   1      39.133  28.663  30.426  1.00  0.00     0.134 A 
ATOM     60  C   UNL A   1      38.824  29.230  28.121  1.00  0.00     0.134 A 
ATOM     61  F   UNL A   1      39.892  28.232  31.445  1.00  0.00    -0.206 F 
ATOM     62  C   UNL A   1      37.790  28.944  30.683  1.00  0.00     0.040 A 
ATOM     63  C   UNL A   1      37.486  29.542  28.371  1.00  0.00     0.040 A 
ATOM     64  F   UNL A   1      39.278  29.377  26.867  1.00  0.00    -0.206 F 
ATOM     65  C   UNL A   1      36.963  29.392  29.654  1.00  0.00     0.006 A 
ENDBRANCH  44  58
BRANCH  45  66
ATOM     66  C   UNL A   1      49.147  26.474  26.919  1.00  0.00     0.057 A 
ATOM     67  C   UNL A   1      49.616  26.651  25.613  1.00  0.00     0.134 A 
ATOM     68  C   UNL A   1      50.051  25.976  27.866  1.00  0.00     0.134 A 
ATOM     69  F   UNL A   1      48.794  27.107  24.657  1.00  0.00    -0.206 F 
ATOM     70  C   UNL A   1      50.926  26.326  25.255  1.00  0.00     0.040 A 
ATOM     71  C   UNL A   1      51.371  25.673  27.530  1.00  0.00     0.040 A 
ATOM     72  F   UNL A   1      49.667  25.793  29.139  1.00  0.00    -0.206 F 
ATOM     73  C   UNL A   1      51.809  25.842  26.218  1.00  0.00     0.006 A 
ENDBRANCH  45  66
BRANCH  57  74
ATOM     74  C   UNL A   1      45.980  32.284  29.091  1.00  0.00     0.057 A 
ATOM     75  C   UNL A   1      46.492  32.630  30.348  1.00  0.00     0.134 A 
ATOM     76  C   UNL A   1      46.005  33.263  28.089  1.00  0.00     0.134 A 
ATOM     77  F   UNL A   1      46.482  31.743  31.354  1.00  0.00    -0.206 F 
ATOM     78  C   UNL A   1      46.996  33.907  30.602  1.00  0.00     0.040 A 
ATOM     79  C   UNL A   1      46.533  34.533  28.323  1.00  0.00     0.040 A 
ATOM     80  F   UNL A   1      45.538  32.993  26.861  1.00  0.00    -0.206 F 
ATOM     81  C   UNL A   1      47.025  34.859  29.585  1.00  0.00     0.006 A 
ENDBRANCH  57  74
ENDBRANCH  31  32
ENDBRANCH  23  26
ENDBRANCH  21  22
ENDBRANCH   1  21
TORSDOF 11
ENDMDL
