MODEL 1
REMARK VINA RESULT:     -12.4      0.000      0.000
REMARK SMILES Cc1ccc(-n2cnnn2)cc1OCC(=O)NCCCNC(=O)c1ccc(-c2c3nc(c(-c4c(F)cccc4F)c4ccc([nH]4)c(-c4c(F)cccc4F)c4nc(c(-c5c(F)cccc5F)c5ccc2[nH]5)C=C4)C=C3)cc1
REMARK SMILES IDX 18 1 17 2 15 3 16 4 14 6 13 7 12 8 1 9 2 10 3 11 4 12 11 13
REMARK SMILES IDX 5 14 6 15 7 16 10 17 8 18 9 19 19 20 20 21 21 22 22 23 23 25
REMARK SMILES IDX 24 26 25 27 77 28 26 29 76 30 27 31 28 32 29 33 70 34 30 35
REMARK SMILES IDX 75 36 69 37 71 38 31 39 74 40 68 41 67 42 32 44 58 45 41 46
REMARK SMILES IDX 57 47 42 48 45 49 56 50 72 51 43 52 44 53 55 55 73 56 46 57
REMARK SMILES IDX 33 58 34 59 39 60 35 61 36 62 38 63 40 64 37 65 59 66 60 67
REMARK SMILES IDX 65 68 61 69 62 70 64 71 66 72 63 73 47 74 48 75 53 76 49 77
REMARK SMILES IDX 50 78 52 79 54 80 51 81
REMARK H PARENT 17 5 21 24 71 43 45 54
REMARK Flexibility Score: inf
ROOT
ATOM      1  C   UNL A   1      37.837  21.205  25.074  1.00  0.00     0.117 C 
ENDROOT
BRANCH   1   2
ATOM      2  N   UNL A   1      37.094  22.444  24.924  1.00  0.00    -0.353 N 
ATOM      3  C   UNL A   1      35.909  22.813  25.495  1.00  0.00     0.257 C 
ATOM      4  O   UNL A   1      35.551  23.985  25.365  1.00  0.00    -0.271 OA
ATOM      5  H   UNL A   1      37.501  23.111  24.327  1.00  0.00     0.163 HD
BRANCH   3   6
ATOM      6  C   UNL A   1      35.095  21.809  26.328  1.00  0.00     0.329 C 
BRANCH   6   7
ATOM      7  O   UNL A   1      33.730  21.595  26.043  1.00  0.00    -0.483 OA
BRANCH   7   8
ATOM      8  C   UNL A   1      33.279  20.742  25.078  1.00  0.00     0.125 A 
ATOM      9  C   UNL A   1      31.804  22.255  23.561  1.00  0.00     0.048 C 
ATOM     10  C   UNL A   1      32.493  20.975  23.942  1.00  0.00    -0.009 A 
ATOM     11  C   UNL A   1      32.295  19.911  23.031  1.00  0.00     0.009 A 
ATOM     12  C   UNL A   1      32.765  18.623  23.280  1.00  0.00     0.029 A 
ATOM     13  C   UNL A   1      33.694  19.420  25.354  1.00  0.00     0.075 A 
ATOM     14  C   UNL A   1      33.428  18.362  24.475  1.00  0.00     0.072 A 
BRANCH  14  15
ATOM     15  N   UNL A   1      33.812  17.037  24.782  1.00  0.00    -0.200 N 
ATOM     16  C   UNL A   1      33.042  15.906  24.881  1.00  0.00     0.252 A 
ATOM     17  N   UNL A   1      35.098  16.683  25.013  1.00  0.00    -0.040 NA
ATOM     18  N   UNL A   1      33.805  14.885  25.199  1.00  0.00    -0.117 NA
ATOM     19  N   UNL A   1      35.077  15.386  25.285  1.00  0.00    -0.024 NA
ENDBRANCH  14  15
ENDBRANCH   7   8
ENDBRANCH   6   7
ENDBRANCH   3   6
ENDBRANCH   1   2
BRANCH   1  20
ATOM     20  C   UNL A   1      39.066  21.355  25.958  1.00  0.00     0.042 C 
BRANCH  20  21
ATOM     21  C   UNL A   1      39.351  22.792  26.376  1.00  0.00     0.118 C 
BRANCH  21  22
ATOM     22  N   UNL A   1      40.766  23.101  26.555  1.00  0.00    -0.352 N 
ATOM     23  C   UNL A   1      41.381  24.310  26.858  1.00  0.00     0.251 C 
ATOM     24  H   UNL A   1      41.378  22.338  26.444  1.00  0.00     0.163 HD
ATOM     25  O   UNL A   1      42.588  24.361  26.978  1.00  0.00    -0.269 OA
BRANCH  23  26
ATOM     26  C   UNL A   1      40.547  25.505  27.167  1.00  0.00     0.039 A 
ATOM     27  C   UNL A   1      40.749  26.658  26.401  1.00  0.00     0.014 A 
ATOM     28  C   UNL A   1      39.729  25.552  28.291  1.00  0.00     0.014 A 
ATOM     29  C   UNL A   1      40.355  27.895  26.907  1.00  0.00     0.010 A 
ATOM     30  C   UNL A   1      39.421  26.779  28.844  1.00  0.00     0.010 A 
ATOM     31  C   UNL A   1      39.804  27.952  28.186  1.00  0.00    -0.014 A 
BRANCH  31  32
ATOM     32  C   UNL A   1      39.760  29.178  28.974  1.00  0.00     0.031 A 
ATOM     33  C   UNL A   1      38.703  30.186  28.776  1.00  0.00     0.074 A 
ATOM     34  C   UNL A   1      40.664  29.341  29.965  1.00  0.00     0.049 A 
ATOM     35  N   UNL A   1      38.850  31.446  29.020  1.00  0.00    -0.248 NA
ATOM     36  C   UNL A   1      37.383  29.844  28.264  1.00  0.00     0.031 C 
ATOM     37  C   UNL A   1      40.647  30.341  31.028  1.00  0.00     0.029 A 
ATOM     38  N   UNL A   1      41.915  28.720  30.088  1.00  0.00    -0.354 N 
ATOM     39  C   UNL A   1      37.601  32.023  28.982  1.00  0.00     0.074 A 
ATOM     40  C   UNL A   1      36.736  31.002  28.434  1.00  0.00     0.031 C 
ATOM     41  C   UNL A   1      41.893  30.478  31.510  1.00  0.00     0.029 A 
ATOM     42  C   UNL A   1      42.771  29.677  30.673  1.00  0.00     0.049 A 
ATOM     43  H   UNL A   1      42.149  27.801  29.821  1.00  0.00     0.167 HD
ATOM     44  C   UNL A   1      37.401  33.243  29.563  1.00  0.00     0.037 A 
ATOM     45  C   UNL A   1      43.865  30.149  30.011  1.00  0.00     0.037 A 
ATOM     46  C   UNL A   1      38.635  33.768  30.143  1.00  0.00     0.049 A 
ATOM     47  C   UNL A   1      43.850  31.642  29.783  1.00  0.00     0.074 A 
ATOM     48  C   UNL A   1      39.129  33.751  31.438  1.00  0.00     0.029 A 
ATOM     49  N   UNL A   1      39.697  34.134  29.324  1.00  0.00    -0.354 N 
ATOM     50  N   UNL A   1      42.778  32.378  29.871  1.00  0.00    -0.248 NA
ATOM     51  C   UNL A   1      45.027  32.414  29.391  1.00  0.00     0.031 C 
ATOM     52  C   UNL A   1      40.507  34.064  31.392  1.00  0.00     0.029 A 
ATOM     53  C   UNL A   1      40.852  34.283  30.069  1.00  0.00     0.049 A 
ATOM     54  H   UNL A   1      39.636  34.269  28.350  1.00  0.00     0.167 HD
ATOM     55  C   UNL A   1      43.079  33.666  29.512  1.00  0.00     0.074 A 
ATOM     56  C   UNL A   1      44.505  33.645  29.250  1.00  0.00     0.031 C 
ATOM     57  C   UNL A   1      42.116  34.632  29.442  1.00  0.00     0.037 A 
BRANCH  44  58
ATOM     58  C   UNL A   1      36.025  33.777  29.902  1.00  0.00     0.057 A 
ATOM     59  C   UNL A   1      35.157  34.254  28.899  1.00  0.00     0.134 A 
ATOM     60  C   UNL A   1      35.518  33.901  31.206  1.00  0.00     0.134 A 
ATOM     61  F   UNL A   1      35.417  34.083  27.596  1.00  0.00    -0.206 F 
ATOM     62  C   UNL A   1      33.967  34.938  29.179  1.00  0.00     0.040 A 
ATOM     63  C   UNL A   1      34.355  34.627  31.507  1.00  0.00     0.040 A 
ATOM     64  F   UNL A   1      36.103  33.284  32.242  1.00  0.00    -0.206 F 
ATOM     65  C   UNL A   1      33.585  35.169  30.490  1.00  0.00     0.006 A 
ENDBRANCH  44  58
BRANCH  45  66
ATOM     66  C   UNL A   1      44.463  29.162  29.074  1.00  0.00     0.057 A 
ATOM     67  C   UNL A   1      45.345  28.193  29.582  1.00  0.00     0.134 A 
ATOM     68  C   UNL A   1      43.923  28.932  27.805  1.00  0.00     0.134 A 
ATOM     69  F   UNL A   1      45.896  28.352  30.795  1.00  0.00    -0.206 F 
ATOM     70  C   UNL A   1      45.596  26.996  28.905  1.00  0.00     0.040 A 
ATOM     71  C   UNL A   1      44.176  27.741  27.114  1.00  0.00     0.040 A 
ATOM     72  F   UNL A   1      43.057  29.799  27.263  1.00  0.00    -0.206 F 
ATOM     73  C   UNL A   1      44.983  26.754  27.681  1.00  0.00     0.006 A 
ENDBRANCH  45  66
BRANCH  57  74
ATOM     74  C   UNL A   1      42.291  36.011  28.864  1.00  0.00     0.057 A 
ATOM     75  C   UNL A   1      42.945  37.063  29.520  1.00  0.00     0.134 A 
ATOM     76  C   UNL A   1      41.916  36.278  27.528  1.00  0.00     0.134 A 
ATOM     77  F   UNL A   1      43.450  36.914  30.753  1.00  0.00    -0.206 F 
ATOM     78  C   UNL A   1      43.161  38.308  28.914  1.00  0.00     0.040 A 
ATOM     79  C   UNL A   1      42.172  37.498  26.896  1.00  0.00     0.040 A 
ATOM     80  F   UNL A   1      41.304  35.355  26.771  1.00  0.00    -0.206 F 
ATOM     81  C   UNL A   1      42.785  38.526  27.594  1.00  0.00     0.006 A 
ENDBRANCH  57  74
ENDBRANCH  31  32
ENDBRANCH  23  26
ENDBRANCH  21  22
ENDBRANCH  20  21
ENDBRANCH   1  20
TORSDOF 13
ENDMDL
MODEL 2
REMARK VINA RESULT:     -12.4      5.688     10.527
REMARK SMILES Cc1ccc(-n2cnnn2)cc1OCC(=O)NCCCNC(=O)c1ccc(-c2c3nc(c(-c4c(F)cccc4F)c4ccc([nH]4)c(-c4c(F)cccc4F)c4nc(c(-c5c(F)cccc5F)c5ccc2[nH]5)C=C4)C=C3)cc1
REMARK SMILES IDX 18 1 17 2 15 3 16 4 14 6 13 7 12 8 1 9 2 10 3 11 4 12 11 13
REMARK SMILES IDX 5 14 6 15 7 16 10 17 8 18 9 19 19 20 20 21 21 22 22 23 23 25
REMARK SMILES IDX 24 26 25 27 77 28 26 29 76 30 27 31 28 32 29 33 70 34 30 35
REMARK SMILES IDX 75 36 69 37 71 38 31 39 74 40 68 41 67 42 32 44 58 45 41 46
REMARK SMILES IDX 57 47 42 48 45 49 56 50 72 51 43 52 44 53 55 55 73 56 46 57
REMARK SMILES IDX 33 58 34 59 39 60 35 61 36 62 38 63 40 64 37 65 59 66 60 67
REMARK SMILES IDX 65 68 61 69 62 70 64 71 66 72 63 73 47 74 48 75 53 76 49 77
REMARK SMILES IDX 50 78 52 79 54 80 51 81
REMARK H PARENT 17 5 21 24 71 43 45 54
REMARK Flexibility Score: inf
ROOT
ATOM      1  C   UNL A   1      32.499  30.440  27.075  1.00  0.00     0.117 C 
ENDROOT
BRANCH   1   2
ATOM      2  N   UNL A   1      31.849  29.141  27.077  1.00  0.00    -0.353 N 
ATOM      3  C   UNL A   1      31.748  28.225  26.069  1.00  0.00     0.257 C 
ATOM      4  O   UNL A   1      31.304  27.111  26.350  1.00  0.00    -0.271 OA
ATOM      5  H   UNL A   1      31.421  28.885  27.926  1.00  0.00     0.163 HD
BRANCH   3   6
ATOM      6  C   UNL A   1      32.242  28.563  24.653  1.00  0.00     0.329 C 
BRANCH   6   7
ATOM      7  O   UNL A   1      31.520  28.116  23.526  1.00  0.00    -0.483 OA
BRANCH   7   8
ATOM      8  C   UNL A   1      30.179  28.309  23.356  1.00  0.00     0.125 A 
ATOM      9  C   UNL A   1      29.169  25.937  23.697  1.00  0.00     0.048 C 
ATOM     10  C   UNL A   1      29.102  27.422  23.478  1.00  0.00    -0.009 A 
ATOM     11  C   UNL A   1      27.789  27.939  23.378  1.00  0.00     0.009 A 
ATOM     12  C   UNL A   1      27.539  29.274  23.064  1.00  0.00     0.029 A 
ATOM     13  C   UNL A   1      29.917  29.643  22.972  1.00  0.00     0.075 A 
ATOM     14  C   UNL A   1      28.611  30.124  22.809  1.00  0.00     0.072 A 
BRANCH  14  15
ATOM     15  N   UNL A   1      28.363  31.448  22.384  1.00  0.00    -0.200 N 
ATOM     16  C   UNL A   1      27.900  31.905  21.176  1.00  0.00     0.252 A 
ATOM     17  N   UNL A   1      28.542  32.521  23.190  1.00  0.00    -0.040 NA
ATOM     18  N   UNL A   1      27.826  33.216  21.204  1.00  0.00    -0.117 NA
ATOM     19  N   UNL A   1      28.235  33.583  22.459  1.00  0.00    -0.024 NA
ENDBRANCH  14  15
ENDBRANCH   7   8
ENDBRANCH   6   7
ENDBRANCH   3   6
ENDBRANCH   1   2
BRANCH   1  20
ATOM     20  C   UNL A   1      33.892  30.407  27.688  1.00  0.00     0.042 C 
BRANCH  20  21
ATOM     21  C   UNL A   1      34.490  31.787  27.927  1.00  0.00     0.118 C 
BRANCH  21  22
ATOM     22  N   UNL A   1      34.796  32.081  29.324  1.00  0.00    -0.352 N 
ATOM     23  C   UNL A   1      35.708  31.477  30.180  1.00  0.00     0.251 C 
ATOM     24  H   UNL A   1      34.277  32.817  29.719  1.00  0.00     0.163 HD
ATOM     25  O   UNL A   1      35.824  31.879  31.320  1.00  0.00    -0.269 OA
BRANCH  23  26
ATOM     26  C   UNL A   1      36.633  30.434  29.657  1.00  0.00     0.039 A 
ATOM     27  C   UNL A   1      36.786  29.261  30.406  1.00  0.00     0.014 A 
ATOM     28  C   UNL A   1      37.463  30.675  28.567  1.00  0.00     0.014 A 
ATOM     29  C   UNL A   1      37.925  28.479  30.229  1.00  0.00     0.010 A 
ATOM     30  C   UNL A   1      38.639  29.961  28.451  1.00  0.00     0.010 A 
ATOM     31  C   UNL A   1      38.903  28.909  29.334  1.00  0.00    -0.014 A 
BRANCH  31  32
ATOM     32  C   UNL A   1      40.281  28.435  29.381  1.00  0.00     0.031 A 
ATOM     33  C   UNL A   1      40.677  27.153  28.771  1.00  0.00     0.074 A 
ATOM     34  C   UNL A   1      41.223  29.240  29.920  1.00  0.00     0.049 A 
ATOM     35  N   UNL A   1      41.672  26.436  29.177  1.00  0.00    -0.248 NA
ATOM     36  C   UNL A   1      39.957  26.564  27.651  1.00  0.00     0.031 C 
ATOM     37  C   UNL A   1      42.672  29.091  29.838  1.00  0.00     0.029 A 
ATOM     38  N   UNL A   1      41.029  30.283  30.837  1.00  0.00    -0.354 N 
ATOM     39  C   UNL A   1      41.904  25.472  28.222  1.00  0.00     0.074 A 
ATOM     40  C   UNL A   1      40.766  25.547  27.334  1.00  0.00     0.031 C 
ATOM     41  C   UNL A   1      43.233  29.779  30.845  1.00  0.00     0.029 A 
ATOM     42  C   UNL A   1      42.155  30.270  31.687  1.00  0.00     0.049 A 
ATOM     43  H   UNL A   1      40.263  30.900  30.878  1.00  0.00     0.167 HD
ATOM     44  C   UNL A   1      43.106  24.823  28.193  1.00  0.00     0.037 A 
ATOM     45  C   UNL A   1      42.033  30.028  33.023  1.00  0.00     0.037 A 
ATOM     46  C   UNL A   1      43.987  25.281  29.266  1.00  0.00     0.049 A 
ATOM     47  C   UNL A   1      42.798  28.816  33.500  1.00  0.00     0.074 A 
ATOM     48  C   UNL A   1      45.016  26.209  29.285  1.00  0.00     0.029 A 
ATOM     49  N   UNL A   1      43.674  25.014  30.594  1.00  0.00    -0.354 N 
ATOM     50  N   UNL A   1      43.242  27.881  32.708  1.00  0.00    -0.248 NA
ATOM     51  C   UNL A   1      43.081  28.538  34.906  1.00  0.00     0.031 C 
ATOM     52  C   UNL A   1      45.291  26.537  30.632  1.00  0.00     0.029 A 
ATOM     53  C   UNL A   1      44.438  25.800  31.436  1.00  0.00     0.049 A 
ATOM     54  H   UNL A   1      43.003  24.357  30.893  1.00  0.00     0.167 HD
ATOM     55  C   UNL A   1      43.803  26.879  33.456  1.00  0.00     0.074 A 
ATOM     56  C   UNL A   1      43.706  27.351  34.824  1.00  0.00     0.031 C 
ATOM     57  C   UNL A   1      44.279  25.736  32.880  1.00  0.00     0.037 A 
BRANCH  44  58
ATOM     58  C   UNL A   1      43.591  24.043  26.988  1.00  0.00     0.057 A 
ATOM     59  C   UNL A   1      44.262  24.682  25.926  1.00  0.00     0.134 A 
ATOM     60  C   UNL A   1      43.376  22.669  26.789  1.00  0.00     0.134 A 
ATOM     61  F   UNL A   1      44.675  25.952  26.009  1.00  0.00    -0.206 F 
ATOM     62  C   UNL A   1      44.548  24.046  24.710  1.00  0.00     0.040 A 
ATOM     63  C   UNL A   1      43.608  22.031  25.561  1.00  0.00     0.040 A 
ATOM     64  F   UNL A   1      42.974  21.876  27.791  1.00  0.00    -0.206 F 
ATOM     65  C   UNL A   1      44.177  22.727  24.507  1.00  0.00     0.006 A 
ENDBRANCH  44  58
BRANCH  45  66
ATOM     66  C   UNL A   1      40.737  30.480  33.592  1.00  0.00     0.057 A 
ATOM     67  C   UNL A   1      40.584  31.834  33.937  1.00  0.00     0.134 A 
ATOM     68  C   UNL A   1      39.572  29.718  33.466  1.00  0.00     0.134 A 
ATOM     69  F   UNL A   1      41.662  32.622  34.071  1.00  0.00    -0.206 F 
ATOM     70  C   UNL A   1      39.325  32.430  34.048  1.00  0.00     0.040 A 
ATOM     71  C   UNL A   1      38.306  30.303  33.585  1.00  0.00     0.040 A 
ATOM     72  F   UNL A   1      39.634  28.426  33.117  1.00  0.00    -0.206 F 
ATOM     73  C   UNL A   1      38.180  31.669  33.838  1.00  0.00     0.006 A 
ENDBRANCH  45  66
BRANCH  57  74
ATOM     74  C   UNL A   1      44.719  24.496  33.611  1.00  0.00     0.057 A 
ATOM     75  C   UNL A   1      46.054  24.090  33.742  1.00  0.00     0.134 A 
ATOM     76  C   UNL A   1      43.784  23.732  34.346  1.00  0.00     0.134 A 
ATOM     77  F   UNL A   1      47.055  24.786  33.187  1.00  0.00    -0.206 F 
ATOM     78  C   UNL A   1      46.429  22.975  34.503  1.00  0.00     0.040 A 
ATOM     79  C   UNL A   1      44.152  22.649  35.149  1.00  0.00     0.040 A 
ATOM     80  F   UNL A   1      42.474  24.021  34.334  1.00  0.00    -0.206 F 
ATOM     81  C   UNL A   1      45.479  22.256  35.219  1.00  0.00     0.006 A 
ENDBRANCH  57  74
ENDBRANCH  31  32
ENDBRANCH  23  26
ENDBRANCH  21  22
ENDBRANCH  20  21
ENDBRANCH   1  20
TORSDOF 13
ENDMDL
MODEL 3
REMARK VINA RESULT:     -12.2      5.372     10.726
REMARK SMILES Cc1ccc(-n2cnnn2)cc1OCC(=O)NCCCNC(=O)c1ccc(-c2c3nc(c(-c4c(F)cccc4F)c4ccc([nH]4)c(-c4c(F)cccc4F)c4nc(c(-c5c(F)cccc5F)c5ccc2[nH]5)C=C4)C=C3)cc1
REMARK SMILES IDX 18 1 17 2 15 3 16 4 14 6 13 7 12 8 1 9 2 10 3 11 4 12 11 13
REMARK SMILES IDX 5 14 6 15 7 16 10 17 8 18 9 19 19 20 20 21 21 22 22 23 23 25
REMARK SMILES IDX 24 26 25 27 77 28 26 29 76 30 27 31 28 32 29 33 70 34 30 35
REMARK SMILES IDX 75 36 69 37 71 38 31 39 74 40 68 41 67 42 32 44 58 45 41 46
REMARK SMILES IDX 57 47 42 48 45 49 56 50 72 51 43 52 44 53 55 55 73 56 46 57
REMARK SMILES IDX 33 58 34 59 39 60 35 61 36 62 38 63 40 64 37 65 59 66 60 67
REMARK SMILES IDX 65 68 61 69 62 70 64 71 66 72 63 73 47 74 48 75 53 76 49 77
REMARK SMILES IDX 50 78 52 79 54 80 51 81
REMARK H PARENT 17 5 21 24 71 43 45 54
REMARK Flexibility Score: inf
ROOT
ATOM      1  C   UNL A   1      32.955  30.681  26.893  1.00  0.00     0.117 C 
ENDROOT
BRANCH   1   2
ATOM      2  N   UNL A   1      32.063  29.536  26.930  1.00  0.00    -0.353 N 
ATOM      3  C   UNL A   1      31.877  28.557  25.995  1.00  0.00     0.257 C 
ATOM      4  O   UNL A   1      31.196  27.581  26.316  1.00  0.00    -0.271 OA
ATOM      5  H   UNL A   1      31.515  29.453  27.743  1.00  0.00     0.163 HD
BRANCH   3   6
ATOM      6  C   UNL A   1      32.558  28.649  24.620  1.00  0.00     0.329 C 
BRANCH   6   7
ATOM      7  O   UNL A   1      31.862  28.254  23.458  1.00  0.00    -0.483 OA
BRANCH   7   8
ATOM      8  C   UNL A   1      30.512  28.378  23.301  1.00  0.00     0.125 A 
ATOM      9  C   UNL A   1      29.633  25.949  23.603  1.00  0.00     0.048 C 
ATOM     10  C   UNL A   1      29.485  27.432  23.413  1.00  0.00    -0.009 A 
ATOM     11  C   UNL A   1      28.145  27.880  23.333  1.00  0.00     0.009 A 
ATOM     12  C   UNL A   1      27.821  29.204  23.045  1.00  0.00     0.029 A 
ATOM     13  C   UNL A   1      30.175  29.703  22.944  1.00  0.00     0.075 A 
ATOM     14  C   UNL A   1      28.843  30.115  22.800  1.00  0.00     0.072 A 
BRANCH  14  15
ATOM     15  N   UNL A   1      28.521  31.432  22.401  1.00  0.00    -0.200 N 
ATOM     16  C   UNL A   1      28.655  32.611  23.091  1.00  0.00     0.252 A 
ATOM     17  N   UNL A   1      28.019  31.724  21.178  1.00  0.00    -0.040 NA
ATOM     18  N   UNL A   1      28.221  33.602  22.349  1.00  0.00    -0.117 NA
ATOM     19  N   UNL A   1      27.822  33.034  21.167  1.00  0.00    -0.024 NA
ENDBRANCH  14  15
ENDBRANCH   7   8
ENDBRANCH   6   7
ENDBRANCH   3   6
ENDBRANCH   1   2
BRANCH   1  20
ATOM     20  C   UNL A   1      34.252  30.447  27.655  1.00  0.00     0.042 C 
BRANCH  20  21
ATOM     21  C   UNL A   1      35.195  31.643  27.643  1.00  0.00     0.118 C 
BRANCH  21  22
ATOM     22  N   UNL A   1      35.688  32.038  28.959  1.00  0.00    -0.352 N 
ATOM     23  C   UNL A   1      36.588  31.396  29.801  1.00  0.00     0.251 C 
ATOM     24  H   UNL A   1      35.329  32.887  29.302  1.00  0.00     0.163 HD
ATOM     25  O   UNL A   1      36.883  31.898  30.866  1.00  0.00    -0.269 OA
BRANCH  23  26
ATOM     26  C   UNL A   1      37.287  30.167  29.334  1.00  0.00     0.039 A 
ATOM     27  C   UNL A   1      37.354  29.080  30.213  1.00  0.00     0.014 A 
ATOM     28  C   UNL A   1      38.012  30.146  28.147  1.00  0.00     0.014 A 
ATOM     29  C   UNL A   1      38.342  28.113  30.033  1.00  0.00     0.010 A 
ATOM     30  C   UNL A   1      39.053  29.248  28.014  1.00  0.00     0.010 A 
ATOM     31  C   UNL A   1      39.262  28.278  28.999  1.00  0.00    -0.014 A 
BRANCH  31  32
ATOM     32  C   UNL A   1      40.554  27.602  28.976  1.00  0.00     0.031 A 
ATOM     33  C   UNL A   1      40.671  26.173  28.636  1.00  0.00     0.074 A 
ATOM     34  C   UNL A   1      41.670  28.335  29.185  1.00  0.00     0.049 A 
ATOM     35  N   UNL A   1      41.616  25.403  29.066  1.00  0.00    -0.248 NA
ATOM     36  C   UNL A   1      39.706  25.488  27.788  1.00  0.00     0.031 C 
ATOM     37  C   UNL A   1      43.053  27.933  28.952  1.00  0.00     0.029 A 
ATOM     38  N   UNL A   1      41.769  29.566  29.850  1.00  0.00    -0.354 N 
ATOM     39  C   UNL A   1      41.558  24.234  28.341  1.00  0.00     0.074 A 
ATOM     40  C   UNL A   1      40.309  24.308  27.615  1.00  0.00     0.031 C 
ATOM     41  C   UNL A   1      43.858  28.716  29.689  1.00  0.00     0.029 A 
ATOM     42  C   UNL A   1      43.007  29.546  30.526  1.00  0.00     0.049 A 
ATOM     43  H   UNL A   1      41.109  30.296  29.846  1.00  0.00     0.167 HD
ATOM     44  C   UNL A   1      42.642  23.403  28.308  1.00  0.00     0.037 A 
ATOM     45  C   UNL A   1      43.075  29.614  31.886  1.00  0.00     0.037 A 
ATOM     46  C   UNL A   1      43.740  23.924  29.120  1.00  0.00     0.049 A 
ATOM     47  C   UNL A   1      43.741  28.421  32.529  1.00  0.00     0.074 A 
ATOM     48  C   UNL A   1      44.872  24.652  28.788  1.00  0.00     0.029 A 
ATOM     49  N   UNL A   1      43.616  23.999  30.503  1.00  0.00    -0.354 N 
ATOM     50  N   UNL A   1      43.920  27.279  31.927  1.00  0.00    -0.248 NA
ATOM     51  C   UNL A   1      44.211  28.403  33.912  1.00  0.00     0.031 C 
ATOM     52  C   UNL A   1      45.405  25.206  29.974  1.00  0.00     0.029 A 
ATOM     53  C   UNL A   1      44.606  24.807  31.031  1.00  0.00     0.049 A 
ATOM     54  H   UNL A   1      42.922  23.542  31.032  1.00  0.00     0.167 HD
ATOM     55  C   UNL A   1      44.459  26.379  32.809  1.00  0.00     0.074 A 
ATOM     56  C   UNL A   1      44.651  27.138  34.029  1.00  0.00     0.031 C 
ATOM     57  C   UNL A   1      44.678  25.077  32.458  1.00  0.00     0.037 A 
BRANCH  44  58
ATOM     58  C   UNL A   1      42.815  22.317  27.266  1.00  0.00     0.057 A 
ATOM     59  C   UNL A   1      42.076  21.118  27.329  1.00  0.00     0.134 A 
ATOM     60  C   UNL A   1      43.738  22.368  26.208  1.00  0.00     0.134 A 
ATOM     61  F   UNL A   1      41.057  20.958  28.182  1.00  0.00    -0.206 F 
ATOM     62  C   UNL A   1      42.343  20.012  26.513  1.00  0.00     0.040 A 
ATOM     63  C   UNL A   1      44.054  21.253  25.417  1.00  0.00     0.040 A 
ATOM     64  F   UNL A   1      44.339  23.515  25.865  1.00  0.00    -0.206 F 
ATOM     65  C   UNL A   1      43.369  20.060  25.583  1.00  0.00     0.006 A 
ENDBRANCH  44  58
BRANCH  45  66
ATOM     66  C   UNL A   1      41.961  30.386  32.497  1.00  0.00     0.057 A 
ATOM     67  C   UNL A   1      42.063  31.786  32.563  1.00  0.00     0.134 A 
ATOM     68  C   UNL A   1      40.692  29.828  32.677  1.00  0.00     0.134 A 
ATOM     69  F   UNL A   1      43.252  32.385  32.397  1.00  0.00    -0.206 F 
ATOM     70  C   UNL A   1      40.937  32.602  32.695  1.00  0.00     0.040 A 
ATOM     71  C   UNL A   1      39.558  30.636  32.820  1.00  0.00     0.040 A 
ATOM     72  F   UNL A   1      40.511  28.502  32.605  1.00  0.00    -0.206 F 
ATOM     73  C   UNL A   1      39.674  32.026  32.790  1.00  0.00     0.006 A 
ENDBRANCH  45  66
BRANCH  57  74
ATOM     74  C   UNL A   1      45.064  23.964  33.396  1.00  0.00     0.057 A 
ATOM     75  C   UNL A   1      44.209  22.917  33.768  1.00  0.00     0.134 A 
ATOM     76  C   UNL A   1      46.397  23.841  33.848  1.00  0.00     0.134 A 
ATOM     77  F   UNL A   1      42.947  22.849  33.322  1.00  0.00    -0.206 F 
ATOM     78  C   UNL A   1      44.633  21.853  34.577  1.00  0.00     0.040 A 
ATOM     79  C   UNL A   1      46.843  22.759  34.611  1.00  0.00     0.040 A 
ATOM     80  F   UNL A   1      47.329  24.757  33.546  1.00  0.00    -0.206 F 
ATOM     81  C   UNL A   1      45.956  21.765  34.992  1.00  0.00     0.006 A 
ENDBRANCH  57  74
ENDBRANCH  31  32
ENDBRANCH  23  26
ENDBRANCH  21  22
ENDBRANCH  20  21
ENDBRANCH   1  20
TORSDOF 13
ENDMDL
