MODEL 1
REMARK VINA RESULT:     -11.0      0.000      0.000
REMARK SMILES CC(C)C[C@@H](NS(=O)(=O)c1ccc(CC#N)cc1)C(=O)NCCCNC(=O)c1ccc(-c2c3nc(c(-c4c(F)cccc4F)c4ccc([nH]4)c(-c4c(F)cccc4F)c4nc(c(-c5c(F)cccc5F)c5ccc2[nH]5)C=C4)C=C3)cc1
REMARK SMILES IDX 19 1 20 2 21 3 5 5 4 6 2 7 1 8 3 9 6 10 7 12 8 13 9 14 10 15
REMARK SMILES IDX 11 16 18 17 12 18 17 19 13 20 14 21 15 22 16 23 22 24 23 25
REMARK SMILES IDX 24 26 25 27 26 28 27 30 28 31 29 32 81 33 30 34 80 35 31 36
REMARK SMILES IDX 32 37 33 38 74 39 34 40 79 41 73 42 75 43 35 44 78 45 72 46
REMARK SMILES IDX 71 47 36 49 62 50 45 51 61 52 46 53 49 54 60 55 76 56 47 57
REMARK SMILES IDX 48 58 59 60 77 61 50 62 37 63 38 64 43 65 39 66 40 67 42 68
REMARK SMILES IDX 44 69 41 70 63 71 64 72 69 73 65 74 66 75 68 76 70 77 67 78
REMARK SMILES IDX 51 79 52 80 57 81 53 82 54 83 56 84 58 85 55 86
REMARK H PARENT 21 4 6 11 25 29 75 48 49 59
REMARK Flexibility Score: inf
ROOT
ATOM      1  C   UNL A   1      33.284  20.169  25.234  1.00  0.00     0.238 C 
ATOM      2  O   UNL A   1      32.426  19.293  25.362  1.00  0.00    -0.273 OA
ATOM      3  N   UNL A   1      34.587  19.770  25.144  1.00  0.00    -0.355 N 
ATOM      4  H   UNL A   1      34.715  18.799  25.050  1.00  0.00     0.163 HD
ENDROOT
BRANCH   1   5
ATOM      5  C   UNL A   1      32.902  21.653  25.203  1.00  0.00     0.159 C 
BRANCH   5   6
ATOM      6  C   UNL A   1      33.021  22.123  23.744  1.00  0.00     0.033 C 
BRANCH   6   7
ATOM      7  C   UNL A   1      34.018  23.258  23.454  1.00  0.00    -0.015 C 
ATOM      8  C   UNL A   1      33.425  24.363  22.584  1.00  0.00     0.007 C 
ATOM      9  C   UNL A   1      34.490  23.848  24.790  1.00  0.00     0.007 C 
ENDBRANCH   6   7
ENDBRANCH   5   6
BRANCH   5  10
ATOM     10  N   UNL A   1      31.558  21.882  25.764  1.00  0.00    -0.199 NA
ATOM     11  H   UNL A   1      31.294  21.023  26.244  1.00  0.00     0.142 HD
BRANCH  10  12
ATOM     12  S   UNL A   1      31.277  23.140  26.841  1.00  0.00     0.241 S 
ATOM     13  O   UNL A   1      30.017  22.880  27.508  1.00  0.00    -0.207 OA
ATOM     14  O   UNL A   1      32.507  23.277  27.584  1.00  0.00    -0.207 OA
BRANCH  12  15
ATOM     15  C   UNL A   1      31.095  24.585  25.824  1.00  0.00     0.082 A 
ATOM     16  C   UNL A   1      31.623  25.816  26.222  1.00  0.00     0.022 A 
ATOM     17  C   UNL A   1      30.379  24.487  24.629  1.00  0.00     0.022 A 
ATOM     18  C   UNL A   1      31.504  26.928  25.374  1.00  0.00     0.006 A 
ATOM     19  C   UNL A   1      30.299  25.583  23.768  1.00  0.00     0.006 A 
ATOM     20  C   UNL A   1      30.874  26.811  24.123  1.00  0.00    -0.034 A 
BRANCH  20  21
ATOM     21  C   UNL A   1      30.718  28.005  23.201  1.00  0.00     0.155 C 
BRANCH  21  22
ATOM     22  C   UNL A   1      29.244  28.347  23.058  1.00  0.00     0.067 C 
ATOM     23  N   UNL A   1      28.020  28.631  22.940  1.00  0.00    -0.198 NA
ENDBRANCH  21  22
ENDBRANCH  20  21
ENDBRANCH  12  15
ENDBRANCH  10  12
ENDBRANCH   5  10
ENDBRANCH   1   5
BRANCH   3  24
ATOM     24  C   UNL A   1      35.816  20.547  25.165  1.00  0.00     0.117 C 
BRANCH  24  25
ATOM     25  C   UNL A   1      37.025  19.654  24.921  1.00  0.00     0.042 C 
BRANCH  25  26
ATOM     26  C   UNL A   1      38.334  20.299  25.350  1.00  0.00     0.118 C 
BRANCH  26  27
ATOM     27  N   UNL A   1      39.400  19.324  25.532  1.00  0.00    -0.352 N 
ATOM     28  C   UNL A   1      40.670  19.535  26.012  1.00  0.00     0.251 C 
ATOM     29  H   UNL A   1      39.183  18.396  25.281  1.00  0.00     0.163 HD
ATOM     30  O   UNL A   1      41.511  18.646  25.971  1.00  0.00    -0.269 OA
BRANCH  28  31
ATOM     31  C   UNL A   1      41.011  20.864  26.556  1.00  0.00     0.039 A 
ATOM     32  C   UNL A   1      41.078  21.040  27.939  1.00  0.00     0.014 A 
ATOM     33  C   UNL A   1      41.318  21.916  25.688  1.00  0.00     0.014 A 
ATOM     34  C   UNL A   1      41.522  22.257  28.456  1.00  0.00     0.010 A 
ATOM     35  C   UNL A   1      41.823  23.103  26.201  1.00  0.00     0.010 A 
ATOM     36  C   UNL A   1      41.930  23.285  27.590  1.00  0.00    -0.014 A 
BRANCH  36  37
ATOM     37  C   UNL A   1      42.461  24.573  28.097  1.00  0.00     0.031 A 
ATOM     38  C   UNL A   1      41.506  25.685  28.430  1.00  0.00     0.074 A 
ATOM     39  C   UNL A   1      43.790  24.778  28.157  1.00  0.00     0.049 A 
ATOM     40  N   UNL A   1      41.759  26.936  28.717  1.00  0.00    -0.248 NA
ATOM     41  C   UNL A   1      40.074  25.350  28.400  1.00  0.00     0.031 C 
ATOM     42  C   UNL A   1      44.818  23.788  27.828  1.00  0.00     0.029 A 
ATOM     43  N   UNL A   1      44.505  25.900  28.494  1.00  0.00    -0.354 N 
ATOM     44  C   UNL A   1      40.520  27.542  28.870  1.00  0.00     0.074 A 
ATOM     45  C   UNL A   1      39.517  26.534  28.606  1.00  0.00     0.031 C 
ATOM     46  C   UNL A   1      46.030  24.345  27.986  1.00  0.00     0.029 A 
ATOM     47  C   UNL A   1      45.866  25.739  28.386  1.00  0.00     0.049 A 
ATOM     48  H   UNL A   1      44.083  26.740  28.784  1.00  0.00     0.167 HD
ATOM     49  C   UNL A   1      40.244  28.822  29.216  1.00  0.00     0.037 A 
ATOM     50  C   UNL A   1      46.864  26.623  28.572  1.00  0.00     0.037 A 
ATOM     51  C   UNL A   1      41.245  29.810  29.516  1.00  0.00     0.049 A 
ATOM     52  C   UNL A   1      46.532  28.036  28.966  1.00  0.00     0.074 A 
ATOM     53  C   UNL A   1      41.068  31.119  29.929  1.00  0.00     0.029 A 
ATOM     54  N   UNL A   1      42.613  29.593  29.442  1.00  0.00    -0.354 N 
ATOM     55  N   UNL A   1      45.357  28.587  29.147  1.00  0.00    -0.248 NA
ATOM     56  C   UNL A   1      47.664  28.947  29.184  1.00  0.00     0.031 C 
ATOM     57  C   UNL A   1      42.329  31.703  30.078  1.00  0.00     0.029 A 
ATOM     58  C   UNL A   1      43.292  30.746  29.795  1.00  0.00     0.049 A 
ATOM     59  H   UNL A   1      43.036  28.745  29.178  1.00  0.00     0.167 HD
ATOM     60  C   UNL A   1      45.607  29.897  29.534  1.00  0.00     0.074 A 
ATOM     61  C   UNL A   1      47.047  30.058  29.562  1.00  0.00     0.031 C 
ATOM     62  C   UNL A   1      44.724  30.877  29.842  1.00  0.00     0.037 A 
BRANCH  49  63
ATOM     63  C   UNL A   1      38.800  29.220  29.289  1.00  0.00     0.057 A 
ATOM     64  C   UNL A   1      38.103  29.680  28.164  1.00  0.00     0.134 A 
ATOM     65  C   UNL A   1      38.091  29.119  30.493  1.00  0.00     0.134 A 
ATOM     66  F   UNL A   1      38.729  29.815  26.985  1.00  0.00    -0.206 F 
ATOM     67  C   UNL A   1      36.760  30.050  28.239  1.00  0.00     0.040 A 
ATOM     68  C   UNL A   1      36.741  29.461  30.574  1.00  0.00     0.040 A 
ATOM     69  F   UNL A   1      38.698  28.683  31.607  1.00  0.00    -0.206 F 
ATOM     70  C   UNL A   1      36.073  29.934  29.446  1.00  0.00     0.006 A 
ENDBRANCH  49  63
BRANCH  50  71
ATOM     71  C   UNL A   1      48.275  26.194  28.406  1.00  0.00     0.057 A 
ATOM     72  C   UNL A   1      48.993  25.657  29.481  1.00  0.00     0.134 A 
ATOM     73  C   UNL A   1      48.939  26.310  27.180  1.00  0.00     0.134 A 
ATOM     74  F   UNL A   1      48.414  25.538  30.685  1.00  0.00    -0.206 F 
ATOM     75  C   UNL A   1      50.326  25.268  29.348  1.00  0.00     0.040 A 
ATOM     76  C   UNL A   1      50.265  25.904  27.027  1.00  0.00     0.040 A 
ATOM     77  F   UNL A   1      48.302  26.809  26.109  1.00  0.00    -0.206 F 
ATOM     78  C   UNL A   1      50.965  25.387  28.115  1.00  0.00     0.006 A 
ENDBRANCH  50  71
BRANCH  62  79
ATOM     79  C   UNL A   1      45.284  32.193  30.290  1.00  0.00     0.057 A 
ATOM     80  C   UNL A   1      45.516  33.243  29.394  1.00  0.00     0.134 A 
ATOM     81  C   UNL A   1      45.532  32.431  31.648  1.00  0.00     0.134 A 
ATOM     82  F   UNL A   1      45.309  33.072  28.079  1.00  0.00    -0.206 F 
ATOM     83  C   UNL A   1      45.988  34.481  29.832  1.00  0.00     0.040 A 
ATOM     84  C   UNL A   1      45.984  33.670  32.100  1.00  0.00     0.040 A 
ATOM     85  F   UNL A   1      45.322  31.466  32.557  1.00  0.00    -0.206 F 
ATOM     86  C   UNL A   1      46.215  34.699  31.190  1.00  0.00     0.006 A 
ENDBRANCH  62  79
ENDBRANCH  36  37
ENDBRANCH  28  31
ENDBRANCH  26  27
ENDBRANCH  25  26
ENDBRANCH  24  25
ENDBRANCH   3  24
TORSDOF 17
ENDMDL
MODEL 2
REMARK VINA RESULT:     -10.8      4.420      8.888
REMARK SMILES CC(C)C[C@@H](NS(=O)(=O)c1ccc(CC#N)cc1)C(=O)NCCCNC(=O)c1ccc(-c2c3nc(c(-c4c(F)cccc4F)c4ccc([nH]4)c(-c4c(F)cccc4F)c4nc(c(-c5c(F)cccc5F)c5ccc2[nH]5)C=C4)C=C3)cc1
REMARK SMILES IDX 19 1 20 2 21 3 5 5 4 6 2 7 1 8 3 9 6 10 7 12 8 13 9 14 10 15
REMARK SMILES IDX 11 16 18 17 12 18 17 19 13 20 14 21 15 22 16 23 22 24 23 25
REMARK SMILES IDX 24 26 25 27 26 28 27 30 28 31 29 32 81 33 30 34 80 35 31 36
REMARK SMILES IDX 32 37 33 38 74 39 34 40 79 41 73 42 75 43 35 44 78 45 72 46
REMARK SMILES IDX 71 47 36 49 62 50 45 51 61 52 46 53 49 54 60 55 76 56 47 57
REMARK SMILES IDX 48 58 59 60 77 61 50 62 37 63 38 64 43 65 39 66 40 67 42 68
REMARK SMILES IDX 44 69 41 70 63 71 64 72 69 73 65 74 66 75 68 76 70 77 67 78
REMARK SMILES IDX 51 79 52 80 57 81 53 82 54 83 56 84 58 85 55 86
REMARK H PARENT 21 4 6 11 25 29 75 48 49 59
REMARK Flexibility Score: inf
ROOT
ATOM      1  C   UNL A   1      33.349  28.573  24.320  1.00  0.00     0.238 C 
ATOM      2  O   UNL A   1      34.155  28.738  23.402  1.00  0.00    -0.273 OA
ATOM      3  N   UNL A   1      32.971  29.673  25.035  1.00  0.00    -0.355 N 
ATOM      4  H   UNL A   1      33.273  30.531  24.661  1.00  0.00     0.163 HD
ENDROOT
BRANCH   1   5
ATOM      5  C   UNL A   1      32.813  27.179  24.662  1.00  0.00     0.159 C 
BRANCH   5   6
ATOM      6  C   UNL A   1      33.691  26.619  25.793  1.00  0.00     0.033 C 
BRANCH   6   7
ATOM      7  C   UNL A   1      34.170  25.165  25.652  1.00  0.00    -0.015 C 
ATOM      8  C   UNL A   1      33.210  24.158  26.280  1.00  0.00     0.007 C 
ATOM      9  C   UNL A   1      34.347  24.850  24.160  1.00  0.00     0.007 C 
ENDBRANCH   6   7
ENDBRANCH   5   6
BRANCH   5  10
ATOM     10  N   UNL A   1      31.383  27.216  25.020  1.00  0.00    -0.199 NA
ATOM     11  H   UNL A   1      31.144  28.197  25.158  1.00  0.00     0.142 HD
BRANCH  10  12
ATOM     12  S   UNL A   1      30.220  26.577  23.991  1.00  0.00     0.241 S 
ATOM     13  O   UNL A   1      30.894  25.732  23.027  1.00  0.00    -0.207 OA
ATOM     14  O   UNL A   1      29.195  26.055  24.864  1.00  0.00    -0.207 OA
BRANCH  12  15
ATOM     15  C   UNL A   1      29.540  27.981  23.138  1.00  0.00     0.082 A 
ATOM     16  C   UNL A   1      28.169  28.250  23.175  1.00  0.00     0.022 A 
ATOM     17  C   UNL A   1      30.392  28.799  22.393  1.00  0.00     0.022 A 
ATOM     18  C   UNL A   1      27.670  29.393  22.532  1.00  0.00     0.006 A 
ATOM     19  C   UNL A   1      29.900  29.957  21.790  1.00  0.00     0.006 A 
ATOM     20  C   UNL A   1      28.537  30.277  21.866  1.00  0.00    -0.034 A 
BRANCH  20  21
ATOM     21  C   UNL A   1      28.015  31.506  21.148  1.00  0.00     0.155 C 
BRANCH  21  22
ATOM     22  C   UNL A   1      28.235  32.734  22.017  1.00  0.00     0.067 C 
ATOM     23  N   UNL A   1      28.417  33.753  22.738  1.00  0.00    -0.198 NA
ENDBRANCH  21  22
ENDBRANCH  20  21
ENDBRANCH  12  15
ENDBRANCH  10  12
ENDBRANCH   5  10
ENDBRANCH   1   5
BRANCH   3  24
ATOM     24  C   UNL A   1      32.194  29.783  26.260  1.00  0.00     0.117 C 
BRANCH  24  25
ATOM     25  C   UNL A   1      31.811  31.230  26.530  1.00  0.00     0.042 C 
BRANCH  25  26
ATOM     26  C   UNL A   1      32.939  32.035  27.157  1.00  0.00     0.118 C 
BRANCH  26  27
ATOM     27  N   UNL A   1      32.532  33.392  27.495  1.00  0.00    -0.352 N 
ATOM     28  C   UNL A   1      33.124  34.258  28.383  1.00  0.00     0.251 C 
ATOM     29  H   UNL A   1      31.733  33.731  27.030  1.00  0.00     0.163 HD
ATOM     30  O   UNL A   1      32.584  35.317  28.679  1.00  0.00    -0.269 OA
BRANCH  28  31
ATOM     31  C   UNL A   1      34.411  33.877  28.995  1.00  0.00     0.039 A 
ATOM     32  C   UNL A   1      34.413  33.091  30.149  1.00  0.00     0.014 A 
ATOM     33  C   UNL A   1      35.612  34.254  28.388  1.00  0.00     0.014 A 
ATOM     34  C   UNL A   1      35.624  32.623  30.660  1.00  0.00     0.010 A 
ATOM     35  C   UNL A   1      36.810  33.732  28.857  1.00  0.00     0.010 A 
ATOM     36  C   UNL A   1      36.828  32.912  29.997  1.00  0.00    -0.014 A 
BRANCH  36  37
ATOM     37  C   UNL A   1      38.131  32.388  30.473  1.00  0.00     0.031 A 
ATOM     38  C   UNL A   1      38.678  31.121  29.876  1.00  0.00     0.074 A 
ATOM     39  C   UNL A   1      38.763  32.984  31.500  1.00  0.00     0.049 A 
ATOM     40  N   UNL A   1      39.699  30.399  30.260  1.00  0.00    -0.248 NA
ATOM     41  C   UNL A   1      37.956  30.578  28.715  1.00  0.00     0.031 C 
ATOM     42  C   UNL A   1      38.315  34.198  32.185  1.00  0.00     0.029 A 
ATOM     43  N   UNL A   1      39.910  32.631  32.167  1.00  0.00    -0.354 N 
ATOM     44  C   UNL A   1      39.722  29.303  29.409  1.00  0.00     0.074 A 
ATOM     45  C   UNL A   1      38.592  29.434  28.515  1.00  0.00     0.031 C 
ATOM     46  C   UNL A   1      39.181  34.493  33.169  1.00  0.00     0.029 A 
ATOM     47  C   UNL A   1      40.220  33.468  33.212  1.00  0.00     0.049 A 
ATOM     48  H   UNL A   1      40.458  31.852  31.919  1.00  0.00     0.167 HD
ATOM     49  C   UNL A   1      40.616  28.286  29.367  1.00  0.00     0.037 A 
ATOM     50  C   UNL A   1      41.218  33.404  34.112  1.00  0.00     0.037 A 
ATOM     51  C   UNL A   1      41.760  28.182  30.231  1.00  0.00     0.049 A 
ATOM     52  C   UNL A   1      42.205  32.271  34.037  1.00  0.00     0.074 A 
ATOM     53  C   UNL A   1      42.755  27.220  30.232  1.00  0.00     0.029 A 
ATOM     54  N   UNL A   1      42.064  29.077  31.245  1.00  0.00    -0.354 N 
ATOM     55  N   UNL A   1      42.239  31.262  33.202  1.00  0.00    -0.248 NA
ATOM     56  C   UNL A   1      43.290  32.270  35.027  1.00  0.00     0.031 C 
ATOM     57  C   UNL A   1      43.648  27.518  31.266  1.00  0.00     0.029 A 
ATOM     58  C   UNL A   1      43.228  28.686  31.884  1.00  0.00     0.049 A 
ATOM     59  H   UNL A   1      41.532  29.872  31.476  1.00  0.00     0.167 HD
ATOM     60  C   UNL A   1      43.367  30.525  33.542  1.00  0.00     0.074 A 
ATOM     61  C   UNL A   1      43.990  31.205  34.660  1.00  0.00     0.031 C 
ATOM     62  C   UNL A   1      43.846  29.391  32.976  1.00  0.00     0.037 A 
BRANCH  49  63
ATOM     63  C   UNL A   1      40.388  27.210  28.348  1.00  0.00     0.057 A 
ATOM     64  C   UNL A   1      40.992  27.250  27.084  1.00  0.00     0.134 A 
ATOM     65  C   UNL A   1      39.576  26.107  28.642  1.00  0.00     0.134 A 
ATOM     66  F   UNL A   1      41.767  28.287  26.734  1.00  0.00    -0.206 F 
ATOM     67  C   UNL A   1      40.775  26.245  26.140  1.00  0.00     0.040 A 
ATOM     68  C   UNL A   1      39.373  25.083  27.716  1.00  0.00     0.040 A 
ATOM     69  F   UNL A   1      38.972  26.005  29.835  1.00  0.00    -0.206 F 
ATOM     70  C   UNL A   1      39.969  25.154  26.458  1.00  0.00     0.006 A 
ENDBRANCH  49  63
BRANCH  50  71
ATOM     71  C   UNL A   1      41.349  34.454  35.151  1.00  0.00     0.057 A 
ATOM     72  C   UNL A   1      40.764  34.292  36.413  1.00  0.00     0.134 A 
ATOM     73  C   UNL A   1      42.054  35.639  34.915  1.00  0.00     0.134 A 
ATOM     74  F   UNL A   1      40.061  33.184  36.692  1.00  0.00    -0.206 F 
ATOM     75  C   UNL A   1      40.860  35.277  37.396  1.00  0.00     0.040 A 
ATOM     76  C   UNL A   1      42.176  36.624  35.896  1.00  0.00     0.040 A 
ATOM     77  F   UNL A   1      42.645  35.850  33.729  1.00  0.00    -0.206 F 
ATOM     78  C   UNL A   1      41.572  36.447  37.139  1.00  0.00     0.006 A 
ENDBRANCH  50  71
BRANCH  62  79
ATOM     79  C   UNL A   1      45.131  28.842  33.516  1.00  0.00     0.057 A 
ATOM     80  C   UNL A   1      46.376  29.259  33.032  1.00  0.00     0.134 A 
ATOM     81  C   UNL A   1      45.120  27.930  34.580  1.00  0.00     0.134 A 
ATOM     82  F   UNL A   1      46.452  30.122  32.006  1.00  0.00    -0.206 F 
ATOM     83  C   UNL A   1      47.567  28.779  33.579  1.00  0.00     0.040 A 
ATOM     84  C   UNL A   1      46.303  27.459  35.148  1.00  0.00     0.040 A 
ATOM     85  F   UNL A   1      43.958  27.497  35.092  1.00  0.00    -0.206 F 
ATOM     86  C   UNL A   1      47.531  27.882  34.646  1.00  0.00     0.006 A 
ENDBRANCH  62  79
ENDBRANCH  36  37
ENDBRANCH  28  31
ENDBRANCH  26  27
ENDBRANCH  25  26
ENDBRANCH  24  25
ENDBRANCH   3  24
TORSDOF 17
ENDMDL
MODEL 3
REMARK VINA RESULT:     -10.7      0.992      2.077
REMARK SMILES CC(C)C[C@@H](NS(=O)(=O)c1ccc(CC#N)cc1)C(=O)NCCCNC(=O)c1ccc(-c2c3nc(c(-c4c(F)cccc4F)c4ccc([nH]4)c(-c4c(F)cccc4F)c4nc(c(-c5c(F)cccc5F)c5ccc2[nH]5)C=C4)C=C3)cc1
REMARK SMILES IDX 19 1 20 2 21 3 5 5 4 6 2 7 1 8 3 9 6 10 7 12 8 13 9 14 10 15
REMARK SMILES IDX 11 16 18 17 12 18 17 19 13 20 14 21 15 22 16 23 22 24 23 25
REMARK SMILES IDX 24 26 25 27 26 28 27 30 28 31 29 32 81 33 30 34 80 35 31 36
REMARK SMILES IDX 32 37 33 38 74 39 34 40 79 41 73 42 75 43 35 44 78 45 72 46
REMARK SMILES IDX 71 47 36 49 62 50 45 51 61 52 46 53 49 54 60 55 76 56 47 57
REMARK SMILES IDX 48 58 59 60 77 61 50 62 37 63 38 64 43 65 39 66 40 67 42 68
REMARK SMILES IDX 44 69 41 70 63 71 64 72 69 73 65 74 66 75 68 76 70 77 67 78
REMARK SMILES IDX 51 79 52 80 57 81 53 82 54 83 56 84 58 85 55 86
REMARK H PARENT 21 4 6 11 25 29 75 48 49 59
REMARK Flexibility Score: inf
ROOT
ATOM      1  C   UNL A   1      33.584  20.599  24.892  1.00  0.00     0.238 C 
ATOM      2  O   UNL A   1      32.801  19.704  24.567  1.00  0.00    -0.273 OA
ATOM      3  N   UNL A   1      34.906  20.275  24.997  1.00  0.00    -0.355 N 
ATOM      4  H   UNL A   1      35.138  19.378  24.665  1.00  0.00     0.163 HD
ENDROOT
BRANCH   1   5
ATOM      5  C   UNL A   1      33.085  22.016  25.193  1.00  0.00     0.159 C 
BRANCH   5   6
ATOM      6  C   UNL A   1      33.258  22.842  23.908  1.00  0.00     0.033 C 
BRANCH   6   7
ATOM      7  C   UNL A   1      33.823  24.265  24.062  1.00  0.00    -0.015 C 
ATOM      8  C   UNL A   1      35.269  24.281  24.549  1.00  0.00     0.007 C 
ATOM      9  C   UNL A   1      33.725  24.981  22.708  1.00  0.00     0.007 C 
ENDBRANCH   6   7
ENDBRANCH   5   6
BRANCH   5  10
ATOM     10  N   UNL A   1      31.694  22.013  25.680  1.00  0.00    -0.199 NA
ATOM     11  H   UNL A   1      31.506  21.069  26.017  1.00  0.00     0.142 HD
BRANCH  10  12
ATOM     12  S   UNL A   1      31.204  23.063  26.897  1.00  0.00     0.241 S 
ATOM     13  O   UNL A   1      29.850  22.710  27.269  1.00  0.00    -0.207 OA
ATOM     14  O   UNL A   1      32.279  23.044  27.861  1.00  0.00    -0.207 OA
BRANCH  12  15
ATOM     15  C   UNL A   1      31.186  24.670  26.138  1.00  0.00     0.082 A 
ATOM     16  C   UNL A   1      30.387  24.929  25.022  1.00  0.00     0.022 A 
ATOM     17  C   UNL A   1      32.015  25.670  26.650  1.00  0.00     0.022 A 
ATOM     18  C   UNL A   1      30.358  26.220  24.474  1.00  0.00     0.006 A 
ATOM     19  C   UNL A   1      31.953  26.964  26.131  1.00  0.00     0.006 A 
ATOM     20  C   UNL A   1      31.112  27.259  25.048  1.00  0.00    -0.034 A 
BRANCH  20  21
ATOM     21  C   UNL A   1      31.110  28.656  24.460  1.00  0.00     0.155 C 
BRANCH  21  22
ATOM     22  C   UNL A   1      32.392  28.878  23.674  1.00  0.00     0.067 C 
ATOM     23  N   UNL A   1      33.456  29.063  23.022  1.00  0.00    -0.198 NA
ENDBRANCH  21  22
ENDBRANCH  20  21
ENDBRANCH  12  15
ENDBRANCH  10  12
ENDBRANCH   5  10
ENDBRANCH   1   5
BRANCH   3  24
ATOM     24  C   UNL A   1      36.028  21.040  25.519  1.00  0.00     0.117 C 
BRANCH  24  25
ATOM     25  C   UNL A   1      37.324  20.639  24.830  1.00  0.00     0.042 C 
BRANCH  25  26
ATOM     26  C   UNL A   1      38.554  20.887  25.690  1.00  0.00     0.118 C 
BRANCH  26  27
ATOM     27  N   UNL A   1      39.493  19.775  25.650  1.00  0.00    -0.352 N 
ATOM     28  C   UNL A   1      40.830  19.783  25.970  1.00  0.00     0.251 C 
ATOM     29  H   UNL A   1      39.125  18.910  25.357  1.00  0.00     0.163 HD
ATOM     30  O   UNL A   1      41.533  18.805  25.745  1.00  0.00    -0.269 OA
BRANCH  28  31
ATOM     31  C   UNL A   1      41.410  21.001  26.566  1.00  0.00     0.039 A 
ATOM     32  C   UNL A   1      41.930  21.990  25.729  1.00  0.00     0.014 A 
ATOM     33  C   UNL A   1      41.383  21.182  27.952  1.00  0.00     0.014 A 
ATOM     34  C   UNL A   1      42.364  23.197  26.279  1.00  0.00     0.010 A 
ATOM     35  C   UNL A   1      41.751  22.408  28.490  1.00  0.00     0.010 A 
ATOM     36  C   UNL A   1      42.246  23.427  27.659  1.00  0.00    -0.014 A 
BRANCH  36  37
ATOM     37  C   UNL A   1      42.641  24.715  28.277  1.00  0.00     0.031 A 
ATOM     38  C   UNL A   1      41.602  25.778  28.495  1.00  0.00     0.074 A 
ATOM     39  C   UNL A   1      43.937  24.966  28.542  1.00  0.00     0.049 A 
ATOM     40  N   UNL A   1      41.757  27.027  28.853  1.00  0.00    -0.248 NA
ATOM     41  C   UNL A   1      40.205  25.392  28.240  1.00  0.00     0.031 C 
ATOM     42  C   UNL A   1      45.043  24.028  28.343  1.00  0.00     0.029 A 
ATOM     43  N   UNL A   1      44.546  26.102  29.015  1.00  0.00    -0.354 N 
ATOM     44  C   UNL A   1      40.484  27.581  28.836  1.00  0.00     0.074 A 
ATOM     45  C   UNL A   1      39.574  26.546  28.395  1.00  0.00     0.031 C 
ATOM     46  C   UNL A   1      46.193  24.623  28.698  1.00  0.00     0.029 A 
ATOM     47  C   UNL A   1      45.913  25.995  29.108  1.00  0.00     0.049 A 
ATOM     48  H   UNL A   1      44.050  26.915  29.263  1.00  0.00     0.167 HD
ATOM     49  C   UNL A   1      40.107  28.837  29.173  1.00  0.00     0.037 A 
ATOM     50  C   UNL A   1      46.834  26.908  29.468  1.00  0.00     0.037 A 
ATOM     51  C   UNL A   1      41.009  29.850  29.649  1.00  0.00     0.049 A 
ATOM     52  C   UNL A   1      46.389  28.293  29.848  1.00  0.00     0.074 A 
ATOM     53  C   UNL A   1      40.718  31.136  30.069  1.00  0.00     0.029 A 
ATOM     54  N   UNL A   1      42.380  29.687  29.775  1.00  0.00    -0.354 N 
ATOM     55  N   UNL A   1      45.178  28.794  29.867  1.00  0.00    -0.248 NA
ATOM     56  C   UNL A   1      47.436  29.238  30.260  1.00  0.00     0.031 C 
ATOM     57  C   UNL A   1      41.918  31.761  30.423  1.00  0.00     0.029 A 
ATOM     58  C   UNL A   1      42.950  30.852  30.259  1.00  0.00     0.049 A 
ATOM     59  H   UNL A   1      42.874  28.865  29.553  1.00  0.00     0.167 HD
ATOM     60  C   UNL A   1      45.312  30.099  30.325  1.00  0.00     0.074 A 
ATOM     61  C   UNL A   1      46.724  30.312  30.574  1.00  0.00     0.031 C 
ATOM     62  C   UNL A   1      44.353  31.034  30.525  1.00  0.00     0.037 A 
BRANCH  49  63
ATOM     63  C   UNL A   1      38.652  29.179  29.040  1.00  0.00     0.057 A 
ATOM     64  C   UNL A   1      37.779  29.128  30.134  1.00  0.00     0.134 A 
ATOM     65  C   UNL A   1      38.125  29.590  27.809  1.00  0.00     0.134 A 
ATOM     66  F   UNL A   1      38.218  28.728  31.336  1.00  0.00    -0.206 F 
ATOM     67  C   UNL A   1      36.427  29.447  30.003  1.00  0.00     0.040 A 
ATOM     68  C   UNL A   1      36.779  29.936  27.672  1.00  0.00     0.040 A 
ATOM     69  F   UNL A   1      38.907  29.664  26.723  1.00  0.00    -0.206 F 
ATOM     70  C   UNL A   1      35.925  29.860  28.770  1.00  0.00     0.006 A 
ENDBRANCH  49  63
BRANCH  50  71
ATOM     71  C   UNL A   1      48.271  26.538  29.503  1.00  0.00     0.057 A 
ATOM     72  C   UNL A   1      49.104  26.792  28.408  1.00  0.00     0.134 A 
ATOM     73  C   UNL A   1      48.844  25.925  30.622  1.00  0.00     0.134 A 
ATOM     74  F   UNL A   1      48.607  27.362  27.300  1.00  0.00    -0.206 F 
ATOM     75  C   UNL A   1      50.453  26.434  28.416  1.00  0.00     0.040 A 
ATOM     76  C   UNL A   1      50.196  25.581  30.653  1.00  0.00     0.040 A 
ATOM     77  F   UNL A   1      48.099  25.663  31.707  1.00  0.00    -0.206 F 
ATOM     78  C   UNL A   1      51.003  25.829  29.545  1.00  0.00     0.006 A 
ENDBRANCH  50  71
BRANCH  62  79
ATOM     79  C   UNL A   1      44.784  32.353  31.090  1.00  0.00     0.057 A 
ATOM     80  C   UNL A   1      44.872  32.575  32.469  1.00  0.00     0.134 A 
ATOM     81  C   UNL A   1      45.179  33.393  30.238  1.00  0.00     0.134 A 
ATOM     82  F   UNL A   1      44.497  31.621  33.336  1.00  0.00    -0.206 F 
ATOM     83  C   UNL A   1      45.325  33.791  32.982  1.00  0.00     0.040 A 
ATOM     84  C   UNL A   1      45.653  34.605  30.738  1.00  0.00     0.040 A 
ATOM     85  F   UNL A   1      45.124  33.239  28.906  1.00  0.00    -0.206 F 
ATOM     86  C   UNL A   1      45.725  34.807  32.115  1.00  0.00     0.006 A 
ENDBRANCH  62  79
ENDBRANCH  36  37
ENDBRANCH  28  31
ENDBRANCH  26  27
ENDBRANCH  25  26
ENDBRANCH  24  25
ENDBRANCH   3  24
TORSDOF 17
ENDMDL
