MODEL 1
REMARK VINA RESULT:      -9.5      0.000      0.000
REMARK SMILES CC[C@@H](C)CNC(=O)N1CCO[C@@H](CC(=O)NCCCNC(=O)c2ccc(-c3c4nc(c(-c5c(F)cccc5F)c5ccc([nH]5)c(-c5c(F)cccc5F)c5nc(c(-c6c(F)cccc6F)c6ccc3[nH]6)C=C5)C=C4)cc2)C1
REMARK SMILES IDX 15 1 16 2 17 3 14 5 13 6 9 7 10 8 78 9 11 10 12 11 7 12 6 13
REMARK SMILES IDX 8 15 5 16 3 17 4 18 2 19 1 20 18 21 19 22 20 23 21 24 22 25
REMARK SMILES IDX 23 27 24 28 25 29 77 30 26 31 76 32 27 33 28 34 29 35 70 36
REMARK SMILES IDX 30 37 75 38 69 39 71 40 31 41 74 42 68 43 67 44 32 46 58 47
REMARK SMILES IDX 41 48 57 49 42 50 45 51 56 52 72 53 43 54 44 55 55 57 73 58
REMARK SMILES IDX 46 59 33 60 34 61 39 62 35 63 36 64 38 65 40 66 37 67 59 68
REMARK SMILES IDX 60 69 65 70 61 71 62 72 64 73 66 74 63 75 47 76 48 77 53 78
REMARK SMILES IDX 49 79 50 80 52 81 54 82 51 83
REMARK H PARENT 17 4 6 14 21 26 71 45 45 56
REMARK Flexibility Score: inf
ROOT
ATOM      1  C   UNL A   1      44.846  21.997  24.107  1.00  0.00     0.222 C 
ATOM      2  O   UNL A   1      44.284  22.499  23.132  1.00  0.00    -0.275 OA
ATOM      3  N   UNL A   1      44.770  20.643  24.262  1.00  0.00    -0.356 N 
ATOM      4  H   UNL A   1      44.305  20.177  23.529  1.00  0.00     0.163 HD
ENDROOT
BRANCH   1   5
ATOM      5  C   UNL A   1      45.569  22.865  25.112  1.00  0.00     0.133 C 
BRANCH   5   6
ATOM      6  C   UNL A   1      45.762  24.305  24.623  1.00  0.00     0.147 C 
ATOM      7  N   UNL A   1      45.013  26.644  25.104  1.00  0.00    -0.320 N 
ATOM      8  C   UNL A   1      46.387  26.980  25.466  1.00  0.00     0.150 C 
ATOM      9  C   UNL A   1      44.723  25.233  25.262  1.00  0.00     0.154 C 
ATOM     10  C   UNL A   1      47.347  26.091  24.677  1.00  0.00     0.182 C 
ATOM     11  O   UNL A   1      47.105  24.705  24.981  1.00  0.00    -0.374 OA
BRANCH   7  12
ATOM     12  C   UNL A   1      43.971  27.520  25.257  1.00  0.00     0.317 C 
ATOM     13  N   UNL A   1      44.067  28.476  26.213  1.00  0.00    -0.338 N 
ATOM     14  H   UNL A   1      43.219  28.892  26.491  1.00  0.00     0.165 HD
ATOM     15  O   UNL A   1      42.991  27.528  24.513  1.00  0.00    -0.249 OA
BRANCH  13  16
ATOM     16  C   UNL A   1      45.259  28.963  26.879  1.00  0.00     0.121 C 
BRANCH  16  17
ATOM     17  C   UNL A   1      45.168  30.458  27.241  1.00  0.00     0.005 C 
ATOM     18  C   UNL A   1      43.771  30.966  26.870  1.00  0.00     0.009 C 
BRANCH  17  19
ATOM     19  C   UNL A   1      46.293  31.244  26.539  1.00  0.00     0.002 C 
ATOM     20  C   UNL A   1      47.105  32.141  27.463  1.00  0.00     0.004 C 
ENDBRANCH  17  19
ENDBRANCH  16  17
ENDBRANCH  13  16
ENDBRANCH   7  12
ENDBRANCH   5   6
ENDBRANCH   1   5
BRANCH   3  21
ATOM     21  C   UNL A   1      45.255  19.764  25.322  1.00  0.00     0.117 C 
BRANCH  21  22
ATOM     22  C   UNL A   1      44.465  18.456  25.400  1.00  0.00     0.042 C 
BRANCH  22  23
ATOM     23  C   UNL A   1      43.417  18.404  26.499  1.00  0.00     0.118 C 
BRANCH  23  24
ATOM     24  N   UNL A   1      42.070  18.499  25.967  1.00  0.00    -0.352 N 
ATOM     25  C   UNL A   1      41.134  19.496  26.101  1.00  0.00     0.251 C 
ATOM     26  H   UNL A   1      41.783  17.729  25.424  1.00  0.00     0.163 HD
ATOM     27  O   UNL A   1      39.970  19.260  25.787  1.00  0.00    -0.269 OA
BRANCH  25  28
ATOM     28  C   UNL A   1      41.489  20.843  26.619  1.00  0.00     0.039 A 
ATOM     29  C   UNL A   1      41.591  21.019  28.004  1.00  0.00     0.014 A 
ATOM     30  C   UNL A   1      41.641  21.950  25.780  1.00  0.00     0.014 A 
ATOM     31  C   UNL A   1      41.877  22.282  28.536  1.00  0.00     0.010 A 
ATOM     32  C   UNL A   1      42.014  23.189  26.305  1.00  0.00     0.010 A 
ATOM     33  C   UNL A   1      42.116  23.376  27.691  1.00  0.00    -0.014 A 
BRANCH  33  34
ATOM     34  C   UNL A   1      42.438  24.721  28.243  1.00  0.00     0.031 A 
ATOM     35  C   UNL A   1      43.840  25.047  28.688  1.00  0.00     0.074 A 
ATOM     36  C   UNL A   1      41.464  25.642  28.380  1.00  0.00     0.049 A 
ATOM     37  N   UNL A   1      44.303  26.146  29.232  1.00  0.00    -0.248 NA
ATOM     38  C   UNL A   1      44.852  23.992  28.525  1.00  0.00     0.031 C 
ATOM     39  C   UNL A   1      40.057  25.443  28.029  1.00  0.00     0.029 A 
ATOM     40  N   UNL A   1      41.507  26.929  28.859  1.00  0.00    -0.354 N 
ATOM     41  C   UNL A   1      45.648  25.907  29.490  1.00  0.00     0.074 A 
ATOM     42  C   UNL A   1      45.916  24.543  29.090  1.00  0.00     0.031 C 
ATOM     43  C   UNL A   1      39.378  26.575  28.279  1.00  0.00     0.029 A 
ATOM     44  C   UNL A   1      40.289  27.564  28.845  1.00  0.00     0.049 A 
ATOM     45  H   UNL A   1      42.334  27.356  29.182  1.00  0.00     0.167 HD
ATOM     46  C   UNL A   1      46.581  26.751  29.991  1.00  0.00     0.037 A 
ATOM     47  C   UNL A   1      39.943  28.801  29.250  1.00  0.00     0.037 A 
ATOM     48  C   UNL A   1      46.322  28.118  30.364  1.00  0.00     0.049 A 
ATOM     49  C   UNL A   1      40.995  29.719  29.807  1.00  0.00     0.074 A 
ATOM     50  C   UNL A   1      47.217  29.071  30.822  1.00  0.00     0.029 A 
ATOM     51  N   UNL A   1      45.077  28.726  30.322  1.00  0.00    -0.354 N 
ATOM     52  N   UNL A   1      42.276  29.499  29.981  1.00  0.00    -0.248 NA
ATOM     53  C   UNL A   1      40.556  31.059  30.220  1.00  0.00     0.031 C 
ATOM     54  C   UNL A   1      46.505  30.240  31.104  1.00  0.00     0.029 A 
ATOM     55  C   UNL A   1      45.176  30.033  30.770  1.00  0.00     0.049 A 
ATOM     56  H   UNL A   1      44.247  28.293  30.019  1.00  0.00     0.167 HD
ATOM     57  C   UNL A   1      42.799  30.679  30.496  1.00  0.00     0.074 A 
ATOM     58  C   UNL A   1      41.700  31.616  30.592  1.00  0.00     0.031 C 
ATOM     59  C   UNL A   1      44.075  30.960  30.855  1.00  0.00     0.037 A 
BRANCH  46  60
ATOM     60  C   UNL A   1      47.976  26.221  30.167  1.00  0.00     0.057 A 
ATOM     61  C   UNL A   1      48.925  26.278  29.137  1.00  0.00     0.134 A 
ATOM     62  C   UNL A   1      48.389  25.684  31.393  1.00  0.00     0.134 A 
ATOM     63  F   UNL A   1      48.595  26.772  27.934  1.00  0.00    -0.206 F 
ATOM     64  C   UNL A   1      50.224  25.796  29.312  1.00  0.00     0.040 A 
ATOM     65  C   UNL A   1      49.694  25.226  31.589  1.00  0.00     0.040 A 
ATOM     66  F   UNL A   1      47.536  25.608  32.426  1.00  0.00    -0.206 F 
ATOM     67  C   UNL A   1      50.613  25.274  30.543  1.00  0.00     0.006 A 
ENDBRANCH  46  60
BRANCH  47  68
ATOM     68  C   UNL A   1      38.532  29.255  29.127  1.00  0.00     0.057 A 
ATOM     69  C   UNL A   1      38.025  29.715  27.906  1.00  0.00     0.134 A 
ATOM     70  C   UNL A   1      37.663  29.249  30.224  1.00  0.00     0.134 A 
ATOM     71  F   UNL A   1      38.814  29.765  26.823  1.00  0.00    -0.206 F 
ATOM     72  C   UNL A   1      36.712  30.174  27.785  1.00  0.00     0.040 A 
ATOM     73  C   UNL A   1      36.340  29.678  30.112  1.00  0.00     0.040 A 
ATOM     74  F   UNL A   1      38.085  28.815  31.421  1.00  0.00    -0.206 F 
ATOM     75  C   UNL A   1      35.863  30.150  28.890  1.00  0.00     0.006 A 
ENDBRANCH  47  68
BRANCH  59  76
ATOM     76  C   UNL A   1      44.361  32.347  31.353  1.00  0.00     0.057 A 
ATOM     77  C   UNL A   1      44.582  33.418  30.477  1.00  0.00     0.134 A 
ATOM     78  C   UNL A   1      44.378  32.621  32.727  1.00  0.00     0.134 A 
ATOM     79  F   UNL A   1      44.592  33.221  29.150  1.00  0.00    -0.206 F 
ATOM     80  C   UNL A   1      44.832  34.707  30.951  1.00  0.00     0.040 A 
ATOM     81  C   UNL A   1      44.599  33.911  33.211  1.00  0.00     0.040 A 
ATOM     82  F   UNL A   1      44.165  31.643  33.620  1.00  0.00    -0.206 F 
ATOM     83  C   UNL A   1      44.833  34.958  32.322  1.00  0.00     0.006 A 
ENDBRANCH  59  76
ENDBRANCH  33  34
ENDBRANCH  25  28
ENDBRANCH  23  24
ENDBRANCH  22  23
ENDBRANCH  21  22
ENDBRANCH   3  21
TORSDOF 15
ENDMDL
MODEL 2
REMARK VINA RESULT:      -9.5      0.376      6.425
REMARK SMILES CC[C@@H](C)CNC(=O)N1CCO[C@@H](CC(=O)NCCCNC(=O)c2ccc(-c3c4nc(c(-c5c(F)cccc5F)c5ccc([nH]5)c(-c5c(F)cccc5F)c5nc(c(-c6c(F)cccc6F)c6ccc3[nH]6)C=C5)C=C4)cc2)C1
REMARK SMILES IDX 15 1 16 2 17 3 14 5 13 6 9 7 10 8 78 9 11 10 12 11 7 12 6 13
REMARK SMILES IDX 8 15 5 16 3 17 4 18 2 19 1 20 18 21 19 22 20 23 21 24 22 25
REMARK SMILES IDX 23 27 24 28 25 29 77 30 26 31 76 32 27 33 28 34 29 35 70 36
REMARK SMILES IDX 30 37 75 38 69 39 71 40 31 41 74 42 68 43 67 44 32 46 58 47
REMARK SMILES IDX 41 48 57 49 42 50 45 51 56 52 72 53 43 54 44 55 55 57 73 58
REMARK SMILES IDX 46 59 33 60 34 61 39 62 35 63 36 64 38 65 40 66 37 67 59 68
REMARK SMILES IDX 60 69 65 70 61 71 62 72 64 73 66 74 63 75 47 76 48 77 53 78
REMARK SMILES IDX 49 79 50 80 52 81 54 82 51 83
REMARK H PARENT 17 4 6 14 21 26 71 45 45 56
REMARK Flexibility Score: inf
ROOT
ATOM      1  C   UNL A   1      44.929  21.931  24.006  1.00  0.00     0.222 C 
ATOM      2  O   UNL A   1      44.380  22.487  23.054  1.00  0.00    -0.275 OA
ATOM      3  N   UNL A   1      44.711  20.595  24.180  1.00  0.00    -0.356 N 
ATOM      4  H   UNL A   1      44.162  20.179  23.476  1.00  0.00     0.163 HD
ENDROOT
BRANCH   1   5
ATOM      5  C   UNL A   1      45.793  22.719  24.966  1.00  0.00     0.133 C 
BRANCH   5   6
ATOM      6  C   UNL A   1      45.915  24.197  24.578  1.00  0.00     0.147 C 
ATOM      7  N   UNL A   1      45.024  26.453  25.191  1.00  0.00    -0.320 N 
ATOM      8  C   UNL A   1      46.367  26.840  25.612  1.00  0.00     0.150 C 
ATOM      9  C   UNL A   1      44.811  25.021  25.248  1.00  0.00     0.154 C 
ATOM     10  C   UNL A   1      47.395  26.060  24.793  1.00  0.00     0.182 C 
ATOM     11  O   UNL A   1      47.225  24.646  24.998  1.00  0.00    -0.374 OA
BRANCH   7  12
ATOM     12  C   UNL A   1      43.930  27.259  25.372  1.00  0.00     0.317 C 
ATOM     13  N   UNL A   1      44.083  28.401  26.086  1.00  0.00    -0.338 N 
ATOM     14  H   UNL A   1      43.255  28.800  26.439  1.00  0.00     0.165 HD
ATOM     15  O   UNL A   1      42.840  27.032  24.850  1.00  0.00    -0.249 OA
BRANCH  13  16
ATOM     16  C   UNL A   1      45.308  29.110  26.397  1.00  0.00     0.121 C 
BRANCH  16  17
ATOM     17  C   UNL A   1      45.076  30.321  27.320  1.00  0.00     0.005 C 
ATOM     18  C   UNL A   1      43.870  31.109  26.799  1.00  0.00     0.009 C 
BRANCH  17  19
ATOM     19  C   UNL A   1      46.355  31.177  27.405  1.00  0.00     0.002 C 
ATOM     20  C   UNL A   1      47.645  30.410  27.145  1.00  0.00     0.004 C 
ENDBRANCH  17  19
ENDBRANCH  16  17
ENDBRANCH  13  16
ENDBRANCH   7  12
ENDBRANCH   5   6
ENDBRANCH   1   5
BRANCH   3  21
ATOM     21  C   UNL A   1      45.147  19.674  25.226  1.00  0.00     0.117 C 
BRANCH  21  22
ATOM     22  C   UNL A   1      44.288  18.409  25.281  1.00  0.00     0.042 C 
BRANCH  22  23
ATOM     23  C   UNL A   1      43.261  18.379  26.402  1.00  0.00     0.118 C 
BRANCH  23  24
ATOM     24  N   UNL A   1      41.909  18.539  25.899  1.00  0.00    -0.352 N 
ATOM     25  C   UNL A   1      41.016  19.570  26.074  1.00  0.00     0.251 C 
ATOM     26  H   UNL A   1      41.580  17.793  25.347  1.00  0.00     0.163 HD
ATOM     27  O   UNL A   1      39.837  19.387  25.779  1.00  0.00    -0.269 OA
BRANCH  25  28
ATOM     28  C   UNL A   1      41.434  20.890  26.613  1.00  0.00     0.039 A 
ATOM     29  C   UNL A   1      41.393  21.088  27.998  1.00  0.00     0.014 A 
ATOM     30  C   UNL A   1      41.786  21.958  25.784  1.00  0.00     0.014 A 
ATOM     31  C   UNL A   1      41.733  22.330  28.545  1.00  0.00     0.010 A 
ATOM     32  C   UNL A   1      42.211  23.170  26.334  1.00  0.00     0.010 A 
ATOM     33  C   UNL A   1      42.170  23.378  27.720  1.00  0.00    -0.014 A 
BRANCH  33  34
ATOM     34  C   UNL A   1      42.551  24.700  28.289  1.00  0.00     0.031 A 
ATOM     35  C   UNL A   1      41.515  25.779  28.473  1.00  0.00     0.074 A 
ATOM     36  C   UNL A   1      43.837  24.950  28.608  1.00  0.00     0.049 A 
ATOM     37  N   UNL A   1      41.664  27.005  28.911  1.00  0.00    -0.248 NA
ATOM     38  C   UNL A   1      40.134  25.447  28.091  1.00  0.00     0.031 C 
ATOM     39  C   UNL A   1      44.946  24.010  28.440  1.00  0.00     0.029 A 
ATOM     40  N   UNL A   1      44.430  26.072  29.132  1.00  0.00    -0.354 N 
ATOM     41  C   UNL A   1      40.405  27.591  28.840  1.00  0.00     0.074 A 
ATOM     42  C   UNL A   1      39.514  26.604  28.270  1.00  0.00     0.031 C 
ATOM     43  C   UNL A   1      46.078  24.584  28.879  1.00  0.00     0.029 A 
ATOM     44  C   UNL A   1      45.784  25.944  29.320  1.00  0.00     0.049 A 
ATOM     45  H   UNL A   1      43.930  26.891  29.354  1.00  0.00     0.167 HD
ATOM     46  C   UNL A   1      40.019  28.827  29.235  1.00  0.00     0.037 A 
ATOM     47  C   UNL A   1      46.690  26.826  29.786  1.00  0.00     0.037 A 
ATOM     48  C   UNL A   1      40.898  29.802  29.829  1.00  0.00     0.049 A 
ATOM     49  C   UNL A   1      46.238  28.194  30.213  1.00  0.00     0.074 A 
ATOM     50  C   UNL A   1      40.587  31.059  30.319  1.00  0.00     0.029 A 
ATOM     51  N   UNL A   1      42.261  29.628  30.011  1.00  0.00    -0.354 N 
ATOM     52  N   UNL A   1      45.032  28.708  30.202  1.00  0.00    -0.248 NA
ATOM     53  C   UNL A   1      47.273  29.105  30.723  1.00  0.00     0.031 C 
ATOM     54  C   UNL A   1      41.769  31.665  30.752  1.00  0.00     0.029 A 
ATOM     55  C   UNL A   1      42.809  30.764  30.583  1.00  0.00     0.049 A 
ATOM     56  H   UNL A   1      42.765  28.817  29.770  1.00  0.00     0.167 HD
ATOM     57  C   UNL A   1      45.157  29.988  30.728  1.00  0.00     0.074 A 
ATOM     58  C   UNL A   1      46.555  30.167  31.062  1.00  0.00     0.031 C 
ATOM     59  C   UNL A   1      44.201  30.928  30.917  1.00  0.00     0.037 A 
BRANCH  46  60
ATOM     60  C   UNL A   1      38.577  29.202  29.039  1.00  0.00     0.057 A 
ATOM     61  C   UNL A   1      37.651  29.158  30.090  1.00  0.00     0.134 A 
ATOM     62  C   UNL A   1      38.116  29.650  27.794  1.00  0.00     0.134 A 
ATOM     63  F   UNL A   1      38.022  28.730  31.307  1.00  0.00    -0.206 F 
ATOM     64  C   UNL A   1      36.315  29.521  29.904  1.00  0.00     0.040 A 
ATOM     65  C   UNL A   1      36.789  30.043  27.603  1.00  0.00     0.040 A 
ATOM     66  F   UNL A   1      38.950  29.727  26.746  1.00  0.00    -0.206 F 
ATOM     67  C   UNL A   1      35.883  29.971  28.659  1.00  0.00     0.006 A 
ENDBRANCH  46  60
BRANCH  47  68
ATOM     68  C   UNL A   1      48.121  26.435  29.890  1.00  0.00     0.057 A 
ATOM     69  C   UNL A   1      48.607  25.767  31.019  1.00  0.00     0.134 A 
ATOM     70  C   UNL A   1      49.036  26.728  28.872  1.00  0.00     0.134 A 
ATOM     71  F   UNL A   1      47.784  25.476  32.038  1.00  0.00    -0.206 F 
ATOM     72  C   UNL A   1      49.954  25.422  31.143  1.00  0.00     0.040 A 
ATOM     73  C   UNL A   1      50.380  26.365  28.969  1.00  0.00     0.040 A 
ATOM     74  F   UNL A   1      48.633  27.362  27.760  1.00  0.00    -0.206 F 
ATOM     75  C   UNL A   1      50.844  25.717  30.112  1.00  0.00     0.006 A 
ENDBRANCH  47  68
BRANCH  59  76
ATOM     76  C   UNL A   1      44.624  32.225  31.546  1.00  0.00     0.057 A 
ATOM     77  C   UNL A   1      44.728  32.377  32.935  1.00  0.00     0.134 A 
ATOM     78  C   UNL A   1      44.969  33.324  30.748  1.00  0.00     0.134 A 
ATOM     79  F   UNL A   1      44.401  31.367  33.755  1.00  0.00    -0.206 F 
ATOM     80  C   UNL A   1      45.138  33.582  33.507  1.00  0.00     0.040 A 
ATOM     81  C   UNL A   1      45.407  34.524  31.309  1.00  0.00     0.040 A 
ATOM     82  F   UNL A   1      44.901  33.243  29.411  1.00  0.00    -0.206 F 
ATOM     83  C   UNL A   1      45.486  34.658  32.693  1.00  0.00     0.006 A 
ENDBRANCH  59  76
ENDBRANCH  33  34
ENDBRANCH  25  28
ENDBRANCH  23  24
ENDBRANCH  22  23
ENDBRANCH  21  22
ENDBRANCH   3  21
TORSDOF 15
ENDMDL
MODEL 3
REMARK VINA RESULT:      -9.3      5.012     10.511
REMARK SMILES CC[C@@H](C)CNC(=O)N1CCO[C@@H](CC(=O)NCCCNC(=O)c2ccc(-c3c4nc(c(-c5c(F)cccc5F)c5ccc([nH]5)c(-c5c(F)cccc5F)c5nc(c(-c6c(F)cccc6F)c6ccc3[nH]6)C=C5)C=C4)cc2)C1
REMARK SMILES IDX 15 1 16 2 17 3 14 5 13 6 9 7 10 8 78 9 11 10 12 11 7 12 6 13
REMARK SMILES IDX 8 15 5 16 3 17 4 18 2 19 1 20 18 21 19 22 20 23 21 24 22 25
REMARK SMILES IDX 23 27 24 28 25 29 77 30 26 31 76 32 27 33 28 34 29 35 70 36
REMARK SMILES IDX 30 37 75 38 69 39 71 40 31 41 74 42 68 43 67 44 32 46 58 47
REMARK SMILES IDX 41 48 57 49 42 50 45 51 56 52 72 53 43 54 44 55 55 57 73 58
REMARK SMILES IDX 46 59 33 60 34 61 39 62 35 63 36 64 38 65 40 66 37 67 59 68
REMARK SMILES IDX 60 69 65 70 61 71 62 72 64 73 66 74 63 75 47 76 48 77 53 78
REMARK SMILES IDX 49 79 50 80 52 81 54 82 51 83
REMARK H PARENT 17 4 6 14 21 26 71 45 45 56
REMARK Flexibility Score: inf
ROOT
ATOM      1  C   UNL A   1      33.516  26.132  22.635  1.00  0.00     0.222 C 
ATOM      2  O   UNL A   1      33.643  25.863  21.439  1.00  0.00    -0.275 OA
ATOM      3  N   UNL A   1      32.836  27.268  22.966  1.00  0.00    -0.356 N 
ATOM      4  H   UNL A   1      32.455  27.751  22.197  1.00  0.00     0.163 HD
ENDROOT
BRANCH   1   5
ATOM      5  C   UNL A   1      34.123  25.240  23.695  1.00  0.00     0.133 C 
BRANCH   5   6
ATOM      6  C   UNL A   1      33.281  23.990  23.973  1.00  0.00     0.147 C 
ATOM      7  N   UNL A   1      32.928  22.225  25.712  1.00  0.00    -0.320 N 
ATOM      8  C   UNL A   1      31.570  22.726  25.906  1.00  0.00     0.150 C 
ATOM      9  C   UNL A   1      33.827  23.235  25.190  1.00  0.00     0.154 C 
ATOM     10  C   UNL A   1      31.069  23.340  24.599  1.00  0.00     0.182 C 
ATOM     11  O   UNL A   1      31.921  24.429  24.202  1.00  0.00    -0.374 OA
BRANCH   7  12
ATOM     12  C   UNL A   1      33.474  21.242  26.495  1.00  0.00     0.317 C 
ATOM     13  N   UNL A   1      33.545  19.985  25.995  1.00  0.00    -0.338 N 
ATOM     14  H   UNL A   1      33.666  19.266  26.656  1.00  0.00     0.165 HD
ATOM     15  O   UNL A   1      33.973  21.467  27.597  1.00  0.00    -0.249 OA
BRANCH  13  16
ATOM     16  C   UNL A   1      33.465  19.563  24.610  1.00  0.00     0.121 C 
BRANCH  16  17
ATOM     17  C   UNL A   1      32.591  18.308  24.421  1.00  0.00     0.005 C 
ATOM     18  C   UNL A   1      32.773  17.398  25.639  1.00  0.00     0.009 C 
BRANCH  17  19
ATOM     19  C   UNL A   1      32.947  17.608  23.095  1.00  0.00     0.002 C 
ATOM     20  C   UNL A   1      34.069  16.584  23.204  1.00  0.00     0.004 C 
ENDBRANCH  17  19
ENDBRANCH  16  17
ENDBRANCH  13  16
ENDBRANCH   7  12
ENDBRANCH   5   6
ENDBRANCH   1   5
BRANCH   3  21
ATOM     21  C   UNL A   1      32.576  27.895  24.259  1.00  0.00     0.117 C 
BRANCH  21  22
ATOM     22  C   UNL A   1      33.725  28.801  24.707  1.00  0.00     0.042 C 
BRANCH  22  23
ATOM     23  C   UNL A   1      33.901  28.916  26.213  1.00  0.00     0.118 C 
BRANCH  23  24
ATOM     24  N   UNL A   1      33.780  30.288  26.668  1.00  0.00    -0.352 N 
ATOM     25  C   UNL A   1      34.479  30.962  27.641  1.00  0.00     0.251 C 
ATOM     26  H   UNL A   1      33.090  30.819  26.208  1.00  0.00     0.163 HD
ATOM     27  O   UNL A   1      34.043  32.038  28.044  1.00  0.00    -0.269 OA
BRANCH  25  28
ATOM     28  C   UNL A   1      35.738  30.425  28.220  1.00  0.00     0.039 A 
ATOM     29  C   UNL A   1      36.927  30.590  27.500  1.00  0.00     0.014 A 
ATOM     30  C   UNL A   1      35.760  29.694  29.410  1.00  0.00     0.014 A 
ATOM     31  C   UNL A   1      38.127  30.059  27.986  1.00  0.00     0.010 A 
ATOM     32  C   UNL A   1      36.971  29.241  29.939  1.00  0.00     0.010 A 
ATOM     33  C   UNL A   1      38.167  29.400  29.224  1.00  0.00    -0.014 A 
BRANCH  33  34
ATOM     34  C   UNL A   1      39.439  28.845  29.761  1.00  0.00     0.031 A 
ATOM     35  C   UNL A   1      40.075  29.446  30.989  1.00  0.00     0.074 A 
ATOM     36  C   UNL A   1      40.048  27.822  29.129  1.00  0.00     0.049 A 
ATOM     37  N   UNL A   1      41.201  29.127  31.579  1.00  0.00    -0.248 NA
ATOM     38  C   UNL A   1      39.367  30.569  31.622  1.00  0.00     0.031 C 
ATOM     39  C   UNL A   1      39.563  27.176  27.908  1.00  0.00     0.029 A 
ATOM     40  N   UNL A   1      41.210  27.151  29.420  1.00  0.00    -0.354 N 
ATOM     41  C   UNL A   1      41.342  30.019  32.637  1.00  0.00     0.074 A 
ATOM     42  C   UNL A   1      40.214  30.923  32.577  1.00  0.00     0.031 C 
ATOM     43  C   UNL A   1      40.406  26.186  27.572  1.00  0.00     0.029 A 
ATOM     44  C   UNL A   1      41.510  26.153  28.525  1.00  0.00     0.049 A 
ATOM     45  H   UNL A   1      41.775  27.366  30.197  1.00  0.00     0.167 HD
ATOM     46  C   UNL A   1      42.308  30.068  33.585  1.00  0.00     0.037 A 
ATOM     47  C   UNL A   1      42.560  25.310  28.473  1.00  0.00     0.037 A 
ATOM     48  C   UNL A   1      43.417  29.151  33.662  1.00  0.00     0.049 A 
ATOM     49  C   UNL A   1      43.622  25.387  29.535  1.00  0.00     0.074 A 
ATOM     50  C   UNL A   1      44.412  29.081  34.622  1.00  0.00     0.029 A 
ATOM     51  N   UNL A   1      43.677  28.147  32.743  1.00  0.00    -0.354 N 
ATOM     52  N   UNL A   1      43.705  26.192  30.566  1.00  0.00    -0.248 NA
ATOM     53  C   UNL A   1      44.736  24.434  29.428  1.00  0.00     0.031 C 
ATOM     54  C   UNL A   1      45.302  28.067  34.257  1.00  0.00     0.029 A 
ATOM     55  C   UNL A   1      44.831  27.468  33.100  1.00  0.00     0.049 A 
ATOM     56  H   UNL A   1      43.124  27.946  31.954  1.00  0.00     0.167 HD
ATOM     57  C   UNL A   1      44.860  25.825  31.245  1.00  0.00     0.074 A 
ATOM     58  C   UNL A   1      45.437  24.715  30.517  1.00  0.00     0.031 C 
ATOM     59  C   UNL A   1      45.393  26.360  32.370  1.00  0.00     0.037 A 
BRANCH  46  60
ATOM     60  C   UNL A   1      42.211  31.150  34.623  1.00  0.00     0.057 A 
ATOM     61  C   UNL A   1      41.471  30.982  35.801  1.00  0.00     0.134 A 
ATOM     62  C   UNL A   1      42.898  32.360  34.461  1.00  0.00     0.134 A 
ATOM     63  F   UNL A   1      40.781  29.852  36.016  1.00  0.00    -0.206 F 
ATOM     64  C   UNL A   1      41.397  31.988  36.767  1.00  0.00     0.040 A 
ATOM     65  C   UNL A   1      42.854  33.362  35.434  1.00  0.00     0.040 A 
ATOM     66  F   UNL A   1      43.634  32.585  33.362  1.00  0.00    -0.206 F 
ATOM     67  C   UNL A   1      42.095  33.180  36.587  1.00  0.00     0.006 A 
ENDBRANCH  46  60
BRANCH  47  68
ATOM     68  C   UNL A   1      42.652  24.305  27.382  1.00  0.00     0.057 A 
ATOM     69  C   UNL A   1      43.209  24.635  26.141  1.00  0.00     0.134 A 
ATOM     70  C   UNL A   1      42.180  22.998  27.549  1.00  0.00     0.134 A 
ATOM     71  F   UNL A   1      43.660  25.877  25.912  1.00  0.00    -0.206 F 
ATOM     72  C   UNL A   1      43.273  23.709  25.098  1.00  0.00     0.040 A 
ATOM     73  C   UNL A   1      42.263  22.054  26.525  1.00  0.00     0.040 A 
ATOM     74  F   UNL A   1      41.640  22.616  28.716  1.00  0.00    -0.206 F 
ATOM     75  C   UNL A   1      42.804  22.412  25.291  1.00  0.00     0.006 A 
ENDBRANCH  47  68
BRANCH  59  76
ATOM     76  C   UNL A   1      46.646  25.730  32.906  1.00  0.00     0.057 A 
ATOM     77  C   UNL A   1      46.610  24.679  33.832  1.00  0.00     0.134 A 
ATOM     78  C   UNL A   1      47.904  26.155  32.459  1.00  0.00     0.134 A 
ATOM     79  F   UNL A   1      45.439  24.234  34.310  1.00  0.00    -0.206 F 
ATOM     80  C   UNL A   1      47.781  24.091  34.311  1.00  0.00     0.040 A 
ATOM     81  C   UNL A   1      49.080  25.554  32.910  1.00  0.00     0.040 A 
ATOM     82  F   UNL A   1      48.009  27.149  31.565  1.00  0.00    -0.206 F 
ATOM     83  C   UNL A   1      49.021  24.524  33.844  1.00  0.00     0.006 A 
ENDBRANCH  59  76
ENDBRANCH  33  34
ENDBRANCH  25  28
ENDBRANCH  23  24
ENDBRANCH  22  23
ENDBRANCH  21  22
ENDBRANCH   3  21
TORSDOF 15
ENDMDL
