MODEL 1
REMARK VINA RESULT:     -11.6      0.000      0.000
REMARK SMILES CC(C)(C)OC(=O)N1C[C@@H](Oc2cccnc2)C[C@H]1C(=O)NCCCNC(=O)c1ccc(-c2c3nc(c(-c4c(F)cccc4F)c4ccc([nH]4)c(-c4c(F)cccc4F)c4nc(c(-c5c(F)cccc5F)c5ccc2[nH]5)C=C4)C=C3)cc1
REMARK SMILES IDX 23 1 22 2 20 3 21 4 19 6 8 7 9 8 10 9 18 10 6 11 7 12 5 13
REMARK SMILES IDX 2 14 1 15 3 16 4 17 11 18 12 19 13 20 17 21 14 22 16 23
REMARK SMILES IDX 15 24 24 25 25 26 26 27 27 28 28 30 29 31 30 32 82 33 31 34
REMARK SMILES IDX 81 35 32 36 33 37 34 38 75 39 35 40 80 41 74 42 76 43 36 44
REMARK SMILES IDX 79 45 73 46 72 47 37 49 63 50 46 51 62 52 47 53 50 54 61 55
REMARK SMILES IDX 77 56 48 57 49 58 60 60 78 61 51 62 38 63 39 64 44 65 40 66
REMARK SMILES IDX 41 67 43 68 45 69 42 70 64 71 65 72 70 73 66 74 67 75 69 76
REMARK SMILES IDX 71 77 68 78 52 79 53 80 58 81 54 82 55 83 57 84 59 85 56 86
REMARK H PARENT 22 5 26 29 76 48 50 59
REMARK Flexibility Score: inf
ROOT
ATOM      1  C   UNL A   1      31.628  30.534  26.854  1.00  0.00     0.117 C 
ENDROOT
BRANCH   1   2
ATOM      2  N   UNL A   1      32.575  30.066  25.861  1.00  0.00    -0.354 N 
ATOM      3  C   UNL A   1      32.398  29.183  24.836  1.00  0.00     0.243 C 
ATOM      4  O   UNL A   1      33.364  28.944  24.106  1.00  0.00    -0.273 OA
ATOM      5  H   UNL A   1      33.482  30.443  25.937  1.00  0.00     0.163 HD
BRANCH   3   6
ATOM      6  C   UNL A   1      31.050  28.459  24.682  1.00  0.00     0.181 C 
ATOM      7  N   UNL A   1      30.702  28.297  23.282  1.00  0.00    -0.292 N 
ATOM      8  C   UNL A   1      30.746  26.915  22.849  1.00  0.00     0.169 C 
ATOM      9  C   UNL A   1      30.671  26.119  24.149  1.00  0.00     0.195 C 
ATOM     10  C   UNL A   1      31.130  27.053  25.278  1.00  0.00     0.082 C 
BRANCH   7  11
ATOM     11  C   UNL A   1      30.292  29.388  22.560  1.00  0.00     0.411 C 
ATOM     12  O   UNL A   1      30.740  29.637  21.447  1.00  0.00    -0.224 OA
BRANCH  11  13
ATOM     13  O   UNL A   1      29.429  30.169  23.248  1.00  0.00    -0.444 OA
BRANCH  13  14
ATOM     14  C   UNL A   1      28.062  30.366  22.791  1.00  0.00     0.106 C 
ATOM     15  C   UNL A   1      27.485  31.432  23.734  1.00  0.00     0.056 C 
ATOM     16  C   UNL A   1      27.297  29.054  22.967  1.00  0.00     0.056 C 
ATOM     17  C   UNL A   1      27.933  30.897  21.354  1.00  0.00     0.056 C 
ENDBRANCH  13  14
ENDBRANCH  11  13
ENDBRANCH   7  11
BRANCH   9  18
ATOM     18  O   UNL A   1      31.239  24.814  24.129  1.00  0.00    -0.487 OA
BRANCH  18  19
ATOM     19  C   UNL A   1      31.772  24.214  25.226  1.00  0.00     0.138 A 
ATOM     20  C   UNL A   1      33.114  24.010  25.515  1.00  0.00     0.050 A 
ATOM     21  C   UNL A   1      30.853  23.749  26.164  1.00  0.00     0.157 A 
ATOM     22  C   UNL A   1      33.485  23.396  26.713  1.00  0.00     0.024 A 
ATOM     23  N   UNL A   1      31.175  23.143  27.334  1.00  0.00    -0.261 NA
ATOM     24  C   UNL A   1      32.490  22.984  27.583  1.00  0.00     0.111 A 
ENDBRANCH  18  19
ENDBRANCH   9  18
ENDBRANCH   3   6
ENDBRANCH   1   2
BRANCH   1  25
ATOM     25  C   UNL A   1      31.456  32.047  26.809  1.00  0.00     0.042 C 
BRANCH  25  26
ATOM     26  C   UNL A   1      32.761  32.823  26.961  1.00  0.00     0.118 C 
BRANCH  26  27
ATOM     27  N   UNL A   1      32.573  34.129  27.576  1.00  0.00    -0.352 N 
ATOM     28  C   UNL A   1      33.187  34.693  28.667  1.00  0.00     0.251 C 
ATOM     29  H   UNL A   1      31.897  34.698  27.143  1.00  0.00     0.163 HD
ATOM     30  O   UNL A   1      32.759  35.749  29.125  1.00  0.00    -0.269 OA
BRANCH  28  31
ATOM     31  C   UNL A   1      34.343  34.030  29.309  1.00  0.00     0.039 A 
ATOM     32  C   UNL A   1      34.101  33.037  30.263  1.00  0.00     0.014 A 
ATOM     33  C   UNL A   1      35.655  34.397  29.000  1.00  0.00     0.014 A 
ATOM     34  C   UNL A   1      35.172  32.364  30.853  1.00  0.00     0.010 A 
ATOM     35  C   UNL A   1      36.720  33.676  29.532  1.00  0.00     0.010 A 
ATOM     36  C   UNL A   1      36.490  32.653  30.465  1.00  0.00    -0.014 A 
BRANCH  36  37
ATOM     37  C   UNL A   1      37.641  31.894  31.016  1.00  0.00     0.031 A 
ATOM     38  C   UNL A   1      38.182  32.225  32.379  1.00  0.00     0.074 A 
ATOM     39  C   UNL A   1      38.244  30.958  30.259  1.00  0.00     0.049 A 
ATOM     40  N   UNL A   1      39.232  31.740  32.990  1.00  0.00    -0.248 NA
ATOM     41  C   UNL A   1      37.465  33.256  33.144  1.00  0.00     0.031 C 
ATOM     42  C   UNL A   1      37.845  30.576  28.903  1.00  0.00     0.029 A 
ATOM     43  N   UNL A   1      39.334  30.166  30.520  1.00  0.00    -0.354 N 
ATOM     44  C   UNL A   1      39.314  32.420  34.199  1.00  0.00     0.074 A 
ATOM     45  C   UNL A   1      38.232  33.380  34.216  1.00  0.00     0.031 C 
ATOM     46  C   UNL A   1      38.665  29.610  28.459  1.00  0.00     0.029 A 
ATOM     47  C   UNL A   1      39.669  29.331  29.481  1.00  0.00     0.049 A 
ATOM     48  H   UNL A   1      39.829  30.193  31.370  1.00  0.00     0.167 HD
ATOM     49  C   UNL A   1      40.196  32.245  35.210  1.00  0.00     0.037 A 
ATOM     50  C   UNL A   1      40.677  28.447  29.362  1.00  0.00     0.037 A 
ATOM     51  C   UNL A   1      41.251  31.265  35.208  1.00  0.00     0.049 A 
ATOM     52  C   UNL A   1      41.638  28.265  30.503  1.00  0.00     0.074 A 
ATOM     53  C   UNL A   1      42.155  30.969  36.214  1.00  0.00     0.029 A 
ATOM     54  N   UNL A   1      41.540  30.421  34.148  1.00  0.00    -0.354 N 
ATOM     55  N   UNL A   1      41.666  28.874  31.663  1.00  0.00    -0.248 NA
ATOM     56  C   UNL A   1      42.704  27.271  30.319  1.00  0.00     0.031 C 
ATOM     57  C   UNL A   1      43.014  29.967  35.748  1.00  0.00     0.029 A 
ATOM     58  C   UNL A   1      42.620  29.614  34.468  1.00  0.00     0.049 A 
ATOM     59  H   UNL A   1      41.052  30.398  33.293  1.00  0.00     0.167 HD
ATOM     60  C   UNL A   1      42.733  28.320  32.356  1.00  0.00     0.074 A 
ATOM     61  C   UNL A   1      43.321  27.318  31.491  1.00  0.00     0.031 C 
ATOM     62  C   UNL A   1      43.186  28.615  33.599  1.00  0.00     0.037 A 
BRANCH  49  63
ATOM     63  C   UNL A   1      40.053  33.132  36.412  1.00  0.00     0.057 A 
ATOM     64  C   UNL A   1      40.808  34.302  36.560  1.00  0.00     0.134 A 
ATOM     65  C   UNL A   1      39.125  32.829  37.417  1.00  0.00     0.134 A 
ATOM     66  F   UNL A   1      41.723  34.641  35.638  1.00  0.00    -0.206 F 
ATOM     67  C   UNL A   1      40.665  35.127  37.676  1.00  0.00     0.040 A 
ATOM     68  C   UNL A   1      38.956  33.660  38.526  1.00  0.00     0.040 A 
ATOM     69  F   UNL A   1      38.366  31.727  37.334  1.00  0.00    -0.206 F 
ATOM     70  C   UNL A   1      39.732  34.810  38.660  1.00  0.00     0.006 A 
ENDBRANCH  49  63
BRANCH  50  71
ATOM     71  C   UNL A   1      40.817  27.646  28.121  1.00  0.00     0.057 A 
ATOM     72  C   UNL A   1      41.564  28.121  27.039  1.00  0.00     0.134 A 
ATOM     73  C   UNL A   1      40.208  26.393  27.986  1.00  0.00     0.134 A 
ATOM     74  F   UNL A   1      42.155  29.324  27.103  1.00  0.00    -0.206 F 
ATOM     75  C   UNL A   1      41.688  27.389  25.857  1.00  0.00     0.040 A 
ATOM     76  C   UNL A   1      40.341  25.638  26.820  1.00  0.00     0.040 A 
ATOM     77  F   UNL A   1      39.485  25.879  28.993  1.00  0.00    -0.206 F 
ATOM     78  C   UNL A   1      41.078  26.140  25.749  1.00  0.00     0.006 A 
ENDBRANCH  50  71
BRANCH  62  79
ATOM     79  C   UNL A   1      44.352  27.822  34.109  1.00  0.00     0.057 A 
ATOM     80  C   UNL A   1      44.181  26.593  34.757  1.00  0.00     0.134 A 
ATOM     81  C   UNL A   1      45.662  28.278  33.916  1.00  0.00     0.134 A 
ATOM     82  F   UNL A   1      42.951  26.109  34.985  1.00  0.00    -0.206 F 
ATOM     83  C   UNL A   1      45.273  25.853  35.212  1.00  0.00     0.040 A 
ATOM     84  C   UNL A   1      46.762  27.537  34.345  1.00  0.00     0.040 A 
ATOM     85  F   UNL A   1      45.893  29.445  33.295  1.00  0.00    -0.206 F 
ATOM     86  C   UNL A   1      46.570  26.322  35.001  1.00  0.00     0.006 A 
ENDBRANCH  62  79
ENDBRANCH  36  37
ENDBRANCH  28  31
ENDBRANCH  26  27
ENDBRANCH  25  26
ENDBRANCH   1  25
TORSDOF 15
ENDMDL
MODEL 2
REMARK VINA RESULT:     -11.5      5.392      9.940
REMARK SMILES CC(C)(C)OC(=O)N1C[C@@H](Oc2cccnc2)C[C@H]1C(=O)NCCCNC(=O)c1ccc(-c2c3nc(c(-c4c(F)cccc4F)c4ccc([nH]4)c(-c4c(F)cccc4F)c4nc(c(-c5c(F)cccc5F)c5ccc2[nH]5)C=C4)C=C3)cc1
REMARK SMILES IDX 23 1 22 2 20 3 21 4 19 6 8 7 9 8 10 9 18 10 6 11 7 12 5 13
REMARK SMILES IDX 2 14 1 15 3 16 4 17 11 18 12 19 13 20 17 21 14 22 16 23
REMARK SMILES IDX 15 24 24 25 25 26 26 27 27 28 28 30 29 31 30 32 82 33 31 34
REMARK SMILES IDX 81 35 32 36 33 37 34 38 75 39 35 40 80 41 74 42 76 43 36 44
REMARK SMILES IDX 79 45 73 46 72 47 37 49 63 50 46 51 62 52 47 53 50 54 61 55
REMARK SMILES IDX 77 56 48 57 49 58 60 60 78 61 51 62 38 63 39 64 44 65 40 66
REMARK SMILES IDX 41 67 43 68 45 69 42 70 64 71 65 72 70 73 66 74 67 75 69 76
REMARK SMILES IDX 71 77 68 78 52 79 53 80 58 81 54 82 55 83 57 84 59 85 56 86
REMARK H PARENT 22 5 26 29 76 48 50 59
REMARK Flexibility Score: inf
ROOT
ATOM      1  C   UNL A   1      37.435  21.205  24.727  1.00  0.00     0.117 C 
ENDROOT
BRANCH   1   2
ATOM      2  N   UNL A   1      36.540  21.459  25.840  1.00  0.00    -0.354 N 
ATOM      3  C   UNL A   1      35.177  21.426  25.886  1.00  0.00     0.243 C 
ATOM      4  O   UNL A   1      34.629  21.673  26.964  1.00  0.00    -0.273 OA
ATOM      5  H   UNL A   1      36.982  21.687  26.689  1.00  0.00     0.163 HD
BRANCH   3   6
ATOM      6  C   UNL A   1      34.379  21.177  24.595  1.00  0.00     0.181 C 
ATOM      7  N   UNL A   1      33.109  20.534  24.883  1.00  0.00    -0.292 N 
ATOM      8  C   UNL A   1      31.974  21.400  24.636  1.00  0.00     0.169 C 
ATOM      9  C   UNL A   1      32.528  22.482  23.714  1.00  0.00     0.195 C 
ATOM     10  C   UNL A   1      34.051  22.502  23.907  1.00  0.00     0.082 C 
BRANCH   7  11
ATOM     11  C   UNL A   1      33.090  19.213  25.248  1.00  0.00     0.411 C 
ATOM     12  O   UNL A   1      32.467  18.817  26.226  1.00  0.00    -0.224 OA
BRANCH  11  13
ATOM     13  O   UNL A   1      33.891  18.450  24.469  1.00  0.00    -0.444 OA
BRANCH  13  14
ATOM     14  C   UNL A   1      33.361  17.324  23.717  1.00  0.00     0.106 C 
ATOM     15  C   UNL A   1      34.565  16.766  22.946  1.00  0.00     0.056 C 
ATOM     16  C   UNL A   1      32.315  17.846  22.732  1.00  0.00     0.056 C 
ATOM     17  C   UNL A   1      32.792  16.184  24.579  1.00  0.00     0.056 C 
ENDBRANCH  13  14
ENDBRANCH  11  13
ENDBRANCH   7  11
BRANCH   9  18
ATOM     18  O   UNL A   1      31.864  23.741  23.739  1.00  0.00    -0.487 OA
BRANCH  18  19
ATOM     19  C   UNL A   1      32.447  24.901  23.335  1.00  0.00     0.138 A 
ATOM     20  C   UNL A   1      32.791  25.995  24.117  1.00  0.00     0.050 A 
ATOM     21  C   UNL A   1      32.722  24.994  21.974  1.00  0.00     0.157 A 
ATOM     22  C   UNL A   1      33.413  27.101  23.533  1.00  0.00     0.024 A 
ATOM     23  N   UNL A   1      33.319  26.052  21.371  1.00  0.00    -0.261 NA
ATOM     24  C   UNL A   1      33.654  27.084  22.171  1.00  0.00     0.111 A 
ENDBRANCH  18  19
ENDBRANCH   9  18
ENDBRANCH   3   6
ENDBRANCH   1   2
BRANCH   1  25
ATOM     25  C   UNL A   1      38.274  19.954  24.946  1.00  0.00     0.042 C 
BRANCH  25  26
ATOM     26  C   UNL A   1      39.271  20.069  26.094  1.00  0.00     0.118 C 
BRANCH  26  27
ATOM     27  N   UNL A   1      40.364  19.113  25.993  1.00  0.00    -0.352 N 
ATOM     28  C   UNL A   1      41.721  19.304  26.066  1.00  0.00     0.251 C 
ATOM     29  H   UNL A   1      40.085  18.180  25.848  1.00  0.00     0.163 HD
ATOM     30  O   UNL A   1      42.480  18.379  25.785  1.00  0.00    -0.269 OA
BRANCH  28  31
ATOM     31  C   UNL A   1      42.279  20.617  26.456  1.00  0.00     0.039 A 
ATOM     32  C   UNL A   1      42.720  21.483  25.450  1.00  0.00     0.014 A 
ATOM     33  C   UNL A   1      42.396  20.987  27.797  1.00  0.00     0.014 A 
ATOM     34  C   UNL A   1      43.210  22.746  25.787  1.00  0.00     0.010 A 
ATOM     35  C   UNL A   1      42.813  22.274  28.128  1.00  0.00     0.010 A 
ATOM     36  C   UNL A   1      43.226  23.166  27.127  1.00  0.00    -0.014 A 
BRANCH  36  37
ATOM     37  C   UNL A   1      43.664  24.533  27.502  1.00  0.00     0.031 A 
ATOM     38  C   UNL A   1      42.656  25.560  27.936  1.00  0.00     0.074 A 
ATOM     39  C   UNL A   1      44.963  24.872  27.380  1.00  0.00     0.049 A 
ATOM     40  N   UNL A   1      42.833  26.826  28.213  1.00  0.00    -0.248 NA
ATOM     41  C   UNL A   1      41.260  25.110  28.047  1.00  0.00     0.031 C 
ATOM     42  C   UNL A   1      46.033  23.982  26.926  1.00  0.00     0.029 A 
ATOM     43  N   UNL A   1      45.600  26.064  27.617  1.00  0.00    -0.354 N 
ATOM     44  C   UNL A   1      41.572  27.328  28.509  1.00  0.00     0.074 A 
ATOM     45  C   UNL A   1      40.634  26.240  28.337  1.00  0.00     0.031 C 
ATOM     46  C   UNL A   1      47.196  24.653  26.935  1.00  0.00     0.029 A 
ATOM     47  C   UNL A   1      46.949  26.028  27.359  1.00  0.00     0.049 A 
ATOM     48  H   UNL A   1      45.135  26.869  27.940  1.00  0.00     0.167 HD
ATOM     49  C   UNL A   1      41.230  28.576  28.908  1.00  0.00     0.037 A 
ATOM     50  C   UNL A   1      47.880  26.995  27.446  1.00  0.00     0.037 A 
ATOM     51  C   UNL A   1      42.168  29.649  29.112  1.00  0.00     0.049 A 
ATOM     52  C   UNL A   1      47.477  28.369  27.901  1.00  0.00     0.074 A 
ATOM     53  C   UNL A   1      41.925  30.930  29.578  1.00  0.00     0.029 A 
ATOM     54  N   UNL A   1      43.529  29.563  28.867  1.00  0.00    -0.354 N 
ATOM     55  N   UNL A   1      46.290  28.813  28.234  1.00  0.00    -0.248 NA
ATOM     56  C   UNL A   1      48.544  29.376  27.994  1.00  0.00     0.031 C 
ATOM     57  C   UNL A   1      43.136  31.630  29.581  1.00  0.00     0.029 A 
ATOM     58  C   UNL A   1      44.138  30.774  29.155  1.00  0.00     0.049 A 
ATOM     59  H   UNL A   1      43.995  28.762  28.535  1.00  0.00     0.167 HD
ATOM     60  C   UNL A   1      46.469  30.140  28.601  1.00  0.00     0.074 A 
ATOM     61  C   UNL A   1      47.882  30.426  28.460  1.00  0.00     0.031 C 
ATOM     62  C   UNL A   1      45.546  31.040  29.018  1.00  0.00     0.037 A 
BRANCH  49  63
ATOM     63  C   UNL A   1      39.776  28.846  29.157  1.00  0.00     0.057 A 
ATOM     64  C   UNL A   1      38.907  29.219  28.124  1.00  0.00     0.134 A 
ATOM     65  C   UNL A   1      39.231  28.700  30.439  1.00  0.00     0.134 A 
ATOM     66  F   UNL A   1      39.369  29.387  26.875  1.00  0.00    -0.206 F 
ATOM     67  C   UNL A   1      37.553  29.462  28.360  1.00  0.00     0.040 A 
ATOM     68  C   UNL A   1      37.874  28.917  30.683  1.00  0.00     0.040 A 
ATOM     69  F   UNL A   1      40.007  28.341  31.473  1.00  0.00    -0.206 F 
ATOM     70  C   UNL A   1      37.032  29.304  29.642  1.00  0.00     0.006 A 
ENDBRANCH  49  63
BRANCH  50  71
ATOM     71  C   UNL A   1      49.295  26.693  27.118  1.00  0.00     0.057 A 
ATOM     72  C   UNL A   1      49.805  26.941  25.839  1.00  0.00     0.134 A 
ATOM     73  C   UNL A   1      50.167  26.149  28.068  1.00  0.00     0.134 A 
ATOM     74  F   UNL A   1      49.011  27.445  24.882  1.00  0.00    -0.206 F 
ATOM     75  C   UNL A   1      51.128  26.643  25.509  1.00  0.00     0.040 A 
ATOM     76  C   UNL A   1      51.499  25.867  27.759  1.00  0.00     0.040 A 
ATOM     77  F   UNL A   1      49.740  25.896  29.314  1.00  0.00    -0.206 F 
ATOM     78  C   UNL A   1      51.980  26.109  26.474  1.00  0.00     0.006 A 
ENDBRANCH  50  71
BRANCH  62  79
ATOM     79  C   UNL A   1      46.040  32.408  29.382  1.00  0.00     0.057 A 
ATOM     80  C   UNL A   1      46.500  32.707  30.671  1.00  0.00     0.134 A 
ATOM     81  C   UNL A   1      46.090  33.426  28.422  1.00  0.00     0.134 A 
ATOM     82  F   UNL A   1      46.464  31.778  31.638  1.00  0.00    -0.206 F 
ATOM     83  C   UNL A   1      46.975  33.978  30.996  1.00  0.00     0.040 A 
ATOM     84  C   UNL A   1      46.584  34.693  28.729  1.00  0.00     0.040 A 
ATOM     85  F   UNL A   1      45.670  33.201  27.168  1.00  0.00    -0.206 F 
ATOM     86  C   UNL A   1      47.024  34.974  30.022  1.00  0.00     0.006 A 
ENDBRANCH  62  79
ENDBRANCH  36  37
ENDBRANCH  28  31
ENDBRANCH  26  27
ENDBRANCH  25  26
ENDBRANCH   1  25
TORSDOF 15
ENDMDL
MODEL 3
REMARK VINA RESULT:     -11.4      1.134      6.287
REMARK SMILES CC(C)(C)OC(=O)N1C[C@@H](Oc2cccnc2)C[C@H]1C(=O)NCCCNC(=O)c1ccc(-c2c3nc(c(-c4c(F)cccc4F)c4ccc([nH]4)c(-c4c(F)cccc4F)c4nc(c(-c5c(F)cccc5F)c5ccc2[nH]5)C=C4)C=C3)cc1
REMARK SMILES IDX 23 1 22 2 20 3 21 4 19 6 8 7 9 8 10 9 18 10 6 11 7 12 5 13
REMARK SMILES IDX 2 14 1 15 3 16 4 17 11 18 12 19 13 20 17 21 14 22 16 23
REMARK SMILES IDX 15 24 24 25 25 26 26 27 27 28 28 30 29 31 30 32 82 33 31 34
REMARK SMILES IDX 81 35 32 36 33 37 34 38 75 39 35 40 80 41 74 42 76 43 36 44
REMARK SMILES IDX 79 45 73 46 72 47 37 49 63 50 46 51 62 52 47 53 50 54 61 55
REMARK SMILES IDX 77 56 48 57 49 58 60 60 78 61 51 62 38 63 39 64 44 65 40 66
REMARK SMILES IDX 41 67 43 68 45 69 42 70 64 71 65 72 70 73 66 74 67 75 69 76
REMARK SMILES IDX 71 77 68 78 52 79 53 80 58 81 54 82 55 83 57 84 59 85 56 86
REMARK H PARENT 22 5 26 29 76 48 50 59
REMARK Flexibility Score: inf
ROOT
ATOM      1  C   UNL A   1      31.653  30.564  26.840  1.00  0.00     0.117 C 
ENDROOT
BRANCH   1   2
ATOM      2  N   UNL A   1      32.547  30.005  25.843  1.00  0.00    -0.354 N 
ATOM      3  C   UNL A   1      32.321  29.025  24.922  1.00  0.00     0.243 C 
ATOM      4  O   UNL A   1      33.246  28.720  24.164  1.00  0.00    -0.273 OA
ATOM      5  H   UNL A   1      33.453  30.392  25.829  1.00  0.00     0.163 HD
BRANCH   3   6
ATOM      6  C   UNL A   1      30.974  28.282  24.919  1.00  0.00     0.181 C 
ATOM      7  N   UNL A   1      30.574  27.933  23.567  1.00  0.00    -0.292 N 
ATOM      8  C   UNL A   1      30.614  26.506  23.321  1.00  0.00     0.169 C 
ATOM      9  C   UNL A   1      30.595  25.890  24.718  1.00  0.00     0.195 C 
ATOM     10  C   UNL A   1      31.088  26.969  25.693  1.00  0.00     0.082 C 
BRANCH   7  11
ATOM     11  C   UNL A   1      30.128  28.916  22.722  1.00  0.00     0.411 C 
ATOM     12  O   UNL A   1      30.497  28.988  21.556  1.00  0.00    -0.224 OA
BRANCH  11  13
ATOM     13  O   UNL A   1      29.329  29.811  23.347  1.00  0.00    -0.444 OA
BRANCH  13  14
ATOM     14  C   UNL A   1      28.000  30.115  22.843  1.00  0.00     0.106 C 
ATOM     15  C   UNL A   1      27.505  31.275  23.719  1.00  0.00     0.056 C 
ATOM     16  C   UNL A   1      27.107  28.892  23.056  1.00  0.00     0.056 C 
ATOM     17  C   UNL A   1      27.957  30.586  21.380  1.00  0.00     0.056 C 
ENDBRANCH  13  14
ENDBRANCH  11  13
ENDBRANCH   7  11
BRANCH   9  18
ATOM     18  O   UNL A   1      31.173  24.596  24.850  1.00  0.00    -0.487 OA
BRANCH  18  19
ATOM     19  C   UNL A   1      32.499  24.389  25.064  1.00  0.00     0.138 A 
ATOM     20  C   UNL A   1      33.111  23.933  26.224  1.00  0.00     0.050 A 
ATOM     21  C   UNL A   1      33.335  24.675  23.988  1.00  0.00     0.157 A 
ATOM     22  C   UNL A   1      34.495  23.750  26.257  1.00  0.00     0.024 A 
ATOM     23  N   UNL A   1      34.682  24.517  23.985  1.00  0.00    -0.261 NA
ATOM     24  C   UNL A   1      35.231  24.053  25.124  1.00  0.00     0.111 A 
ENDBRANCH  18  19
ENDBRANCH   9  18
ENDBRANCH   3   6
ENDBRANCH   1   2
BRANCH   1  25
ATOM     25  C   UNL A   1      31.507  32.072  26.690  1.00  0.00     0.042 C 
BRANCH  25  26
ATOM     26  C   UNL A   1      32.756  32.858  27.074  1.00  0.00     0.118 C 
BRANCH  26  27
ATOM     27  N   UNL A   1      32.455  34.197  27.560  1.00  0.00    -0.352 N 
ATOM     28  C   UNL A   1      33.018  34.917  28.585  1.00  0.00     0.251 C 
ATOM     29  H   UNL A   1      31.733  34.660  27.078  1.00  0.00     0.163 HD
ATOM     30  O   UNL A   1      32.499  35.972  28.940  1.00  0.00    -0.269 OA
BRANCH  28  31
ATOM     31  C   UNL A   1      34.226  34.423  29.280  1.00  0.00     0.039 A 
ATOM     32  C   UNL A   1      34.074  33.768  30.505  1.00  0.00     0.014 A 
ATOM     33  C   UNL A   1      35.502  34.624  28.749  1.00  0.00     0.014 A 
ATOM     34  C   UNL A   1      35.193  33.253  31.163  1.00  0.00     0.010 A 
ATOM     35  C   UNL A   1      36.609  34.045  29.365  1.00  0.00     0.010 A 
ATOM     36  C   UNL A   1      36.466  33.355  30.579  1.00  0.00    -0.014 A 
BRANCH  36  37
ATOM     37  C   UNL A   1      37.659  32.744  31.217  1.00  0.00     0.031 A 
ATOM     38  C   UNL A   1      38.312  31.538  30.602  1.00  0.00     0.074 A 
ATOM     39  C   UNL A   1      38.108  33.231  32.389  1.00  0.00     0.049 A 
ATOM     40  N   UNL A   1      39.300  30.812  31.058  1.00  0.00    -0.248 NA
ATOM     41  C   UNL A   1      37.764  31.071  29.319  1.00  0.00     0.031 C 
ATOM     42  C   UNL A   1      37.535  34.368  33.112  1.00  0.00     0.029 A 
ATOM     43  N   UNL A   1      39.147  32.821  33.187  1.00  0.00    -0.354 N 
ATOM     44  C   UNL A   1      39.478  29.792  30.132  1.00  0.00     0.074 A 
ATOM     45  C   UNL A   1      38.468  29.969  29.111  1.00  0.00     0.031 C 
ATOM     46  C   UNL A   1      38.240  34.575  34.236  1.00  0.00     0.029 A 
ATOM     47  C   UNL A   1      39.290  33.566  34.332  1.00  0.00     0.049 A 
ATOM     48  H   UNL A   1      39.733  32.063  32.961  1.00  0.00     0.167 HD
ATOM     49  C   UNL A   1      40.410  28.810  30.122  1.00  0.00     0.037 A 
ATOM     50  C   UNL A   1      40.163  33.444  35.349  1.00  0.00     0.037 A 
ATOM     51  C   UNL A   1      41.436  28.655  31.120  1.00  0.00     0.049 A 
ATOM     52  C   UNL A   1      41.194  32.352  35.310  1.00  0.00     0.074 A 
ATOM     53  C   UNL A   1      42.465  27.730  31.161  1.00  0.00     0.029 A 
ATOM     54  N   UNL A   1      41.563  29.448  32.250  1.00  0.00    -0.354 N 
ATOM     55  N   UNL A   1      41.386  31.431  34.398  1.00  0.00    -0.248 NA
ATOM     56  C   UNL A   1      42.131  32.285  36.441  1.00  0.00     0.031 C 
ATOM     57  C   UNL A   1      43.196  27.942  32.336  1.00  0.00     0.029 A 
ATOM     58  C   UNL A   1      42.645  29.023  33.005  1.00  0.00     0.049 A 
ATOM     59  H   UNL A   1      40.973  30.200  32.482  1.00  0.00     0.167 HD
ATOM     60  C   UNL A   1      42.480  30.693  34.830  1.00  0.00     0.074 A 
ATOM     61  C   UNL A   1      42.916  31.279  36.080  1.00  0.00     0.031 C 
ATOM     62  C   UNL A   1      43.071  29.624  34.242  1.00  0.00     0.037 A 
BRANCH  49  63
ATOM     63  C   UNL A   1      40.367  27.828  28.989  1.00  0.00     0.057 A 
ATOM     64  C   UNL A   1      41.138  28.001  27.833  1.00  0.00     0.134 A 
ATOM     65  C   UNL A   1      39.568  26.681  29.068  1.00  0.00     0.134 A 
ATOM     66  F   UNL A   1      41.916  29.087  27.690  1.00  0.00    -0.206 F 
ATOM     67  C   UNL A   1      41.100  27.081  26.784  1.00  0.00     0.040 A 
ATOM     68  C   UNL A   1      39.540  25.741  28.035  1.00  0.00     0.040 A 
ATOM     69  F   UNL A   1      38.808  26.451  30.148  1.00  0.00    -0.206 F 
ATOM     70  C   UNL A   1      40.303  25.943  26.887  1.00  0.00     0.006 A 
ENDBRANCH  49  63
BRANCH  50  71
ATOM     71  C   UNL A   1      40.116  34.400  36.483  1.00  0.00     0.057 A 
ATOM     72  C   UNL A   1      39.402  34.099  37.648  1.00  0.00     0.134 A 
ATOM     73  C   UNL A   1      40.778  35.632  36.430  1.00  0.00     0.134 A 
ATOM     74  F   UNL A   1      38.733  32.940  37.748  1.00  0.00    -0.206 F 
ATOM     75  C   UNL A   1      39.332  34.995  38.715  1.00  0.00     0.040 A 
ATOM     76  C   UNL A   1      40.736  36.529  37.499  1.00  0.00     0.040 A 
ATOM     77  F   UNL A   1      41.486  35.974  35.344  1.00  0.00    -0.206 F 
ATOM     78  C   UNL A   1      40.005  36.213  38.643  1.00  0.00     0.006 A 
ENDBRANCH  50  71
BRANCH  62  79
ATOM     79  C   UNL A   1      44.270  29.042  34.928  1.00  0.00     0.057 A 
ATOM     80  C   UNL A   1      45.570  29.464  34.624  1.00  0.00     0.134 A 
ATOM     81  C   UNL A   1      44.118  28.074  35.928  1.00  0.00     0.134 A 
ATOM     82  F   UNL A   1      45.782  30.378  33.665  1.00  0.00    -0.206 F 
ATOM     83  C   UNL A   1      46.679  28.930  35.281  1.00  0.00     0.040 A 
ATOM     84  C   UNL A   1      45.218  27.549  36.607  1.00  0.00     0.040 A 
ATOM     85  F   UNL A   1      42.898  27.632  36.270  1.00  0.00    -0.206 F 
ATOM     86  C   UNL A   1      46.505  27.973  36.280  1.00  0.00     0.006 A 
ENDBRANCH  62  79
ENDBRANCH  36  37
ENDBRANCH  28  31
ENDBRANCH  26  27
ENDBRANCH  25  26
ENDBRANCH   1  25
TORSDOF 15
ENDMDL
