MODEL 1
REMARK VINA RESULT:     -12.2      0.000      0.000
REMARK SMILES Cc1nn(C)cc1-c1ccnc2nc(CCC(=O)NCCCNC(=O)c3ccc(-c4c5nc(c(-c6c(F)cccc6F)c6ccc([nH]6)c(-c6c(F)cccc6F)c6nc(c(-c7c(F)cccc7F)c7ccc4[nH]7)C=C6)C=C5)cc3)nn12
REMARK SMILES IDX 20 1 19 2 17 3 18 4 16 6 15 7 14 8 8 9 9 10 81 11 10 12
REMARK SMILES IDX 12 13 80 14 11 15 13 16 7 17 1 18 2 19 3 20 4 21 6 22 5 23
REMARK SMILES IDX 21 24 22 25 23 26 24 27 25 29 26 30 27 31 79 32 28 33 78 34
REMARK SMILES IDX 29 35 30 36 31 37 72 38 32 39 77 40 71 41 73 42 33 43 76 44
REMARK SMILES IDX 70 45 69 46 34 48 60 49 43 50 59 51 44 52 47 53 58 54 74 55
REMARK SMILES IDX 45 56 46 57 57 59 75 60 48 61 35 62 36 63 41 64 37 65 38 66
REMARK SMILES IDX 40 67 42 68 39 69 61 70 62 71 67 72 63 73 64 74 66 75 68 76
REMARK SMILES IDX 65 77 49 78 50 79 55 80 51 81 52 82 54 83 56 84 53 85
REMARK H PARENT 19 5 23 28 73 47 47 58
REMARK Flexibility Score: inf
ROOT
ATOM      1  C   UNL A   1      39.310  21.196  25.757  1.00  0.00     0.117 C 
ENDROOT
BRANCH   1   2
ATOM      2  N   UNL A   1      38.494  22.315  26.260  1.00  0.00    -0.356 N 
ATOM      3  C   UNL A   1      37.552  23.121  25.688  1.00  0.00     0.220 C 
ATOM      4  O   UNL A   1      37.169  24.094  26.330  1.00  0.00    -0.275 OA
ATOM      5  H   UNL A   1      38.663  22.524  27.208  1.00  0.00     0.163 HD
BRANCH   3   6
ATOM      6  C   UNL A   1      36.941  22.817  24.336  1.00  0.00     0.108 C 
BRANCH   6   7
ATOM      7  C   UNL A   1      35.519  22.277  24.450  1.00  0.00     0.089 C 
BRANCH   7   8
ATOM      8  C   UNL A   1      34.546  23.178  23.798  1.00  0.00     0.153 A 
ATOM      9  C   UNL A   1      32.204  25.750  23.625  1.00  0.00     0.081 A 
ATOM     10  C   UNL A   1      31.814  26.347  22.483  1.00  0.00     0.049 A 
ATOM     11  N   UNL A   1      33.106  24.675  23.510  1.00  0.00    -0.196 N 
ATOM     12  C   UNL A   1      32.432  25.873  21.217  1.00  0.00     0.117 A 
ATOM     13  C   UNL A   1      33.629  24.283  22.262  1.00  0.00     0.252 A 
ATOM     14  N   UNL A   1      33.701  23.943  24.486  1.00  0.00    -0.149 NA
ATOM     15  N   UNL A   1      33.280  24.902  21.098  1.00  0.00    -0.220 NA
ATOM     16  N   UNL A   1      34.530  23.346  22.446  1.00  0.00    -0.194 NA
BRANCH   9  17
ATOM     17  C   UNL A   1      31.886  26.286  24.918  1.00  0.00     0.041 A 
ATOM     18  C   UNL A   1      30.617  24.441  26.221  1.00  0.00     0.069 C 
ATOM     19  C   UNL A   1      31.228  25.774  26.059  1.00  0.00     0.069 A 
ATOM     20  N   UNL A   1      31.119  26.691  27.044  1.00  0.00    -0.178 NA
ATOM     21  N   UNL A   1      31.726  27.775  26.545  1.00  0.00    -0.275 N 
ATOM     22  C   UNL A   1      32.094  27.594  25.257  1.00  0.00     0.119 A 
ATOM     23  C   UNL A   1      31.778  29.037  27.249  1.00  0.00     0.173 C 
ENDBRANCH   9  17
ENDBRANCH   7   8
ENDBRANCH   6   7
ENDBRANCH   3   6
ENDBRANCH   1   2
BRANCH   1  24
ATOM     24  C   UNL A   1      40.414  20.829  26.773  1.00  0.00     0.042 C 
BRANCH  24  25
ATOM     25  C   UNL A   1      41.914  20.740  26.362  1.00  0.00     0.118 C 
BRANCH  25  26
ATOM     26  N   UNL A   1      42.429  21.817  25.473  1.00  0.00    -0.352 N 
ATOM     27  C   UNL A   1      42.701  23.169  25.338  1.00  0.00     0.251 C 
ATOM     28  H   UNL A   1      42.682  21.389  24.623  1.00  0.00     0.163 HD
ATOM     29  O   UNL A   1      43.369  23.398  24.316  1.00  0.00    -0.269 OA
BRANCH  27  30
ATOM     30  C   UNL A   1      42.277  24.420  26.097  1.00  0.00     0.039 A 
ATOM     31  C   UNL A   1      41.269  24.241  27.078  1.00  0.00     0.014 A 
ATOM     32  C   UNL A   1      42.712  25.731  25.980  1.00  0.00     0.014 A 
ATOM     33  C   UNL A   1      40.865  25.254  28.000  1.00  0.00     0.010 A 
ATOM     34  C   UNL A   1      42.370  26.736  26.971  1.00  0.00     0.010 A 
ATOM     35  C   UNL A   1      41.479  26.512  28.047  1.00  0.00    -0.014 A 
BRANCH  35  36
ATOM     36  C   UNL A   1      41.194  27.497  29.206  1.00  0.00     0.031 A 
ATOM     37  C   UNL A   1      40.067  28.535  29.181  1.00  0.00     0.074 A 
ATOM     38  C   UNL A   1      41.960  27.538  30.335  1.00  0.00     0.049 A 
ATOM     39  N   UNL A   1      39.705  29.403  30.110  1.00  0.00    -0.248 NA
ATOM     40  C   UNL A   1      39.264  28.631  27.958  1.00  0.00     0.031 C 
ATOM     41  C   UNL A   1      43.153  26.732  30.594  1.00  0.00     0.029 A 
ATOM     42  N   UNL A   1      41.854  28.307  31.490  1.00  0.00    -0.354 N 
ATOM     43  C   UNL A   1      38.663  30.157  29.572  1.00  0.00     0.074 A 
ATOM     44  C   UNL A   1      38.496  29.681  28.212  1.00  0.00     0.031 C 
ATOM     45  C   UNL A   1      43.639  27.014  31.814  1.00  0.00     0.029 A 
ATOM     46  C   UNL A   1      42.816  28.043  32.448  1.00  0.00     0.049 A 
ATOM     47  H   UNL A   1      41.151  28.984  31.615  1.00  0.00     0.167 HD
ATOM     48  C   UNL A   1      37.881  31.122  30.131  1.00  0.00     0.037 A 
ATOM     49  C   UNL A   1      43.039  28.537  33.690  1.00  0.00     0.037 A 
ATOM     50  C   UNL A   1      37.953  31.614  31.488  1.00  0.00     0.049 A 
ATOM     51  C   UNL A   1      42.148  29.590  34.309  1.00  0.00     0.074 A 
ATOM     52  C   UNL A   1      37.102  32.510  32.124  1.00  0.00     0.029 A 
ATOM     53  N   UNL A   1      38.922  31.278  32.414  1.00  0.00    -0.354 N 
ATOM     54  N   UNL A   1      41.085  30.170  33.815  1.00  0.00    -0.248 NA
ATOM     55  C   UNL A   1      42.487  30.048  35.672  1.00  0.00     0.031 C 
ATOM     56  C   UNL A   1      37.582  32.751  33.417  1.00  0.00     0.029 A 
ATOM     57  C   UNL A   1      38.701  31.963  33.605  1.00  0.00     0.049 A 
ATOM     58  H   UNL A   1      39.660  30.647  32.255  1.00  0.00     0.167 HD
ATOM     59  C   UNL A   1      40.610  31.018  34.815  1.00  0.00     0.074 A 
ATOM     60  C   UNL A   1      41.489  30.876  35.950  1.00  0.00     0.031 C 
ATOM     61  C   UNL A   1      39.531  31.835  34.775  1.00  0.00     0.037 A 
BRANCH  48  62
ATOM     62  C   UNL A   1      36.798  31.719  29.265  1.00  0.00     0.057 A 
ATOM     63  C   UNL A   1      35.608  31.027  29.001  1.00  0.00     0.134 A 
ATOM     64  C   UNL A   1      36.911  33.021  28.757  1.00  0.00     0.134 A 
ATOM     65  F   UNL A   1      35.428  29.783  29.471  1.00  0.00    -0.206 F 
ATOM     66  C   UNL A   1      34.594  31.585  28.222  1.00  0.00     0.040 A 
ATOM     67  C   UNL A   1      35.887  33.603  28.005  1.00  0.00     0.040 A 
ATOM     68  F   UNL A   1      38.004  33.759  29.004  1.00  0.00    -0.206 F 
ATOM     69  C   UNL A   1      34.731  32.879  27.725  1.00  0.00     0.006 A 
ENDBRANCH  48  62
BRANCH  49  70
ATOM     70  C   UNL A   1      44.171  28.017  34.515  1.00  0.00     0.057 A 
ATOM     71  C   UNL A   1      43.996  26.913  35.363  1.00  0.00     0.134 A 
ATOM     72  C   UNL A   1      45.414  28.659  34.547  1.00  0.00     0.134 A 
ATOM     73  F   UNL A   1      42.814  26.280  35.411  1.00  0.00    -0.206 F 
ATOM     74  C   UNL A   1      45.004  26.485  36.230  1.00  0.00     0.040 A 
ATOM     75  C   UNL A   1      46.441  28.224  35.389  1.00  0.00     0.040 A 
ATOM     76  F   UNL A   1      45.644  29.727  33.769  1.00  0.00    -0.206 F 
ATOM     77  C   UNL A   1      46.233  27.140  36.241  1.00  0.00     0.006 A 
ENDBRANCH  49  70
BRANCH  61  78
ATOM     78  C   UNL A   1      39.169  32.616  36.012  1.00  0.00     0.057 A 
ATOM     79  C   UNL A   1      38.334  32.099  37.011  1.00  0.00     0.134 A 
ATOM     80  C   UNL A   1      39.707  33.893  36.233  1.00  0.00     0.134 A 
ATOM     81  F   UNL A   1      37.771  30.889  36.869  1.00  0.00    -0.206 F 
ATOM     82  C   UNL A   1      38.035  32.825  38.170  1.00  0.00     0.040 A 
ATOM     83  C   UNL A   1      39.436  34.617  37.397  1.00  0.00     0.040 A 
ATOM     84  F   UNL A   1      40.519  34.455  35.324  1.00  0.00    -0.206 F 
ATOM     85  C   UNL A   1      38.595  34.085  38.369  1.00  0.00     0.006 A 
ENDBRANCH  61  78
ENDBRANCH  35  36
ENDBRANCH  27  30
ENDBRANCH  25  26
ENDBRANCH  24  25
ENDBRANCH   1  24
TORSDOF 13
ENDMDL
MODEL 2
REMARK VINA RESULT:     -12.1      4.987     10.560
REMARK SMILES Cc1nn(C)cc1-c1ccnc2nc(CCC(=O)NCCCNC(=O)c3ccc(-c4c5nc(c(-c6c(F)cccc6F)c6ccc([nH]6)c(-c6c(F)cccc6F)c6nc(c(-c7c(F)cccc7F)c7ccc4[nH]7)C=C6)C=C5)cc3)nn12
REMARK SMILES IDX 20 1 19 2 17 3 18 4 16 6 15 7 14 8 8 9 9 10 81 11 10 12
REMARK SMILES IDX 12 13 80 14 11 15 13 16 7 17 1 18 2 19 3 20 4 21 6 22 5 23
REMARK SMILES IDX 21 24 22 25 23 26 24 27 25 29 26 30 27 31 79 32 28 33 78 34
REMARK SMILES IDX 29 35 30 36 31 37 72 38 32 39 77 40 71 41 73 42 33 43 76 44
REMARK SMILES IDX 70 45 69 46 34 48 60 49 43 50 59 51 44 52 47 53 58 54 74 55
REMARK SMILES IDX 45 56 46 57 57 59 75 60 48 61 35 62 36 63 41 64 37 65 38 66
REMARK SMILES IDX 40 67 42 68 39 69 61 70 62 71 67 72 63 73 64 74 66 75 68 76
REMARK SMILES IDX 65 77 49 78 50 79 55 80 51 81 52 82 54 83 56 84 53 85
REMARK H PARENT 19 5 23 28 73 47 47 58
REMARK Flexibility Score: inf
ROOT
ATOM      1  C   UNL A   1      32.786  36.006  32.279  1.00  0.00     0.117 C 
ENDROOT
BRANCH   1   2
ATOM      2  N   UNL A   1      32.784  36.654  30.956  1.00  0.00    -0.356 N 
ATOM      3  C   UNL A   1      32.995  36.197  29.686  1.00  0.00     0.220 C 
ATOM      4  O   UNL A   1      33.098  37.030  28.791  1.00  0.00    -0.275 OA
ATOM      5  H   UNL A   1      32.588  37.619  30.995  1.00  0.00     0.163 HD
BRANCH   3   6
ATOM      6  C   UNL A   1      33.045  34.720  29.357  1.00  0.00     0.108 C 
BRANCH   6   7
ATOM      7  C   UNL A   1      33.761  34.443  28.039  1.00  0.00     0.089 C 
BRANCH   7   8
ATOM      8  C   UNL A   1      34.281  33.061  27.987  1.00  0.00     0.153 A 
ATOM      9  C   UNL A   1      34.359  29.722  26.998  1.00  0.00     0.081 A 
ATOM     10  C   UNL A   1      35.432  28.918  27.122  1.00  0.00     0.049 A 
ATOM     11  N   UNL A   1      34.472  31.026  27.517  1.00  0.00    -0.196 N 
ATOM     12  C   UNL A   1      36.661  29.503  27.719  1.00  0.00     0.117 A 
ATOM     13  C   UNL A   1      35.676  31.491  28.082  1.00  0.00     0.252 A 
ATOM     14  N   UNL A   1      33.582  32.050  27.475  1.00  0.00    -0.149 NA
ATOM     15  N   UNL A   1      36.787  30.706  28.179  1.00  0.00    -0.220 NA
ATOM     16  N   UNL A   1      35.552  32.765  28.375  1.00  0.00    -0.194 NA
BRANCH   9  17
ATOM     17  C   UNL A   1      33.217  29.360  26.208  1.00  0.00     0.041 A 
ATOM     18  C   UNL A   1      31.480  28.302  27.813  1.00  0.00     0.069 C 
ATOM     19  C   UNL A   1      31.967  28.769  26.502  1.00  0.00     0.069 A 
ATOM     20  N   UNL A   1      31.219  28.571  25.394  1.00  0.00    -0.178 NA
ATOM     21  N   UNL A   1      31.976  29.058  24.402  1.00  0.00    -0.275 N 
ATOM     22  C   UNL A   1      33.198  29.433  24.843  1.00  0.00     0.119 A 
ATOM     23  C   UNL A   1      31.587  28.983  23.012  1.00  0.00     0.173 C 
ENDBRANCH   9  17
ENDBRANCH   7   8
ENDBRANCH   6   7
ENDBRANCH   3   6
ENDBRANCH   1   2
BRANCH   1  24
ATOM     24  C   UNL A   1      34.194  36.063  32.909  1.00  0.00     0.042 C 
BRANCH  24  25
ATOM     25  C   UNL A   1      35.309  35.044  32.528  1.00  0.00     0.118 C 
BRANCH  25  26
ATOM     26  N   UNL A   1      35.706  34.065  33.576  1.00  0.00    -0.352 N 
ATOM     27  C   UNL A   1      36.575  33.045  33.931  1.00  0.00     0.251 C 
ATOM     28  H   UNL A   1      35.095  34.196  34.336  1.00  0.00     0.163 HD
ATOM     29  O   UNL A   1      36.480  32.767  35.138  1.00  0.00    -0.269 OA
BRANCH  27  30
ATOM     30  C   UNL A   1      37.524  32.138  33.157  1.00  0.00     0.039 A 
ATOM     31  C   UNL A   1      37.507  32.279  31.747  1.00  0.00     0.014 A 
ATOM     32  C   UNL A   1      38.410  31.172  33.609  1.00  0.00     0.014 A 
ATOM     33  C   UNL A   1      38.438  31.642  30.870  1.00  0.00     0.010 A 
ATOM     34  C   UNL A   1      39.414  30.594  32.734  1.00  0.00     0.010 A 
ATOM     35  C   UNL A   1      39.495  30.854  31.345  1.00  0.00    -0.014 A 
BRANCH  35  36
ATOM     36  C   UNL A   1      40.625  30.381  30.400  1.00  0.00     0.031 A 
ATOM     37  C   UNL A   1      41.787  31.274  29.953  1.00  0.00     0.074 A 
ATOM     38  C   UNL A   1      40.649  29.129  29.859  1.00  0.00     0.049 A 
ATOM     39  N   UNL A   1      42.820  30.982  29.182  1.00  0.00    -0.248 NA
ATOM     40  C   UNL A   1      41.778  32.669  30.402  1.00  0.00     0.031 C 
ATOM     41  C   UNL A   1      39.627  28.097  30.035  1.00  0.00     0.029 A 
ATOM     42  N   UNL A   1      41.576  28.502  29.033  1.00  0.00    -0.354 N 
ATOM     43  C   UNL A   1      43.556  32.158  29.035  1.00  0.00     0.074 A 
ATOM     44  C   UNL A   1      42.813  33.179  29.749  1.00  0.00     0.031 C 
ATOM     45  C   UNL A   1      39.988  26.980  29.381  1.00  0.00     0.029 A 
ATOM     46  C   UNL A   1      41.268  27.193  28.708  1.00  0.00     0.049 A 
ATOM     47  H   UNL A   1      42.387  28.954  28.705  1.00  0.00     0.167 HD
ATOM     48  C   UNL A   1      44.746  32.392  28.414  1.00  0.00     0.037 A 
ATOM     49  C   UNL A   1      41.909  26.251  27.974  1.00  0.00     0.037 A 
ATOM     50  C   UNL A   1      45.567  31.422  27.726  1.00  0.00     0.049 A 
ATOM     51  C   UNL A   1      43.241  26.516  27.311  1.00  0.00     0.074 A 
ATOM     52  C   UNL A   1      46.834  31.598  27.183  1.00  0.00     0.029 A 
ATOM     53  N   UNL A   1      45.217  30.110  27.468  1.00  0.00    -0.354 N 
ATOM     54  N   UNL A   1      43.970  27.602  27.320  1.00  0.00    -0.248 NA
ATOM     55  C   UNL A   1      43.846  25.410  26.539  1.00  0.00     0.031 C 
ATOM     56  C   UNL A   1      47.229  30.410  26.558  1.00  0.00     0.029 A 
ATOM     57  C   UNL A   1      46.231  29.475  26.759  1.00  0.00     0.049 A 
ATOM     58  H   UNL A   1      44.373  29.687  27.746  1.00  0.00     0.167 HD
ATOM     59  C   UNL A   1      45.125  27.295  26.603  1.00  0.00     0.074 A 
ATOM     60  C   UNL A   1      45.013  25.922  26.177  1.00  0.00     0.031 C 
ATOM     61  C   UNL A   1      46.181  28.100  26.335  1.00  0.00     0.037 A 
BRANCH  48  62
ATOM     62  C   UNL A   1      45.291  33.798  28.476  1.00  0.00     0.057 A 
ATOM     63  C   UNL A   1      44.955  34.756  27.509  1.00  0.00     0.134 A 
ATOM     64  C   UNL A   1      46.093  34.218  29.547  1.00  0.00     0.134 A 
ATOM     65  F   UNL A   1      44.178  34.425  26.467  1.00  0.00    -0.206 F 
ATOM     66  C   UNL A   1      45.436  36.064  27.577  1.00  0.00     0.040 A 
ATOM     67  C   UNL A   1      46.551  35.535  29.643  1.00  0.00     0.040 A 
ATOM     68  F   UNL A   1      46.422  33.368  30.530  1.00  0.00    -0.206 F 
ATOM     69  C   UNL A   1      46.234  36.458  28.649  1.00  0.00     0.006 A 
ENDBRANCH  48  62
BRANCH  49  70
ATOM     70  C   UNL A   1      41.323  24.884  27.828  1.00  0.00     0.057 A 
ATOM     71  C   UNL A   1      41.832  23.801  28.560  1.00  0.00     0.134 A 
ATOM     72  C   UNL A   1      40.314  24.612  26.898  1.00  0.00     0.134 A 
ATOM     73  F   UNL A   1      42.830  23.989  29.437  1.00  0.00    -0.206 F 
ATOM     74  C   UNL A   1      41.380  22.496  28.351  1.00  0.00     0.040 A 
ATOM     75  C   UNL A   1      39.833  23.315  26.699  1.00  0.00     0.040 A 
ATOM     76  F   UNL A   1      39.791  25.600  26.158  1.00  0.00    -0.206 F 
ATOM     77  C   UNL A   1      40.375  22.251  27.420  1.00  0.00     0.006 A 
ENDBRANCH  49  70
BRANCH  61  78
ATOM     78  C   UNL A   1      47.359  27.525  25.592  1.00  0.00     0.057 A 
ATOM     79  C   UNL A   1      48.404  26.854  26.241  1.00  0.00     0.134 A 
ATOM     80  C   UNL A   1      47.426  27.600  24.193  1.00  0.00     0.134 A 
ATOM     81  F   UNL A   1      48.418  26.750  27.579  1.00  0.00    -0.206 F 
ATOM     82  C   UNL A   1      49.474  26.295  25.532  1.00  0.00     0.040 A 
ATOM     83  C   UNL A   1      48.476  27.026  23.471  1.00  0.00     0.040 A 
ATOM     84  F   UNL A   1      46.461  28.223  23.498  1.00  0.00    -0.206 F 
ATOM     85  C   UNL A   1      49.507  26.373  24.141  1.00  0.00     0.006 A 
ENDBRANCH  61  78
ENDBRANCH  35  36
ENDBRANCH  27  30
ENDBRANCH  25  26
ENDBRANCH  24  25
ENDBRANCH   1  24
TORSDOF 13
ENDMDL
MODEL 3
REMARK VINA RESULT:     -11.9      1.042      2.573
REMARK SMILES Cc1nn(C)cc1-c1ccnc2nc(CCC(=O)NCCCNC(=O)c3ccc(-c4c5nc(c(-c6c(F)cccc6F)c6ccc([nH]6)c(-c6c(F)cccc6F)c6nc(c(-c7c(F)cccc7F)c7ccc4[nH]7)C=C6)C=C5)cc3)nn12
REMARK SMILES IDX 20 1 19 2 17 3 18 4 16 6 15 7 14 8 8 9 9 10 81 11 10 12
REMARK SMILES IDX 12 13 80 14 11 15 13 16 7 17 1 18 2 19 3 20 4 21 6 22 5 23
REMARK SMILES IDX 21 24 22 25 23 26 24 27 25 29 26 30 27 31 79 32 28 33 78 34
REMARK SMILES IDX 29 35 30 36 31 37 72 38 32 39 77 40 71 41 73 42 33 43 76 44
REMARK SMILES IDX 70 45 69 46 34 48 60 49 43 50 59 51 44 52 47 53 58 54 74 55
REMARK SMILES IDX 45 56 46 57 57 59 75 60 48 61 35 62 36 63 41 64 37 65 38 66
REMARK SMILES IDX 40 67 42 68 39 69 61 70 62 71 67 72 63 73 64 74 66 75 68 76
REMARK SMILES IDX 65 77 49 78 50 79 55 80 51 81 52 82 54 83 56 84 53 85
REMARK H PARENT 19 5 23 28 73 47 47 58
REMARK Flexibility Score: inf
ROOT
ATOM      1  C   UNL A   1      39.678  20.985  26.109  1.00  0.00     0.117 C 
ENDROOT
BRANCH   1   2
ATOM      2  N   UNL A   1      38.944  22.236  26.367  1.00  0.00    -0.356 N 
ATOM      3  C   UNL A   1      37.867  22.832  25.775  1.00  0.00     0.220 C 
ATOM      4  O   UNL A   1      37.592  23.979  26.115  1.00  0.00    -0.275 OA
ATOM      5  H   UNL A   1      39.306  22.751  27.124  1.00  0.00     0.163 HD
BRANCH   3   6
ATOM      6  C   UNL A   1      36.990  22.106  24.777  1.00  0.00     0.108 C 
BRANCH   6   7
ATOM      7  C   UNL A   1      35.838  21.365  25.449  1.00  0.00     0.089 C 
BRANCH   7   8
ATOM      8  C   UNL A   1      34.698  22.268  25.715  1.00  0.00     0.153 A 
ATOM      9  C   UNL A   1      32.409  24.799  25.021  1.00  0.00     0.081 A 
ATOM     10  C   UNL A   1      31.262  24.992  25.698  1.00  0.00     0.049 A 
ATOM     11  N   UNL A   1      33.259  23.774  25.479  1.00  0.00    -0.196 N 
ATOM     12  C   UNL A   1      30.959  24.057  26.814  1.00  0.00     0.117 A 
ATOM     13  C   UNL A   1      32.895  22.945  26.558  1.00  0.00     0.252 A 
ATOM     14  N   UNL A   1      34.430  23.328  24.957  1.00  0.00    -0.149 NA
ATOM     15  N   UNL A   1      31.719  23.097  27.231  1.00  0.00    -0.220 NA
ATOM     16  N   UNL A   1      33.799  22.003  26.703  1.00  0.00    -0.194 NA
BRANCH   9  17
ATOM     17  C   UNL A   1      32.684  25.457  23.775  1.00  0.00     0.041 A 
ATOM     18  C   UNL A   1      33.630  27.802  24.341  1.00  0.00     0.069 C 
ATOM     19  C   UNL A   1      33.212  26.721  23.428  1.00  0.00     0.069 A 
ATOM     20  N   UNL A   1      33.236  26.918  22.092  1.00  0.00    -0.178 NA
ATOM     21  N   UNL A   1      32.751  25.777  21.587  1.00  0.00    -0.275 N 
ATOM     22  C   UNL A   1      32.323  24.942  22.562  1.00  0.00     0.119 A 
ATOM     23  C   UNL A   1      32.529  25.577  20.173  1.00  0.00     0.173 C 
ENDBRANCH   9  17
ENDBRANCH   7   8
ENDBRANCH   6   7
ENDBRANCH   3   6
ENDBRANCH   1   2
BRANCH   1  24
ATOM     24  C   UNL A   1      40.992  20.949  26.919  1.00  0.00     0.042 C 
BRANCH  24  25
ATOM     25  C   UNL A   1      42.375  20.734  26.235  1.00  0.00     0.118 C 
BRANCH  25  26
ATOM     26  N   UNL A   1      42.877  21.844  25.379  1.00  0.00    -0.352 N 
ATOM     27  C   UNL A   1      43.116  23.205  25.280  1.00  0.00     0.251 C 
ATOM     28  H   UNL A   1      43.156  21.442  24.524  1.00  0.00     0.163 HD
ATOM     29  O   UNL A   1      43.796  23.474  24.275  1.00  0.00    -0.269 OA
BRANCH  27  30
ATOM     30  C   UNL A   1      42.646  24.428  26.058  1.00  0.00     0.039 A 
ATOM     31  C   UNL A   1      41.612  24.204  27.001  1.00  0.00     0.014 A 
ATOM     32  C   UNL A   1      43.061  25.749  25.991  1.00  0.00     0.014 A 
ATOM     33  C   UNL A   1      41.160  25.184  27.937  1.00  0.00     0.010 A 
ATOM     34  C   UNL A   1      42.671  26.719  26.997  1.00  0.00     0.010 A 
ATOM     35  C   UNL A   1      41.750  26.451  28.037  1.00  0.00    -0.014 A 
BRANCH  35  36
ATOM     36  C   UNL A   1      41.412  27.398  29.213  1.00  0.00     0.031 A 
ATOM     37  C   UNL A   1      40.237  28.382  29.200  1.00  0.00     0.074 A 
ATOM     38  C   UNL A   1      42.167  27.453  30.348  1.00  0.00     0.049 A 
ATOM     39  N   UNL A   1      39.829  29.214  30.144  1.00  0.00    -0.248 NA
ATOM     40  C   UNL A   1      39.439  28.464  27.974  1.00  0.00     0.031 C 
ATOM     41  C   UNL A   1      43.395  26.699  30.601  1.00  0.00     0.029 A 
ATOM     42  N   UNL A   1      42.018  28.193  31.518  1.00  0.00    -0.354 N 
ATOM     43  C   UNL A   1      38.756  29.928  29.612  1.00  0.00     0.074 A 
ATOM     44  C   UNL A   1      38.620  29.472  28.242  1.00  0.00     0.031 C 
ATOM     45  C   UNL A   1      43.860  26.980  31.830  1.00  0.00     0.029 A 
ATOM     46  C   UNL A   1      42.985  27.956  32.477  1.00  0.00     0.049 A 
ATOM     47  H   UNL A   1      41.283  28.833  31.651  1.00  0.00     0.167 HD
ATOM     48  C   UNL A   1      37.925  30.844  30.184  1.00  0.00     0.037 A 
ATOM     49  C   UNL A   1      43.176  28.435  33.731  1.00  0.00     0.037 A 
ATOM     50  C   UNL A   1      37.966  31.313  31.550  1.00  0.00     0.049 A 
ATOM     51  C   UNL A   1      42.232  29.433  34.363  1.00  0.00     0.074 A 
ATOM     52  C   UNL A   1      37.069  32.154  32.198  1.00  0.00     0.029 A 
ATOM     53  N   UNL A   1      38.943  31.005  32.477  1.00  0.00    -0.354 N 
ATOM     54  N   UNL A   1      41.146  29.972  33.872  1.00  0.00    -0.248 NA
ATOM     55  C   UNL A   1      42.540  29.880  35.737  1.00  0.00     0.031 C 
ATOM     56  C   UNL A   1      37.528  32.392  33.498  1.00  0.00     0.029 A 
ATOM     57  C   UNL A   1      38.682  31.654  33.680  1.00  0.00     0.049 A 
ATOM     58  H   UNL A   1      39.711  30.412  32.311  1.00  0.00     0.167 HD
ATOM     59  C   UNL A   1      40.626  30.776  34.885  1.00  0.00     0.074 A 
ATOM     60  C   UNL A   1      41.503  30.654  36.023  1.00  0.00     0.031 C 
ATOM     61  C   UNL A   1      39.509  31.543  34.853  1.00  0.00     0.037 A 
BRANCH  48  62
ATOM     62  C   UNL A   1      36.821  31.407  29.322  1.00  0.00     0.057 A 
ATOM     63  C   UNL A   1      36.894  32.704  28.796  1.00  0.00     0.134 A 
ATOM     64  C   UNL A   1      35.719  30.624  28.952  1.00  0.00     0.134 A 
ATOM     65  F   UNL A   1      37.930  33.502  29.097  1.00  0.00    -0.206 F 
ATOM     66  C   UNL A   1      35.888  33.220  27.978  1.00  0.00     0.040 A 
ATOM     67  C   UNL A   1      34.723  31.117  28.104  1.00  0.00     0.040 A 
ATOM     68  F   UNL A   1      35.603  29.359  29.384  1.00  0.00    -0.206 F 
ATOM     69  C   UNL A   1      34.800  32.423  27.626  1.00  0.00     0.006 A 
ENDBRANCH  48  62
BRANCH  49  70
ATOM     70  C   UNL A   1      44.326  27.953  34.554  1.00  0.00     0.057 A 
ATOM     71  C   UNL A   1      45.565  28.609  34.513  1.00  0.00     0.134 A 
ATOM     72  C   UNL A   1      44.244  26.784  35.319  1.00  0.00     0.134 A 
ATOM     73  F   UNL A   1      45.721  29.710  33.763  1.00  0.00    -0.206 F 
ATOM     74  C   UNL A   1      46.686  28.106  35.179  1.00  0.00     0.040 A 
ATOM     75  C   UNL A   1      45.350  26.286  36.014  1.00  0.00     0.040 A 
ATOM     76  F   UNL A   1      43.092  26.103  35.392  1.00  0.00    -0.206 F 
ATOM     77  C   UNL A   1      46.578  26.942  35.936  1.00  0.00     0.006 A 
ENDBRANCH  49  70
BRANCH  61  78
ATOM     78  C   UNL A   1      39.103  32.281  36.102  1.00  0.00     0.057 A 
ATOM     79  C   UNL A   1      39.525  33.590  36.373  1.00  0.00     0.134 A 
ATOM     80  C   UNL A   1      38.230  31.692  37.028  1.00  0.00     0.134 A 
ATOM     81  F   UNL A   1      40.370  34.219  35.541  1.00  0.00    -0.206 F 
ATOM     82  C   UNL A   1      39.111  34.275  37.521  1.00  0.00     0.040 A 
ATOM     83  C   UNL A   1      37.789  32.374  38.166  1.00  0.00     0.040 A 
ATOM     84  F   UNL A   1      37.777  30.443  36.836  1.00  0.00    -0.206 F 
ATOM     85  C   UNL A   1      38.233  33.669  38.417  1.00  0.00     0.006 A 
ENDBRANCH  61  78
ENDBRANCH  35  36
ENDBRANCH  27  30
ENDBRANCH  25  26
ENDBRANCH  24  25
ENDBRANCH   1  24
TORSDOF 13
ENDMDL
