MODEL 1
REMARK VINA RESULT:     -10.7      0.000      0.000
REMARK SMILES CCC(CC)C[N@H+]1[C@@H]2CC[C@H]1C[C@H](CC(=O)NCCCNC(=O)c1ccc(-c3c4nc(c(-c5c(F)cccc5F)c5ccc([nH]5)c(-c5c(F)cccc5F)c5nc(c(-c6c(F)cccc6F)c6ccc3[nH]6)C=C5)C=C4)cc1)C2
REMARK SMILES IDX 18 1 17 2 15 3 16 4 14 6 13 7 7 8 8 9 11 10 9 12 78 13 10 14
REMARK SMILES IDX 12 15 6 16 3 17 2 18 1 19 4 20 5 21 19 22 20 23 21 24 22 25
REMARK SMILES IDX 23 27 24 28 25 29 77 30 26 31 76 32 27 33 28 34 29 35 70 36
REMARK SMILES IDX 30 37 75 38 69 39 71 40 31 41 74 42 68 43 67 44 32 46 58 47
REMARK SMILES IDX 41 48 57 49 42 50 45 51 56 52 72 53 43 54 44 55 55 57 73 58
REMARK SMILES IDX 46 59 33 60 34 61 39 62 35 63 36 64 38 65 40 66 37 67 59 68
REMARK SMILES IDX 60 69 65 70 61 71 62 72 64 73 66 74 63 75 47 76 48 77 53 78
REMARK SMILES IDX 49 79 50 80 52 81 54 82 51 83
REMARK H PARENT 17 5 7 11 21 26 71 45 45 56
REMARK Flexibility Score: inf
ROOT
ATOM      1  C   UNL A   1      32.799  28.153  24.455  1.00  0.00     0.117 C 
ENDROOT
BRANCH   1   2
ATOM      2  N   UNL A   1      33.134  27.702  23.110  1.00  0.00    -0.356 N 
ATOM      3  C   UNL A   1      33.351  26.462  22.583  1.00  0.00     0.220 C 
ATOM      4  O   UNL A   1      33.674  26.405  21.393  1.00  0.00    -0.275 OA
ATOM      5  H   UNL A   1      33.220  28.433  22.456  1.00  0.00     0.163 HD
BRANCH   3   6
ATOM      6  C   UNL A   1      33.201  25.183  23.398  1.00  0.00     0.104 C 
BRANCH   6   7
ATOM      7  C   UNL A   1      34.527  24.650  24.000  1.00  0.00     0.010 C 
ATOM      8  N   UNL A   1      34.986  22.036  25.396  1.00  0.00    -0.330 N 
ATOM      9  C   UNL A   1      35.761  22.365  24.171  1.00  0.00     0.184 C 
ATOM     10  C   UNL A   1      35.110  23.279  26.154  1.00  0.00     0.184 C 
ATOM     11  H   UNL A   1      35.316  21.262  25.972  1.00  0.00     0.348 HD
ATOM     12  C   UNL A   1      37.040  22.986  24.748  1.00  0.00     0.071 C 
ATOM     13  C   UNL A   1      35.023  23.382  23.261  1.00  0.00     0.069 C 
ATOM     14  C   UNL A   1      36.613  23.557  26.093  1.00  0.00     0.071 C 
ATOM     15  C   UNL A   1      34.345  24.427  25.504  1.00  0.00     0.069 C 
BRANCH   8  16
ATOM     16  C   UNL A   1      33.657  21.481  25.083  1.00  0.00     0.266 C 
BRANCH  16  17
ATOM     17  C   UNL A   1      33.414  20.041  24.516  1.00  0.00     0.044 C 
BRANCH  17  18
ATOM     18  C   UNL A   1      32.980  19.031  25.594  1.00  0.00     0.006 C 
ATOM     19  C   UNL A   1      32.607  17.625  25.146  1.00  0.00     0.004 C 
ENDBRANCH  17  18
BRANCH  17  20
ATOM     20  C   UNL A   1      32.341  20.134  23.387  1.00  0.00     0.006 C 
ATOM     21  C   UNL A   1      32.154  21.527  22.780  1.00  0.00     0.004 C 
ENDBRANCH  17  20
ENDBRANCH  16  17
ENDBRANCH   8  16
ENDBRANCH   6   7
ENDBRANCH   3   6
ENDBRANCH   1   2
BRANCH   1  22
ATOM     22  C   UNL A   1      34.052  28.300  25.322  1.00  0.00     0.042 C 
BRANCH  22  23
ATOM     23  C   UNL A   1      33.828  28.340  26.821  1.00  0.00     0.118 C 
BRANCH  23  24
ATOM     24  N   UNL A   1      33.672  29.687  27.347  1.00  0.00    -0.352 N 
ATOM     25  C   UNL A   1      34.535  30.494  28.051  1.00  0.00     0.251 C 
ATOM     26  H   UNL A   1      32.794  30.092  27.168  1.00  0.00     0.163 HD
ATOM     27  O   UNL A   1      34.105  31.562  28.496  1.00  0.00    -0.269 OA
BRANCH  25  28
ATOM     28  C   UNL A   1      35.947  30.116  28.320  1.00  0.00     0.039 A 
ATOM     29  C   UNL A   1      36.297  29.684  29.606  1.00  0.00     0.014 A 
ATOM     30  C   UNL A   1      36.945  30.214  27.350  1.00  0.00     0.014 A 
ATOM     31  C   UNL A   1      37.613  29.298  29.891  1.00  0.00     0.010 A 
ATOM     32  C   UNL A   1      38.220  29.710  27.597  1.00  0.00     0.010 A 
ATOM     33  C   UNL A   1      38.580  29.265  28.876  1.00  0.00    -0.014 A 
BRANCH  33  34
ATOM     34  C   UNL A   1      39.979  28.817  29.126  1.00  0.00     0.031 A 
ATOM     35  C   UNL A   1      40.966  29.755  29.775  1.00  0.00     0.074 A 
ATOM     36  C   UNL A   1      40.385  27.600  28.708  1.00  0.00     0.049 A 
ATOM     37  N   UNL A   1      42.254  29.609  29.961  1.00  0.00    -0.248 NA
ATOM     38  C   UNL A   1      40.440  31.047  30.248  1.00  0.00     0.031 C 
ATOM     39  C   UNL A   1      39.548  26.611  28.028  1.00  0.00     0.029 A 
ATOM     40  N   UNL A   1      41.616  26.994  28.782  1.00  0.00    -0.354 N 
ATOM     41  C   UNL A   1      42.688  30.789  30.552  1.00  0.00     0.074 A 
ATOM     42  C   UNL A   1      41.545  31.671  30.625  1.00  0.00     0.031 C 
ATOM     43  C   UNL A   1      40.281  25.516  27.769  1.00  0.00     0.029 A 
ATOM     44  C   UNL A   1      41.650  25.741  28.217  1.00  0.00     0.049 A 
ATOM     45  H   UNL A   1      42.401  27.418  29.200  1.00  0.00     0.167 HD
ATOM     46  C   UNL A   1      43.918  31.102  31.025  1.00  0.00     0.037 A 
ATOM     47  C   UNL A   1      42.674  24.878  28.064  1.00  0.00     0.037 A 
ATOM     48  C   UNL A   1      45.050  30.215  30.979  1.00  0.00     0.049 A 
ATOM     49  C   UNL A   1      44.037  25.260  28.575  1.00  0.00     0.074 A 
ATOM     50  C   UNL A   1      46.330  30.423  31.461  1.00  0.00     0.029 A 
ATOM     51  N   UNL A   1      45.033  28.945  30.422  1.00  0.00    -0.354 N 
ATOM     52  N   UNL A   1      44.418  26.361  29.177  1.00  0.00    -0.248 NA
ATOM     53  C   UNL A   1      45.113  24.275  28.392  1.00  0.00     0.031 C 
ATOM     54  C   UNL A   1      47.100  29.296  31.161  1.00  0.00     0.029 A 
ATOM     55  C   UNL A   1      46.284  28.364  30.538  1.00  0.00     0.049 A 
ATOM     56  H   UNL A   1      44.249  28.521  30.006  1.00  0.00     0.167 HD
ATOM     57  C   UNL A   1      45.764  26.186  29.475  1.00  0.00     0.074 A 
ATOM     58  C   UNL A   1      46.128  24.867  29.003  1.00  0.00     0.031 C 
ATOM     59  C   UNL A   1      46.623  27.040  30.082  1.00  0.00     0.037 A 
BRANCH  46  60
ATOM     60  C   UNL A   1      44.096  32.455  31.656  1.00  0.00     0.057 A 
ATOM     61  C   UNL A   1      44.468  33.576  30.902  1.00  0.00     0.134 A 
ATOM     62  C   UNL A   1      43.856  32.651  33.023  1.00  0.00     0.134 A 
ATOM     63  F   UNL A   1      44.725  33.458  29.590  1.00  0.00    -0.206 F 
ATOM     64  C   UNL A   1      44.625  34.834  31.486  1.00  0.00     0.040 A 
ATOM     65  C   UNL A   1      43.979  33.911  33.613  1.00  0.00     0.040 A 
ATOM     66  F   UNL A   1      43.489  31.625  33.805  1.00  0.00    -0.206 F 
ATOM     67  C   UNL A   1      44.372  35.006  32.845  1.00  0.00     0.006 A 
ENDBRANCH  46  60
BRANCH  47  68
ATOM     68  C   UNL A   1      42.458  23.563  27.404  1.00  0.00     0.057 A 
ATOM     69  C   UNL A   1      42.168  22.416  28.154  1.00  0.00     0.134 A 
ATOM     70  C   UNL A   1      42.577  23.409  26.018  1.00  0.00     0.134 A 
ATOM     71  F   UNL A   1      42.061  22.493  29.490  1.00  0.00    -0.206 F 
ATOM     72  C   UNL A   1      42.039  21.161  27.557  1.00  0.00     0.040 A 
ATOM     73  C   UNL A   1      42.417  22.165  25.402  1.00  0.00     0.040 A 
ATOM     74  F   UNL A   1      42.844  24.467  25.239  1.00  0.00    -0.206 F 
ATOM     75  C   UNL A   1      42.161  21.035  26.174  1.00  0.00     0.006 A 
ENDBRANCH  47  68
BRANCH  59  76
ATOM     76  C   UNL A   1      48.024  26.556  30.319  1.00  0.00     0.057 A 
ATOM     77  C   UNL A   1      48.380  25.845  31.472  1.00  0.00     0.134 A 
ATOM     78  C   UNL A   1      49.021  26.773  29.359  1.00  0.00     0.134 A 
ATOM     79  F   UNL A   1      47.475  25.616  32.435  1.00  0.00    -0.206 F 
ATOM     80  C   UNL A   1      49.685  25.392  31.675  1.00  0.00     0.040 A 
ATOM     81  C   UNL A   1      50.321  26.297  29.536  1.00  0.00     0.040 A 
ATOM     82  F   UNL A   1      48.745  27.437  28.227  1.00  0.00    -0.206 F 
ATOM     83  C   UNL A   1      50.657  25.611  30.701  1.00  0.00     0.006 A 
ENDBRANCH  59  76
ENDBRANCH  33  34
ENDBRANCH  25  28
ENDBRANCH  23  24
ENDBRANCH  22  23
ENDBRANCH   1  22
TORSDOF 15
ENDMDL
MODEL 2
REMARK VINA RESULT:     -10.7      1.334      2.782
REMARK SMILES CCC(CC)C[N@H+]1[C@@H]2CC[C@H]1C[C@H](CC(=O)NCCCNC(=O)c1ccc(-c3c4nc(c(-c5c(F)cccc5F)c5ccc([nH]5)c(-c5c(F)cccc5F)c5nc(c(-c6c(F)cccc6F)c6ccc3[nH]6)C=C5)C=C4)cc1)C2
REMARK SMILES IDX 18 1 17 2 15 3 16 4 14 6 13 7 7 8 8 9 11 10 9 12 78 13 10 14
REMARK SMILES IDX 12 15 6 16 3 17 2 18 1 19 4 20 5 21 19 22 20 23 21 24 22 25
REMARK SMILES IDX 23 27 24 28 25 29 77 30 26 31 76 32 27 33 28 34 29 35 70 36
REMARK SMILES IDX 30 37 75 38 69 39 71 40 31 41 74 42 68 43 67 44 32 46 58 47
REMARK SMILES IDX 41 48 57 49 42 50 45 51 56 52 72 53 43 54 44 55 55 57 73 58
REMARK SMILES IDX 46 59 33 60 34 61 39 62 35 63 36 64 38 65 40 66 37 67 59 68
REMARK SMILES IDX 60 69 65 70 61 71 62 72 64 73 66 74 63 75 47 76 48 77 53 78
REMARK SMILES IDX 49 79 50 80 52 81 54 82 51 83
REMARK H PARENT 17 5 7 11 21 26 71 45 45 56
REMARK Flexibility Score: inf
ROOT
ATOM      1  C   UNL A   1      31.871  26.716  26.266  1.00  0.00     0.117 C 
ENDROOT
BRANCH   1   2
ATOM      2  N   UNL A   1      31.136  25.615  26.876  1.00  0.00    -0.356 N 
ATOM      3  C   UNL A   1      30.868  24.344  26.458  1.00  0.00     0.220 C 
ATOM      4  O   UNL A   1      30.161  23.647  27.190  1.00  0.00    -0.275 OA
ATOM      5  H   UNL A   1      30.760  25.830  27.760  1.00  0.00     0.163 HD
BRANCH   3   6
ATOM      6  C   UNL A   1      31.412  23.775  25.152  1.00  0.00     0.104 C 
BRANCH   6   7
ATOM      7  C   UNL A   1      31.704  22.253  25.191  1.00  0.00     0.010 C 
ATOM      8  N   UNL A   1      34.297  20.869  24.595  1.00  0.00    -0.330 N 
ATOM      9  C   UNL A   1      33.663  20.707  25.930  1.00  0.00     0.184 C 
ATOM     10  C   UNL A   1      33.155  20.654  23.709  1.00  0.00     0.184 C 
ATOM     11  H   UNL A   1      35.041  20.220  24.341  1.00  0.00     0.348 HD
ATOM     12  C   UNL A   1      32.847  19.420  25.752  1.00  0.00     0.071 C 
ATOM     13  C   UNL A   1      32.735  21.897  26.292  1.00  0.00     0.069 C 
ATOM     14  C   UNL A   1      32.546  19.363  24.261  1.00  0.00     0.071 C 
ATOM     15  C   UNL A   1      32.136  21.785  23.799  1.00  0.00     0.069 C 
BRANCH   8  16
ATOM     16  C   UNL A   1      35.091  22.107  24.502  1.00  0.00     0.266 C 
BRANCH  16  17
ATOM     17  C   UNL A   1      36.184  22.534  25.541  1.00  0.00     0.044 C 
BRANCH  17  18
ATOM     18  C   UNL A   1      37.611  22.144  25.114  1.00  0.00     0.006 C 
ATOM     19  C   UNL A   1      38.733  22.324  26.126  1.00  0.00     0.004 C 
ENDBRANCH  17  18
BRANCH  17  20
ATOM     20  C   UNL A   1      36.078  24.075  25.756  1.00  0.00     0.006 C 
ATOM     21  C   UNL A   1      34.913  24.755  25.032  1.00  0.00     0.004 C 
ENDBRANCH  17  20
ENDBRANCH  16  17
ENDBRANCH   8  16
ENDBRANCH   6   7
ENDBRANCH   3   6
ENDBRANCH   1   2
BRANCH   1  22
ATOM     22  C   UNL A   1      32.174  27.817  27.286  1.00  0.00     0.042 C 
BRANCH  22  23
ATOM     23  C   UNL A   1      33.549  28.450  27.199  1.00  0.00     0.118 C 
BRANCH  23  24
ATOM     24  N   UNL A   1      33.574  29.840  27.626  1.00  0.00    -0.352 N 
ATOM     25  C   UNL A   1      34.568  30.599  28.198  1.00  0.00     0.251 C 
ATOM     26  H   UNL A   1      32.729  30.324  27.481  1.00  0.00     0.163 HD
ATOM     27  O   UNL A   1      34.286  31.735  28.587  1.00  0.00    -0.269 OA
BRANCH  25  28
ATOM     28  C   UNL A   1      35.952  30.091  28.391  1.00  0.00     0.039 A 
ATOM     29  C   UNL A   1      36.848  30.149  27.315  1.00  0.00     0.014 A 
ATOM     30  C   UNL A   1      36.379  29.522  29.591  1.00  0.00     0.014 A 
ATOM     31  C   UNL A   1      38.167  29.703  27.465  1.00  0.00     0.010 A 
ATOM     32  C   UNL A   1      37.721  29.197  29.778  1.00  0.00     0.010 A 
ATOM     33  C   UNL A   1      38.630  29.261  28.713  1.00  0.00    -0.014 A 
BRANCH  33  34
ATOM     34  C   UNL A   1      40.037  28.820  28.928  1.00  0.00     0.031 A 
ATOM     35  C   UNL A   1      41.048  29.783  29.500  1.00  0.00     0.074 A 
ATOM     36  C   UNL A   1      40.427  27.587  28.545  1.00  0.00     0.049 A 
ATOM     37  N   UNL A   1      42.343  29.641  29.642  1.00  0.00    -0.248 NA
ATOM     38  C   UNL A   1      40.542  31.094  29.939  1.00  0.00     0.031 C 
ATOM     39  C   UNL A   1      39.564  26.572  27.939  1.00  0.00     0.029 A 
ATOM     40  N   UNL A   1      41.659  26.982  28.597  1.00  0.00    -0.354 N 
ATOM     41  C   UNL A   1      42.800  30.844  30.168  1.00  0.00     0.074 A 
ATOM     42  C   UNL A   1      41.660  31.730  30.248  1.00  0.00     0.031 C 
ATOM     43  C   UNL A   1      40.286  25.466  27.697  1.00  0.00     0.029 A 
ATOM     44  C   UNL A   1      41.672  25.706  28.084  1.00  0.00     0.049 A 
ATOM     45  H   UNL A   1      42.460  27.421  28.967  1.00  0.00     0.167 HD
ATOM     46  C   UNL A   1      44.047  31.174  30.580  1.00  0.00     0.037 A 
ATOM     47  C   UNL A   1      42.688  24.836  27.927  1.00  0.00     0.037 A 
ATOM     48  C   UNL A   1      45.176  30.284  30.527  1.00  0.00     0.049 A 
ATOM     49  C   UNL A   1      44.070  25.236  28.370  1.00  0.00     0.074 A 
ATOM     50  C   UNL A   1      46.474  30.508  30.952  1.00  0.00     0.029 A 
ATOM     51  N   UNL A   1      45.137  28.992  30.024  1.00  0.00    -0.354 N 
ATOM     52  N   UNL A   1      44.474  26.360  28.911  1.00  0.00    -0.248 NA
ATOM     53  C   UNL A   1      45.138  24.242  28.186  1.00  0.00     0.031 C 
ATOM     54  C   UNL A   1      47.231  29.368  30.669  1.00  0.00     0.029 A 
ATOM     55  C   UNL A   1      46.392  28.413  30.116  1.00  0.00     0.049 A 
ATOM     56  H   UNL A   1      44.337  28.553  29.656  1.00  0.00     0.167 HD
ATOM     57  C   UNL A   1      45.831  26.194  29.164  1.00  0.00     0.074 A 
ATOM     58  C   UNL A   1      46.175  24.856  28.734  1.00  0.00     0.031 C 
ATOM     59  C   UNL A   1      46.713  27.072  29.703  1.00  0.00     0.037 A 
BRANCH  46  60
ATOM     60  C   UNL A   1      44.249  32.551  31.148  1.00  0.00     0.057 A 
ATOM     61  C   UNL A   1      44.129  32.806  32.521  1.00  0.00     0.134 A 
ATOM     62  C   UNL A   1      44.606  33.626  30.324  1.00  0.00     0.134 A 
ATOM     63  F   UNL A   1      43.778  31.825  33.367  1.00  0.00    -0.206 F 
ATOM     64  C   UNL A   1      44.326  34.083  33.049  1.00  0.00     0.040 A 
ATOM     65  C   UNL A   1      44.837  34.902  30.845  1.00  0.00     0.040 A 
ATOM     66  F   UNL A   1      44.747  33.454  29.001  1.00  0.00    -0.206 F 
ATOM     67  C   UNL A   1      44.690  35.134  32.211  1.00  0.00     0.006 A 
ENDBRANCH  46  60
BRANCH  47  68
ATOM     68  C   UNL A   1      42.447  23.496  27.330  1.00  0.00     0.057 A 
ATOM     69  C   UNL A   1      42.120  22.394  28.133  1.00  0.00     0.134 A 
ATOM     70  C   UNL A   1      42.577  23.270  25.955  1.00  0.00     0.134 A 
ATOM     71  F   UNL A   1      42.001  22.540  29.461  1.00  0.00    -0.206 F 
ATOM     72  C   UNL A   1      41.966  21.115  27.597  1.00  0.00     0.040 A 
ATOM     73  C   UNL A   1      42.393  22.001  25.399  1.00  0.00     0.040 A 
ATOM     74  F   UNL A   1      42.879  24.281  25.128  1.00  0.00    -0.206 F 
ATOM     75  C   UNL A   1      42.101  20.917  26.223  1.00  0.00     0.006 A 
ENDBRANCH  47  68
BRANCH  59  76
ATOM     76  C   UNL A   1      48.121  26.594  29.906  1.00  0.00     0.057 A 
ATOM     77  C   UNL A   1      49.127  26.818  28.957  1.00  0.00     0.134 A 
ATOM     78  C   UNL A   1      48.482  25.933  31.087  1.00  0.00     0.134 A 
ATOM     79  F   UNL A   1      48.844  27.435  27.800  1.00  0.00    -0.206 F 
ATOM     80  C   UNL A   1      50.434  26.377  29.164  1.00  0.00     0.040 A 
ATOM     81  C   UNL A   1      49.793  25.515  31.318  1.00  0.00     0.040 A 
ATOM     82  F   UNL A   1      47.570  25.696  32.042  1.00  0.00    -0.206 F 
ATOM     83  C   UNL A   1      50.772  25.731  30.351  1.00  0.00     0.006 A 
ENDBRANCH  59  76
ENDBRANCH  33  34
ENDBRANCH  25  28
ENDBRANCH  23  24
ENDBRANCH  22  23
ENDBRANCH   1  22
TORSDOF 15
ENDMDL
MODEL 3
REMARK VINA RESULT:     -10.4      0.418      1.490
REMARK SMILES CCC(CC)C[N@H+]1[C@@H]2CC[C@H]1C[C@H](CC(=O)NCCCNC(=O)c1ccc(-c3c4nc(c(-c5c(F)cccc5F)c5ccc([nH]5)c(-c5c(F)cccc5F)c5nc(c(-c6c(F)cccc6F)c6ccc3[nH]6)C=C5)C=C4)cc1)C2
REMARK SMILES IDX 18 1 17 2 15 3 16 4 14 6 13 7 7 8 8 9 11 10 9 12 78 13 10 14
REMARK SMILES IDX 12 15 6 16 3 17 2 18 1 19 4 20 5 21 19 22 20 23 21 24 22 25
REMARK SMILES IDX 23 27 24 28 25 29 77 30 26 31 76 32 27 33 28 34 29 35 70 36
REMARK SMILES IDX 30 37 75 38 69 39 71 40 31 41 74 42 68 43 67 44 32 46 58 47
REMARK SMILES IDX 41 48 57 49 42 50 45 51 56 52 72 53 43 54 44 55 55 57 73 58
REMARK SMILES IDX 46 59 33 60 34 61 39 62 35 63 36 64 38 65 40 66 37 67 59 68
REMARK SMILES IDX 60 69 65 70 61 71 62 72 64 73 66 74 63 75 47 76 48 77 53 78
REMARK SMILES IDX 49 79 50 80 52 81 54 82 51 83
REMARK H PARENT 17 5 7 11 21 26 71 45 45 56
REMARK Flexibility Score: inf
ROOT
ATOM      1  C   UNL A   1      32.766  27.287  24.710  1.00  0.00     0.117 C 
ENDROOT
BRANCH   1   2
ATOM      2  N   UNL A   1      33.080  27.113  23.297  1.00  0.00    -0.356 N 
ATOM      3  C   UNL A   1      33.418  26.017  22.558  1.00  0.00     0.220 C 
ATOM      4  O   UNL A   1      33.680  26.200  21.366  1.00  0.00    -0.275 OA
ATOM      5  H   UNL A   1      33.041  27.948  22.775  1.00  0.00     0.163 HD
BRANCH   3   6
ATOM      6  C   UNL A   1      33.469  24.611  23.146  1.00  0.00     0.104 C 
BRANCH   6   7
ATOM      7  C   UNL A   1      34.830  24.237  23.788  1.00  0.00     0.010 C 
ATOM      8  N   UNL A   1      35.394  22.017  25.723  1.00  0.00    -0.330 N 
ATOM      9  C   UNL A   1      36.105  22.057  24.418  1.00  0.00     0.184 C 
ATOM     10  C   UNL A   1      35.535  23.401  26.168  1.00  0.00     0.184 C 
ATOM     11  H   UNL A   1      35.762  21.398  26.445  1.00  0.00     0.348 HD
ATOM     12  C   UNL A   1      37.400  22.799  24.773  1.00  0.00     0.071 C 
ATOM     13  C   UNL A   1      35.309  22.834  23.337  1.00  0.00     0.069 C 
ATOM     14  C   UNL A   1      37.029  23.664  25.970  1.00  0.00     0.071 C 
ATOM     15  C   UNL A   1      34.723  24.366  25.310  1.00  0.00     0.069 C 
BRANCH   8  16
ATOM     16  C   UNL A   1      34.059  21.400  25.613  1.00  0.00     0.266 C 
BRANCH  16  17
ATOM     17  C   UNL A   1      33.603  20.494  24.419  1.00  0.00     0.044 C 
BRANCH  17  18
ATOM     18  C   UNL A   1      33.355  19.031  24.829  1.00  0.00     0.006 C 
ATOM     19  C   UNL A   1      34.357  17.981  24.371  1.00  0.00     0.004 C 
ENDBRANCH  17  18
BRANCH  17  20
ATOM     20  C   UNL A   1      32.315  21.116  23.797  1.00  0.00     0.006 C 
ATOM     21  C   UNL A   1      32.044  20.732  22.341  1.00  0.00     0.004 C 
ENDBRANCH  17  20
ENDBRANCH  16  17
ENDBRANCH   8  16
ENDBRANCH   6   7
ENDBRANCH   3   6
ENDBRANCH   1   2
BRANCH   1  22
ATOM     22  C   UNL A   1      33.360  28.588  25.256  1.00  0.00     0.042 C 
BRANCH  22  23
ATOM     23  C   UNL A   1      33.810  28.562  26.704  1.00  0.00     0.118 C 
BRANCH  23  24
ATOM     24  N   UNL A   1      33.746  29.862  27.353  1.00  0.00    -0.352 N 
ATOM     25  C   UNL A   1      34.658  30.536  28.132  1.00  0.00     0.251 C 
ATOM     26  H   UNL A   1      32.901  30.345  27.210  1.00  0.00     0.163 HD
ATOM     27  O   UNL A   1      34.302  31.586  28.673  1.00  0.00    -0.269 OA
BRANCH  25  28
ATOM     28  C   UNL A   1      36.037  30.033  28.367  1.00  0.00     0.039 A 
ATOM     29  C   UNL A   1      36.978  30.136  27.335  1.00  0.00     0.014 A 
ATOM     30  C   UNL A   1      36.417  29.425  29.564  1.00  0.00     0.014 A 
ATOM     31  C   UNL A   1      38.293  29.695  27.527  1.00  0.00     0.010 A 
ATOM     32  C   UNL A   1      37.752  29.104  29.798  1.00  0.00     0.010 A 
ATOM     33  C   UNL A   1      38.706  29.213  28.778  1.00  0.00    -0.014 A 
BRANCH  33  34
ATOM     34  C   UNL A   1      40.106  28.776  29.039  1.00  0.00     0.031 A 
ATOM     35  C   UNL A   1      41.090  29.735  29.663  1.00  0.00     0.074 A 
ATOM     36  C   UNL A   1      40.517  27.550  28.653  1.00  0.00     0.049 A 
ATOM     37  N   UNL A   1      42.379  29.598  29.851  1.00  0.00    -0.248 NA
ATOM     38  C   UNL A   1      40.560  31.037  30.101  1.00  0.00     0.031 C 
ATOM     39  C   UNL A   1      39.683  26.540  28.000  1.00  0.00     0.029 A 
ATOM     40  N   UNL A   1      41.750  26.951  28.742  1.00  0.00    -0.354 N 
ATOM     41  C   UNL A   1      42.810  30.795  30.411  1.00  0.00     0.074 A 
ATOM     42  C   UNL A   1      41.663  31.674  30.461  1.00  0.00     0.031 C 
ATOM     43  C   UNL A   1      40.419  25.441  27.769  1.00  0.00     0.029 A 
ATOM     44  C   UNL A   1      41.788  25.683  28.211  1.00  0.00     0.049 A 
ATOM     45  H   UNL A   1      42.533  27.389  29.148  1.00  0.00     0.167 HD
ATOM     46  C   UNL A   1      44.038  31.125  30.875  1.00  0.00     0.037 A 
ATOM     47  C   UNL A   1      42.815  24.821  28.080  1.00  0.00     0.037 A 
ATOM     48  C   UNL A   1      45.174  30.241  30.851  1.00  0.00     0.049 A 
ATOM     49  C   UNL A   1      44.177  25.221  28.580  1.00  0.00     0.074 A 
ATOM     50  C   UNL A   1      46.453  30.466  31.328  1.00  0.00     0.029 A 
ATOM     51  N   UNL A   1      45.161  28.957  30.328  1.00  0.00    -0.354 N 
ATOM     52  N   UNL A   1      44.554  26.338  29.153  1.00  0.00    -0.248 NA
ATOM     53  C   UNL A   1      45.256  24.234  28.423  1.00  0.00     0.031 C 
ATOM     54  C   UNL A   1      47.226  29.334  31.056  1.00  0.00     0.029 A 
ATOM     55  C   UNL A   1      46.414  28.383  30.459  1.00  0.00     0.049 A 
ATOM     56  H   UNL A   1      44.378  28.519  29.924  1.00  0.00     0.167 HD
ATOM     57  C   UNL A   1      45.901  26.176  29.454  1.00  0.00     0.074 A 
ATOM     58  C   UNL A   1      46.269  24.846  29.017  1.00  0.00     0.031 C 
ATOM     59  C   UNL A   1      46.758  27.049  30.038  1.00  0.00     0.037 A 
BRANCH  46  60
ATOM     60  C   UNL A   1      44.212  32.495  31.470  1.00  0.00     0.057 A 
ATOM     61  C   UNL A   1      44.593  33.594  30.688  1.00  0.00     0.134 A 
ATOM     62  C   UNL A   1      43.958  32.729  32.828  1.00  0.00     0.134 A 
ATOM     63  F   UNL A   1      44.864  33.438  29.383  1.00  0.00    -0.206 F 
ATOM     64  C   UNL A   1      44.746  34.867  31.239  1.00  0.00     0.040 A 
ATOM     65  C   UNL A   1      44.077  34.005  33.384  1.00  0.00     0.040 A 
ATOM     66  F   UNL A   1      43.581  31.725  33.634  1.00  0.00    -0.206 F 
ATOM     67  C   UNL A   1      44.479  35.077  32.590  1.00  0.00     0.006 A 
ENDBRANCH  46  60
BRANCH  47  68
ATOM     68  C   UNL A   1      42.604  23.488  27.455  1.00  0.00     0.057 A 
ATOM     69  C   UNL A   1      42.651  23.324  26.065  1.00  0.00     0.134 A 
ATOM     70  C   UNL A   1      42.311  22.355  28.225  1.00  0.00     0.134 A 
ATOM     71  F   UNL A   1      42.908  24.374  25.270  1.00  0.00    -0.206 F 
ATOM     72  C   UNL A   1      42.380  22.095  25.461  1.00  0.00     0.040 A 
ATOM     73  C   UNL A   1      42.070  21.111  27.636  1.00  0.00     0.040 A 
ATOM     74  F   UNL A   1      42.259  22.438  29.561  1.00  0.00    -0.206 F 
ATOM     75  C   UNL A   1      42.091  20.982  26.249  1.00  0.00     0.006 A 
ENDBRANCH  47  68
BRANCH  59  76
ATOM     76  C   UNL A   1      48.160  26.576  30.287  1.00  0.00     0.057 A 
ATOM     77  C   UNL A   1      49.190  26.780  29.359  1.00  0.00     0.134 A 
ATOM     78  C   UNL A   1      48.490  25.939  31.491  1.00  0.00     0.134 A 
ATOM     79  F   UNL A   1      48.936  27.372  28.183  1.00  0.00    -0.206 F 
ATOM     80  C   UNL A   1      50.491  26.343  29.609  1.00  0.00     0.040 A 
ATOM     81  C   UNL A   1      49.795  25.526  31.764  1.00  0.00     0.040 A 
ATOM     82  F   UNL A   1      47.554  25.722  32.427  1.00  0.00    -0.206 F 
ATOM     83  C   UNL A   1      50.798  25.721  30.817  1.00  0.00     0.006 A 
ENDBRANCH  59  76
ENDBRANCH  33  34
ENDBRANCH  25  28
ENDBRANCH  23  24
ENDBRANCH  22  23
ENDBRANCH   1  22
TORSDOF 15
ENDMDL
