MODEL 1
REMARK VINA RESULT:     -12.0      0.000      0.000
REMARK SMILES CC(=O)N1CCC(C(=O)Nc2sccc2C(=O)NCCCNC(=O)c2ccc(-c3c4nc(c(-c5c(F)cccc5F)c5ccc([nH]5)c(-c5c(F)cccc5F)c5nc(c(-c6c(F)cccc6F)c6ccc3[nH]6)C=C5)C=C4)cc2)CC1
REMARK SMILES IDX 20 1 19 2 18 3 16 4 17 5 15 7 11 8 12 9 13 10 14 11 10 12
REMARK SMILES IDX 8 13 9 14 7 16 1 17 2 18 3 19 4 20 5 21 80 22 6 23 79 24
REMARK SMILES IDX 21 25 22 26 23 27 24 29 25 30 26 31 78 32 27 33 77 34 28 35
REMARK SMILES IDX 29 36 30 37 71 38 31 39 76 40 70 41 72 42 32 43 75 44 69 45
REMARK SMILES IDX 68 46 33 48 59 49 42 50 58 51 43 52 46 53 57 54 73 55 44 56
REMARK SMILES IDX 45 57 56 59 74 60 47 61 34 62 35 63 40 64 36 65 37 66 39 67
REMARK SMILES IDX 41 68 38 69 60 70 61 71 66 72 62 73 63 74 65 75 67 76 64 77
REMARK SMILES IDX 48 78 49 79 54 80 50 81 51 82 53 83 55 84 52 85
REMARK H PARENT 18 6 10 15 22 28 72 47 46 58
REMARK Flexibility Score: inf
ROOT
ATOM      1  C   UNL A   1      37.860  20.439  24.944  1.00  0.00     0.042 C 
ENDROOT
BRANCH   1   2
ATOM      2  C   UNL A   1      37.268  21.778  24.540  1.00  0.00     0.118 C 
BRANCH   2   3
ATOM      3  N   UNL A   1      36.415  22.341  25.563  1.00  0.00    -0.352 N 
ATOM      4  C   UNL A   1      35.058  22.465  25.649  1.00  0.00     0.254 C 
ATOM      5  O   UNL A   1      34.643  23.053  26.650  1.00  0.00    -0.269 OA
ATOM      6  H   UNL A   1      36.902  22.700  26.339  1.00  0.00     0.163 HD
BRANCH   4   7
ATOM      7  C   UNL A   1      34.128  22.010  24.608  1.00  0.00     0.074 A 
ATOM      8  C   UNL A   1      33.674  22.593  23.436  1.00  0.00     0.108 A 
ATOM      9  S   UNL A   1      32.301  21.792  22.796  1.00  0.00    -0.126 S 
ATOM     10  C   UNL A   1      32.517  20.459  23.828  1.00  0.00     0.068 A 
ATOM     11  C   UNL A   1      33.509  20.703  24.746  1.00  0.00     0.028 A 
BRANCH   8  12
ATOM     12  N   UNL A   1      33.941  23.719  22.699  1.00  0.00    -0.317 N 
ATOM     13  C   UNL A   1      33.529  25.009  22.828  1.00  0.00     0.228 C 
ATOM     14  O   UNL A   1      33.774  25.762  21.874  1.00  0.00    -0.274 OA
ATOM     15  H   UNL A   1      34.543  23.565  21.935  1.00  0.00     0.170 HD
BRANCH  13  16
ATOM     16  C   UNL A   1      32.940  25.615  24.097  1.00  0.00     0.082 C 
ATOM     17  C   UNL A   1      31.425  30.091  25.187  1.00  0.00     0.114 C 
ATOM     18  C   UNL A   1      32.500  29.180  25.720  1.00  0.00     0.219 C 
ATOM     19  O   UNL A   1      33.564  29.650  26.124  1.00  0.00    -0.275 OA
ATOM     20  N   UNL A   1      32.221  27.820  25.747  1.00  0.00    -0.343 N 
ATOM     21  C   UNL A   1      33.223  26.895  26.264  1.00  0.00     0.120 C 
ATOM     22  C   UNL A   1      31.162  27.180  24.977  1.00  0.00     0.120 C 
ATOM     23  C   UNL A   1      33.929  26.222  25.091  1.00  0.00     0.035 C 
ATOM     24  C   UNL A   1      31.781  26.559  23.729  1.00  0.00     0.035 C 
ENDBRANCH  13  16
ENDBRANCH   8  12
ENDBRANCH   4   7
ENDBRANCH   2   3
ENDBRANCH   1   2
BRANCH   1  25
ATOM     25  C   UNL A   1      39.009  20.599  25.937  1.00  0.00     0.118 C 
BRANCH  25  26
ATOM     26  N   UNL A   1      40.017  19.546  25.853  1.00  0.00    -0.352 N 
ATOM     27  C   UNL A   1      41.370  19.574  26.126  1.00  0.00     0.251 C 
ATOM     28  H   UNL A   1      39.677  18.673  25.553  1.00  0.00     0.163 HD
ATOM     29  O   UNL A   1      42.066  18.589  25.931  1.00  0.00    -0.269 OA
BRANCH  27  30
ATOM     30  C   UNL A   1      41.988  20.829  26.600  1.00  0.00     0.039 A 
ATOM     31  C   UNL A   1      42.432  21.764  25.662  1.00  0.00     0.014 A 
ATOM     32  C   UNL A   1      42.055  21.115  27.960  1.00  0.00     0.014 A 
ATOM     33  C   UNL A   1      42.812  23.039  26.089  1.00  0.00     0.010 A 
ATOM     34  C   UNL A   1      42.304  22.417  28.369  1.00  0.00     0.010 A 
ATOM     35  C   UNL A   1      42.677  23.401  27.438  1.00  0.00    -0.014 A 
BRANCH  35  36
ATOM     36  C   UNL A   1      42.908  24.789  27.920  1.00  0.00     0.031 A 
ATOM     37  C   UNL A   1      44.294  25.211  28.329  1.00  0.00     0.074 A 
ATOM     38  C   UNL A   1      41.868  25.628  28.107  1.00  0.00     0.049 A 
ATOM     39  N   UNL A   1      44.678  26.278  28.981  1.00  0.00    -0.248 NA
ATOM     40  C   UNL A   1      45.387  24.278  28.009  1.00  0.00     0.031 C 
ATOM     41  C   UNL A   1      40.464  25.333  27.805  1.00  0.00     0.029 A 
ATOM     42  N   UNL A   1      41.832  26.904  28.613  1.00  0.00    -0.354 N 
ATOM     43  C   UNL A   1      46.042  26.116  29.194  1.00  0.00     0.074 A 
ATOM     44  C   UNL A   1      46.407  24.827  28.650  1.00  0.00     0.031 C 
ATOM     45  C   UNL A   1      39.714  26.408  28.098  1.00  0.00     0.029 A 
ATOM     46  C   UNL A   1      40.570  27.448  28.655  1.00  0.00     0.049 A 
ATOM     47  H   UNL A   1      42.635  27.384  28.918  1.00  0.00     0.167 HD
ATOM     48  C   UNL A   1      46.918  26.974  29.766  1.00  0.00     0.037 A 
ATOM     49  C   UNL A   1      40.151  28.647  29.100  1.00  0.00     0.037 A 
ATOM     50  C   UNL A   1      46.570  28.287  30.236  1.00  0.00     0.049 A 
ATOM     51  C   UNL A   1      41.154  29.606  29.678  1.00  0.00     0.074 A 
ATOM     52  C   UNL A   1      47.395  29.257  30.778  1.00  0.00     0.029 A 
ATOM     53  N   UNL A   1      45.293  28.825  30.189  1.00  0.00    -0.354 N 
ATOM     54  N   UNL A   1      42.444  29.449  29.853  1.00  0.00    -0.248 NA
ATOM     55  C   UNL A   1      40.645  30.913  30.120  1.00  0.00     0.031 C 
ATOM     56  C   UNL A   1      46.614  30.380  31.070  1.00  0.00     0.029 A 
ATOM     57  C   UNL A   1      45.309  30.118  30.681  1.00  0.00     0.049 A 
ATOM     58  H   UNL A   1      44.495  28.356  29.854  1.00  0.00     0.167 HD
ATOM     59  C   UNL A   1      42.904  30.643  30.389  1.00  0.00     0.074 A 
ATOM     60  C   UNL A   1      41.758  31.520  30.507  1.00  0.00     0.031 C 
ATOM     61  C   UNL A   1      44.163  30.984  30.754  1.00  0.00     0.037 A 
BRANCH  48  62
ATOM     62  C   UNL A   1      48.344  26.523  29.886  1.00  0.00     0.057 A 
ATOM     63  C   UNL A   1      48.791  25.784  30.989  1.00  0.00     0.134 A 
ATOM     64  C   UNL A   1      49.277  26.821  28.886  1.00  0.00     0.134 A 
ATOM     65  F   UNL A   1      47.950  25.482  31.990  1.00  0.00    -0.206 F 
ATOM     66  C   UNL A   1      50.123  25.385  31.109  1.00  0.00     0.040 A 
ATOM     67  C   UNL A   1      50.605  26.402  28.980  1.00  0.00     0.040 A 
ATOM     68  F   UNL A   1      48.913  27.521  27.800  1.00  0.00    -0.206 F 
ATOM     69  C   UNL A   1      51.033  25.688  30.098  1.00  0.00     0.006 A 
ENDBRANCH  48  62
BRANCH  49  70
ATOM     70  C   UNL A   1      38.722  29.033  28.988  1.00  0.00     0.057 A 
ATOM     71  C   UNL A   1      38.206  29.515  27.779  1.00  0.00     0.134 A 
ATOM     72  C   UNL A   1      37.849  28.960  30.080  1.00  0.00     0.134 A 
ATOM     73  F   UNL A   1      39.001  29.626  26.705  1.00  0.00    -0.206 F 
ATOM     74  C   UNL A   1      36.880  29.933  27.663  1.00  0.00     0.040 A 
ATOM     75  C   UNL A   1      36.513  29.354  29.972  1.00  0.00     0.040 A 
ATOM     76  F   UNL A   1      38.279  28.500  31.262  1.00  0.00    -0.206 F 
ATOM     77  C   UNL A   1      36.028  29.851  28.763  1.00  0.00     0.006 A 
ENDBRANCH  49  70
BRANCH  61  78
ATOM     78  C   UNL A   1      44.379  32.380  31.253  1.00  0.00     0.057 A 
ATOM     79  C   UNL A   1      44.347  32.691  32.617  1.00  0.00     0.134 A 
ATOM     80  C   UNL A   1      44.674  33.413  30.355  1.00  0.00     0.134 A 
ATOM     81  F   UNL A   1      44.058  31.746  33.523  1.00  0.00    -0.206 F 
ATOM     82  C   UNL A   1      44.589  33.988  33.071  1.00  0.00     0.040 A 
ATOM     83  C   UNL A   1      44.938  34.709  30.798  1.00  0.00     0.040 A 
ATOM     84  F   UNL A   1      44.725  33.175  29.035  1.00  0.00    -0.206 F 
ATOM     85  C   UNL A   1      44.893  34.999  32.161  1.00  0.00     0.006 A 
ENDBRANCH  61  78
ENDBRANCH  35  36
ENDBRANCH  27  30
ENDBRANCH  25  26
ENDBRANCH   1  25
TORSDOF 12
ENDMDL
MODEL 2
REMARK VINA RESULT:     -11.9      2.200      7.586
REMARK SMILES CC(=O)N1CCC(C(=O)Nc2sccc2C(=O)NCCCNC(=O)c2ccc(-c3c4nc(c(-c5c(F)cccc5F)c5ccc([nH]5)c(-c5c(F)cccc5F)c5nc(c(-c6c(F)cccc6F)c6ccc3[nH]6)C=C5)C=C4)cc2)CC1
REMARK SMILES IDX 20 1 19 2 18 3 16 4 17 5 15 7 11 8 12 9 13 10 14 11 10 12
REMARK SMILES IDX 8 13 9 14 7 16 1 17 2 18 3 19 4 20 5 21 80 22 6 23 79 24
REMARK SMILES IDX 21 25 22 26 23 27 24 29 25 30 26 31 78 32 27 33 77 34 28 35
REMARK SMILES IDX 29 36 30 37 71 38 31 39 76 40 70 41 72 42 32 43 75 44 69 45
REMARK SMILES IDX 68 46 33 48 59 49 42 50 58 51 43 52 46 53 57 54 73 55 44 56
REMARK SMILES IDX 45 57 56 59 74 60 47 61 34 62 35 63 40 64 36 65 37 66 39 67
REMARK SMILES IDX 41 68 38 69 60 70 61 71 66 72 62 73 63 74 65 75 67 76 64 77
REMARK SMILES IDX 48 78 49 79 54 80 50 81 51 82 53 83 55 84 52 85
REMARK H PARENT 18 6 10 15 22 28 72 47 46 58
REMARK Flexibility Score: inf
ROOT
ATOM      1  C   UNL A   1      33.241  28.358  27.302  1.00  0.00     0.042 C 
ENDROOT
BRANCH   1   2
ATOM      2  C   UNL A   1      31.740  28.301  27.071  1.00  0.00     0.118 C 
BRANCH   2   3
ATOM      3  N   UNL A   1      31.245  26.947  26.966  1.00  0.00    -0.352 N 
ATOM      4  C   UNL A   1      30.548  26.307  25.981  1.00  0.00     0.254 C 
ATOM      5  O   UNL A   1      30.226  25.143  26.232  1.00  0.00    -0.269 OA
ATOM      6  H   UNL A   1      31.447  26.384  27.748  1.00  0.00     0.163 HD
BRANCH   4   7
ATOM      7  C   UNL A   1      30.128  26.948  24.729  1.00  0.00     0.074 A 
ATOM      8  C   UNL A   1      30.810  27.694  23.782  1.00  0.00     0.108 A 
ATOM      9  S   UNL A   1      29.754  28.526  22.720  1.00  0.00    -0.126 S 
ATOM     10  C   UNL A   1      28.412  27.624  23.243  1.00  0.00     0.068 A 
ATOM     11  C   UNL A   1      28.740  26.832  24.317  1.00  0.00     0.028 A 
BRANCH   8  12
ATOM     12  N   UNL A   1      32.108  28.058  23.528  1.00  0.00    -0.317 N 
ATOM     13  C   UNL A   1      33.289  27.411  23.723  1.00  0.00     0.228 C 
ATOM     14  O   UNL A   1      34.317  28.091  23.588  1.00  0.00    -0.274 OA
ATOM     15  H   UNL A   1      32.203  28.954  23.130  1.00  0.00     0.170 HD
BRANCH  13  16
ATOM     16  C   UNL A   1      33.436  25.909  23.939  1.00  0.00     0.082 C 
ATOM     17  C   UNL A   1      37.261  23.111  24.970  1.00  0.00     0.114 C 
ATOM     18  C   UNL A   1      36.287  23.190  23.823  1.00  0.00     0.219 C 
ATOM     19  O   UNL A   1      36.664  22.949  22.676  1.00  0.00    -0.275 OA
ATOM     20  N   UNL A   1      34.974  23.522  24.129  1.00  0.00    -0.343 N 
ATOM     21  C   UNL A   1      33.990  23.600  23.056  1.00  0.00     0.120 C 
ATOM     22  C   UNL A   1      34.551  24.152  25.372  1.00  0.00     0.120 C 
ATOM     23  C   UNL A   1      33.755  25.066  22.705  1.00  0.00     0.035 C 
ATOM     24  C   UNL A   1      34.385  25.647  25.123  1.00  0.00     0.035 C 
ENDBRANCH  13  16
ENDBRANCH   8  12
ENDBRANCH   4   7
ENDBRANCH   2   3
ENDBRANCH   1   2
BRANCH   1  25
ATOM     25  C   UNL A   1      33.841  29.680  26.830  1.00  0.00     0.118 C 
BRANCH  25  26
ATOM     26  N   UNL A   1      33.897  30.709  27.865  1.00  0.00    -0.352 N 
ATOM     27  C   UNL A   1      34.894  31.025  28.765  1.00  0.00     0.251 C 
ATOM     28  H   UNL A   1      33.091  31.271  27.932  1.00  0.00     0.163 HD
ATOM     29  O   UNL A   1      34.724  31.894  29.606  1.00  0.00    -0.269 OA
BRANCH  27  30
ATOM     30  C   UNL A   1      36.157  30.258  28.746  1.00  0.00     0.039 A 
ATOM     31  C   UNL A   1      36.977  30.326  27.617  1.00  0.00     0.014 A 
ATOM     32  C   UNL A   1      36.566  29.541  29.867  1.00  0.00     0.014 A 
ATOM     33  C   UNL A   1      38.266  29.790  27.670  1.00  0.00     0.010 A 
ATOM     34  C   UNL A   1      37.887  29.129  29.963  1.00  0.00     0.010 A 
ATOM     35  C   UNL A   1      38.759  29.256  28.871  1.00  0.00    -0.014 A 
BRANCH  35  36
ATOM     36  C   UNL A   1      40.173  28.824  29.032  1.00  0.00     0.031 A 
ATOM     37  C   UNL A   1      41.196  29.807  29.535  1.00  0.00     0.074 A 
ATOM     38  C   UNL A   1      40.563  27.601  28.617  1.00  0.00     0.049 A 
ATOM     39  N   UNL A   1      42.501  29.718  29.538  1.00  0.00    -0.248 NA
ATOM     40  C   UNL A   1      40.681  31.084  30.056  1.00  0.00     0.031 C 
ATOM     41  C   UNL A   1      39.689  26.566  28.058  1.00  0.00     0.029 A 
ATOM     42  N   UNL A   1      41.810  27.026  28.588  1.00  0.00    -0.354 N 
ATOM     43  C   UNL A   1      42.959  30.944  30.006  1.00  0.00     0.074 A 
ATOM     44  C   UNL A   1      41.797  31.775  30.227  1.00  0.00     0.031 C 
ATOM     45  C   UNL A   1      40.420  25.475  27.777  1.00  0.00     0.029 A 
ATOM     46  C   UNL A   1      41.818  25.747  28.085  1.00  0.00     0.049 A 
ATOM     47  H   UNL A   1      42.623  27.487  28.899  1.00  0.00     0.167 HD
ATOM     48  C   UNL A   1      44.230  31.334  30.256  1.00  0.00     0.037 A 
ATOM     49  C   UNL A   1      42.840  24.893  27.889  1.00  0.00     0.037 A 
ATOM     50  C   UNL A   1      45.379  30.482  30.111  1.00  0.00     0.049 A 
ATOM     51  C   UNL A   1      44.238  25.330  28.230  1.00  0.00     0.074 A 
ATOM     52  C   UNL A   1      46.704  30.763  30.394  1.00  0.00     0.029 A 
ATOM     53  N   UNL A   1      45.331  29.168  29.670  1.00  0.00    -0.354 N 
ATOM     54  N   UNL A   1      44.654  26.484  28.693  1.00  0.00    -0.248 NA
ATOM     55  C   UNL A   1      45.311  24.345  28.023  1.00  0.00     0.031 C 
ATOM     56  C   UNL A   1      47.461  29.620  30.113  1.00  0.00     0.029 A 
ATOM     57  C   UNL A   1      46.601  28.621  29.684  1.00  0.00     0.049 A 
ATOM     58  H   UNL A   1      44.514  28.696  29.389  1.00  0.00     0.167 HD
ATOM     59  C   UNL A   1      46.024  26.353  28.866  1.00  0.00     0.074 A 
ATOM     60  C   UNL A   1      46.372  25.006  28.463  1.00  0.00     0.031 C 
ATOM     61  C   UNL A   1      46.917  27.267  29.315  1.00  0.00     0.037 A 
BRANCH  48  62
ATOM     62  C   UNL A   1      44.436  32.739  30.741  1.00  0.00     0.057 A 
ATOM     63  C   UNL A   1      44.449  33.051  32.107  1.00  0.00     0.134 A 
ATOM     64  C   UNL A   1      44.634  33.788  29.835  1.00  0.00     0.134 A 
ATOM     65  F   UNL A   1      44.248  32.093  33.024  1.00  0.00    -0.206 F 
ATOM     66  C   UNL A   1      44.619  34.362  32.554  1.00  0.00     0.040 A 
ATOM     67  C   UNL A   1      44.834  35.099  30.272  1.00  0.00     0.040 A 
ATOM     68  F   UNL A   1      44.638  33.557  28.514  1.00  0.00    -0.206 F 
ATOM     69  C   UNL A   1      44.819  35.390  31.635  1.00  0.00     0.006 A 
ENDBRANCH  48  62
BRANCH  49  70
ATOM     70  C   UNL A   1      42.588  23.523  27.376  1.00  0.00     0.057 A 
ATOM     71  C   UNL A   1      42.670  23.248  26.005  1.00  0.00     0.134 A 
ATOM     72  C   UNL A   1      42.234  22.468  28.225  1.00  0.00     0.134 A 
ATOM     73  F   UNL A   1      42.986  24.223  25.141  1.00  0.00    -0.206 F 
ATOM     74  C   UNL A   1      42.387  21.981  25.494  1.00  0.00     0.040 A 
ATOM     75  C   UNL A   1      41.969  21.190  27.730  1.00  0.00     0.040 A 
ATOM     76  F   UNL A   1      42.146  22.665  29.548  1.00  0.00    -0.206 F 
ATOM     77  C   UNL A   1      42.036  20.946  26.359  1.00  0.00     0.006 A 
ENDBRANCH  49  70
BRANCH  61  78
ATOM     78  C   UNL A   1      48.341  26.823  29.458  1.00  0.00     0.057 A 
ATOM     79  C   UNL A   1      49.277  27.002  28.434  1.00  0.00     0.134 A 
ATOM     80  C   UNL A   1      48.787  26.257  30.658  1.00  0.00     0.134 A 
ATOM     81  F   UNL A   1      48.905  27.528  27.257  1.00  0.00    -0.206 F 
ATOM     82  C   UNL A   1      50.610  26.620  28.594  1.00  0.00     0.040 A 
ATOM     83  C   UNL A   1      50.121  25.891  30.837  1.00  0.00     0.040 A 
ATOM     84  F   UNL A   1      47.938  26.066  31.679  1.00  0.00    -0.206 F 
ATOM     85  C   UNL A   1      51.036  26.070  29.801  1.00  0.00     0.006 A 
ENDBRANCH  61  78
ENDBRANCH  35  36
ENDBRANCH  27  30
ENDBRANCH  25  26
ENDBRANCH   1  25
TORSDOF 12
ENDMDL
MODEL 3
REMARK VINA RESULT:     -11.8      3.722      9.344
REMARK SMILES CC(=O)N1CCC(C(=O)Nc2sccc2C(=O)NCCCNC(=O)c2ccc(-c3c4nc(c(-c5c(F)cccc5F)c5ccc([nH]5)c(-c5c(F)cccc5F)c5nc(c(-c6c(F)cccc6F)c6ccc3[nH]6)C=C5)C=C4)cc2)CC1
REMARK SMILES IDX 20 1 19 2 18 3 16 4 17 5 15 7 11 8 12 9 13 10 14 11 10 12
REMARK SMILES IDX 8 13 9 14 7 16 1 17 2 18 3 19 4 20 5 21 80 22 6 23 79 24
REMARK SMILES IDX 21 25 22 26 23 27 24 29 25 30 26 31 78 32 27 33 77 34 28 35
REMARK SMILES IDX 29 36 30 37 71 38 31 39 76 40 70 41 72 42 32 43 75 44 69 45
REMARK SMILES IDX 68 46 33 48 59 49 42 50 58 51 43 52 46 53 57 54 73 55 44 56
REMARK SMILES IDX 45 57 56 59 74 60 47 61 34 62 35 63 40 64 36 65 37 66 39 67
REMARK SMILES IDX 41 68 38 69 60 70 61 71 66 72 62 73 63 74 65 75 67 76 64 77
REMARK SMILES IDX 48 78 49 79 54 80 50 81 51 82 53 83 55 84 52 85
REMARK H PARENT 18 6 10 15 22 28 72 47 46 58
REMARK Flexibility Score: inf
ROOT
ATOM      1  C   UNL A   1      31.658  31.880  26.624  1.00  0.00     0.042 C 
ENDROOT
BRANCH   1   2
ATOM      2  C   UNL A   1      31.771  30.389  26.895  1.00  0.00     0.118 C 
BRANCH   2   3
ATOM      3  N   UNL A   1      32.770  29.748  26.071  1.00  0.00    -0.352 N 
ATOM      4  C   UNL A   1      32.681  28.749  25.144  1.00  0.00     0.254 C 
ATOM      5  O   UNL A   1      33.752  28.389  24.649  1.00  0.00    -0.269 OA
ATOM      6  H   UNL A   1      33.682  30.095  26.202  1.00  0.00     0.163 HD
BRANCH   4   7
ATOM      7  C   UNL A   1      31.426  28.073  24.789  1.00  0.00     0.074 A 
ATOM      8  C   UNL A   1      30.815  26.923  25.259  1.00  0.00     0.108 A 
ATOM      9  S   UNL A   1      29.561  26.379  24.226  1.00  0.00    -0.126 S 
ATOM     10  C   UNL A   1      29.551  27.842  23.361  1.00  0.00     0.068 A 
ATOM     11  C   UNL A   1      30.593  28.649  23.748  1.00  0.00     0.028 A 
BRANCH   8  12
ATOM     12  N   UNL A   1      31.014  26.015  26.268  1.00  0.00    -0.317 N 
ATOM     13  C   UNL A   1      31.691  24.836  26.310  1.00  0.00     0.228 C 
ATOM     14  O   UNL A   1      31.509  24.133  27.314  1.00  0.00    -0.274 OA
ATOM     15  H   UNL A   1      30.586  26.262  27.120  1.00  0.00     0.170 HD
BRANCH  13  16
ATOM     16  C   UNL A   1      32.752  24.402  25.304  1.00  0.00     0.082 C 
ATOM     17  C   UNL A   1      35.631  20.507  25.060  1.00  0.00     0.114 C 
ATOM     18  C   UNL A   1      35.868  21.991  25.175  1.00  0.00     0.219 C 
ATOM     19  O   UNL A   1      36.820  22.415  25.828  1.00  0.00    -0.275 OA
ATOM     20  N   UNL A   1      34.984  22.827  24.506  1.00  0.00    -0.343 N 
ATOM     21  C   UNL A   1      35.174  24.270  24.575  1.00  0.00     0.120 C 
ATOM     22  C   UNL A   1      33.668  22.423  24.028  1.00  0.00     0.120 C 
ATOM     23  C   UNL A   1      34.185  24.853  25.580  1.00  0.00     0.035 C 
ATOM     24  C   UNL A   1      32.624  22.891  25.037  1.00  0.00     0.035 C 
ENDBRANCH  13  16
ENDBRANCH   8  12
ENDBRANCH   4   7
ENDBRANCH   2   3
ENDBRANCH   1   2
BRANCH   1  25
ATOM     25  C   UNL A   1      32.782  32.668  27.292  1.00  0.00     0.118 C 
BRANCH  25  26
ATOM     26  N   UNL A   1      32.413  34.031  27.662  1.00  0.00    -0.352 N 
ATOM     27  C   UNL A   1      32.988  34.906  28.561  1.00  0.00     0.251 C 
ATOM     28  H   UNL A   1      31.623  34.386  27.193  1.00  0.00     0.163 HD
ATOM     29  O   UNL A   1      32.486  35.998  28.778  1.00  0.00    -0.269 OA
BRANCH  27  30
ATOM     30  C   UNL A   1      34.189  34.486  29.312  1.00  0.00     0.039 A 
ATOM     31  C   UNL A   1      34.035  33.919  30.579  1.00  0.00     0.014 A 
ATOM     32  C   UNL A   1      35.452  34.579  28.735  1.00  0.00     0.014 A 
ATOM     33  C   UNL A   1      35.132  33.320  31.203  1.00  0.00     0.010 A 
ATOM     34  C   UNL A   1      36.507  33.870  29.293  1.00  0.00     0.010 A 
ATOM     35  C   UNL A   1      36.360  33.222  30.529  1.00  0.00    -0.014 A 
BRANCH  35  36
ATOM     36  C   UNL A   1      37.510  32.453  31.074  1.00  0.00     0.031 A 
ATOM     37  C   UNL A   1      38.188  32.923  32.333  1.00  0.00     0.074 A 
ATOM     38  C   UNL A   1      38.023  31.413  30.383  1.00  0.00     0.049 A 
ATOM     39  N   UNL A   1      39.328  32.547  32.852  1.00  0.00    -0.248 NA
ATOM     40  C   UNL A   1      37.517  34.002  33.078  1.00  0.00     0.031 C 
ATOM     41  C   UNL A   1      37.501  30.882  29.121  1.00  0.00     0.029 A 
ATOM     42  N   UNL A   1      39.115  30.622  30.644  1.00  0.00    -0.354 N 
ATOM     43  C   UNL A   1      39.534  33.378  33.947  1.00  0.00     0.074 A 
ATOM     44  C   UNL A   1      38.429  34.310  33.986  1.00  0.00     0.031 C 
ATOM     45  C   UNL A   1      38.250  29.834  28.739  1.00  0.00     0.029 A 
ATOM     46  C   UNL A   1      39.333  29.650  29.697  1.00  0.00     0.049 A 
ATOM     47  H   UNL A   1      39.688  30.740  31.435  1.00  0.00     0.167 HD
ATOM     48  C   UNL A   1      40.536  33.351  34.855  1.00  0.00     0.037 A 
ATOM     49  C   UNL A   1      40.303  28.720  29.608  1.00  0.00     0.037 A 
ATOM     50  C   UNL A   1      41.591  32.375  34.862  1.00  0.00     0.049 A 
ATOM     51  C   UNL A   1      41.373  28.673  30.663  1.00  0.00     0.074 A 
ATOM     52  C   UNL A   1      42.623  32.225  35.772  1.00  0.00     0.029 A 
ATOM     53  N   UNL A   1      41.730  31.362  33.926  1.00  0.00    -0.354 N 
ATOM     54  N   UNL A   1      41.542  29.451  31.705  1.00  0.00    -0.248 NA
ATOM     55  C   UNL A   1      42.389  27.618  30.531  1.00  0.00     0.031 C 
ATOM     56  C   UNL A   1      43.393  31.125  35.379  1.00  0.00     0.029 A 
ATOM     57  C   UNL A   1      42.823  30.575  34.242  1.00  0.00     0.049 A 
ATOM     58  H   UNL A   1      41.138  31.224  33.151  1.00  0.00     0.167 HD
ATOM     59  C   UNL A   1      42.656  28.959  32.370  1.00  0.00     0.074 A 
ATOM     60  C   UNL A   1      43.122  27.813  31.618  1.00  0.00     0.031 C 
ATOM     61  C   UNL A   1      43.244  29.417  33.500  1.00  0.00     0.037 A 
BRANCH  48  62
ATOM     62  C   UNL A   1      40.517  34.395  35.933  1.00  0.00     0.057 A 
ATOM     63  C   UNL A   1      39.857  34.182  37.150  1.00  0.00     0.134 A 
ATOM     64  C   UNL A   1      41.173  35.619  35.757  1.00  0.00     0.134 A 
ATOM     65  F   UNL A   1      39.195  33.037  37.373  1.00  0.00    -0.206 F 
ATOM     66  C   UNL A   1      39.822  35.163  38.143  1.00  0.00     0.040 A 
ATOM     67  C   UNL A   1      41.170  36.596  36.754  1.00  0.00     0.040 A 
ATOM     68  F   UNL A   1      41.829  35.884  34.618  1.00  0.00    -0.206 F 
ATOM     69  C   UNL A   1      40.486  36.372  37.948  1.00  0.00     0.006 A 
ENDBRANCH  48  62
BRANCH  49  70
ATOM     70  C   UNL A   1      40.295  27.729  28.503  1.00  0.00     0.057 A 
ATOM     71  C   UNL A   1      39.627  26.507  28.645  1.00  0.00     0.134 A 
ATOM     72  C   UNL A   1      40.970  27.959  27.298  1.00  0.00     0.134 A 
ATOM     73  F   UNL A   1      38.979  26.223  29.785  1.00  0.00    -0.206 F 
ATOM     74  C   UNL A   1      39.648  25.539  27.641  1.00  0.00     0.040 A 
ATOM     75  C   UNL A   1      40.982  27.008  26.276  1.00  0.00     0.040 A 
ATOM     76  F   UNL A   1      41.622  29.112  27.097  1.00  0.00    -0.206 F 
ATOM     77  C   UNL A   1      40.327  25.789  26.450  1.00  0.00     0.006 A 
ENDBRANCH  49  70
BRANCH  61  78
ATOM     78  C   UNL A   1      44.413  28.642  34.029  1.00  0.00     0.057 A 
ATOM     79  C   UNL A   1      45.730  28.961  33.681  1.00  0.00     0.134 A 
ATOM     80  C   UNL A   1      44.213  27.598  34.940  1.00  0.00     0.134 A 
ATOM     81  F   UNL A   1      45.982  29.943  32.804  1.00  0.00    -0.206 F 
ATOM     82  C   UNL A   1      46.811  28.256  34.211  1.00  0.00     0.040 A 
ATOM     83  C   UNL A   1      45.286  26.900  35.493  1.00  0.00     0.040 A 
ATOM     84  F   UNL A   1      42.973  27.250  35.318  1.00  0.00    -0.206 F 
ATOM     85  C   UNL A   1      46.591  27.227  35.126  1.00  0.00     0.006 A 
ENDBRANCH  61  78
ENDBRANCH  35  36
ENDBRANCH  27  30
ENDBRANCH  25  26
ENDBRANCH   1  25
TORSDOF 12
ENDMDL
