MODEL 1
REMARK VINA RESULT:     -12.8      0.000      0.000
REMARK SMILES CC(C)(C)OC(=O)N1C[C@@H](C(=O)NCCCNC(=O)c2ccc(-c3c4nc(c(-c5c(F)cccc5F)c5ccc([nH]5)c(-c5c(F)cccc5F)c5nc(c(-c6c(F)cccc6F)c6ccc3[nH]6)C=C5)C=C4)cc2)[C@@]2(C1)C(=O)Nc1ccccc12
REMARK SMILES IDX 14 1 13 2 11 3 12 4 10 6 8 7 9 8 75 9 74 10 76 11 84 12
REMARK SMILES IDX 77 13 78 14 79 15 83 16 80 18 82 19 81 20 6 21 7 22 5 23
REMARK SMILES IDX 2 24 1 25 3 26 4 27 15 28 16 29 17 30 18 31 19 33 20 34
REMARK SMILES IDX 21 35 73 36 22 37 72 38 23 39 24 40 25 41 66 42 26 43 71 44
REMARK SMILES IDX 65 45 67 46 27 47 70 48 64 49 63 50 28 52 54 53 37 54 53 55
REMARK SMILES IDX 38 56 41 57 52 58 68 59 39 60 40 61 51 63 69 64 42 65 29 66
REMARK SMILES IDX 30 67 35 68 31 69 32 70 34 71 36 72 33 73 55 74 56 75 61 76
REMARK SMILES IDX 57 77 58 78 60 79 62 80 59 81 43 82 44 83 49 84 45 85 46 86
REMARK SMILES IDX 48 87 50 88 47 89
REMARK H PARENT 13 5 78 17 17 32 67 51 41 62
REMARK Flexibility Score: inf
ROOT
ATOM      1  C   UNL A   1      36.471  20.595  24.623  1.00  0.00     0.117 C 
ENDROOT
BRANCH   1   2
ATOM      2  N   UNL A   1      35.686  20.822  25.830  1.00  0.00    -0.356 N 
ATOM      3  C   UNL A   1      34.566  21.521  26.139  1.00  0.00     0.226 C 
ATOM      4  O   UNL A   1      34.196  21.415  27.315  1.00  0.00    -0.275 OA
ATOM      5  H   UNL A   1      36.061  20.355  26.610  1.00  0.00     0.163 HD
BRANCH   3   6
ATOM      6  C   UNL A   1      33.768  22.420  25.203  1.00  0.00     0.120 C 
ATOM      7  N   UNL A   1      31.945  23.672  26.049  1.00  0.00    -0.306 N 
ATOM      8  C   UNL A   1      33.376  23.744  25.826  1.00  0.00     0.138 C 
ATOM      9  C   UNL A   1      31.352  22.462  25.473  1.00  0.00     0.145 C 
ATOM     10  C   UNL A   1      32.467  21.878  24.584  1.00  0.00     0.107 C 
ATOM     11  C   UNL A   1      32.247  22.546  23.186  1.00  0.00     0.237 C 
ATOM     12  C   UNL A   1      32.451  20.412  24.187  1.00  0.00    -0.006 A 
ATOM     13  O   UNL A   1      32.238  23.739  22.925  1.00  0.00    -0.274 OA
ATOM     14  N   UNL A   1      32.038  21.549  22.256  1.00  0.00    -0.325 N 
ATOM     15  C   UNL A   1      32.187  20.298  22.819  1.00  0.00     0.045 A 
ATOM     16  C   UNL A   1      32.771  19.257  24.884  1.00  0.00     0.007 A 
ATOM     17  H   UNL A   1      31.809  21.708  21.313  1.00  0.00     0.169 HD
ATOM     18  C   UNL A   1      32.182  19.100  22.130  1.00  0.00     0.026 A 
ATOM     19  C   UNL A   1      32.798  18.028  24.210  1.00  0.00     0.000 A 
ATOM     20  C   UNL A   1      32.498  17.948  22.844  1.00  0.00     0.002 A 
BRANCH   7  21
ATOM     21  C   UNL A   1      31.300  24.775  26.559  1.00  0.00     0.410 C 
ATOM     22  O   UNL A   1      30.080  24.864  26.564  1.00  0.00    -0.224 OA
BRANCH  21  23
ATOM     23  O   UNL A   1      32.152  25.737  26.998  1.00  0.00    -0.444 OA
BRANCH  23  24
ATOM     24  C   UNL A   1      32.134  27.068  26.401  1.00  0.00     0.106 C 
ATOM     25  C   UNL A   1      33.609  27.475  26.266  1.00  0.00     0.056 C 
ATOM     26  C   UNL A   1      31.430  28.016  27.376  1.00  0.00     0.056 C 
ATOM     27  C   UNL A   1      31.503  27.164  25.001  1.00  0.00     0.056 C 
ENDBRANCH  23  24
ENDBRANCH  21  23
ENDBRANCH   7  21
ENDBRANCH   3   6
ENDBRANCH   1   2
BRANCH   1  28
ATOM     28  C   UNL A   1      37.659  19.654  24.836  1.00  0.00     0.042 C 
BRANCH  28  29
ATOM     29  C   UNL A   1      38.763  20.213  25.730  1.00  0.00     0.118 C 
BRANCH  29  30
ATOM     30  N   UNL A   1      39.896  19.310  25.825  1.00  0.00    -0.352 N 
ATOM     31  C   UNL A   1      41.216  19.582  26.089  1.00  0.00     0.251 C 
ATOM     32  H   UNL A   1      39.687  18.360  25.677  1.00  0.00     0.163 HD
ATOM     33  O   UNL A   1      42.061  18.715  25.888  1.00  0.00    -0.269 OA
BRANCH  31  34
ATOM     34  C   UNL A   1      41.638  20.904  26.610  1.00  0.00     0.039 A 
ATOM     35  C   UNL A   1      41.528  21.150  27.983  1.00  0.00     0.014 A 
ATOM     36  C   UNL A   1      42.061  21.927  25.755  1.00  0.00     0.014 A 
ATOM     37  C   UNL A   1      41.873  22.402  28.502  1.00  0.00     0.010 A 
ATOM     38  C   UNL A   1      42.457  23.159  26.280  1.00  0.00     0.010 A 
ATOM     39  C   UNL A   1      42.356  23.413  27.657  1.00  0.00    -0.014 A 
BRANCH  39  40
ATOM     40  C   UNL A   1      42.737  24.745  28.194  1.00  0.00     0.031 A 
ATOM     41  C   UNL A   1      41.691  25.807  28.404  1.00  0.00     0.074 A 
ATOM     42  C   UNL A   1      44.030  25.019  28.453  1.00  0.00     0.049 A 
ATOM     43  N   UNL A   1      41.837  27.047  28.796  1.00  0.00    -0.248 NA
ATOM     44  C   UNL A   1      40.299  25.429  28.113  1.00  0.00     0.031 C 
ATOM     45  C   UNL A   1      45.144  24.089  28.270  1.00  0.00     0.029 A 
ATOM     46  N   UNL A   1      44.624  26.165  28.921  1.00  0.00    -0.354 N 
ATOM     47  C   UNL A   1      40.563  27.600  28.787  1.00  0.00     0.074 A 
ATOM     48  C   UNL A   1      39.662  26.573  28.309  1.00  0.00     0.031 C 
ATOM     49  C   UNL A   1      46.285  24.694  28.637  1.00  0.00     0.029 A 
ATOM     50  C   UNL A   1      45.987  26.062  29.051  1.00  0.00     0.049 A 
ATOM     51  H   UNL A   1      44.122  26.981  29.142  1.00  0.00     0.167 HD
ATOM     52  C   UNL A   1      40.175  28.844  29.159  1.00  0.00     0.037 A 
ATOM     53  C   UNL A   1      46.897  26.970  29.453  1.00  0.00     0.037 A 
ATOM     54  C   UNL A   1      41.065  29.859  29.660  1.00  0.00     0.049 A 
ATOM     55  C   UNL A   1      46.443  28.346  29.855  1.00  0.00     0.074 A 
ATOM     56  C   UNL A   1      40.758  31.134  30.103  1.00  0.00     0.029 A 
ATOM     57  N   UNL A   1      42.438  29.712  29.786  1.00  0.00    -0.354 N 
ATOM     58  N   UNL A   1      45.230  28.841  29.877  1.00  0.00    -0.248 NA
ATOM     59  C   UNL A   1      47.485  29.286  30.292  1.00  0.00     0.031 C 
ATOM     60  C   UNL A   1      41.949  31.770  30.471  1.00  0.00     0.029 A 
ATOM     61  C   UNL A   1      42.994  30.877  30.288  1.00  0.00     0.049 A 
ATOM     62  H   UNL A   1      42.943  28.900  29.553  1.00  0.00     0.167 HD
ATOM     63  C   UNL A   1      45.358  30.140  30.352  1.00  0.00     0.074 A 
ATOM     64  C   UNL A   1      46.766  30.352  30.616  1.00  0.00     0.031 C 
ATOM     65  C   UNL A   1      44.396  31.071  30.552  1.00  0.00     0.037 A 
BRANCH  52  66
ATOM     66  C   UNL A   1      38.716  29.176  29.042  1.00  0.00     0.057 A 
ATOM     67  C   UNL A   1      37.852  29.088  30.140  1.00  0.00     0.134 A 
ATOM     68  C   UNL A   1      38.177  29.618  27.828  1.00  0.00     0.134 A 
ATOM     69  F   UNL A   1      38.303  28.659  31.329  1.00  0.00    -0.206 F 
ATOM     70  C   UNL A   1      36.497  29.406  30.030  1.00  0.00     0.040 A 
ATOM     71  C   UNL A   1      36.829  29.962  27.711  1.00  0.00     0.040 A 
ATOM     72  F   UNL A   1      38.952  29.731  26.738  1.00  0.00    -0.206 F 
ATOM     73  C   UNL A   1      35.983  29.851  28.813  1.00  0.00     0.006 A 
ENDBRANCH  52  66
BRANCH  53  74
ATOM     74  C   UNL A   1      48.331  26.599  29.521  1.00  0.00     0.057 A 
ATOM     75  C   UNL A   1      49.196  26.876  28.455  1.00  0.00     0.134 A 
ATOM     76  C   UNL A   1      48.871  25.963  30.644  1.00  0.00     0.134 A 
ATOM     77  F   UNL A   1      48.730  27.466  27.344  1.00  0.00    -0.206 F 
ATOM     78  C   UNL A   1      50.544  26.521  28.498  1.00  0.00     0.040 A 
ATOM     79  C   UNL A   1      50.223  25.622  30.710  1.00  0.00     0.040 A 
ATOM     80  F   UNL A   1      48.095  25.677  31.699  1.00  0.00    -0.206 F 
ATOM     81  C   UNL A   1      51.063  25.897  29.631  1.00  0.00     0.006 A 
ENDBRANCH  53  74
BRANCH  65  82
ATOM     82  C   UNL A   1      44.828  32.394  31.110  1.00  0.00     0.057 A 
ATOM     83  C   UNL A   1      44.954  32.608  32.488  1.00  0.00     0.134 A 
ATOM     84  C   UNL A   1      45.154  33.455  30.256  1.00  0.00     0.134 A 
ATOM     85  F   UNL A   1      44.643  31.634  33.357  1.00  0.00    -0.206 F 
ATOM     86  C   UNL A   1      45.374  33.836  32.999  1.00  0.00     0.040 A 
ATOM     87  C   UNL A   1      45.596  34.682  30.755  1.00  0.00     0.040 A 
ATOM     88  F   UNL A   1      45.060  33.313  28.926  1.00  0.00    -0.206 F 
ATOM     89  C   UNL A   1      45.702  34.876  32.130  1.00  0.00     0.006 A 
ENDBRANCH  65  82
ENDBRANCH  39  40
ENDBRANCH  31  34
ENDBRANCH  29  30
ENDBRANCH  28  29
ENDBRANCH   1  28
TORSDOF 13
ENDMDL
MODEL 2
REMARK VINA RESULT:     -12.8      0.101      1.278
REMARK SMILES CC(C)(C)OC(=O)N1C[C@@H](C(=O)NCCCNC(=O)c2ccc(-c3c4nc(c(-c5c(F)cccc5F)c5ccc([nH]5)c(-c5c(F)cccc5F)c5nc(c(-c6c(F)cccc6F)c6ccc3[nH]6)C=C5)C=C4)cc2)[C@@]2(C1)C(=O)Nc1ccccc12
REMARK SMILES IDX 14 1 13 2 11 3 12 4 10 6 8 7 9 8 75 9 74 10 76 11 84 12
REMARK SMILES IDX 77 13 78 14 79 15 83 16 80 18 82 19 81 20 6 21 7 22 5 23
REMARK SMILES IDX 2 24 1 25 3 26 4 27 15 28 16 29 17 30 18 31 19 33 20 34
REMARK SMILES IDX 21 35 73 36 22 37 72 38 23 39 24 40 25 41 66 42 26 43 71 44
REMARK SMILES IDX 65 45 67 46 27 47 70 48 64 49 63 50 28 52 54 53 37 54 53 55
REMARK SMILES IDX 38 56 41 57 52 58 68 59 39 60 40 61 51 63 69 64 42 65 29 66
REMARK SMILES IDX 30 67 35 68 31 69 32 70 34 71 36 72 33 73 55 74 56 75 61 76
REMARK SMILES IDX 57 77 58 78 60 79 62 80 59 81 43 82 44 83 49 84 45 85 46 86
REMARK SMILES IDX 48 87 50 88 47 89
REMARK H PARENT 13 5 78 17 17 32 67 51 41 62
REMARK Flexibility Score: inf
ROOT
ATOM      1  C   UNL A   1      36.464  20.631  24.623  1.00  0.00     0.117 C 
ENDROOT
BRANCH   1   2
ATOM      2  N   UNL A   1      35.686  20.875  25.830  1.00  0.00    -0.356 N 
ATOM      3  C   UNL A   1      34.569  21.582  26.135  1.00  0.00     0.226 C 
ATOM      4  O   UNL A   1      34.204  21.491  27.315  1.00  0.00    -0.275 OA
ATOM      5  H   UNL A   1      36.061  20.415  26.614  1.00  0.00     0.163 HD
BRANCH   3   6
ATOM      6  C   UNL A   1      33.772  22.474  25.193  1.00  0.00     0.120 C 
ATOM      7  N   UNL A   1      31.947  23.731  26.029  1.00  0.00    -0.306 N 
ATOM      8  C   UNL A   1      33.379  23.803  25.807  1.00  0.00     0.138 C 
ATOM      9  C   UNL A   1      31.356  22.517  25.460  1.00  0.00     0.145 C 
ATOM     10  C   UNL A   1      32.472  21.928  24.576  1.00  0.00     0.107 C 
ATOM     11  C   UNL A   1      32.253  22.587  23.174  1.00  0.00     0.237 C 
ATOM     12  C   UNL A   1      32.457  20.460  24.189  1.00  0.00    -0.006 A 
ATOM     13  O   UNL A   1      32.244  23.778  22.905  1.00  0.00    -0.274 OA
ATOM     14  N   UNL A   1      32.045  21.583  22.251  1.00  0.00    -0.325 N 
ATOM     15  C   UNL A   1      32.194  20.337  22.822  1.00  0.00     0.045 A 
ATOM     16  C   UNL A   1      32.776  19.310  24.895  1.00  0.00     0.007 A 
ATOM     17  H   UNL A   1      31.817  21.736  21.306  1.00  0.00     0.169 HD
ATOM     18  C   UNL A   1      32.190  19.133  22.141  1.00  0.00     0.026 A 
ATOM     19  C   UNL A   1      32.805  18.076  24.229  1.00  0.00     0.000 A 
ATOM     20  C   UNL A   1      32.506  17.987  22.862  1.00  0.00     0.002 A 
BRANCH   7  21
ATOM     21  C   UNL A   1      31.302  24.838  26.531  1.00  0.00     0.410 C 
ATOM     22  O   UNL A   1      30.081  24.930  26.525  1.00  0.00    -0.224 OA
BRANCH  21  23
ATOM     23  O   UNL A   1      32.153  25.798  26.974  1.00  0.00    -0.444 OA
BRANCH  23  24
ATOM     24  C   UNL A   1      32.134  27.132  26.383  1.00  0.00     0.106 C 
ATOM     25  C   UNL A   1      33.609  27.538  26.244  1.00  0.00     0.056 C 
ATOM     26  C   UNL A   1      31.435  28.077  27.365  1.00  0.00     0.056 C 
ATOM     27  C   UNL A   1      31.497  27.235  24.986  1.00  0.00     0.056 C 
ENDBRANCH  23  24
ENDBRANCH  21  23
ENDBRANCH   7  21
ENDBRANCH   3   6
ENDBRANCH   1   2
BRANCH   1  28
ATOM     28  C   UNL A   1      37.642  19.678  24.839  1.00  0.00     0.042 C 
BRANCH  28  29
ATOM     29  C   UNL A   1      38.757  20.232  25.724  1.00  0.00     0.118 C 
BRANCH  29  30
ATOM     30  N   UNL A   1      39.898  19.338  25.785  1.00  0.00    -0.352 N 
ATOM     31  C   UNL A   1      41.220  19.616  26.035  1.00  0.00     0.251 C 
ATOM     32  H   UNL A   1      39.695  18.389  25.622  1.00  0.00     0.163 HD
ATOM     33  O   UNL A   1      42.069  18.761  25.805  1.00  0.00    -0.269 OA
BRANCH  31  34
ATOM     34  C   UNL A   1      41.639  20.932  26.574  1.00  0.00     0.039 A 
ATOM     35  C   UNL A   1      41.546  21.152  27.953  1.00  0.00     0.014 A 
ATOM     36  C   UNL A   1      42.040  21.974  25.733  1.00  0.00     0.014 A 
ATOM     37  C   UNL A   1      41.888  22.397  28.490  1.00  0.00     0.010 A 
ATOM     38  C   UNL A   1      42.434  23.200  26.274  1.00  0.00     0.010 A 
ATOM     39  C   UNL A   1      42.350  23.427  27.657  1.00  0.00    -0.014 A 
BRANCH  39  40
ATOM     40  C   UNL A   1      42.728  24.753  28.213  1.00  0.00     0.031 A 
ATOM     41  C   UNL A   1      41.682  25.815  28.419  1.00  0.00     0.074 A 
ATOM     42  C   UNL A   1      44.018  25.019  28.495  1.00  0.00     0.049 A 
ATOM     43  N   UNL A   1      41.827  27.052  28.826  1.00  0.00    -0.248 NA
ATOM     44  C   UNL A   1      40.294  25.446  28.104  1.00  0.00     0.031 C 
ATOM     45  C   UNL A   1      45.131  24.087  28.318  1.00  0.00     0.029 A 
ATOM     46  N   UNL A   1      44.609  26.158  28.982  1.00  0.00    -0.354 N 
ATOM     47  C   UNL A   1      40.555  27.609  28.804  1.00  0.00     0.074 A 
ATOM     48  C   UNL A   1      39.657  26.590  28.303  1.00  0.00     0.031 C 
ATOM     49  C   UNL A   1      46.269  24.684  28.708  1.00  0.00     0.029 A 
ATOM     50  C   UNL A   1      45.969  26.049  29.131  1.00  0.00     0.049 A 
ATOM     51  H   UNL A   1      44.106  26.974  29.204  1.00  0.00     0.167 HD
ATOM     52  C   UNL A   1      40.165  28.850  29.183  1.00  0.00     0.037 A 
ATOM     53  C   UNL A   1      46.876  26.950  29.556  1.00  0.00     0.037 A 
ATOM     54  C   UNL A   1      41.051  29.857  29.707  1.00  0.00     0.049 A 
ATOM     55  C   UNL A   1      46.421  28.323  29.966  1.00  0.00     0.074 A 
ATOM     56  C   UNL A   1      40.742  31.128  30.159  1.00  0.00     0.029 A 
ATOM     57  N   UNL A   1      42.422  29.704  29.852  1.00  0.00    -0.354 N 
ATOM     58  N   UNL A   1      45.209  28.822  29.975  1.00  0.00    -0.248 NA
ATOM     59  C   UNL A   1      47.460  29.255  30.427  1.00  0.00     0.031 C 
ATOM     60  C   UNL A   1      41.930  31.756  30.551  1.00  0.00     0.029 A 
ATOM     61  C   UNL A   1      42.974  30.861  30.374  1.00  0.00     0.049 A 
ATOM     62  H   UNL A   1      42.928  28.892  29.618  1.00  0.00     0.167 HD
ATOM     63  C   UNL A   1      45.335  30.115  30.465  1.00  0.00     0.074 A 
ATOM     64  C   UNL A   1      46.739  30.320  30.752  1.00  0.00     0.031 C 
ATOM     65  C   UNL A   1      44.373  31.048  30.661  1.00  0.00     0.037 A 
BRANCH  52  66
ATOM     66  C   UNL A   1      38.710  29.188  29.048  1.00  0.00     0.057 A 
ATOM     67  C   UNL A   1      37.838  29.138  30.143  1.00  0.00     0.134 A 
ATOM     68  C   UNL A   1      38.180  29.600  27.819  1.00  0.00     0.134 A 
ATOM     69  F   UNL A   1      38.280  28.739  31.346  1.00  0.00    -0.206 F 
ATOM     70  C   UNL A   1      36.486  29.461  30.016  1.00  0.00     0.040 A 
ATOM     71  C   UNL A   1      36.835  29.949  27.684  1.00  0.00     0.040 A 
ATOM     72  F   UNL A   1      38.963  29.676  26.731  1.00  0.00    -0.206 F 
ATOM     73  C   UNL A   1      35.983  29.874  28.784  1.00  0.00     0.006 A 
ENDBRANCH  52  66
BRANCH  53  74
ATOM     74  C   UNL A   1      48.308  26.573  29.641  1.00  0.00     0.057 A 
ATOM     75  C   UNL A   1      48.813  25.920  30.771  1.00  0.00     0.134 A 
ATOM     76  C   UNL A   1      49.203  26.855  28.603  1.00  0.00     0.134 A 
ATOM     77  F   UNL A   1      48.006  25.642  31.807  1.00  0.00    -0.206 F 
ATOM     78  C   UNL A   1      50.160  25.571  30.873  1.00  0.00     0.040 A 
ATOM     79  C   UNL A   1      50.549  26.493  28.681  1.00  0.00     0.040 A 
ATOM     80  F   UNL A   1      48.778  27.475  27.492  1.00  0.00    -0.206 F 
ATOM     81  C   UNL A   1      51.031  25.853  29.823  1.00  0.00     0.006 A 
ENDBRANCH  53  74
BRANCH  65  82
ATOM     82  C   UNL A   1      44.801  32.364  31.239  1.00  0.00     0.057 A 
ATOM     83  C   UNL A   1      45.164  33.444  30.425  1.00  0.00     0.134 A 
ATOM     84  C   UNL A   1      44.818  32.561  32.625  1.00  0.00     0.134 A 
ATOM     85  F   UNL A   1      45.181  33.312  29.090  1.00  0.00    -0.206 F 
ATOM     86  C   UNL A   1      45.545  34.670  30.971  1.00  0.00     0.040 A 
ATOM     87  C   UNL A   1      45.176  33.790  33.182  1.00  0.00     0.040 A 
ATOM     88  F   UNL A   1      44.476  31.568  33.460  1.00  0.00    -0.206 F 
ATOM     89  C   UNL A   1      45.545  34.847  32.353  1.00  0.00     0.006 A 
ENDBRANCH  65  82
ENDBRANCH  39  40
ENDBRANCH  31  34
ENDBRANCH  29  30
ENDBRANCH  28  29
ENDBRANCH   1  28
TORSDOF 13
ENDMDL
MODEL 3
REMARK VINA RESULT:     -12.7      3.665      8.940
REMARK SMILES CC(C)(C)OC(=O)N1C[C@@H](C(=O)NCCCNC(=O)c2ccc(-c3c4nc(c(-c5c(F)cccc5F)c5ccc([nH]5)c(-c5c(F)cccc5F)c5nc(c(-c6c(F)cccc6F)c6ccc3[nH]6)C=C5)C=C4)cc2)[C@@]2(C1)C(=O)Nc1ccccc12
REMARK SMILES IDX 14 1 13 2 11 3 12 4 10 6 8 7 9 8 75 9 74 10 76 11 84 12
REMARK SMILES IDX 77 13 78 14 79 15 83 16 80 18 82 19 81 20 6 21 7 22 5 23
REMARK SMILES IDX 2 24 1 25 3 26 4 27 15 28 16 29 17 30 18 31 19 33 20 34
REMARK SMILES IDX 21 35 73 36 22 37 72 38 23 39 24 40 25 41 66 42 26 43 71 44
REMARK SMILES IDX 65 45 67 46 27 47 70 48 64 49 63 50 28 52 54 53 37 54 53 55
REMARK SMILES IDX 38 56 41 57 52 58 68 59 39 60 40 61 51 63 69 64 42 65 29 66
REMARK SMILES IDX 30 67 35 68 31 69 32 70 34 71 36 72 33 73 55 74 56 75 61 76
REMARK SMILES IDX 57 77 58 78 60 79 62 80 59 81 43 82 44 83 49 84 45 85 46 86
REMARK SMILES IDX 48 87 50 88 47 89
REMARK H PARENT 13 5 78 17 17 32 67 51 41 62
REMARK Flexibility Score: inf
ROOT
ATOM      1  C   UNL A   1      31.397  30.310  26.091  1.00  0.00     0.117 C 
ENDROOT
BRANCH   1   2
ATOM      2  N   UNL A   1      32.298  30.085  24.968  1.00  0.00    -0.356 N 
ATOM      3  C   UNL A   1      32.577  29.045  24.144  1.00  0.00     0.226 C 
ATOM      4  O   UNL A   1      33.410  29.292  23.262  1.00  0.00    -0.275 OA
ATOM      5  H   UNL A   1      32.835  30.882  24.757  1.00  0.00     0.163 HD
BRANCH   3   6
ATOM      6  C   UNL A   1      31.998  27.639  24.226  1.00  0.00     0.120 C 
ATOM      7  N   UNL A   1      32.823  25.943  22.795  1.00  0.00    -0.306 N 
ATOM      8  C   UNL A   1      33.040  26.547  24.095  1.00  0.00     0.138 C 
ATOM      9  C   UNL A   1      31.618  26.455  22.137  1.00  0.00     0.145 C 
ATOM     10  C   UNL A   1      30.884  27.237  23.244  1.00  0.00     0.107 C 
ATOM     11  C   UNL A   1      29.957  26.177  23.926  1.00  0.00     0.237 C 
ATOM     12  C   UNL A   1      29.860  28.301  22.889  1.00  0.00    -0.006 A 
ATOM     13  O   UNL A   1      30.290  25.129  24.458  1.00  0.00    -0.274 OA
ATOM     14  N   UNL A   1      28.650  26.609  23.816  1.00  0.00    -0.325 N 
ATOM     15  C   UNL A   1      28.582  27.861  23.244  1.00  0.00     0.045 A 
ATOM     16  C   UNL A   1      29.994  29.602  22.430  1.00  0.00     0.007 A 
ATOM     17  H   UNL A   1      27.867  26.089  24.108  1.00  0.00     0.169 HD
ATOM     18  C   UNL A   1      27.439  28.630  23.124  1.00  0.00     0.026 A 
ATOM     19  C   UNL A   1      28.858  30.417  22.318  1.00  0.00     0.000 A 
ATOM     20  C   UNL A   1      27.588  29.932  22.655  1.00  0.00     0.002 A 
BRANCH   7  21
ATOM     21  C   UNL A   1      33.602  24.870  22.428  1.00  0.00     0.410 C 
ATOM     22  O   UNL A   1      33.241  24.075  21.570  1.00  0.00    -0.224 OA
BRANCH  21  23
ATOM     23  O   UNL A   1      34.754  24.777  23.140  1.00  0.00    -0.444 OA
BRANCH  23  24
ATOM     24  C   UNL A   1      35.054  23.572  23.907  1.00  0.00     0.106 C 
ATOM     25  C   UNL A   1      35.582  24.071  25.260  1.00  0.00     0.056 C 
ATOM     26  C   UNL A   1      36.162  22.808  23.177  1.00  0.00     0.056 C 
ATOM     27  C   UNL A   1      33.857  22.648  24.194  1.00  0.00     0.056 C 
ENDBRANCH  23  24
ENDBRANCH  21  23
ENDBRANCH   7  21
ENDBRANCH   3   6
ENDBRANCH   1   2
BRANCH   1  28
ATOM     28  C   UNL A   1      31.305  31.777  26.516  1.00  0.00     0.042 C 
BRANCH  28  29
ATOM     29  C   UNL A   1      32.633  32.406  26.932  1.00  0.00     0.118 C 
BRANCH  29  30
ATOM     30  N   UNL A   1      32.454  33.730  27.498  1.00  0.00    -0.352 N 
ATOM     31  C   UNL A   1      33.151  34.358  28.502  1.00  0.00     0.251 C 
ATOM     32  H   UNL A   1      31.724  34.259  27.104  1.00  0.00     0.163 HD
ATOM     33  O   UNL A   1      32.695  35.381  29.002  1.00  0.00    -0.269 OA
BRANCH  31  34
ATOM     34  C   UNL A   1      34.441  33.818  28.995  1.00  0.00     0.039 A 
ATOM     35  C   UNL A   1      35.610  34.131  28.292  1.00  0.00     0.014 A 
ATOM     36  C   UNL A   1      34.501  32.945  30.085  1.00  0.00     0.014 A 
ATOM     37  C   UNL A   1      36.838  33.601  28.701  1.00  0.00     0.010 A 
ATOM     38  C   UNL A   1      35.734  32.460  30.526  1.00  0.00     0.010 A 
ATOM     39  C   UNL A   1      36.913  32.774  29.832  1.00  0.00    -0.014 A 
BRANCH  39  40
ATOM     40  C   UNL A   1      38.212  32.211  30.286  1.00  0.00     0.031 A 
ATOM     41  C   UNL A   1      38.711  30.906  29.726  1.00  0.00     0.074 A 
ATOM     42  C   UNL A   1      38.925  32.850  31.233  1.00  0.00     0.049 A 
ATOM     43  N   UNL A   1      39.781  30.223  30.047  1.00  0.00    -0.248 NA
ATOM     44  C   UNL A   1      37.886  30.275  28.685  1.00  0.00     0.031 C 
ATOM     45  C   UNL A   1      38.542  34.107  31.875  1.00  0.00     0.029 A 
ATOM     46  N   UNL A   1      40.118  32.522  31.826  1.00  0.00    -0.354 N 
ATOM     47  C   UNL A   1      39.751  29.080  29.259  1.00  0.00     0.074 A 
ATOM     48  C   UNL A   1      38.536  29.141  28.475  1.00  0.00     0.031 C 
ATOM     49  C   UNL A   1      39.490  34.455  32.759  1.00  0.00     0.029 A 
ATOM     50  C   UNL A   1      40.530  33.430  32.770  1.00  0.00     0.049 A 
ATOM     51  H   UNL A   1      40.631  31.714  31.596  1.00  0.00     0.167 HD
ATOM     52  C   UNL A   1      40.661  28.080  29.180  1.00  0.00     0.037 A 
ATOM     53  C   UNL A   1      41.621  33.434  33.560  1.00  0.00     0.037 A 
ATOM     54  C   UNL A   1      41.885  28.030  29.938  1.00  0.00     0.049 A 
ATOM     55  C   UNL A   1      42.614  32.311  33.459  1.00  0.00     0.074 A 
ATOM     56  C   UNL A   1      42.890  27.080  29.893  1.00  0.00     0.029 A 
ATOM     57  N   UNL A   1      42.270  28.975  30.877  1.00  0.00    -0.354 N 
ATOM     58  N   UNL A   1      42.590  31.256  32.681  1.00  0.00    -0.248 NA
ATOM     59  C   UNL A   1      43.786  32.380  34.344  1.00  0.00     0.031 C 
ATOM     60  C   UNL A   1      43.871  27.433  30.827  1.00  0.00     0.029 A 
ATOM     61  C   UNL A   1      43.491  28.623  31.427  1.00  0.00     0.049 A 
ATOM     62  H   UNL A   1      41.752  29.777  31.116  1.00  0.00     0.167 HD
ATOM     63  C   UNL A   1      43.752  30.550  32.963  1.00  0.00     0.074 A 
ATOM     64  C   UNL A   1      44.464  31.302  33.976  1.00  0.00     0.031 C 
ATOM     65  C   UNL A   1      44.191  29.385  32.429  1.00  0.00     0.037 A 
BRANCH  52  66
ATOM     66  C   UNL A   1      40.369  26.953  28.233  1.00  0.00     0.057 A 
ATOM     67  C   UNL A   1      40.941  26.899  26.956  1.00  0.00     0.134 A 
ATOM     68  C   UNL A   1      39.533  25.896  28.613  1.00  0.00     0.134 A 
ATOM     69  F   UNL A   1      41.741  27.887  26.526  1.00  0.00    -0.206 F 
ATOM     70  C   UNL A   1      40.673  25.845  26.080  1.00  0.00     0.040 A 
ATOM     71  C   UNL A   1      39.276  24.824  27.755  1.00  0.00     0.040 A 
ATOM     72  F   UNL A   1      38.958  25.883  29.825  1.00  0.00    -0.206 F 
ATOM     73  C   UNL A   1      39.843  24.800  26.482  1.00  0.00     0.006 A 
ENDBRANCH  52  66
BRANCH  53  74
ATOM     74  C   UNL A   1      41.847  34.558  34.502  1.00  0.00     0.057 A 
ATOM     75  C   UNL A   1      42.483  35.732  34.081  1.00  0.00     0.134 A 
ATOM     76  C   UNL A   1      41.435  34.488  35.838  1.00  0.00     0.134 A 
ATOM     77  F   UNL A   1      42.918  35.846  32.817  1.00  0.00    -0.206 F 
ATOM     78  C   UNL A   1      42.715  36.791  34.957  1.00  0.00     0.040 A 
ATOM     79  C   UNL A   1      41.642  35.550  36.721  1.00  0.00     0.040 A 
ATOM     80  F   UNL A   1      40.815  33.393  36.299  1.00  0.00    -0.206 F 
ATOM     81  C   UNL A   1      42.289  36.704  36.281  1.00  0.00     0.006 A 
ENDBRANCH  53  74
BRANCH  65  82
ATOM     82  C   UNL A   1      45.514  28.866  32.908  1.00  0.00     0.057 A 
ATOM     83  C   UNL A   1      45.612  27.978  33.985  1.00  0.00     0.134 A 
ATOM     84  C   UNL A   1      46.699  29.235  32.261  1.00  0.00     0.134 A 
ATOM     85  F   UNL A   1      44.512  27.599  34.655  1.00  0.00    -0.206 F 
ATOM     86  C   UNL A   1      46.845  27.487  34.414  1.00  0.00     0.040 A 
ATOM     87  C   UNL A   1      47.937  28.734  32.667  1.00  0.00     0.040 A 
ATOM     88  F   UNL A   1      46.674  30.080  31.219  1.00  0.00    -0.206 F 
ATOM     89  C   UNL A   1      48.012  27.860  33.749  1.00  0.00     0.006 A 
ENDBRANCH  65  82
ENDBRANCH  39  40
ENDBRANCH  31  34
ENDBRANCH  29  30
ENDBRANCH  28  29
ENDBRANCH   1  28
TORSDOF 13
ENDMDL
