MODEL 1
REMARK VINA RESULT:     -11.3      0.000      0.000
REMARK SMILES C[C@@H](C(=O)NCCCNC(=O)c1ccc(-c2c3nc(c(-c4c(F)cccc4F)c4ccc([nH]4)c(-c4c(F)cccc4F)c4nc(c(-c5c(F)cccc5F)c5ccc2[nH]5)C=C4)C=C3)cc1)c1ccc(C[C@@H]2CCC[C@@H]2O)cc1
REMARK SMILES IDX 6 1 5 2 3 3 4 4 2 6 1 7 66 8 67 9 78 10 68 11 77 12 69 13
REMARK SMILES IDX 70 14 71 15 72 16 75 17 73 18 74 19 76 20 7 22 8 23 9 24
REMARK SMILES IDX 10 25 11 27 12 28 13 29 65 30 14 31 64 32 15 33 16 34 17 35
REMARK SMILES IDX 58 36 18 37 63 38 57 39 59 40 19 41 62 42 56 43 55 44 20 46
REMARK SMILES IDX 46 47 29 48 45 49 30 50 33 51 44 52 60 53 31 54 32 55 43 57
REMARK SMILES IDX 61 58 34 59 21 60 22 61 27 62 23 63 24 64 26 65 28 66 25 67
REMARK SMILES IDX 47 68 48 69 53 70 49 71 50 72 52 73 54 74 51 75 35 76 36 77
REMARK SMILES IDX 41 78 37 79 38 80 40 81 42 82 39 83
REMARK H PARENT 5 5 76 21 9 26 59 45 33 56
REMARK Flexibility Score: inf
ROOT
ATOM      1  C   UNL A   1      36.401  20.335  25.141  1.00  0.00     0.117 C 
ENDROOT
BRANCH   1   2
ATOM      2  N   UNL A   1      36.593  21.587  25.846  1.00  0.00    -0.356 N 
ATOM      3  C   UNL A   1      36.132  22.842  25.569  1.00  0.00     0.227 C 
ATOM      4  O   UNL A   1      36.550  23.751  26.287  1.00  0.00    -0.274 OA
ATOM      5  H   UNL A   1      37.147  21.521  26.656  1.00  0.00     0.163 HD
BRANCH   3   6
ATOM      6  C   UNL A   1      35.140  23.056  24.420  1.00  0.00     0.105 C 
ATOM      7  C   UNL A   1      35.860  23.254  23.081  1.00  0.00     0.023 C 
BRANCH   6   8
ATOM      8  C   UNL A   1      34.183  24.216  24.676  1.00  0.00    -0.036 A 
ATOM      9  C   UNL A   1      33.444  24.271  25.866  1.00  0.00     0.005 A 
ATOM     10  C   UNL A   1      33.998  25.231  23.726  1.00  0.00     0.005 A 
ATOM     11  C   UNL A   1      32.498  25.278  26.070  1.00  0.00     0.004 A 
ATOM     12  C   UNL A   1      33.042  26.226  23.925  1.00  0.00     0.004 A 
ATOM     13  C   UNL A   1      32.254  26.238  25.082  1.00  0.00    -0.048 A 
BRANCH  13  14
ATOM     14  C   UNL A   1      31.155  27.260  25.230  1.00  0.00     0.041 C 
BRANCH  14  15
ATOM     15  C   UNL A   1      31.537  28.652  25.787  1.00  0.00     0.022 C 
ATOM     16  C   UNL A   1      32.776  29.283  25.144  1.00  0.00     0.007 C 
ATOM     17  C   UNL A   1      31.850  28.756  27.283  1.00  0.00     0.117 C 
ATOM     18  C   UNL A   1      33.944  29.046  26.105  1.00  0.00     0.003 C 
ATOM     19  C   UNL A   1      33.346  28.490  27.393  1.00  0.00     0.032 C 
BRANCH  17  20
ATOM     20  O   UNL A   1      31.074  27.889  28.082  1.00  0.00    -0.393 OA
ATOM     21  H   UNL A   1      30.639  28.398  28.784  1.00  0.00     0.210 HD
ENDBRANCH  17  20
ENDBRANCH  14  15
ENDBRANCH  13  14
ENDBRANCH   6   8
ENDBRANCH   3   6
ENDBRANCH   1   2
BRANCH   1  22
ATOM     22  C   UNL A   1      37.718  19.586  24.942  1.00  0.00     0.042 C 
BRANCH  22  23
ATOM     23  C   UNL A   1      38.907  20.172  25.702  1.00  0.00     0.118 C 
BRANCH  23  24
ATOM     24  N   UNL A   1      40.039  19.261  25.769  1.00  0.00    -0.352 N 
ATOM     25  C   UNL A   1      41.349  19.495  26.094  1.00  0.00     0.251 C 
ATOM     26  H   UNL A   1      39.829  18.326  25.546  1.00  0.00     0.163 HD
ATOM     27  O   UNL A   1      42.175  18.597  25.931  1.00  0.00    -0.269 OA
BRANCH  25  28
ATOM     28  C   UNL A   1      41.796  20.808  26.612  1.00  0.00     0.039 A 
ATOM     29  C   UNL A   1      42.226  21.770  25.692  1.00  0.00     0.014 A 
ATOM     30  C   UNL A   1      41.852  21.086  27.982  1.00  0.00     0.014 A 
ATOM     31  C   UNL A   1      42.657  23.022  26.137  1.00  0.00     0.010 A 
ATOM     32  C   UNL A   1      42.226  22.358  28.423  1.00  0.00     0.010 A 
ATOM     33  C   UNL A   1      42.632  23.337  27.505  1.00  0.00    -0.014 A 
BRANCH  33  34
ATOM     34  C   UNL A   1      43.013  24.694  27.972  1.00  0.00     0.031 A 
ATOM     35  C   UNL A   1      41.967  25.741  28.238  1.00  0.00     0.074 A 
ATOM     36  C   UNL A   1      44.317  24.995  28.128  1.00  0.00     0.049 A 
ATOM     37  N   UNL A   1      42.121  26.977  28.641  1.00  0.00    -0.248 NA
ATOM     38  C   UNL A   1      40.568  25.354  28.003  1.00  0.00     0.031 C 
ATOM     39  C   UNL A   1      45.432  24.087  27.853  1.00  0.00     0.029 A 
ATOM     40  N   UNL A   1      44.925  26.150  28.551  1.00  0.00    -0.354 N 
ATOM     41  C   UNL A   1      40.843  27.517  28.702  1.00  0.00     0.074 A 
ATOM     42  C   UNL A   1      39.929  26.489  28.253  1.00  0.00     0.031 C 
ATOM     43  C   UNL A   1      46.587  24.712  28.133  1.00  0.00     0.029 A 
ATOM     44  C   UNL A   1      46.295  26.070  28.585  1.00  0.00     0.049 A 
ATOM     45  H   UNL A   1      44.426  26.960  28.805  1.00  0.00     0.167 HD
ATOM     46  C   UNL A   1      40.463  28.750  29.117  1.00  0.00     0.037 A 
ATOM     47  C   UNL A   1      47.215  26.985  28.940  1.00  0.00     0.037 A 
ATOM     48  C   UNL A   1      41.368  29.770  29.580  1.00  0.00     0.049 A 
ATOM     49  C   UNL A   1      46.767  28.337  29.413  1.00  0.00     0.074 A 
ATOM     50  C   UNL A   1      41.071  31.034  30.062  1.00  0.00     0.029 A 
ATOM     51  N   UNL A   1      42.747  29.642  29.623  1.00  0.00    -0.354 N 
ATOM     52  N   UNL A   1      45.551  28.813  29.522  1.00  0.00    -0.248 NA
ATOM     53  C   UNL A   1      47.820  29.278  29.824  1.00  0.00     0.031 C 
ATOM     54  C   UNL A   1      42.273  31.681  30.369  1.00  0.00     0.029 A 
ATOM     55  C   UNL A   1      43.316  30.808  30.110  1.00  0.00     0.049 A 
ATOM     56  H   UNL A   1      43.249  28.841  29.346  1.00  0.00     0.167 HD
ATOM     57  C   UNL A   1      45.689  30.100  30.025  1.00  0.00     0.074 A 
ATOM     58  C   UNL A   1      47.107  30.323  30.221  1.00  0.00     0.031 C 
ATOM     59  C   UNL A   1      44.729  31.015  30.295  1.00  0.00     0.037 A 
BRANCH  46  60
ATOM     60  C   UNL A   1      38.996  29.062  29.097  1.00  0.00     0.057 A 
ATOM     61  C   UNL A   1      38.206  28.938  30.247  1.00  0.00     0.134 A 
ATOM     62  C   UNL A   1      38.375  29.529  27.933  1.00  0.00     0.134 A 
ATOM     63  F   UNL A   1      38.739  28.485  31.393  1.00  0.00    -0.206 F 
ATOM     64  C   UNL A   1      36.845  29.249  30.235  1.00  0.00     0.040 A 
ATOM     65  C   UNL A   1      37.019  29.864  27.914  1.00  0.00     0.040 A 
ATOM     66  F   UNL A   1      39.076  29.676  26.798  1.00  0.00    -0.206 F 
ATOM     67  C   UNL A   1      36.250  29.719  29.066  1.00  0.00     0.006 A 
ENDBRANCH  46  60
BRANCH  47  68
ATOM     68  C   UNL A   1      48.657  26.643  28.885  1.00  0.00     0.057 A 
ATOM     69  C   UNL A   1      49.429  26.947  27.760  1.00  0.00     0.134 A 
ATOM     70  C   UNL A   1      49.294  26.003  29.955  1.00  0.00     0.134 A 
ATOM     71  F   UNL A   1      48.868  27.543  26.697  1.00  0.00    -0.206 F 
ATOM     72  C   UNL A   1      50.782  26.611  27.690  1.00  0.00     0.040 A 
ATOM     73  C   UNL A   1      50.651  25.680  29.908  1.00  0.00     0.040 A 
ATOM     74  F   UNL A   1      48.607  25.693  31.064  1.00  0.00    -0.206 F 
ATOM     75  C   UNL A   1      51.397  25.979  28.770  1.00  0.00     0.006 A 
ENDBRANCH  47  68
BRANCH  59  76
ATOM     76  C   UNL A   1      45.184  32.336  30.842  1.00  0.00     0.057 A 
ATOM     77  C   UNL A   1      45.484  33.415  30.001  1.00  0.00     0.134 A 
ATOM     78  C   UNL A   1      45.311  32.533  32.222  1.00  0.00     0.134 A 
ATOM     79  F   UNL A   1      45.397  33.283  28.668  1.00  0.00    -0.206 F 
ATOM     80  C   UNL A   1      45.917  34.638  30.513  1.00  0.00     0.040 A 
ATOM     81  C   UNL A   1      45.722  33.759  32.747  1.00  0.00     0.040 A 
ATOM     82  F   UNL A   1      45.034  31.541  33.081  1.00  0.00    -0.206 F 
ATOM     83  C   UNL A   1      46.033  34.814  31.891  1.00  0.00     0.006 A 
ENDBRANCH  59  76
ENDBRANCH  33  34
ENDBRANCH  25  28
ENDBRANCH  23  24
ENDBRANCH  22  23
ENDBRANCH   1  22
TORSDOF 14
ENDMDL
MODEL 2
REMARK VINA RESULT:     -11.3      1.232      6.543
REMARK SMILES C[C@@H](C(=O)NCCCNC(=O)c1ccc(-c2c3nc(c(-c4c(F)cccc4F)c4ccc([nH]4)c(-c4c(F)cccc4F)c4nc(c(-c5c(F)cccc5F)c5ccc2[nH]5)C=C4)C=C3)cc1)c1ccc(C[C@@H]2CCC[C@@H]2O)cc1
REMARK SMILES IDX 6 1 5 2 3 3 4 4 2 6 1 7 66 8 67 9 78 10 68 11 77 12 69 13
REMARK SMILES IDX 70 14 71 15 72 16 75 17 73 18 74 19 76 20 7 22 8 23 9 24
REMARK SMILES IDX 10 25 11 27 12 28 13 29 65 30 14 31 64 32 15 33 16 34 17 35
REMARK SMILES IDX 58 36 18 37 63 38 57 39 59 40 19 41 62 42 56 43 55 44 20 46
REMARK SMILES IDX 46 47 29 48 45 49 30 50 33 51 44 52 60 53 31 54 32 55 43 57
REMARK SMILES IDX 61 58 34 59 21 60 22 61 27 62 23 63 24 64 26 65 28 66 25 67
REMARK SMILES IDX 47 68 48 69 53 70 49 71 50 72 52 73 54 74 51 75 35 76 36 77
REMARK SMILES IDX 41 78 37 79 38 80 40 81 42 82 39 83
REMARK H PARENT 5 5 76 21 9 26 59 45 33 56
REMARK Flexibility Score: inf
ROOT
ATOM      1  C   UNL A   1      36.842  20.539  24.964  1.00  0.00     0.117 C 
ENDROOT
BRANCH   1   2
ATOM      2  N   UNL A   1      37.043  21.618  24.018  1.00  0.00    -0.356 N 
ATOM      3  C   UNL A   1      36.207  22.626  23.628  1.00  0.00     0.227 C 
ATOM      4  O   UNL A   1      36.605  23.346  22.711  1.00  0.00    -0.274 OA
ATOM      5  H   UNL A   1      37.926  21.625  23.584  1.00  0.00     0.163 HD
BRANCH   3   6
ATOM      6  C   UNL A   1      34.858  22.817  24.332  1.00  0.00     0.105 C 
ATOM      7  C   UNL A   1      33.810  21.822  23.822  1.00  0.00     0.023 C 
BRANCH   6   8
ATOM      8  C   UNL A   1      34.329  24.242  24.215  1.00  0.00    -0.036 A 
ATOM      9  C   UNL A   1      33.765  24.688  23.012  1.00  0.00     0.005 A 
ATOM     10  C   UNL A   1      34.419  25.142  25.286  1.00  0.00     0.005 A 
ATOM     11  C   UNL A   1      33.362  26.017  22.865  1.00  0.00     0.004 A 
ATOM     12  C   UNL A   1      34.031  26.473  25.132  1.00  0.00     0.004 A 
ATOM     13  C   UNL A   1      33.535  26.935  23.907  1.00  0.00    -0.048 A 
BRANCH  13  14
ATOM     14  C   UNL A   1      33.219  28.398  23.730  1.00  0.00     0.041 C 
BRANCH  14  15
ATOM     15  C   UNL A   1      31.789  28.874  24.078  1.00  0.00     0.022 C 
ATOM     16  C   UNL A   1      30.964  27.878  24.902  1.00  0.00     0.007 C 
ATOM     17  C   UNL A   1      30.848  29.205  22.917  1.00  0.00     0.117 C 
ATOM     18  C   UNL A   1      30.031  27.161  23.922  1.00  0.00     0.003 C 
ATOM     19  C   UNL A   1      30.148  27.891  22.589  1.00  0.00     0.032 C 
BRANCH  17  20
ATOM     20  O   UNL A   1      31.506  29.773  21.804  1.00  0.00    -0.393 OA
ATOM     21  H   UNL A   1      31.204  29.336  20.992  1.00  0.00     0.210 HD
ENDBRANCH  17  20
ENDBRANCH  14  15
ENDBRANCH  13  14
ENDBRANCH   6   8
ENDBRANCH   3   6
ENDBRANCH   1   2
BRANCH   1  22
ATOM     22  C   UNL A   1      38.034  19.585  25.002  1.00  0.00     0.042 C 
BRANCH  22  23
ATOM     23  C   UNL A   1      39.122  19.960  26.007  1.00  0.00     0.118 C 
BRANCH  23  24
ATOM     24  N   UNL A   1      40.356  19.217  25.808  1.00  0.00    -0.352 N 
ATOM     25  C   UNL A   1      41.661  19.607  25.952  1.00  0.00     0.251 C 
ATOM     26  H   UNL A   1      40.233  18.282  25.525  1.00  0.00     0.163 HD
ATOM     27  O   UNL A   1      42.556  18.851  25.575  1.00  0.00    -0.269 OA
BRANCH  25  28
ATOM     28  C   UNL A   1      42.016  20.924  26.528  1.00  0.00     0.039 A 
ATOM     29  C   UNL A   1      42.320  21.969  25.649  1.00  0.00     0.014 A 
ATOM     30  C   UNL A   1      42.110  21.131  27.908  1.00  0.00     0.014 A 
ATOM     31  C   UNL A   1      42.661  23.228  26.148  1.00  0.00     0.010 A 
ATOM     32  C   UNL A   1      42.392  22.405  28.408  1.00  0.00     0.010 A 
ATOM     33  C   UNL A   1      42.671  23.464  27.532  1.00  0.00    -0.014 A 
BRANCH  33  34
ATOM     34  C   UNL A   1      42.956  24.822  28.062  1.00  0.00     0.031 A 
ATOM     35  C   UNL A   1      44.359  25.238  28.404  1.00  0.00     0.074 A 
ATOM     36  C   UNL A   1      41.935  25.677  28.267  1.00  0.00     0.049 A 
ATOM     37  N   UNL A   1      44.788  26.379  28.883  1.00  0.00    -0.248 NA
ATOM     38  C   UNL A   1      45.417  24.238  28.196  1.00  0.00     0.031 C 
ATOM     39  C   UNL A   1      40.522  25.378  28.027  1.00  0.00     0.029 A 
ATOM     40  N   UNL A   1      41.928  26.969  28.728  1.00  0.00    -0.354 N 
ATOM     41  C   UNL A   1      46.160  26.232  29.040  1.00  0.00     0.074 A 
ATOM     42  C   UNL A   1      46.487  24.878  28.648  1.00  0.00     0.031 C 
ATOM     43  C   UNL A   1      39.787  26.462  28.322  1.00  0.00     0.029 A 
ATOM     44  C   UNL A   1      40.673  27.523  28.795  1.00  0.00     0.049 A 
ATOM     45  H   UNL A   1      42.745  27.453  28.987  1.00  0.00     0.167 HD
ATOM     46  C   UNL A   1      47.069  27.149  29.454  1.00  0.00     0.037 A 
ATOM     47  C   UNL A   1      40.278  28.746  29.191  1.00  0.00     0.037 A 
ATOM     48  C   UNL A   1      46.750  28.501  29.830  1.00  0.00     0.049 A 
ATOM     49  C   UNL A   1      41.306  29.750  29.626  1.00  0.00     0.074 A 
ATOM     50  C   UNL A   1      47.610  29.515  30.218  1.00  0.00     0.029 A 
ATOM     51  N   UNL A   1      45.470  29.032  29.861  1.00  0.00    -0.354 N 
ATOM     52  N   UNL A   1      42.607  29.614  29.712  1.00  0.00    -0.248 NA
ATOM     53  C   UNL A   1      40.813  31.081  30.008  1.00  0.00     0.031 C 
ATOM     54  C   UNL A   1      46.846  30.650  30.514  1.00  0.00     0.029 A 
ATOM     55  C   UNL A   1      45.515  30.353  30.275  1.00  0.00     0.049 A 
ATOM     56  H   UNL A   1      44.649  28.541  29.625  1.00  0.00     0.167 HD
ATOM     57  C   UNL A   1      43.089  30.842  30.145  1.00  0.00     0.074 A 
ATOM     58  C   UNL A   1      41.943  31.718  30.282  1.00  0.00     0.031 C 
ATOM     59  C   UNL A   1      44.365  31.210  30.410  1.00  0.00     0.037 A 
BRANCH  46  60
ATOM     60  C   UNL A   1      48.505  26.719  29.511  1.00  0.00     0.057 A 
ATOM     61  C   UNL A   1      49.377  26.933  28.436  1.00  0.00     0.134 A 
ATOM     62  C   UNL A   1      49.032  26.122  30.663  1.00  0.00     0.134 A 
ATOM     63  F   UNL A   1      48.930  27.491  27.300  1.00  0.00    -0.206 F 
ATOM     64  C   UNL A   1      50.718  26.553  28.497  1.00  0.00     0.040 A 
ATOM     65  C   UNL A   1      50.377  25.756  30.743  1.00  0.00     0.040 A 
ATOM     66  F   UNL A   1      48.252  25.892  31.729  1.00  0.00    -0.206 F 
ATOM     67  C   UNL A   1      51.223  25.968  29.657  1.00  0.00     0.006 A 
ENDBRANCH  46  60
BRANCH  47  68
ATOM     68  C   UNL A   1      38.838  29.101  29.169  1.00  0.00     0.057 A 
ATOM     69  C   UNL A   1      38.223  29.548  27.995  1.00  0.00     0.134 A 
ATOM     70  C   UNL A   1      38.047  29.003  30.319  1.00  0.00     0.134 A 
ATOM     71  F   UNL A   1      38.936  29.679  26.866  1.00  0.00    -0.206 F 
ATOM     72  C   UNL A   1      36.874  29.904  27.969  1.00  0.00     0.040 A 
ATOM     73  C   UNL A   1      36.692  29.335  30.302  1.00  0.00     0.040 A 
ATOM     74  F   UNL A   1      38.580  28.573  31.473  1.00  0.00    -0.206 F 
ATOM     75  C   UNL A   1      36.104  29.793  29.125  1.00  0.00     0.006 A 
ENDBRANCH  47  68
BRANCH  59  76
ATOM     76  C   UNL A   1      44.585  32.622  30.863  1.00  0.00     0.057 A 
ATOM     77  C   UNL A   1      44.595  32.965  32.221  1.00  0.00     0.134 A 
ATOM     78  C   UNL A   1      44.801  33.646  29.933  1.00  0.00     0.134 A 
ATOM     79  F   UNL A   1      44.378  32.031  33.160  1.00  0.00    -0.206 F 
ATOM     80  C   UNL A   1      44.789  34.283  32.637  1.00  0.00     0.040 A 
ATOM     81  C   UNL A   1      45.019  34.964  30.339  1.00  0.00     0.040 A 
ATOM     82  F   UNL A   1      44.808  33.383  28.618  1.00  0.00    -0.206 F 
ATOM     83  C   UNL A   1      45.007  35.286  31.694  1.00  0.00     0.006 A 
ENDBRANCH  59  76
ENDBRANCH  33  34
ENDBRANCH  25  28
ENDBRANCH  23  24
ENDBRANCH  22  23
ENDBRANCH   1  22
TORSDOF 14
ENDMDL
MODEL 3
REMARK VINA RESULT:     -11.3      1.567      2.177
REMARK SMILES C[C@@H](C(=O)NCCCNC(=O)c1ccc(-c2c3nc(c(-c4c(F)cccc4F)c4ccc([nH]4)c(-c4c(F)cccc4F)c4nc(c(-c5c(F)cccc5F)c5ccc2[nH]5)C=C4)C=C3)cc1)c1ccc(C[C@@H]2CCC[C@@H]2O)cc1
REMARK SMILES IDX 6 1 5 2 3 3 4 4 2 6 1 7 66 8 67 9 78 10 68 11 77 12 69 13
REMARK SMILES IDX 70 14 71 15 72 16 75 17 73 18 74 19 76 20 7 22 8 23 9 24
REMARK SMILES IDX 10 25 11 27 12 28 13 29 65 30 14 31 64 32 15 33 16 34 17 35
REMARK SMILES IDX 58 36 18 37 63 38 57 39 59 40 19 41 62 42 56 43 55 44 20 46
REMARK SMILES IDX 46 47 29 48 45 49 30 50 33 51 44 52 60 53 31 54 32 55 43 57
REMARK SMILES IDX 61 58 34 59 21 60 22 61 27 62 23 63 24 64 26 65 28 66 25 67
REMARK SMILES IDX 47 68 48 69 53 70 49 71 50 72 52 73 54 74 51 75 35 76 36 77
REMARK SMILES IDX 41 78 37 79 38 80 40 81 42 82 39 83
REMARK H PARENT 5 5 76 21 9 26 59 45 33 56
REMARK Flexibility Score: inf
ROOT
ATOM      1  C   UNL A   1      36.572  20.456  24.929  1.00  0.00     0.117 C 
ENDROOT
BRANCH   1   2
ATOM      2  N   UNL A   1      36.869  21.557  24.035  1.00  0.00    -0.356 N 
ATOM      3  C   UNL A   1      36.088  22.595  23.612  1.00  0.00     0.227 C 
ATOM      4  O   UNL A   1      36.572  23.332  22.751  1.00  0.00    -0.274 OA
ATOM      5  H   UNL A   1      37.783  21.556  23.671  1.00  0.00     0.163 HD
BRANCH   3   6
ATOM      6  C   UNL A   1      34.693  22.797  24.215  1.00  0.00     0.105 C 
ATOM      7  C   UNL A   1      33.669  21.836  23.601  1.00  0.00     0.023 C 
BRANCH   6   8
ATOM      8  C   UNL A   1      34.200  24.235  24.091  1.00  0.00    -0.036 A 
ATOM      9  C   UNL A   1      33.574  24.667  22.914  1.00  0.00     0.005 A 
ATOM     10  C   UNL A   1      34.385  25.160  25.129  1.00  0.00     0.005 A 
ATOM     11  C   UNL A   1      33.203  26.005  22.756  1.00  0.00     0.004 A 
ATOM     12  C   UNL A   1      34.029  26.497  24.962  1.00  0.00     0.004 A 
ATOM     13  C   UNL A   1      33.469  26.943  23.759  1.00  0.00    -0.048 A 
BRANCH  13  14
ATOM     14  C   UNL A   1      33.187  28.410  23.561  1.00  0.00     0.041 C 
BRANCH  14  15
ATOM     15  C   UNL A   1      31.807  28.945  24.009  1.00  0.00     0.022 C 
ATOM     16  C   UNL A   1      31.043  28.027  24.970  1.00  0.00     0.007 C 
ATOM     17  C   UNL A   1      30.766  29.225  22.920  1.00  0.00     0.117 C 
ATOM     18  C   UNL A   1      30.007  27.273  24.132  1.00  0.00     0.003 C 
ATOM     19  C   UNL A   1      30.012  27.912  22.748  1.00  0.00     0.032 C 
BRANCH  17  20
ATOM     20  O   UNL A   1      31.327  29.702  21.715  1.00  0.00    -0.393 OA
ATOM     21  H   UNL A   1      30.698  29.565  20.990  1.00  0.00     0.210 HD
ENDBRANCH  17  20
ENDBRANCH  14  15
ENDBRANCH  13  14
ENDBRANCH   6   8
ENDBRANCH   3   6
ENDBRANCH   1   2
BRANCH   1  22
ATOM     22  C   UNL A   1      37.741  19.479  25.038  1.00  0.00     0.042 C 
BRANCH  22  23
ATOM     23  C   UNL A   1      38.970  20.031  25.757  1.00  0.00     0.118 C 
BRANCH  23  24
ATOM     24  N   UNL A   1      40.065  19.075  25.818  1.00  0.00    -0.352 N 
ATOM     25  C   UNL A   1      41.405  19.272  26.027  1.00  0.00     0.251 C 
ATOM     26  H   UNL A   1      39.800  18.137  25.689  1.00  0.00     0.163 HD
ATOM     27  O   UNL A   1      42.178  18.325  25.880  1.00  0.00    -0.269 OA
BRANCH  25  28
ATOM     28  C   UNL A   1      41.944  20.600  26.400  1.00  0.00     0.039 A 
ATOM     29  C   UNL A   1      42.258  21.498  25.375  1.00  0.00     0.014 A 
ATOM     30  C   UNL A   1      42.196  20.952  27.731  1.00  0.00     0.014 A 
ATOM     31  C   UNL A   1      42.770  22.760  25.682  1.00  0.00     0.010 A 
ATOM     32  C   UNL A   1      42.650  22.236  28.041  1.00  0.00     0.010 A 
ATOM     33  C   UNL A   1      42.942  23.151  27.019  1.00  0.00    -0.014 A 
BRANCH  33  34
ATOM     34  C   UNL A   1      43.410  24.521  27.349  1.00  0.00     0.031 A 
ATOM     35  C   UNL A   1      42.440  25.583  27.788  1.00  0.00     0.074 A 
ATOM     36  C   UNL A   1      44.717  24.821  27.220  1.00  0.00     0.049 A 
ATOM     37  N   UNL A   1      42.672  26.832  28.107  1.00  0.00    -0.248 NA
ATOM     38  C   UNL A   1      41.023  25.197  27.863  1.00  0.00     0.031 C 
ATOM     39  C   UNL A   1      45.753  23.897  26.752  1.00  0.00     0.029 A 
ATOM     40  N   UNL A   1      45.398  25.986  27.467  1.00  0.00    -0.354 N 
ATOM     41  C   UNL A   1      41.434  27.381  28.413  1.00  0.00     0.074 A 
ATOM     42  C   UNL A   1      40.448  26.343  28.199  1.00  0.00     0.031 C 
ATOM     43  C   UNL A   1      46.939  24.525  26.765  1.00  0.00     0.029 A 
ATOM     44  C   UNL A   1      46.746  25.899  27.219  1.00  0.00     0.049 A 
ATOM     45  H   UNL A   1      44.961  26.807  27.790  1.00  0.00     0.167 HD
ATOM     46  C   UNL A   1      41.146  28.630  28.853  1.00  0.00     0.037 A 
ATOM     47  C   UNL A   1      47.718  26.821  27.342  1.00  0.00     0.037 A 
ATOM     48  C   UNL A   1      42.126  29.660  29.082  1.00  0.00     0.049 A 
ATOM     49  C   UNL A   1      47.375  28.191  27.850  1.00  0.00     0.074 A 
ATOM     50  C   UNL A   1      41.933  30.941  29.570  1.00  0.00     0.029 A 
ATOM     51  N   UNL A   1      43.484  29.526  28.842  1.00  0.00    -0.354 N 
ATOM     52  N   UNL A   1      46.207  28.678  28.192  1.00  0.00    -0.248 NA
ATOM     53  C   UNL A   1      48.489  29.140  28.000  1.00  0.00     0.031 C 
ATOM     54  C   UNL A   1      43.172  31.593  29.598  1.00  0.00     0.029 A 
ATOM     55  C   UNL A   1      44.140  30.704  29.160  1.00  0.00     0.049 A 
ATOM     56  H   UNL A   1      43.919  28.712  28.496  1.00  0.00     0.167 HD
ATOM     57  C   UNL A   1      46.445  29.980  28.609  1.00  0.00     0.074 A 
ATOM     58  C   UNL A   1      47.872  30.202  28.499  1.00  0.00     0.031 C 
ATOM     59  C   UNL A   1      45.560  30.910  29.040  1.00  0.00     0.037 A 
BRANCH  46  60
ATOM     60  C   UNL A   1      39.706  28.950  29.127  1.00  0.00     0.057 A 
ATOM     61  C   UNL A   1      38.847  29.389  28.112  1.00  0.00     0.134 A 
ATOM     62  C   UNL A   1      39.163  28.779  30.406  1.00  0.00     0.134 A 
ATOM     63  F   UNL A   1      39.310  29.583  26.867  1.00  0.00    -0.206 F 
ATOM     64  C   UNL A   1      37.503  29.665  28.363  1.00  0.00     0.040 A 
ATOM     65  C   UNL A   1      37.814  29.032  30.664  1.00  0.00     0.040 A 
ATOM     66  F   UNL A   1      39.930  28.356  31.422  1.00  0.00    -0.206 F 
ATOM     67  C   UNL A   1      36.982  29.481  29.642  1.00  0.00     0.006 A 
ENDBRANCH  46  60
BRANCH  47  68
ATOM     68  C   UNL A   1      49.118  26.469  27.003  1.00  0.00     0.057 A 
ATOM     69  C   UNL A   1      49.623  26.682  25.716  1.00  0.00     0.134 A 
ATOM     70  C   UNL A   1      49.979  25.910  27.953  1.00  0.00     0.134 A 
ATOM     71  F   UNL A   1      48.838  27.198  24.759  1.00  0.00    -0.206 F 
ATOM     72  C   UNL A   1      50.933  26.335  25.380  1.00  0.00     0.040 A 
ATOM     73  C   UNL A   1      51.297  25.578  27.638  1.00  0.00     0.040 A 
ATOM     74  F   UNL A   1      49.553  25.689  29.206  1.00  0.00    -0.206 F 
ATOM     75  C   UNL A   1      51.775  25.785  26.346  1.00  0.00     0.006 A 
ENDBRANCH  47  68
BRANCH  59  76
ATOM     76  C   UNL A   1      46.116  32.246  29.433  1.00  0.00     0.057 A 
ATOM     77  C   UNL A   1      46.228  33.295  28.512  1.00  0.00     0.134 A 
ATOM     78  C   UNL A   1      46.532  32.489  30.748  1.00  0.00     0.134 A 
ATOM     79  F   UNL A   1      45.861  33.120  27.233  1.00  0.00    -0.206 F 
ATOM     80  C   UNL A   1      46.756  34.534  28.880  1.00  0.00     0.040 A 
ATOM     81  C   UNL A   1      47.041  33.731  31.133  1.00  0.00     0.040 A 
ATOM     82  F   UNL A   1      46.447  31.527  31.679  1.00  0.00    -0.206 F 
ATOM     83  C   UNL A   1      47.160  34.755  30.196  1.00  0.00     0.006 A 
ENDBRANCH  59  76
ENDBRANCH  33  34
ENDBRANCH  25  28
ENDBRANCH  23  24
ENDBRANCH  22  23
ENDBRANCH   1  22
TORSDOF 14
ENDMDL
