MODEL 1
REMARK VINA RESULT:     -13.0      0.000      0.000
REMARK SMILES CN(C)c1ccc(-c2nnc([C@H]3CC[N@@H+](Cc4ccc(C(=O)NCCCNC(=O)c5ccc(-c6c7nc(c(-c8c(F)cccc8F)c8ccc([nH]8)c(-c8c(F)cccc8F)c8nc(c(-c9c(F)cccc9F)c9ccc6[nH]9)C=C8)C=C7)cc5)cc4)C3)o2)cc1
REMARK SMILES IDX 21 1 22 2 23 3 20 5 17 6 18 7 85 8 19 9 84 10 16 11 15 12
REMARK SMILES IDX 12 13 13 14 86 15 14 16 11 18 8 19 9 20 87 21 10 22 7 23
REMARK SMILES IDX 4 24 5 25 89 26 6 27 88 28 2 29 1 30 3 31 24 32 25 33 26 34
REMARK SMILES IDX 27 35 28 36 29 38 30 39 31 40 83 41 32 42 82 43 33 44 34 45
REMARK SMILES IDX 35 46 76 47 36 48 81 49 75 50 77 51 37 52 80 53 74 54 73 55
REMARK SMILES IDX 38 57 64 58 47 59 63 60 48 61 51 62 62 63 78 64 49 65 50 66
REMARK SMILES IDX 61 68 79 69 52 70 39 71 40 72 45 73 41 74 42 75 44 76 46 77
REMARK SMILES IDX 43 78 65 79 66 80 71 81 67 82 68 83 70 84 72 85 69 86 53 87
REMARK SMILES IDX 54 88 59 89 55 90 56 91 58 92 60 93 57 94
REMARK H PARENT 23 4 15 17 27 37 77 56 51 67
REMARK Flexibility Score: inf
ROOT
ATOM      1  C   UNL A   1      29.671  29.882  23.205  1.00  0.00     0.251 C 
ATOM      2  O   UNL A   1      28.897  30.274  22.333  1.00  0.00    -0.269 OA
ATOM      3  N   UNL A   1      30.245  30.812  24.043  1.00  0.00    -0.352 N 
ATOM      4  H   UNL A   1      30.131  31.746  23.757  1.00  0.00     0.163 HD
ENDROOT
BRANCH   1   5
ATOM      5  C   UNL A   1      29.935  28.426  23.327  1.00  0.00     0.039 A 
ATOM      6  C   UNL A   1      30.360  25.642  23.575  1.00  0.00     0.006 A 
ATOM      7  C   UNL A   1      29.107  26.199  23.858  1.00  0.00     0.010 A 
ATOM      8  C   UNL A   1      31.352  26.484  23.071  1.00  0.00     0.010 A 
ATOM      9  C   UNL A   1      28.893  27.578  23.724  1.00  0.00     0.014 A 
ATOM     10  C   UNL A   1      31.153  27.863  22.958  1.00  0.00     0.014 A 
BRANCH   6  11
ATOM     11  C   UNL A   1      30.653  24.177  23.828  1.00  0.00     0.299 C 
BRANCH  11  12
ATOM     12  N   UNL A   1      30.660  23.725  25.231  1.00  0.00    -0.330 N 
ATOM     13  C   UNL A   1      32.387  22.340  26.241  1.00  0.00     0.138 C 
ATOM     14  C   UNL A   1      32.770  23.816  26.324  1.00  0.00     0.081 C 
ATOM     15  C   UNL A   1      31.073  22.330  25.449  1.00  0.00     0.276 C 
ATOM     16  C   UNL A   1      31.449  24.549  26.148  1.00  0.00     0.263 C 
ATOM     17  H   UNL A   1      29.668  23.822  25.446  1.00  0.00     0.348 HD
BRANCH  13  18
ATOM     18  C   UNL A   1      33.481  21.487  25.694  1.00  0.00     0.225 A 
ATOM     19  C   UNL A   1      35.475  20.898  25.190  1.00  0.00     0.247 A 
ATOM     20  N   UNL A   1      34.684  19.905  24.836  1.00  0.00    -0.108 NA
ATOM     21  O   UNL A   1      34.772  21.955  25.715  1.00  0.00    -0.420 OA
ATOM     22  N   UNL A   1      33.397  20.283  25.168  1.00  0.00    -0.112 NA
BRANCH  19  23
ATOM     23  C   UNL A   1      36.934  20.949  25.259  1.00  0.00     0.039 A 
ATOM     24  C   UNL A   1      39.718  20.874  25.864  1.00  0.00     0.036 A 
ATOM     25  C   UNL A   1      39.072  19.780  25.274  1.00  0.00     0.027 A 
ATOM     26  C   UNL A   1      38.965  22.033  26.063  1.00  0.00     0.027 A 
ATOM     27  C   UNL A   1      37.697  19.807  24.991  1.00  0.00     0.016 A 
ATOM     28  C   UNL A   1      37.605  22.081  25.733  1.00  0.00     0.016 A 
BRANCH  24  29
ATOM     29  N   UNL A   1      41.052  20.785  26.239  1.00  0.00    -0.378 N 
ATOM     30  C   UNL A   1      41.909  21.955  26.120  1.00  0.00     0.143 C 
ATOM     31  C   UNL A   1      41.670  19.471  26.117  1.00  0.00     0.143 C 
ENDBRANCH  24  29
ENDBRANCH  19  23
ENDBRANCH  13  18
ENDBRANCH  11  12
ENDBRANCH   6  11
ENDBRANCH   1   5
BRANCH   3  32
ATOM     32  C   UNL A   1      30.996  30.646  25.282  1.00  0.00     0.118 C 
BRANCH  32  33
ATOM     33  C   UNL A   1      30.959  31.893  26.164  1.00  0.00     0.042 C 
BRANCH  33  34
ATOM     34  C   UNL A   1      32.293  32.313  26.781  1.00  0.00     0.118 C 
BRANCH  34  35
ATOM     35  N   UNL A   1      32.266  33.682  27.281  1.00  0.00    -0.352 N 
ATOM     36  C   UNL A   1      33.031  34.323  28.226  1.00  0.00     0.251 C 
ATOM     37  H   UNL A   1      31.578  34.249  26.865  1.00  0.00     0.163 HD
ATOM     38  O   UNL A   1      32.683  35.445  28.592  1.00  0.00    -0.269 OA
BRANCH  36  39
ATOM     39  C   UNL A   1      34.252  33.722  28.827  1.00  0.00     0.039 A 
ATOM     40  C   UNL A   1      34.084  32.697  29.772  1.00  0.00     0.014 A 
ATOM     41  C   UNL A   1      35.538  34.196  28.570  1.00  0.00     0.014 A 
ATOM     42  C   UNL A   1      35.191  32.130  30.416  1.00  0.00     0.010 A 
ATOM     43  C   UNL A   1      36.650  33.586  29.164  1.00  0.00     0.010 A 
ATOM     44  C   UNL A   1      36.490  32.550  30.099  1.00  0.00    -0.014 A 
BRANCH  44  45
ATOM     45  C   UNL A   1      37.684  31.918  30.725  1.00  0.00     0.031 A 
ATOM     46  C   UNL A   1      38.459  30.848  30.004  1.00  0.00     0.074 A 
ATOM     47  C   UNL A   1      38.035  32.249  31.983  1.00  0.00     0.049 A 
ATOM     48  N   UNL A   1      39.461  30.119  30.431  1.00  0.00    -0.248 NA
ATOM     49  C   UNL A   1      38.040  30.543  28.628  1.00  0.00     0.031 C 
ATOM     50  C   UNL A   1      37.358  33.245  32.813  1.00  0.00     0.029 A 
ATOM     51  N   UNL A   1      39.035  31.766  32.791  1.00  0.00    -0.354 N 
ATOM     52  C   UNL A   1      39.776  29.255  29.390  1.00  0.00     0.074 A 
ATOM     53  C   UNL A   1      38.837  29.527  28.323  1.00  0.00     0.031 C 
ATOM     54  C   UNL A   1      37.951  33.289  34.017  1.00  0.00     0.029 A 
ATOM     55  C   UNL A   1      39.032  32.309  34.054  1.00  0.00     0.049 A 
ATOM     56  H   UNL A   1      39.691  31.094  32.496  1.00  0.00     0.167 HD
ATOM     57  C   UNL A   1      40.764  28.330  29.322  1.00  0.00     0.037 A 
ATOM     58  C   UNL A   1      39.796  32.040  35.129  1.00  0.00     0.037 A 
ATOM     59  C   UNL A   1      41.726  28.080  30.366  1.00  0.00     0.049 A 
ATOM     60  C   UNL A   1      40.894  31.021  35.028  1.00  0.00     0.074 A 
ATOM     61  C   UNL A   1      42.821  27.231  30.345  1.00  0.00     0.029 A 
ATOM     62  N   UNL A   1      41.706  28.672  31.618  1.00  0.00    -0.354 N 
ATOM     63  N   UNL A   1      41.224  30.265  34.012  1.00  0.00    -0.248 NA
ATOM     64  C   UNL A   1      41.730  30.826  36.222  1.00  0.00     0.031 C 
ATOM     65  C   UNL A   1      43.438  27.278  31.600  1.00  0.00     0.029 A 
ATOM     66  C   UNL A   1      42.750  28.186  32.389  1.00  0.00     0.049 A 
ATOM     67  H   UNL A   1      41.047  29.341  31.916  1.00  0.00     0.167 HD
ATOM     68  C   UNL A   1      42.316  29.516  34.433  1.00  0.00     0.074 A 
ATOM     69  C   UNL A   1      42.599  29.918  35.795  1.00  0.00     0.031 C 
ATOM     70  C   UNL A   1      43.019  28.581  33.749  1.00  0.00     0.037 A 
BRANCH  57  71
ATOM     71  C   UNL A   1      40.851  27.506  28.070  1.00  0.00     0.057 A 
ATOM     72  C   UNL A   1      41.556  27.944  26.942  1.00  0.00     0.134 A 
ATOM     73  C   UNL A   1      40.241  26.247  28.003  1.00  0.00     0.134 A 
ATOM     74  F   UNL A   1      42.157  29.143  26.939  1.00  0.00    -0.206 F 
ATOM     75  C   UNL A   1      41.624  27.174  25.779  1.00  0.00     0.040 A 
ATOM     76  C   UNL A   1      40.323  25.457  26.854  1.00  0.00     0.040 A 
ATOM     77  F   UNL A   1      39.559  25.762  29.051  1.00  0.00    -0.206 F 
ATOM     78  C   UNL A   1      41.009  25.924  25.735  1.00  0.00     0.006 A 
ENDBRANCH  57  71
BRANCH  58  79
ATOM     79  C   UNL A   1      39.546  32.769  36.395  1.00  0.00     0.057 A 
ATOM     80  C   UNL A   1      40.219  33.959  36.688  1.00  0.00     0.134 A 
ATOM     81  C   UNL A   1      38.604  32.309  37.324  1.00  0.00     0.134 A 
ATOM     82  F   UNL A   1      41.142  34.437  35.842  1.00  0.00    -0.206 F 
ATOM     83  C   UNL A   1      39.970  34.665  37.865  1.00  0.00     0.040 A 
ATOM     84  C   UNL A   1      38.332  33.015  38.496  1.00  0.00     0.040 A 
ATOM     85  F   UNL A   1      37.917  31.181  37.090  1.00  0.00    -0.206 F 
ATOM     86  C   UNL A   1      39.020  34.197  38.770  1.00  0.00     0.006 A 
ENDBRANCH  58  79
BRANCH  70  87
ATOM     87  C   UNL A   1      44.168  27.931  34.460  1.00  0.00     0.057 A 
ATOM     88  C   UNL A   1      45.445  28.506  34.468  1.00  0.00     0.134 A 
ATOM     89  C   UNL A   1      43.989  26.739  35.173  1.00  0.00     0.134 A 
ATOM     90  F   UNL A   1      45.685  29.639  33.793  1.00  0.00    -0.206 F 
ATOM     91  C   UNL A   1      46.510  27.907  35.147  1.00  0.00     0.040 A 
ATOM     92  C   UNL A   1      45.040  26.143  35.872  1.00  0.00     0.040 A 
ATOM     93  F   UNL A   1      42.790  26.141  35.209  1.00  0.00    -0.206 F 
ATOM     94  C   UNL A   1      46.305  26.726  35.858  1.00  0.00     0.006 A 
ENDBRANCH  70  87
ENDBRANCH  44  45
ENDBRANCH  36  39
ENDBRANCH  34  35
ENDBRANCH  33  34
ENDBRANCH  32  33
ENDBRANCH   3  32
TORSDOF 15
ENDMDL
MODEL 2
REMARK VINA RESULT:     -12.8      2.728      7.749
REMARK SMILES CN(C)c1ccc(-c2nnc([C@H]3CC[N@@H+](Cc4ccc(C(=O)NCCCNC(=O)c5ccc(-c6c7nc(c(-c8c(F)cccc8F)c8ccc([nH]8)c(-c8c(F)cccc8F)c8nc(c(-c9c(F)cccc9F)c9ccc6[nH]9)C=C8)C=C7)cc5)cc4)C3)o2)cc1
REMARK SMILES IDX 21 1 22 2 23 3 20 5 17 6 18 7 85 8 19 9 84 10 16 11 15 12
REMARK SMILES IDX 12 13 13 14 86 15 14 16 11 18 8 19 9 20 87 21 10 22 7 23
REMARK SMILES IDX 4 24 5 25 89 26 6 27 88 28 2 29 1 30 3 31 24 32 25 33 26 34
REMARK SMILES IDX 27 35 28 36 29 38 30 39 31 40 83 41 32 42 82 43 33 44 34 45
REMARK SMILES IDX 35 46 76 47 36 48 81 49 75 50 77 51 37 52 80 53 74 54 73 55
REMARK SMILES IDX 38 57 64 58 47 59 63 60 48 61 51 62 62 63 78 64 49 65 50 66
REMARK SMILES IDX 61 68 79 69 52 70 39 71 40 72 45 73 41 74 42 75 44 76 46 77
REMARK SMILES IDX 43 78 65 79 66 80 71 81 67 82 68 83 70 84 72 85 69 86 53 87
REMARK SMILES IDX 54 88 59 89 55 90 56 91 58 92 60 93 57 94
REMARK H PARENT 23 4 15 17 27 37 77 56 51 67
REMARK Flexibility Score: inf
ROOT
ATOM      1  C   UNL A   1      36.121  21.664  25.089  1.00  0.00     0.251 C 
ATOM      2  O   UNL A   1      35.561  20.618  24.766  1.00  0.00    -0.269 OA
ATOM      3  N   UNL A   1      37.334  21.591  25.737  1.00  0.00    -0.352 N 
ATOM      4  H   UNL A   1      37.573  20.692  26.056  1.00  0.00     0.163 HD
ENDROOT
BRANCH   1   5
ATOM      5  C   UNL A   1      35.473  22.957  24.750  1.00  0.00     0.039 A 
ATOM      6  C   UNL A   1      34.223  25.389  24.031  1.00  0.00     0.006 A 
ATOM      7  C   UNL A   1      34.377  24.363  23.091  1.00  0.00     0.010 A 
ATOM      8  C   UNL A   1      34.608  25.134  25.348  1.00  0.00     0.010 A 
ATOM      9  C   UNL A   1      34.987  23.152  23.450  1.00  0.00     0.014 A 
ATOM     10  C   UNL A   1      35.238  23.939  25.707  1.00  0.00     0.014 A 
BRANCH   6  11
ATOM     11  C   UNL A   1      33.680  26.749  23.639  1.00  0.00     0.299 C 
BRANCH  11  12
ATOM     12  N   UNL A   1      32.248  26.997  23.884  1.00  0.00    -0.330 N 
ATOM     13  C   UNL A   1      30.798  25.579  25.228  1.00  0.00     0.138 C 
ATOM     14  C   UNL A   1      31.507  26.605  26.110  1.00  0.00     0.081 C 
ATOM     15  C   UNL A   1      31.378  25.812  23.827  1.00  0.00     0.276 C 
ATOM     16  C   UNL A   1      31.940  27.690  25.135  1.00  0.00     0.263 C 
ATOM     17  H   UNL A   1      32.043  27.605  23.092  1.00  0.00     0.348 HD
BRANCH  13  18
ATOM     18  C   UNL A   1      30.908  24.189  25.755  1.00  0.00     0.225 A 
ATOM     19  C   UNL A   1      31.392  22.105  25.771  1.00  0.00     0.247 A 
ATOM     20  N   UNL A   1      30.901  22.391  26.961  1.00  0.00    -0.108 NA
ATOM     21  O   UNL A   1      31.395  23.198  24.939  1.00  0.00    -0.420 OA
ATOM     22  N   UNL A   1      30.595  23.739  26.952  1.00  0.00    -0.112 NA
BRANCH  19  23
ATOM     23  C   UNL A   1      32.060  20.892  25.306  1.00  0.00     0.039 A 
ATOM     24  C   UNL A   1      32.901  18.322  24.407  1.00  0.00     0.036 A 
ATOM     25  C   UNL A   1      32.540  19.326  23.500  1.00  0.00     0.027 A 
ATOM     26  C   UNL A   1      32.916  18.655  25.763  1.00  0.00     0.027 A 
ATOM     27  C   UNL A   1      32.109  20.588  23.940  1.00  0.00     0.016 A 
ATOM     28  C   UNL A   1      32.537  19.929  26.202  1.00  0.00     0.016 A 
BRANCH  24  29
ATOM     29  N   UNL A   1      33.216  17.046  23.955  1.00  0.00    -0.378 N 
ATOM     30  C   UNL A   1      33.287  15.946  24.906  1.00  0.00     0.143 C 
ATOM     31  C   UNL A   1      34.051  16.973  22.762  1.00  0.00     0.143 C 
ENDBRANCH  24  29
ENDBRANCH  19  23
ENDBRANCH  13  18
ENDBRANCH  11  12
ENDBRANCH   6  11
ENDBRANCH   1   5
BRANCH   3  32
ATOM     32  C   UNL A   1      38.323  22.620  26.031  1.00  0.00     0.118 C 
BRANCH  32  33
ATOM     33  C   UNL A   1      39.653  22.039  26.507  1.00  0.00     0.042 C 
BRANCH  33  34
ATOM     34  C   UNL A   1      40.643  23.040  27.104  1.00  0.00     0.118 C 
BRANCH  34  35
ATOM     35  N   UNL A   1      41.288  23.857  26.085  1.00  0.00    -0.352 N 
ATOM     36  C   UNL A   1      41.533  25.208  26.017  1.00  0.00     0.251 C 
ATOM     37  H   UNL A   1      41.608  23.349  25.305  1.00  0.00     0.163 HD
ATOM     38  O   UNL A   1      41.941  25.674  24.954  1.00  0.00    -0.269 OA
BRANCH  36  39
ATOM     39  C   UNL A   1      41.322  26.130  27.166  1.00  0.00     0.039 A 
ATOM     40  C   UNL A   1      40.229  25.887  28.013  1.00  0.00     0.014 A 
ATOM     41  C   UNL A   1      42.097  27.270  27.378  1.00  0.00     0.014 A 
ATOM     42  C   UNL A   1      39.942  26.751  29.078  1.00  0.00     0.010 A 
ATOM     43  C   UNL A   1      41.852  28.098  28.481  1.00  0.00     0.010 A 
ATOM     44  C   UNL A   1      40.769  27.853  29.340  1.00  0.00    -0.014 A 
BRANCH  44  45
ATOM     45  C   UNL A   1      40.520  28.748  30.503  1.00  0.00     0.031 A 
ATOM     46  C   UNL A   1      39.449  29.806  30.449  1.00  0.00     0.074 A 
ATOM     47  C   UNL A   1      41.308  28.667  31.592  1.00  0.00     0.049 A 
ATOM     48  N   UNL A   1      39.158  30.736  31.325  1.00  0.00    -0.248 NA
ATOM     49  C   UNL A   1      38.609  29.833  29.243  1.00  0.00     0.031 C 
ATOM     50  C   UNL A   1      42.403  27.715  31.771  1.00  0.00     0.029 A 
ATOM     51  N   UNL A   1      41.325  29.415  32.745  1.00  0.00    -0.354 N 
ATOM     52  C   UNL A   1      38.121  31.473  30.767  1.00  0.00     0.074 A 
ATOM     53  C   UNL A   1      37.856  30.903  29.464  1.00  0.00     0.031 C 
ATOM     54  C   UNL A   1      42.995  27.942  32.955  1.00  0.00     0.029 A 
ATOM     55  C   UNL A   1      42.340  29.073  33.606  1.00  0.00     0.049 A 
ATOM     56  H   UNL A   1      40.675  30.128  32.935  1.00  0.00     0.167 HD
ATOM     57  C   UNL A   1      37.440  32.520  31.297  1.00  0.00     0.037 A 
ATOM     58  C   UNL A   1      42.717  29.614  34.780  1.00  0.00     0.037 A 
ATOM     59  C   UNL A   1      37.673  33.068  32.609  1.00  0.00     0.049 A 
ATOM     60  C   UNL A   1      41.942  30.764  35.355  1.00  0.00     0.074 A 
ATOM     61  C   UNL A   1      36.967  34.063  33.265  1.00  0.00     0.029 A 
ATOM     62  N   UNL A   1      38.690  32.674  33.462  1.00  0.00    -0.354 N 
ATOM     63  N   UNL A   1      40.917  31.402  34.847  1.00  0.00    -0.248 NA
ATOM     64  C   UNL A   1      42.371  31.261  36.670  1.00  0.00     0.031 C 
ATOM     65  C   UNL A   1      37.584  34.300  34.498  1.00  0.00     0.029 A 
ATOM     66  C   UNL A   1      38.651  33.425  34.626  1.00  0.00     0.049 A 
ATOM     67  H   UNL A   1      39.344  31.963  33.270  1.00  0.00     0.167 HD
ATOM     68  C   UNL A   1      40.566  32.364  35.784  1.00  0.00     0.074 A 
ATOM     69  C   UNL A   1      41.480  32.219  36.898  1.00  0.00     0.031 C 
ATOM     70  C   UNL A   1      39.572  33.284  35.725  1.00  0.00     0.037 A 
BRANCH  57  71
ATOM     71  C   UNL A   1      36.376  33.151  30.446  1.00  0.00     0.057 A 
ATOM     72  C   UNL A   1      36.689  34.007  29.382  1.00  0.00     0.134 A 
ATOM     73  C   UNL A   1      35.023  32.877  30.679  1.00  0.00     0.134 A 
ATOM     74  F   UNL A   1      37.966  34.315  29.110  1.00  0.00    -0.206 F 
ATOM     75  C   UNL A   1      35.692  34.595  28.601  1.00  0.00     0.040 A 
ATOM     76  C   UNL A   1      34.018  33.439  29.890  1.00  0.00     0.040 A 
ATOM     77  F   UNL A   1      34.654  32.057  31.675  1.00  0.00    -0.206 F 
ATOM     78  C   UNL A   1      34.352  34.308  28.852  1.00  0.00     0.006 A 
ENDBRANCH  57  71
BRANCH  58  79
ATOM     79  C   UNL A   1      43.890  29.053  35.492  1.00  0.00     0.057 A 
ATOM     80  C   UNL A   1      43.742  28.023  36.427  1.00  0.00     0.134 A 
ATOM     81  C   UNL A   1      45.187  29.510  35.229  1.00  0.00     0.134 A 
ATOM     82  F   UNL A   1      42.522  27.557  36.729  1.00  0.00    -0.206 F 
ATOM     83  C   UNL A   1      44.843  27.471  37.082  1.00  0.00     0.040 A 
ATOM     84  C   UNL A   1      46.298  28.954  35.863  1.00  0.00     0.040 A 
ATOM     85  F   UNL A   1      45.392  30.486  34.331  1.00  0.00    -0.206 F 
ATOM     86  C   UNL A   1      46.127  27.932  36.796  1.00  0.00     0.006 A 
ENDBRANCH  58  79
BRANCH  70  87
ATOM     87  C   UNL A   1      39.417  34.203  36.901  1.00  0.00     0.057 A 
ATOM     88  C   UNL A   1      38.706  33.817  38.044  1.00  0.00     0.134 A 
ATOM     89  C   UNL A   1      40.013  35.470  36.904  1.00  0.00     0.134 A 
ATOM     90  F   UNL A   1      38.100  32.622  38.098  1.00  0.00    -0.206 F 
ATOM     91  C   UNL A   1      38.579  34.669  39.145  1.00  0.00     0.040 A 
ATOM     92  C   UNL A   1      39.910  36.321  38.006  1.00  0.00     0.040 A 
ATOM     93  F   UNL A   1      40.712  35.897  35.842  1.00  0.00    -0.206 F 
ATOM     94  C   UNL A   1      39.189  35.922  39.129  1.00  0.00     0.006 A 
ENDBRANCH  70  87
ENDBRANCH  44  45
ENDBRANCH  36  39
ENDBRANCH  34  35
ENDBRANCH  33  34
ENDBRANCH  32  33
ENDBRANCH   3  32
TORSDOF 15
ENDMDL
MODEL 3
REMARK VINA RESULT:     -12.4      4.724      9.227
REMARK SMILES CN(C)c1ccc(-c2nnc([C@H]3CC[N@@H+](Cc4ccc(C(=O)NCCCNC(=O)c5ccc(-c6c7nc(c(-c8c(F)cccc8F)c8ccc([nH]8)c(-c8c(F)cccc8F)c8nc(c(-c9c(F)cccc9F)c9ccc6[nH]9)C=C8)C=C7)cc5)cc4)C3)o2)cc1
REMARK SMILES IDX 21 1 22 2 23 3 20 5 17 6 18 7 85 8 19 9 84 10 16 11 15 12
REMARK SMILES IDX 12 13 13 14 86 15 14 16 11 18 8 19 9 20 87 21 10 22 7 23
REMARK SMILES IDX 4 24 5 25 89 26 6 27 88 28 2 29 1 30 3 31 24 32 25 33 26 34
REMARK SMILES IDX 27 35 28 36 29 38 30 39 31 40 83 41 32 42 82 43 33 44 34 45
REMARK SMILES IDX 35 46 76 47 36 48 81 49 75 50 77 51 37 52 80 53 74 54 73 55
REMARK SMILES IDX 38 57 64 58 47 59 63 60 48 61 51 62 62 63 78 64 49 65 50 66
REMARK SMILES IDX 61 68 79 69 52 70 39 71 40 72 45 73 41 74 42 75 44 76 46 77
REMARK SMILES IDX 43 78 65 79 66 80 71 81 67 82 68 83 70 84 72 85 69 86 53 87
REMARK SMILES IDX 54 88 59 89 55 90 56 91 58 92 60 93 57 94
REMARK H PARENT 23 4 15 17 27 37 77 56 51 67
REMARK Flexibility Score: inf
ROOT
ATOM      1  C   UNL A   1      31.411  27.817  26.969  1.00  0.00     0.251 C 
ATOM      2  O   UNL A   1      30.677  28.099  27.915  1.00  0.00    -0.269 OA
ATOM      3  N   UNL A   1      32.065  28.836  26.314  1.00  0.00    -0.352 N 
ATOM      4  H   UNL A   1      31.746  29.739  26.541  1.00  0.00     0.163 HD
ENDROOT
BRANCH   1   5
ATOM      5  C   UNL A   1      31.574  26.390  26.590  1.00  0.00     0.039 A 
ATOM      6  C   UNL A   1      31.807  23.671  25.848  1.00  0.00     0.006 A 
ATOM      7  C   UNL A   1      30.562  24.313  25.821  1.00  0.00     0.010 A 
ATOM      8  C   UNL A   1      32.932  24.439  26.149  1.00  0.00     0.010 A 
ATOM      9  C   UNL A   1      30.449  25.665  26.178  1.00  0.00     0.014 A 
ATOM     10  C   UNL A   1      32.823  25.779  26.530  1.00  0.00     0.014 A 
BRANCH   6  11
ATOM     11  C   UNL A   1      31.939  22.184  25.587  1.00  0.00     0.299 C 
BRANCH  11  12
ATOM     12  N   UNL A   1      32.262  21.770  24.210  1.00  0.00    -0.330 N 
ATOM     13  C   UNL A   1      33.006  23.268  22.442  1.00  0.00     0.138 C 
ATOM     14  C   UNL A   1      34.196  22.780  23.265  1.00  0.00     0.081 C 
ATOM     15  C   UNL A   1      31.782  22.666  23.146  1.00  0.00     0.276 C 
ATOM     16  C   UNL A   1      33.680  21.522  23.949  1.00  0.00     0.263 C 
ATOM     17  H   UNL A   1      31.745  20.892  24.170  1.00  0.00     0.348 HD
BRANCH  13  18
ATOM     18  C   UNL A   1      32.992  24.748  22.265  1.00  0.00     0.225 A 
ATOM     19  C   UNL A   1      32.192  26.730  22.190  1.00  0.00     0.247 A 
ATOM     20  N   UNL A   1      33.488  26.834  21.972  1.00  0.00    -0.108 NA
ATOM     21  O   UNL A   1      31.800  25.424  22.352  1.00  0.00    -0.420 OA
ATOM     22  N   UNL A   1      34.006  25.554  22.028  1.00  0.00    -0.112 NA
BRANCH  19  23
ATOM     23  C   UNL A   1      31.203  27.775  22.444  1.00  0.00     0.039 A 
ATOM     24  C   UNL A   1      29.074  29.669  22.497  1.00  0.00     0.036 A 
ATOM     25  C   UNL A   1      28.935  28.403  23.077  1.00  0.00     0.027 A 
ATOM     26  C   UNL A   1      30.324  30.000  21.969  1.00  0.00     0.027 A 
ATOM     27  C   UNL A   1      29.975  27.460  23.037  1.00  0.00     0.016 A 
ATOM     28  C   UNL A   1      31.381  29.081  21.974  1.00  0.00     0.016 A 
BRANCH  24  29
ATOM     29  N   UNL A   1      27.996  30.544  22.448  1.00  0.00    -0.378 N 
ATOM     30  C   UNL A   1      27.997  31.629  21.478  1.00  0.00     0.143 C 
ATOM     31  C   UNL A   1      27.272  30.745  23.697  1.00  0.00     0.143 C 
ENDBRANCH  24  29
ENDBRANCH  19  23
ENDBRANCH  13  18
ENDBRANCH  11  12
ENDBRANCH   6  11
ENDBRANCH   1   5
BRANCH   3  32
ATOM     32  C   UNL A   1      33.148  28.806  25.338  1.00  0.00     0.118 C 
BRANCH  32  33
ATOM     33  C   UNL A   1      34.500  29.167  25.949  1.00  0.00     0.042 C 
BRANCH  33  34
ATOM     34  C   UNL A   1      34.706  28.753  27.406  1.00  0.00     0.118 C 
BRANCH  34  35
ATOM     35  N   UNL A   1      34.788  29.898  28.303  1.00  0.00    -0.352 N 
ATOM     36  C   UNL A   1      35.839  30.429  29.013  1.00  0.00     0.251 C 
ATOM     37  H   UNL A   1      33.938  30.380  28.419  1.00  0.00     0.163 HD
ATOM     38  O   UNL A   1      35.598  31.304  29.843  1.00  0.00    -0.269 OA
BRANCH  36  39
ATOM     39  C   UNL A   1      37.248  29.989  28.827  1.00  0.00     0.039 A 
ATOM     40  C   UNL A   1      38.001  29.688  29.972  1.00  0.00     0.014 A 
ATOM     41  C   UNL A   1      37.876  29.959  27.581  1.00  0.00     0.014 A 
ATOM     42  C   UNL A   1      39.349  29.324  29.867  1.00  0.00     0.010 A 
ATOM     43  C   UNL A   1      39.205  29.531  27.469  1.00  0.00     0.010 A 
ATOM     44  C   UNL A   1      39.960  29.216  28.610  1.00  0.00    -0.014 A 
BRANCH  44  45
ATOM     45  C   UNL A   1      41.374  28.770  28.471  1.00  0.00     0.031 A 
ATOM     46  C   UNL A   1      42.506  29.762  28.527  1.00  0.00     0.074 A 
ATOM     47  C   UNL A   1      41.647  27.476  28.216  1.00  0.00     0.049 A 
ATOM     48  N   UNL A   1      43.786  29.570  28.328  1.00  0.00    -0.248 NA
ATOM     49  C   UNL A   1      42.147  31.155  28.827  1.00  0.00     0.031 C 
ATOM     50  C   UNL A   1      40.651  26.411  28.103  1.00  0.00     0.029 A 
ATOM     51  N   UNL A   1      42.842  26.841  27.982  1.00  0.00    -0.354 N 
ATOM     52  C   UNL A   1      44.383  30.818  28.453  1.00  0.00     0.074 A 
ATOM     53  C   UNL A   1      43.320  31.766  28.712  1.00  0.00     0.031 C 
ATOM     54  C   UNL A   1      41.273  25.258  27.807  1.00  0.00     0.029 A 
ATOM     55  C   UNL A   1      42.706  25.506  27.684  1.00  0.00     0.049 A 
ATOM     56  H   UNL A   1      43.713  27.297  28.022  1.00  0.00     0.167 HD
ATOM     57  C   UNL A   1      45.696  31.145  28.374  1.00  0.00     0.037 A 
ATOM     58  C   UNL A   1      43.623  24.585  27.333  1.00  0.00     0.037 A 
ATOM     59  C   UNL A   1      46.764  30.203  28.155  1.00  0.00     0.049 A 
ATOM     60  C   UNL A   1      45.074  24.965  27.264  1.00  0.00     0.074 A 
ATOM     61  C   UNL A   1      48.130  30.431  28.158  1.00  0.00     0.029 A 
ATOM     62  N   UNL A   1      46.586  28.855  27.887  1.00  0.00    -0.354 N 
ATOM     63  N   UNL A   1      45.629  26.135  27.458  1.00  0.00    -0.248 NA
ATOM     64  C   UNL A   1      46.026  23.893  26.939  1.00  0.00     0.031 C 
ATOM     65  C   UNL A   1      48.777  29.228  27.850  1.00  0.00     0.029 A 
ATOM     66  C   UNL A   1      47.814  28.244  27.693  1.00  0.00     0.049 A 
ATOM     67  H   UNL A   1      45.714  28.398  27.842  1.00  0.00     0.167 HD
ATOM     68  C   UNL A   1      46.994  25.941  27.295  1.00  0.00     0.074 A 
ATOM     69  C   UNL A   1      47.185  24.537  26.998  1.00  0.00     0.031 C 
ATOM     70  C   UNL A   1      47.997  26.848  27.385  1.00  0.00     0.037 A 
BRANCH  57  71
ATOM     71  C   UNL A   1      46.055  32.596  28.520  1.00  0.00     0.057 A 
ATOM     72  C   UNL A   1      46.417  33.150  29.754  1.00  0.00     0.134 A 
ATOM     73  C   UNL A   1      46.061  33.443  27.405  1.00  0.00     0.134 A 
ATOM     74  F   UNL A   1      46.425  32.394  30.862  1.00  0.00    -0.206 F 
ATOM     75  C   UNL A   1      46.741  34.503  29.881  1.00  0.00     0.040 A 
ATOM     76  C   UNL A   1      46.406  34.792  27.513  1.00  0.00     0.040 A 
ATOM     77  F   UNL A   1      45.734  32.975  26.190  1.00  0.00    -0.206 F 
ATOM     78  C   UNL A   1      46.740  35.326  28.757  1.00  0.00     0.006 A 
ENDBRANCH  57  71
BRANCH  58  79
ATOM     79  C   UNL A   1      43.182  23.203  27.031  1.00  0.00     0.057 A 
ATOM     80  C   UNL A   1      42.816  22.322  28.054  1.00  0.00     0.134 A 
ATOM     81  C   UNL A   1      43.084  22.743  25.711  1.00  0.00     0.134 A 
ATOM     82  F   UNL A   1      42.905  22.704  29.336  1.00  0.00    -0.206 F 
ATOM     83  C   UNL A   1      42.374  21.028  27.778  1.00  0.00     0.040 A 
ATOM     84  C   UNL A   1      42.626  21.458  25.420  1.00  0.00     0.040 A 
ATOM     85  F   UNL A   1      43.406  23.548  24.688  1.00  0.00    -0.206 F 
ATOM     86  C   UNL A   1      42.272  20.595  26.457  1.00  0.00     0.006 A 
ENDBRANCH  58  79
BRANCH  70  87
ATOM     87  C   UNL A   1      49.395  26.348  27.167  1.00  0.00     0.057 A 
ATOM     88  C   UNL A   1      50.184  25.890  28.229  1.00  0.00     0.134 A 
ATOM     89  C   UNL A   1      49.943  26.293  25.879  1.00  0.00     0.134 A 
ATOM     90  F   UNL A   1      49.722  25.930  29.487  1.00  0.00    -0.206 F 
ATOM     91  C   UNL A   1      51.479  25.408  28.019  1.00  0.00     0.040 A 
ATOM     92  C   UNL A   1      51.228  25.795  25.655  1.00  0.00     0.040 A 
ATOM     93  F   UNL A   1      49.237  26.713  24.819  1.00  0.00    -0.206 F 
ATOM     94  C   UNL A   1      52.000  25.353  26.728  1.00  0.00     0.006 A 
ENDBRANCH  70  87
ENDBRANCH  44  45
ENDBRANCH  36  39
ENDBRANCH  34  35
ENDBRANCH  33  34
ENDBRANCH  32  33
ENDBRANCH   3  32
TORSDOF 15
ENDMDL
