MODEL 1
REMARK VINA RESULT:     -12.8      0.000      0.000
REMARK SMILES CC(C)(C)OC(=O)N1CCN(C(=O)c2ccc3c(c2)OCO3)[C@H](C(=O)NCCCNC(=O)c2ccc(-c3c4nc(c(-c5c(F)cccc5F)c5ccc([nH]5)c(-c5c(F)cccc5F)c5nc(c(-c6c(F)cccc6F)c6ccc3[nH]6)C=C5)C=C4)cc2)C1
REMARK SMILES IDX 27 1 26 2 24 3 25 4 23 6 8 7 9 8 87 9 10 10 11 11 6 12 7 13
REMARK SMILES IDX 5 14 2 15 1 16 3 17 4 18 12 19 13 20 14 21 15 22 19 23 16 24
REMARK SMILES IDX 18 25 17 26 20 27 22 28 21 29 28 30 29 31 30 32 31 33 32 35
REMARK SMILES IDX 33 36 34 37 86 38 35 39 85 40 36 41 37 42 38 43 79 44 39 45
REMARK SMILES IDX 84 46 78 47 80 48 40 49 83 50 77 51 76 52 41 54 67 55 50 56
REMARK SMILES IDX 66 57 51 58 54 59 65 60 81 61 52 62 53 63 64 65 82 66 55 67
REMARK SMILES IDX 42 68 43 69 48 70 44 71 45 72 47 73 49 74 46 75 68 76 69 77
REMARK SMILES IDX 74 78 70 79 71 80 73 81 75 82 72 83 56 84 57 85 62 86 58 87
REMARK SMILES IDX 59 88 61 89 63 90 60 91
REMARK H PARENT 26 5 30 34 80 53 54 64
REMARK Flexibility Score: inf
ROOT
ATOM      1  C   UNL A   1      34.073  29.119  26.740  1.00  0.00     0.117 C 
ENDROOT
BRANCH   1   2
ATOM      2  N   UNL A   1      33.162  28.343  27.562  1.00  0.00    -0.354 N 
ATOM      3  C   UNL A   1      31.929  27.869  27.205  1.00  0.00     0.244 C 
ATOM      4  O   UNL A   1      31.052  27.819  28.068  1.00  0.00    -0.273 OA
ATOM      5  H   UNL A   1      33.463  28.135  28.476  1.00  0.00     0.163 HD
BRANCH   3   6
ATOM      6  C   UNL A   1      31.735  27.325  25.783  1.00  0.00     0.194 C 
ATOM      7  N   UNL A   1      30.328  27.865  23.800  1.00  0.00    -0.304 N 
ATOM      8  C   UNL A   1      30.013  26.461  23.565  1.00  0.00     0.144 C 
ATOM      9  C   UNL A   1      30.620  28.213  25.188  1.00  0.00     0.158 C 
ATOM     10  C   UNL A   1      31.091  25.555  24.170  1.00  0.00     0.142 C 
ATOM     11  N   UNL A   1      31.395  25.879  25.577  1.00  0.00    -0.323 N 
BRANCH   7  12
ATOM     12  C   UNL A   1      30.222  28.789  22.787  1.00  0.00     0.410 C 
ATOM     13  O   UNL A   1      30.724  28.631  21.682  1.00  0.00    -0.224 OA
BRANCH  12  14
ATOM     14  O   UNL A   1      29.552  29.898  23.185  1.00  0.00    -0.444 OA
BRANCH  14  15
ATOM     15  C   UNL A   1      28.153  30.106  22.852  1.00  0.00     0.106 C 
ATOM     16  C   UNL A   1      28.143  30.369  21.337  1.00  0.00     0.056 C 
ATOM     17  C   UNL A   1      27.650  31.351  23.584  1.00  0.00     0.056 C 
ATOM     18  C   UNL A   1      27.264  28.885  23.122  1.00  0.00     0.056 C 
ENDBRANCH  14  15
ENDBRANCH  12  14
ENDBRANCH   7  12
BRANCH  11  19
ATOM     19  C   UNL A   1      31.902  24.811  26.328  1.00  0.00     0.254 C 
ATOM     20  O   UNL A   1      31.347  24.378  27.338  1.00  0.00    -0.269 OA
BRANCH  19  21
ATOM     21  C   UNL A   1      33.196  24.194  25.976  1.00  0.00     0.044 A 
ATOM     22  C   UNL A   1      34.315  25.000  25.677  1.00  0.00     0.018 A 
ATOM     23  C   UNL A   1      33.307  22.799  26.003  1.00  0.00     0.064 A 
ATOM     24  C   UNL A   1      35.524  24.413  25.289  1.00  0.00     0.051 A 
ATOM     25  C   UNL A   1      34.517  22.254  25.629  1.00  0.00     0.166 A 
ATOM     26  C   UNL A   1      35.588  23.037  25.266  1.00  0.00     0.165 A 
ATOM     27  O   UNL A   1      34.797  20.925  25.548  1.00  0.00    -0.454 OA
ATOM     28  O   UNL A   1      36.668  22.300  24.892  1.00  0.00    -0.454 OA
ATOM     29  C   UNL A   1      36.166  20.962  25.091  1.00  0.00     0.468 C 
ENDBRANCH  19  21
ENDBRANCH  11  19
ENDBRANCH   3   6
ENDBRANCH   1   2
BRANCH   1  30
ATOM     30  C   UNL A   1      34.121  30.562  27.238  1.00  0.00     0.042 C 
BRANCH  30  31
ATOM     31  C   UNL A   1      35.455  30.930  27.882  1.00  0.00     0.118 C 
BRANCH  31  32
ATOM     32  N   UNL A   1      35.394  30.887  29.336  1.00  0.00    -0.352 N 
ATOM     33  C   UNL A   1      36.235  30.271  30.228  1.00  0.00     0.251 C 
ATOM     34  H   UNL A   1      34.638  31.371  29.739  1.00  0.00     0.163 HD
ATOM     35  O   UNL A   1      35.904  30.155  31.403  1.00  0.00    -0.269 OA
BRANCH  33  36
ATOM     36  C   UNL A   1      37.529  29.732  29.766  1.00  0.00     0.039 A 
ATOM     37  C   UNL A   1      37.862  29.838  28.414  1.00  0.00     0.014 A 
ATOM     38  C   UNL A   1      38.409  29.120  30.663  1.00  0.00     0.014 A 
ATOM     39  C   UNL A   1      39.110  29.396  27.974  1.00  0.00     0.010 A 
ATOM     40  C   UNL A   1      39.682  28.752  30.238  1.00  0.00     0.010 A 
ATOM     41  C   UNL A   1      40.046  28.888  28.891  1.00  0.00    -0.014 A 
BRANCH  41  42
ATOM     42  C   UNL A   1      41.419  28.513  28.464  1.00  0.00     0.031 A 
ATOM     43  C   UNL A   1      41.727  27.096  28.066  1.00  0.00     0.074 A 
ATOM     44  C   UNL A   1      42.402  29.432  28.514  1.00  0.00     0.049 A 
ATOM     45  N   UNL A   1      42.879  26.558  27.755  1.00  0.00    -0.248 NA
ATOM     46  C   UNL A   1      40.598  26.153  28.040  1.00  0.00     0.031 C 
ATOM     47  C   UNL A   1      42.239  30.827  28.928  1.00  0.00     0.029 A 
ATOM     48  N   UNL A   1      43.742  29.327  28.232  1.00  0.00    -0.354 N 
ATOM     49  C   UNL A   1      42.616  25.216  27.516  1.00  0.00     0.074 A 
ATOM     50  C   UNL A   1      41.206  25.009  27.762  1.00  0.00     0.031 C 
ATOM     51  C   UNL A   1      43.426  31.450  28.859  1.00  0.00     0.029 A 
ATOM     52  C   UNL A   1      44.442  30.490  28.442  1.00  0.00     0.049 A 
ATOM     53  H   UNL A   1      44.160  28.496  27.908  1.00  0.00     0.167 HD
ATOM     54  C   UNL A   1      43.472  24.247  27.113  1.00  0.00     0.037 A 
ATOM     55  C   UNL A   1      45.760  30.748  28.334  1.00  0.00     0.037 A 
ATOM     56  C   UNL A   1      44.871  24.462  26.847  1.00  0.00     0.049 A 
ATOM     57  C   UNL A   1      46.689  29.649  27.897  1.00  0.00     0.074 A 
ATOM     58  C   UNL A   1      45.802  23.563  26.360  1.00  0.00     0.029 A 
ATOM     59  N   UNL A   1      45.540  25.659  27.054  1.00  0.00    -0.354 N 
ATOM     60  N   UNL A   1      46.413  28.404  27.592  1.00  0.00    -0.248 NA
ATOM     61  C   UNL A   1      48.114  29.991  27.786  1.00  0.00     0.031 C 
ATOM     62  C   UNL A   1      47.048  24.197  26.331  1.00  0.00     0.029 A 
ATOM     63  C   UNL A   1      46.881  25.509  26.740  1.00  0.00     0.049 A 
ATOM     64  H   UNL A   1      45.125  26.491  27.378  1.00  0.00     0.167 HD
ATOM     65  C   UNL A   1      47.620  27.824  27.226  1.00  0.00     0.074 A 
ATOM     66  C   UNL A   1      48.629  28.858  27.329  1.00  0.00     0.031 C 
ATOM     67  C   UNL A   1      47.873  26.549  26.840  1.00  0.00     0.037 A 
BRANCH  54  68
ATOM     68  C   UNL A   1      42.926  22.859  26.940  1.00  0.00     0.057 A 
ATOM     69  C   UNL A   1      42.714  22.295  25.674  1.00  0.00     0.134 A 
ATOM     70  C   UNL A   1      42.663  22.053  28.055  1.00  0.00     0.134 A 
ATOM     71  F   UNL A   1      42.937  23.014  24.564  1.00  0.00    -0.206 F 
ATOM     72  C   UNL A   1      42.238  20.990  25.526  1.00  0.00     0.040 A 
ATOM     73  C   UNL A   1      42.215  20.739  27.920  1.00  0.00     0.040 A 
ATOM     74  F   UNL A   1      42.851  22.527  29.297  1.00  0.00    -0.206 F 
ATOM     75  C   UNL A   1      41.997  20.206  26.652  1.00  0.00     0.006 A 
ENDBRANCH  54  68
BRANCH  55  76
ATOM     76  C   UNL A   1      46.285  32.104  28.643  1.00  0.00     0.057 A 
ATOM     77  C   UNL A   1      46.591  32.481  29.956  1.00  0.00     0.134 A 
ATOM     78  C   UNL A   1      46.465  33.064  27.640  1.00  0.00     0.134 A 
ATOM     79  F   UNL A   1      46.423  31.612  30.964  1.00  0.00    -0.206 F 
ATOM     80  C   UNL A   1      47.029  33.770  30.265  1.00  0.00     0.040 A 
ATOM     81  C   UNL A   1      46.931  34.346  27.930  1.00  0.00     0.040 A 
ATOM     82  F   UNL A   1      46.199  32.765  26.359  1.00  0.00    -0.206 F 
ATOM     83  C   UNL A   1      47.203  34.706  29.247  1.00  0.00     0.006 A 
ENDBRANCH  55  76
BRANCH  67  84
ATOM     84  C   UNL A   1      49.287  26.210  26.465  1.00  0.00     0.057 A 
ATOM     85  C   UNL A   1      49.803  26.481  25.191  1.00  0.00     0.134 A 
ATOM     86  C   UNL A   1      50.155  25.639  27.406  1.00  0.00     0.134 A 
ATOM     87  F   UNL A   1      49.021  27.014  24.241  1.00  0.00    -0.206 F 
ATOM     88  C   UNL A   1      51.123  26.174  24.860  1.00  0.00     0.040 A 
ATOM     89  C   UNL A   1      51.485  25.357  27.095  1.00  0.00     0.040 A 
ATOM     90  F   UNL A   1      49.728  25.361  28.647  1.00  0.00    -0.206 F 
ATOM     91  C   UNL A   1      51.972  25.619  25.816  1.00  0.00     0.006 A 
ENDBRANCH  67  84
ENDBRANCH  41  42
ENDBRANCH  33  36
ENDBRANCH  31  32
ENDBRANCH  30  31
ENDBRANCH   1  30
TORSDOF 15
ENDMDL
MODEL 2
REMARK VINA RESULT:     -12.8      2.984      7.381
REMARK SMILES CC(C)(C)OC(=O)N1CCN(C(=O)c2ccc3c(c2)OCO3)[C@H](C(=O)NCCCNC(=O)c2ccc(-c3c4nc(c(-c5c(F)cccc5F)c5ccc([nH]5)c(-c5c(F)cccc5F)c5nc(c(-c6c(F)cccc6F)c6ccc3[nH]6)C=C5)C=C4)cc2)C1
REMARK SMILES IDX 27 1 26 2 24 3 25 4 23 6 8 7 9 8 87 9 10 10 11 11 6 12 7 13
REMARK SMILES IDX 5 14 2 15 1 16 3 17 4 18 12 19 13 20 14 21 15 22 19 23 16 24
REMARK SMILES IDX 18 25 17 26 20 27 22 28 21 29 28 30 29 31 30 32 31 33 32 35
REMARK SMILES IDX 33 36 34 37 86 38 35 39 85 40 36 41 37 42 38 43 79 44 39 45
REMARK SMILES IDX 84 46 78 47 80 48 40 49 83 50 77 51 76 52 41 54 67 55 50 56
REMARK SMILES IDX 66 57 51 58 54 59 65 60 81 61 52 62 53 63 64 65 82 66 55 67
REMARK SMILES IDX 42 68 43 69 48 70 44 71 45 72 47 73 49 74 46 75 68 76 69 77
REMARK SMILES IDX 74 78 70 79 71 80 73 81 75 82 72 83 56 84 57 85 62 86 58 87
REMARK SMILES IDX 59 88 61 89 63 90 60 91
REMARK H PARENT 26 5 30 34 80 53 54 64
REMARK Flexibility Score: inf
ROOT
ATOM      1  C   UNL A   1      36.407  21.331  24.633  1.00  0.00     0.117 C 
ENDROOT
BRANCH   1   2
ATOM      2  N   UNL A   1      35.536  21.530  25.778  1.00  0.00    -0.354 N 
ATOM      3  C   UNL A   1      34.600  22.515  25.940  1.00  0.00     0.244 C 
ATOM      4  O   UNL A   1      34.415  22.960  27.073  1.00  0.00    -0.273 OA
ATOM      5  H   UNL A   1      35.628  20.887  26.517  1.00  0.00     0.163 HD
BRANCH   3   6
ATOM      6  C   UNL A   1      33.757  22.935  24.728  1.00  0.00     0.194 C 
ATOM      7  N   UNL A   1      33.099  25.063  23.614  1.00  0.00    -0.304 N 
ATOM      8  C   UNL A   1      31.714  24.630  23.471  1.00  0.00     0.144 C 
ATOM      9  C   UNL A   1      33.820  24.478  24.742  1.00  0.00     0.158 C 
ATOM     10  C   UNL A   1      31.620  23.100  23.482  1.00  0.00     0.142 C 
ATOM     11  N   UNL A   1      32.331  22.486  24.619  1.00  0.00    -0.323 N 
BRANCH   7  12
ATOM     12  C   UNL A   1      33.615  26.047  22.806  1.00  0.00     0.410 C 
ATOM     13  O   UNL A   1      33.640  25.968  21.585  1.00  0.00    -0.224 OA
BRANCH  12  14
ATOM     14  O   UNL A   1      34.134  27.071  23.528  1.00  0.00    -0.444 OA
BRANCH  14  15
ATOM     15  C   UNL A   1      33.368  28.272  23.811  1.00  0.00     0.106 C 
ATOM     16  C   UNL A   1      33.813  29.286  22.745  1.00  0.00     0.056 C 
ATOM     17  C   UNL A   1      33.757  28.792  25.196  1.00  0.00     0.056 C 
ATOM     18  C   UNL A   1      31.851  28.085  23.676  1.00  0.00     0.056 C 
ENDBRANCH  14  15
ENDBRANCH  12  14
ENDBRANCH   7  12
BRANCH  11  19
ATOM     19  C   UNL A   1      31.842  21.232  25.007  1.00  0.00     0.254 C 
ATOM     20  O   UNL A   1      31.019  21.082  25.910  1.00  0.00    -0.269 OA
BRANCH  19  21
ATOM     21  C   UNL A   1      32.365  19.999  24.387  1.00  0.00     0.044 A 
ATOM     22  C   UNL A   1      32.162  19.748  23.013  1.00  0.00     0.018 A 
ATOM     23  C   UNL A   1      33.115  19.115  25.171  1.00  0.00     0.064 A 
ATOM     24  C   UNL A   1      32.611  18.553  22.440  1.00  0.00     0.051 A 
ATOM     25  C   UNL A   1      33.553  17.954  24.571  1.00  0.00     0.166 A 
ATOM     26  C   UNL A   1      33.293  17.672  23.250  1.00  0.00     0.165 A 
ATOM     27  O   UNL A   1      34.251  16.960  25.184  1.00  0.00    -0.454 OA
ATOM     28  O   UNL A   1      33.777  16.459  22.872  1.00  0.00    -0.454 OA
ATOM     29  C   UNL A   1      34.399  16.020  24.098  1.00  0.00     0.468 C 
ENDBRANCH  19  21
ENDBRANCH  11  19
ENDBRANCH   3   6
ENDBRANCH   1   2
BRANCH   1  30
ATOM     30  C   UNL A   1      37.374  20.182  24.910  1.00  0.00     0.042 C 
BRANCH  30  31
ATOM     31  C   UNL A   1      38.617  20.617  25.681  1.00  0.00     0.118 C 
BRANCH  31  32
ATOM     32  N   UNL A   1      39.641  19.582  25.704  1.00  0.00    -0.352 N 
ATOM     33  C   UNL A   1      40.980  19.682  25.987  1.00  0.00     0.251 C 
ATOM     34  H   UNL A   1      39.326  18.676  25.484  1.00  0.00     0.163 HD
ATOM     35  O   UNL A   1      41.730  18.744  25.743  1.00  0.00    -0.269 OA
BRANCH  33  36
ATOM     36  C   UNL A   1      41.516  20.927  26.570  1.00  0.00     0.039 A 
ATOM     37  C   UNL A   1      42.050  21.897  25.718  1.00  0.00     0.014 A 
ATOM     38  C   UNL A   1      41.496  21.137  27.952  1.00  0.00     0.014 A 
ATOM     39  C   UNL A   1      42.498  23.109  26.247  1.00  0.00     0.010 A 
ATOM     40  C   UNL A   1      41.869  22.373  28.469  1.00  0.00     0.010 A 
ATOM     41  C   UNL A   1      42.372  23.372  27.622  1.00  0.00    -0.014 A 
BRANCH  41  42
ATOM     42  C   UNL A   1      42.740  24.694  28.190  1.00  0.00     0.031 A 
ATOM     43  C   UNL A   1      41.687  25.746  28.404  1.00  0.00     0.074 A 
ATOM     44  C   UNL A   1      44.035  24.972  28.436  1.00  0.00     0.049 A 
ATOM     45  N   UNL A   1      41.826  26.985  28.801  1.00  0.00    -0.248 NA
ATOM     46  C   UNL A   1      40.297  25.363  28.109  1.00  0.00     0.031 C 
ATOM     47  C   UNL A   1      45.155  24.052  28.225  1.00  0.00     0.029 A 
ATOM     48  N   UNL A   1      44.632  26.118  28.900  1.00  0.00    -0.354 N 
ATOM     49  C   UNL A   1      40.551  27.533  28.784  1.00  0.00     0.074 A 
ATOM     50  C   UNL A   1      39.655  26.507  28.295  1.00  0.00     0.031 C 
ATOM     51  C   UNL A   1      46.299  24.663  28.572  1.00  0.00     0.029 A 
ATOM     52  C   UNL A   1      46.001  26.030  28.984  1.00  0.00     0.049 A 
ATOM     53  H   UNL A   1      44.127  26.926  29.150  1.00  0.00     0.167 HD
ATOM     54  C   UNL A   1      40.160  28.775  29.157  1.00  0.00     0.037 A 
ATOM     55  C   UNL A   1      46.917  26.955  29.332  1.00  0.00     0.037 A 
ATOM     56  C   UNL A   1      41.052  29.785  29.665  1.00  0.00     0.049 A 
ATOM     57  C   UNL A   1      46.455  28.330  29.729  1.00  0.00     0.074 A 
ATOM     58  C   UNL A   1      40.741  31.046  30.142  1.00  0.00     0.029 A 
ATOM     59  N   UNL A   1      42.429  29.652  29.752  1.00  0.00    -0.354 N 
ATOM     60  N   UNL A   1      45.235  28.808  29.790  1.00  0.00    -0.248 NA
ATOM     61  C   UNL A   1      47.496  29.295  30.109  1.00  0.00     0.031 C 
ATOM     62  C   UNL A   1      41.935  31.699  30.460  1.00  0.00     0.029 A 
ATOM     63  C   UNL A   1      42.985  30.823  30.241  1.00  0.00     0.049 A 
ATOM     64  H   UNL A   1      42.937  28.847  29.503  1.00  0.00     0.167 HD
ATOM     65  C   UNL A   1      45.360  30.116  30.241  1.00  0.00     0.074 A 
ATOM     66  C   UNL A   1      46.773  30.350  30.457  1.00  0.00     0.031 C 
ATOM     67  C   UNL A   1      44.393  31.041  30.458  1.00  0.00     0.037 A 
BRANCH  54  68
ATOM     68  C   UNL A   1      38.705  29.120  29.025  1.00  0.00     0.057 A 
ATOM     69  C   UNL A   1      37.824  29.060  30.114  1.00  0.00     0.134 A 
ATOM     70  C   UNL A   1      38.188  29.573  27.804  1.00  0.00     0.134 A 
ATOM     71  F   UNL A   1      38.250  28.625  31.310  1.00  0.00    -0.206 F 
ATOM     72  C   UNL A   1      36.480  29.416  29.987  1.00  0.00     0.040 A 
ATOM     73  C   UNL A   1      36.854  29.959  27.672  1.00  0.00     0.040 A 
ATOM     74  F   UNL A   1      38.977  29.663  26.722  1.00  0.00    -0.206 F 
ATOM     75  C   UNL A   1      35.994  29.877  28.765  1.00  0.00     0.006 A 
ENDBRANCH  54  68
BRANCH  55  76
ATOM     76  C   UNL A   1      48.364  26.617  29.322  1.00  0.00     0.057 A 
ATOM     77  C   UNL A   1      48.986  26.060  30.446  1.00  0.00     0.134 A 
ATOM     78  C   UNL A   1      49.164  26.868  28.201  1.00  0.00     0.134 A 
ATOM     79  F   UNL A   1      48.277  25.813  31.557  1.00  0.00    -0.206 F 
ATOM     80  C   UNL A   1      50.357  25.794  30.467  1.00  0.00     0.040 A 
ATOM     81  C   UNL A   1      50.529  26.578  28.198  1.00  0.00     0.040 A 
ATOM     82  F   UNL A   1      48.628  27.391  27.088  1.00  0.00    -0.206 F 
ATOM     83  C   UNL A   1      51.131  26.050  29.337  1.00  0.00     0.006 A 
ENDBRANCH  55  76
BRANCH  67  84
ATOM     84  C   UNL A   1      44.824  32.378  30.987  1.00  0.00     0.057 A 
ATOM     85  C   UNL A   1      45.119  33.453  30.139  1.00  0.00     0.134 A 
ATOM     86  C   UNL A   1      44.907  32.603  32.368  1.00  0.00     0.134 A 
ATOM     87  F   UNL A   1      45.072  33.301  28.807  1.00  0.00    -0.206 F 
ATOM     88  C   UNL A   1      45.504  34.696  30.644  1.00  0.00     0.040 A 
ATOM     89  C   UNL A   1      45.261  33.849  32.885  1.00  0.00     0.040 A 
ATOM     90  F   UNL A   1      44.630  31.619  33.237  1.00  0.00    -0.206 F 
ATOM     91  C   UNL A   1      45.567  34.899  32.022  1.00  0.00     0.006 A 
ENDBRANCH  67  84
ENDBRANCH  41  42
ENDBRANCH  33  36
ENDBRANCH  31  32
ENDBRANCH  30  31
ENDBRANCH   1  30
TORSDOF 15
ENDMDL
MODEL 3
REMARK VINA RESULT:     -12.8      3.906      5.463
REMARK SMILES CC(C)(C)OC(=O)N1CCN(C(=O)c2ccc3c(c2)OCO3)[C@H](C(=O)NCCCNC(=O)c2ccc(-c3c4nc(c(-c5c(F)cccc5F)c5ccc([nH]5)c(-c5c(F)cccc5F)c5nc(c(-c6c(F)cccc6F)c6ccc3[nH]6)C=C5)C=C4)cc2)C1
REMARK SMILES IDX 27 1 26 2 24 3 25 4 23 6 8 7 9 8 87 9 10 10 11 11 6 12 7 13
REMARK SMILES IDX 5 14 2 15 1 16 3 17 4 18 12 19 13 20 14 21 15 22 19 23 16 24
REMARK SMILES IDX 18 25 17 26 20 27 22 28 21 29 28 30 29 31 30 32 31 33 32 35
REMARK SMILES IDX 33 36 34 37 86 38 35 39 85 40 36 41 37 42 38 43 79 44 39 45
REMARK SMILES IDX 84 46 78 47 80 48 40 49 83 50 77 51 76 52 41 54 67 55 50 56
REMARK SMILES IDX 66 57 51 58 54 59 65 60 81 61 52 62 53 63 64 65 82 66 55 67
REMARK SMILES IDX 42 68 43 69 48 70 44 71 45 72 47 73 49 74 46 75 68 76 69 77
REMARK SMILES IDX 74 78 70 79 71 80 73 81 75 82 72 83 56 84 57 85 62 86 58 87
REMARK SMILES IDX 59 88 61 89 63 90 60 91
REMARK H PARENT 26 5 30 34 80 53 54 64
REMARK Flexibility Score: inf
ROOT
ATOM      1  C   UNL A   1      34.040  29.485  26.624  1.00  0.00     0.117 C 
ENDROOT
BRANCH   1   2
ATOM      2  N   UNL A   1      33.270  28.573  27.452  1.00  0.00    -0.354 N 
ATOM      3  C   UNL A   1      32.126  27.909  27.103  1.00  0.00     0.244 C 
ATOM      4  O   UNL A   1      31.274  27.719  27.972  1.00  0.00    -0.273 OA
ATOM      5  H   UNL A   1      33.608  28.415  28.363  1.00  0.00     0.163 HD
BRANCH   3   6
ATOM      6  C   UNL A   1      32.010  27.342  25.682  1.00  0.00     0.194 C 
ATOM      7  N   UNL A   1      30.752  27.881  23.600  1.00  0.00    -0.304 N 
ATOM      8  C   UNL A   1      30.414  26.482  23.370  1.00  0.00     0.144 C 
ATOM      9  C   UNL A   1      30.962  28.249  24.998  1.00  0.00     0.158 C 
ATOM     10  C   UNL A   1      31.423  25.559  24.062  1.00  0.00     0.142 C 
ATOM     11  N   UNL A   1      31.644  25.902  25.480  1.00  0.00    -0.323 N 
BRANCH   7  12
ATOM     12  C   UNL A   1      30.740  28.786  22.566  1.00  0.00     0.410 C 
ATOM     13  O   UNL A   1      31.710  29.464  22.257  1.00  0.00    -0.224 OA
BRANCH  12  14
ATOM     14  O   UNL A   1      29.518  28.868  21.984  1.00  0.00    -0.444 OA
BRANCH  14  15
ATOM     15  C   UNL A   1      28.543  29.865  22.390  1.00  0.00     0.106 C 
ATOM     16  C   UNL A   1      27.386  29.059  23.004  1.00  0.00     0.056 C 
ATOM     17  C   UNL A   1      28.041  30.602  21.147  1.00  0.00     0.056 C 
ATOM     18  C   UNL A   1      29.058  30.836  23.461  1.00  0.00     0.056 C 
ENDBRANCH  14  15
ENDBRANCH  12  14
ENDBRANCH   7  12
BRANCH  11  19
ATOM     19  C   UNL A   1      32.069  24.836  26.281  1.00  0.00     0.254 C 
ATOM     20  O   UNL A   1      31.466  24.473  27.290  1.00  0.00    -0.269 OA
BRANCH  19  21
ATOM     21  C   UNL A   1      33.335  24.135  25.987  1.00  0.00     0.044 A 
ATOM     22  C   UNL A   1      34.530  24.862  25.805  1.00  0.00     0.018 A 
ATOM     23  C   UNL A   1      33.337  22.735  25.950  1.00  0.00     0.064 A 
ATOM     24  C   UNL A   1      35.716  24.199  25.472  1.00  0.00     0.051 A 
ATOM     25  C   UNL A   1      34.526  22.114  25.632  1.00  0.00     0.166 A 
ATOM     26  C   UNL A   1      35.677  22.825  25.382  1.00  0.00     0.165 A 
ATOM     27  O   UNL A   1      34.709  20.772  25.503  1.00  0.00    -0.454 OA
ATOM     28  O   UNL A   1      36.721  22.022  25.046  1.00  0.00    -0.454 OA
ATOM     29  C   UNL A   1      36.106  20.720  25.142  1.00  0.00     0.468 C 
ENDBRANCH  19  21
ENDBRANCH  11  19
ENDBRANCH   3   6
ENDBRANCH   1   2
BRANCH   1  30
ATOM     30  C   UNL A   1      33.846  30.919  27.113  1.00  0.00     0.042 C 
BRANCH  30  31
ATOM     31  C   UNL A   1      32.379  31.294  27.307  1.00  0.00     0.118 C 
BRANCH  31  32
ATOM     32  N   UNL A   1      32.184  32.735  27.376  1.00  0.00    -0.352 N 
ATOM     33  C   UNL A   1      32.932  33.689  28.017  1.00  0.00     0.251 C 
ATOM     34  H   UNL A   1      31.398  33.076  26.891  1.00  0.00     0.163 HD
ATOM     35  O   UNL A   1      32.494  34.827  28.150  1.00  0.00    -0.269 OA
BRANCH  33  36
ATOM     36  C   UNL A   1      34.259  33.339  28.562  1.00  0.00     0.039 A 
ATOM     37  C   UNL A   1      34.332  32.677  29.790  1.00  0.00     0.014 A 
ATOM     38  C   UNL A   1      35.426  33.665  27.866  1.00  0.00     0.014 A 
ATOM     39  C   UNL A   1      35.574  32.277  30.285  1.00  0.00     0.010 A 
ATOM     40  C   UNL A   1      36.655  33.198  28.322  1.00  0.00     0.010 A 
ATOM     41  C   UNL A   1      36.741  32.498  29.534  1.00  0.00    -0.014 A 
BRANCH  41  42
ATOM     42  C   UNL A   1      38.059  31.985  29.989  1.00  0.00     0.031 A 
ATOM     43  C   UNL A   1      38.586  30.678  29.463  1.00  0.00     0.074 A 
ATOM     44  C   UNL A   1      38.740  32.658  30.936  1.00  0.00     0.049 A 
ATOM     45  N   UNL A   1      39.666  30.024  29.808  1.00  0.00    -0.248 NA
ATOM     46  C   UNL A   1      37.780  30.005  28.433  1.00  0.00     0.031 C 
ATOM     47  C   UNL A   1      38.312  33.913  31.559  1.00  0.00     0.029 A 
ATOM     48  N   UNL A   1      39.932  32.372  31.556  1.00  0.00    -0.354 N 
ATOM     49  C   UNL A   1      39.658  28.858  29.055  1.00  0.00     0.074 A 
ATOM     50  C   UNL A   1      38.445  28.870  28.267  1.00  0.00     0.031 C 
ATOM     51  C   UNL A   1      39.232  34.294  32.459  1.00  0.00     0.029 A 
ATOM     52  C   UNL A   1      40.289  33.291  32.513  1.00  0.00     0.049 A 
ATOM     53  H   UNL A   1      40.478  31.583  31.336  1.00  0.00     0.167 HD
ATOM     54  C   UNL A   1      40.587  27.874  29.013  1.00  0.00     0.037 A 
ATOM     55  C   UNL A   1      41.341  33.312  33.355  1.00  0.00     0.037 A 
ATOM     56  C   UNL A   1      41.804  27.878  29.782  1.00  0.00     0.049 A 
ATOM     57  C   UNL A   1      42.350  32.199  33.295  1.00  0.00     0.074 A 
ATOM     58  C   UNL A   1      42.844  26.966  29.750  1.00  0.00     0.029 A 
ATOM     59  N   UNL A   1      42.140  28.835  30.727  1.00  0.00    -0.354 N 
ATOM     60  N   UNL A   1      42.374  31.144  32.517  1.00  0.00    -0.248 NA
ATOM     61  C   UNL A   1      43.481  32.279  34.230  1.00  0.00     0.031 C 
ATOM     62  C   UNL A   1      43.780  27.337  30.720  1.00  0.00     0.029 A 
ATOM     63  C   UNL A   1      43.354  28.515  31.311  1.00  0.00     0.049 A 
ATOM     64  H   UNL A   1      41.596  29.625  30.950  1.00  0.00     0.167 HD
ATOM     65  C   UNL A   1      43.532  30.453  32.846  1.00  0.00     0.074 A 
ATOM     66  C   UNL A   1      44.195  31.217  33.882  1.00  0.00     0.031 C 
ATOM     67  C   UNL A   1      44.007  29.289  32.337  1.00  0.00     0.037 A 
BRANCH  54  68
ATOM     68  C   UNL A   1      40.325  26.702  28.112  1.00  0.00     0.057 A 
ATOM     69  C   UNL A   1      40.946  26.571  26.862  1.00  0.00     0.134 A 
ATOM     70  C   UNL A   1      39.482  25.662  28.523  1.00  0.00     0.134 A 
ATOM     71  F   UNL A   1      41.758  27.535  26.402  1.00  0.00    -0.206 F 
ATOM     72  C   UNL A   1      40.721  25.460  26.047  1.00  0.00     0.040 A 
ATOM     73  C   UNL A   1      39.272  24.533  27.731  1.00  0.00     0.040 A 
ATOM     74  F   UNL A   1      38.860  25.719  29.711  1.00  0.00    -0.206 F 
ATOM     75  C   UNL A   1      39.889  24.432  26.486  1.00  0.00     0.006 A 
ENDBRANCH  54  68
BRANCH  55  76
ATOM     76  C   UNL A   1      41.497  34.423  34.330  1.00  0.00     0.057 A 
ATOM     77  C   UNL A   1      40.998  34.320  35.633  1.00  0.00     0.134 A 
ATOM     78  C   UNL A   1      42.122  35.625  33.973  1.00  0.00     0.134 A 
ATOM     79  F   UNL A   1      40.373  33.201  36.030  1.00  0.00    -0.206 F 
ATOM     80  C   UNL A   1      41.088  35.380  36.538  1.00  0.00     0.040 A 
ATOM     81  C   UNL A   1      42.246  36.681  34.876  1.00  0.00     0.040 A 
ATOM     82  F   UNL A   1      42.631  35.786  32.742  1.00  0.00    -0.206 F 
ATOM     83  C   UNL A   1      41.718  36.564  36.160  1.00  0.00     0.006 A 
ENDBRANCH  55  76
BRANCH  67  84
ATOM     84  C   UNL A   1      45.320  28.789  32.866  1.00  0.00     0.057 A 
ATOM     85  C   UNL A   1      45.396  27.903  33.949  1.00  0.00     0.134 A 
ATOM     86  C   UNL A   1      46.523  29.171  32.258  1.00  0.00     0.134 A 
ATOM     87  F   UNL A   1      44.283  27.509  34.584  1.00  0.00    -0.206 F 
ATOM     88  C   UNL A   1      46.623  27.434  34.421  1.00  0.00     0.040 A 
ATOM     89  C   UNL A   1      47.753  28.685  32.702  1.00  0.00     0.040 A 
ATOM     90  F   UNL A   1      46.522  30.010  31.211  1.00  0.00    -0.206 F 
ATOM     91  C   UNL A   1      47.806  27.818  33.792  1.00  0.00     0.006 A 
ENDBRANCH  67  84
ENDBRANCH  41  42
ENDBRANCH  33  36
ENDBRANCH  31  32
ENDBRANCH  30  31
ENDBRANCH   1  30
TORSDOF 15
ENDMDL
