MODEL 1
REMARK VINA RESULT:     -10.7      0.000      0.000
REMARK SMILES O=C(C[C@@H]1CN(C(=O)[C@H]2C[C@H](O)C[NH2+]2)CCO1)NCCCNC(=O)c1ccc(-c2c3nc(c(-c4c(F)cccc4F)c4ccc([nH]4)c(-c4c(F)cccc4F)c4nc(c(-c5c(F)cccc5F)c5ccc2[nH]5)C=C4)C=C3)cc1
REMARK SMILES IDX 19 1 18 2 1 3 2 4 3 6 4 7 5 8 17 9 6 10 16 11 15 12 7 13
REMARK SMILES IDX 8 14 9 15 10 16 14 17 11 18 13 19 12 22 20 24 21 25 22 26
REMARK SMILES IDX 23 27 24 29 25 30 26 31 78 32 27 33 77 34 28 35 29 36 30 37
REMARK SMILES IDX 71 38 31 39 76 40 70 41 72 42 32 43 75 44 69 45 68 46 33 48
REMARK SMILES IDX 59 49 42 50 58 51 43 52 46 53 57 54 73 55 44 56 45 57 56 59
REMARK SMILES IDX 74 60 47 61 34 62 35 63 40 64 36 65 37 66 39 67 41 68 38 69
REMARK SMILES IDX 60 70 61 71 66 72 62 73 63 74 65 75 67 76 64 77 48 78 49 79
REMARK SMILES IDX 54 80 50 81 51 82 53 83 55 84 52 85
REMARK H PARENT 18 5 14 20 14 21 12 23 22 28 72 47 46 58
REMARK Flexibility Score: inf
ROOT
ATOM      1  C   UNL A   1      37.100  33.394  28.683  1.00  0.00     0.117 C 
ENDROOT
BRANCH   1   2
ATOM      2  N   UNL A   1      37.643  33.269  30.018  1.00  0.00    -0.356 N 
ATOM      3  O   UNL A   1      38.795  35.260  30.050  1.00  0.00    -0.275 OA
ATOM      4  C   UNL A   1      38.461  34.214  30.590  1.00  0.00     0.222 C 
ATOM      5  H   UNL A   1      37.416  32.467  30.543  1.00  0.00     0.163 HD
BRANCH   4   6
ATOM      6  C   UNL A   1      38.892  33.860  31.993  1.00  0.00     0.133 C 
BRANCH   6   7
ATOM      7  C   UNL A   1      37.658  33.533  32.831  1.00  0.00     0.147 C 
ATOM      8  C   UNL A   1      36.518  34.519  32.542  1.00  0.00     0.152 C 
ATOM      9  O   UNL A   1      38.017  33.579  34.226  1.00  0.00    -0.374 OA
ATOM     10  N   UNL A   1      35.358  34.205  33.372  1.00  0.00    -0.333 N 
ATOM     11  C   UNL A   1      36.893  33.215  35.050  1.00  0.00     0.182 C 
ATOM     12  C   UNL A   1      35.685  34.129  34.802  1.00  0.00     0.148 C 
BRANCH  10  13
ATOM     13  C   UNL A   1      34.038  34.056  32.969  1.00  0.00     0.281 C 
ATOM     14  O   UNL A   1      33.519  32.934  32.939  1.00  0.00    -0.268 OA
BRANCH  13  15
ATOM     15  C   UNL A   1      33.179  35.277  32.559  1.00  0.00     0.275 C 
ATOM     16  C   UNL A   1      33.586  36.602  33.190  1.00  0.00     0.113 C 
ATOM     17  N   UNL A   1      33.093  35.453  31.092  1.00  0.00    -0.334 N 
ATOM     18  C   UNL A   1      33.809  37.559  32.030  1.00  0.00     0.175 C 
ATOM     19  C   UNL A   1      33.137  36.893  30.830  1.00  0.00     0.293 C 
ATOM     20  H   UNL A   1      32.219  35.059  30.743  1.00  0.00     0.347 HD
ATOM     21  H   UNL A   1      33.861  34.973  30.622  1.00  0.00     0.347 HD
BRANCH  18  22
ATOM     22  O   UNL A   1      33.277  38.843  32.318  1.00  0.00    -0.387 OA
ATOM     23  H   UNL A   1      32.389  38.919  31.935  1.00  0.00     0.211 HD
ENDBRANCH  18  22
ENDBRANCH  13  15
ENDBRANCH  10  13
ENDBRANCH   6   7
ENDBRANCH   4   6
ENDBRANCH   1   2
BRANCH   1  24
ATOM     24  C   UNL A   1      35.586  33.573  28.700  1.00  0.00     0.042 C 
BRANCH  24  25
ATOM     25  C   UNL A   1      34.837  32.568  29.571  1.00  0.00     0.118 C 
BRANCH  25  26
ATOM     26  N   UNL A   1      34.153  31.538  28.805  1.00  0.00    -0.352 N 
ATOM     27  C   UNL A   1      34.653  30.409  28.205  1.00  0.00     0.251 C 
ATOM     28  H   UNL A   1      33.183  31.671  28.701  1.00  0.00     0.163 HD
ATOM     29  O   UNL A   1      33.916  29.724  27.502  1.00  0.00    -0.269 OA
BRANCH  27  30
ATOM     30  C   UNL A   1      36.072  30.020  28.377  1.00  0.00     0.039 A 
ATOM     31  C   UNL A   1      36.475  29.518  29.619  1.00  0.00     0.014 A 
ATOM     32  C   UNL A   1      37.011  30.187  27.356  1.00  0.00     0.014 A 
ATOM     33  C   UNL A   1      37.806  29.144  29.822  1.00  0.00     0.010 A 
ATOM     34  C   UNL A   1      38.322  29.749  27.537  1.00  0.00     0.010 A 
ATOM     35  C   UNL A   1      38.737  29.237  28.776  1.00  0.00    -0.014 A 
BRANCH  35  36
ATOM     36  C   UNL A   1      40.153  28.838  28.979  1.00  0.00     0.031 A 
ATOM     37  C   UNL A   1      41.122  29.791  29.626  1.00  0.00     0.074 A 
ATOM     38  C   UNL A   1      40.579  27.635  28.550  1.00  0.00     0.049 A 
ATOM     39  N   UNL A   1      42.402  29.639  29.858  1.00  0.00    -0.248 NA
ATOM     40  C   UNL A   1      40.588  31.096  30.044  1.00  0.00     0.031 C 
ATOM     41  C   UNL A   1      39.754  26.637  27.869  1.00  0.00     0.029 A 
ATOM     42  N   UNL A   1      41.819  27.049  28.620  1.00  0.00    -0.354 N 
ATOM     43  C   UNL A   1      42.826  30.831  30.432  1.00  0.00     0.074 A 
ATOM     44  C   UNL A   1      41.681  31.714  30.466  1.00  0.00     0.031 C 
ATOM     45  C   UNL A   1      40.502  25.553  27.606  1.00  0.00     0.029 A 
ATOM     46  C   UNL A   1      41.865  25.790  28.075  1.00  0.00     0.049 A 
ATOM     47  H   UNL A   1      42.600  27.490  29.025  1.00  0.00     0.167 HD
ATOM     48  C   UNL A   1      44.052  31.154  30.909  1.00  0.00     0.037 A 
ATOM     49  C   UNL A   1      42.889  24.923  27.966  1.00  0.00     0.037 A 
ATOM     50  C   UNL A   1      45.183  30.265  30.907  1.00  0.00     0.049 A 
ATOM     51  C   UNL A   1      44.236  25.297  28.522  1.00  0.00     0.074 A 
ATOM     52  C   UNL A   1      46.453  30.483  31.416  1.00  0.00     0.029 A 
ATOM     53  N   UNL A   1      45.180  28.986  30.373  1.00  0.00    -0.354 N 
ATOM     54  N   UNL A   1      44.606  26.405  29.116  1.00  0.00    -0.248 NA
ATOM     55  C   UNL A   1      45.302  24.293  28.403  1.00  0.00     0.031 C 
ATOM     56  C   UNL A   1      47.227  29.345  31.161  1.00  0.00     0.029 A 
ATOM     57  C   UNL A   1      46.428  28.405  30.530  1.00  0.00     0.049 A 
ATOM     58  H   UNL A   1      44.407  28.554  29.945  1.00  0.00     0.167 HD
ATOM     59  C   UNL A   1      45.936  26.219  29.471  1.00  0.00     0.074 A 
ATOM     60  C   UNL A   1      46.305  24.890  29.032  1.00  0.00     0.031 C 
ATOM     61  C   UNL A   1      46.776  27.075  30.104  1.00  0.00     0.037 A 
BRANCH  48  62
ATOM     62  C   UNL A   1      44.227  32.529  31.484  1.00  0.00     0.057 A 
ATOM     63  C   UNL A   1      44.634  33.612  30.694  1.00  0.00     0.134 A 
ATOM     64  C   UNL A   1      43.961  32.779  32.836  1.00  0.00     0.134 A 
ATOM     65  F   UNL A   1      44.918  33.437  29.395  1.00  0.00    -0.206 F 
ATOM     66  C   UNL A   1      44.797  34.889  31.234  1.00  0.00     0.040 A 
ATOM     67  C   UNL A   1      44.094  34.058  33.381  1.00  0.00     0.040 A 
ATOM     68  F   UNL A   1      43.561  31.789  33.647  1.00  0.00    -0.206 F 
ATOM     69  C   UNL A   1      44.521  35.115  32.580  1.00  0.00     0.006 A 
ENDBRANCH  48  62
BRANCH  49  70
ATOM     70  C   UNL A   1      42.675  23.596  27.339  1.00  0.00     0.057 A 
ATOM     71  C   UNL A   1      42.290  22.490  28.106  1.00  0.00     0.134 A 
ATOM     72  C   UNL A   1      42.859  23.398  25.966  1.00  0.00     0.134 A 
ATOM     73  F   UNL A   1      42.117  22.616  29.430  1.00  0.00    -0.206 F 
ATOM     74  C   UNL A   1      42.114  21.230  27.535  1.00  0.00     0.040 A 
ATOM     75  C   UNL A   1      42.664  22.147  25.377  1.00  0.00     0.040 A 
ATOM     76  F   UNL A   1      43.221  24.419  25.176  1.00  0.00    -0.206 F 
ATOM     77  C   UNL A   1      42.297  21.057  26.165  1.00  0.00     0.006 A 
ENDBRANCH  49  70
BRANCH  61  78
ATOM     78  C   UNL A   1      48.160  26.581  30.403  1.00  0.00     0.057 A 
ATOM     79  C   UNL A   1      48.458  25.877  31.576  1.00  0.00     0.134 A 
ATOM     80  C   UNL A   1      49.200  26.786  29.488  1.00  0.00     0.134 A 
ATOM     81  F   UNL A   1      47.508  25.659  32.498  1.00  0.00    -0.206 F 
ATOM     82  C   UNL A   1      49.749  25.414  31.838  1.00  0.00     0.040 A 
ATOM     83  C   UNL A   1      50.488  26.307  29.727  1.00  0.00     0.040 A 
ATOM     84  F   UNL A   1      48.978  27.447  28.341  1.00  0.00    -0.206 F 
ATOM     85  C   UNL A   1      50.766  25.623  30.909  1.00  0.00     0.006 A 
ENDBRANCH  61  78
ENDBRANCH  35  36
ENDBRANCH  27  30
ENDBRANCH  25  26
ENDBRANCH  24  25
ENDBRANCH   1  24
TORSDOF 14
ENDMDL
MODEL 2
REMARK VINA RESULT:     -10.6      4.577      7.972
REMARK SMILES O=C(C[C@@H]1CN(C(=O)[C@H]2C[C@H](O)C[NH2+]2)CCO1)NCCCNC(=O)c1ccc(-c2c3nc(c(-c4c(F)cccc4F)c4ccc([nH]4)c(-c4c(F)cccc4F)c4nc(c(-c5c(F)cccc5F)c5ccc2[nH]5)C=C4)C=C3)cc1
REMARK SMILES IDX 19 1 18 2 1 3 2 4 3 6 4 7 5 8 17 9 6 10 16 11 15 12 7 13
REMARK SMILES IDX 8 14 9 15 10 16 14 17 11 18 13 19 12 22 20 24 21 25 22 26
REMARK SMILES IDX 23 27 24 29 25 30 26 31 78 32 27 33 77 34 28 35 29 36 30 37
REMARK SMILES IDX 71 38 31 39 76 40 70 41 72 42 32 43 75 44 69 45 68 46 33 48
REMARK SMILES IDX 59 49 42 50 58 51 43 52 46 53 57 54 73 55 44 56 45 57 56 59
REMARK SMILES IDX 74 60 47 61 34 62 35 63 40 64 36 65 37 66 39 67 41 68 38 69
REMARK SMILES IDX 60 70 61 71 66 72 62 73 63 74 65 75 67 76 64 77 48 78 49 79
REMARK SMILES IDX 54 80 50 81 51 82 53 83 55 84 52 85
REMARK H PARENT 18 5 14 20 14 21 12 23 22 28 72 47 46 58
REMARK Flexibility Score: inf
ROOT
ATOM      1  C   UNL A   1      31.778  28.517  24.887  1.00  0.00     0.117 C 
ENDROOT
BRANCH   1   2
ATOM      2  N   UNL A   1      31.547  27.093  25.015  1.00  0.00    -0.356 N 
ATOM      3  O   UNL A   1      31.029  27.084  27.256  1.00  0.00    -0.275 OA
ATOM      4  C   UNL A   1      31.201  26.490  26.200  1.00  0.00     0.222 C 
ATOM      5  H   UNL A   1      31.643  26.530  24.213  1.00  0.00     0.163 HD
BRANCH   4   6
ATOM      6  C   UNL A   1      31.008  24.998  26.077  1.00  0.00     0.133 C 
BRANCH   6   7
ATOM      7  C   UNL A   1      32.339  24.348  25.705  1.00  0.00     0.147 C 
ATOM      8  C   UNL A   1      32.533  23.022  26.454  1.00  0.00     0.152 C 
ATOM      9  O   UNL A   1      33.408  25.261  26.020  1.00  0.00    -0.374 OA
ATOM     10  N   UNL A   1      33.821  22.429  26.105  1.00  0.00    -0.333 N 
ATOM     11  C   UNL A   1      34.678  24.707  25.627  1.00  0.00     0.182 C 
ATOM     12  C   UNL A   1      34.945  23.355  26.302  1.00  0.00     0.148 C 
BRANCH  10  13
ATOM     13  C   UNL A   1      34.078  21.127  25.700  1.00  0.00     0.281 C 
ATOM     14  O   UNL A   1      35.243  20.728  25.587  1.00  0.00    -0.268 OA
BRANCH  13  15
ATOM     15  C   UNL A   1      32.927  20.139  25.390  1.00  0.00     0.275 C 
ATOM     16  C   UNL A   1      32.791  19.733  23.928  1.00  0.00     0.113 C 
ATOM     17  N   UNL A   1      32.980  18.916  26.222  1.00  0.00    -0.334 N 
ATOM     18  C   UNL A   1      32.837  18.214  23.916  1.00  0.00     0.175 C 
ATOM     19  C   UNL A   1      32.583  17.797  25.364  1.00  0.00     0.293 C 
ATOM     20  H   UNL A   1      32.336  18.999  27.010  1.00  0.00     0.347 HD
ATOM     21  H   UNL A   1      33.917  18.771  26.599  1.00  0.00     0.347 HD
BRANCH  18  22
ATOM     22  O   UNL A   1      31.881  17.682  23.013  1.00  0.00    -0.387 OA
ATOM     23  H   UNL A   1      31.467  16.896  23.404  1.00  0.00     0.211 HD
ENDBRANCH  18  22
ENDBRANCH  13  15
ENDBRANCH  10  13
ENDBRANCH   6   7
ENDBRANCH   4   6
ENDBRANCH   1   2
BRANCH   1  24
ATOM     24  C   UNL A   1      33.260  28.840  24.735  1.00  0.00     0.042 C 
BRANCH  24  25
ATOM     25  C   UNL A   1      34.008  29.027  26.052  1.00  0.00     0.118 C 
BRANCH  25  26
ATOM     26  N   UNL A   1      33.747  30.310  26.687  1.00  0.00    -0.352 N 
ATOM     27  C   UNL A   1      34.448  30.963  27.670  1.00  0.00     0.251 C 
ATOM     28  H   UNL A   1      32.947  30.780  26.362  1.00  0.00     0.163 HD
ATOM     29  O   UNL A   1      33.989  31.995  28.150  1.00  0.00    -0.269 OA
BRANCH  27  30
ATOM     30  C   UNL A   1      35.736  30.430  28.171  1.00  0.00     0.039 A 
ATOM     31  C   UNL A   1      35.729  29.688  29.356  1.00  0.00     0.014 A 
ATOM     32  C   UNL A   1      36.944  30.690  27.520  1.00  0.00     0.014 A 
ATOM     33  C   UNL A   1      36.923  29.172  29.864  1.00  0.00     0.010 A 
ATOM     34  C   UNL A   1      38.126  30.116  27.990  1.00  0.00     0.010 A 
ATOM     35  C   UNL A   1      38.130  29.364  29.175  1.00  0.00    -0.014 A 
BRANCH  35  36
ATOM     36  C   UNL A   1      39.405  28.816  29.703  1.00  0.00     0.031 A 
ATOM     37  C   UNL A   1      40.036  29.417  30.930  1.00  0.00     0.074 A 
ATOM     38  C   UNL A   1      40.017  27.803  29.060  1.00  0.00     0.049 A 
ATOM     39  N   UNL A   1      41.161  29.101  31.522  1.00  0.00    -0.248 NA
ATOM     40  C   UNL A   1      39.321  30.537  31.560  1.00  0.00     0.031 C 
ATOM     41  C   UNL A   1      39.535  27.161  27.836  1.00  0.00     0.029 A 
ATOM     42  N   UNL A   1      41.183  27.138  29.347  1.00  0.00    -0.354 N 
ATOM     43  C   UNL A   1      41.294  29.990  32.579  1.00  0.00     0.074 A 
ATOM     44  C   UNL A   1      40.164  30.892  32.519  1.00  0.00     0.031 C 
ATOM     45  C   UNL A   1      40.384  26.180  27.491  1.00  0.00     0.029 A 
ATOM     46  C   UNL A   1      41.483  26.141  28.452  1.00  0.00     0.049 A 
ATOM     47  H   UNL A   1      41.750  27.356  30.121  1.00  0.00     0.167 HD
ATOM     48  C   UNL A   1      42.258  30.039  33.530  1.00  0.00     0.037 A 
ATOM     49  C   UNL A   1      42.525  25.289  28.411  1.00  0.00     0.037 A 
ATOM     50  C   UNL A   1      43.364  29.123  33.612  1.00  0.00     0.049 A 
ATOM     51  C   UNL A   1      43.572  25.351  29.490  1.00  0.00     0.074 A 
ATOM     52  C   UNL A   1      44.363  29.060  34.569  1.00  0.00     0.029 A 
ATOM     53  N   UNL A   1      43.616  28.107  32.704  1.00  0.00    -0.354 N 
ATOM     54  N   UNL A   1      43.652  26.159  30.518  1.00  0.00    -0.248 NA
ATOM     55  C   UNL A   1      44.664  24.371  29.408  1.00  0.00     0.031 C 
ATOM     56  C   UNL A   1      45.237  28.023  34.222  1.00  0.00     0.029 A 
ATOM     57  C   UNL A   1      44.759  27.416  33.071  1.00  0.00     0.049 A 
ATOM     58  H   UNL A   1      43.063  27.906  31.915  1.00  0.00     0.167 HD
ATOM     59  C   UNL A   1      44.783  25.765  31.223  1.00  0.00     0.074 A 
ATOM     60  C   UNL A   1      45.351  24.642  30.509  1.00  0.00     0.031 C 
ATOM     61  C   UNL A   1      45.303  26.289  32.360  1.00  0.00     0.037 A 
BRANCH  48  62
ATOM     62  C   UNL A   1      42.148  31.119  34.567  1.00  0.00     0.057 A 
ATOM     63  C   UNL A   1      42.789  32.356  34.413  1.00  0.00     0.134 A 
ATOM     64  C   UNL A   1      41.375  30.931  35.718  1.00  0.00     0.134 A 
ATOM     65  F   UNL A   1      43.556  32.596  33.339  1.00  0.00    -0.206 F 
ATOM     66  C   UNL A   1      42.685  33.357  35.381  1.00  0.00     0.040 A 
ATOM     67  C   UNL A   1      41.242  31.934  36.680  1.00  0.00     0.040 A 
ATOM     68  F   UNL A   1      40.730  29.773  35.925  1.00  0.00    -0.206 F 
ATOM     69  C   UNL A   1      41.905  33.149  36.515  1.00  0.00     0.006 A 
ENDBRANCH  48  62
BRANCH  49  70
ATOM     70  C   UNL A   1      42.614  24.276  27.332  1.00  0.00     0.057 A 
ATOM     71  C   UNL A   1      42.117  22.980  27.519  1.00  0.00     0.134 A 
ATOM     72  C   UNL A   1      43.203  24.570  26.098  1.00  0.00     0.134 A 
ATOM     73  F   UNL A   1      41.558  22.634  28.688  1.00  0.00    -0.206 F 
ATOM     74  C   UNL A   1      42.220  22.007  26.524  1.00  0.00     0.040 A 
ATOM     75  C   UNL A   1      43.292  23.614  25.085  1.00  0.00     0.040 A 
ATOM     76  F   UNL A   1      43.691  25.795  25.856  1.00  0.00    -0.206 F 
ATOM     77  C   UNL A   1      42.806  22.325  25.300  1.00  0.00     0.006 A 
ENDBRANCH  49  70
BRANCH  61  78
ATOM     78  C   UNL A   1      46.520  25.622  32.928  1.00  0.00     0.057 A 
ATOM     79  C   UNL A   1      47.816  26.015  32.569  1.00  0.00     0.134 A 
ATOM     80  C   UNL A   1      46.392  24.596  33.872  1.00  0.00     0.134 A 
ATOM     81  F   UNL A   1      48.005  26.983  31.660  1.00  0.00    -0.206 F 
ATOM     82  C   UNL A   1      48.941  25.393  33.112  1.00  0.00     0.040 A 
ATOM     83  C   UNL A   1      47.509  23.984  34.441  1.00  0.00     0.040 A 
ATOM     84  F   UNL A   1      45.179  24.179  34.265  1.00  0.00    -0.206 F 
ATOM     85  C   UNL A   1      48.790  24.379  34.056  1.00  0.00     0.006 A 
ENDBRANCH  61  78
ENDBRANCH  35  36
ENDBRANCH  27  30
ENDBRANCH  25  26
ENDBRANCH  24  25
ENDBRANCH   1  24
TORSDOF 14
ENDMDL
MODEL 3
REMARK VINA RESULT:     -10.4      4.090      7.831
REMARK SMILES O=C(C[C@@H]1CN(C(=O)[C@H]2C[C@H](O)C[NH2+]2)CCO1)NCCCNC(=O)c1ccc(-c2c3nc(c(-c4c(F)cccc4F)c4ccc([nH]4)c(-c4c(F)cccc4F)c4nc(c(-c5c(F)cccc5F)c5ccc2[nH]5)C=C4)C=C3)cc1
REMARK SMILES IDX 19 1 18 2 1 3 2 4 3 6 4 7 5 8 17 9 6 10 16 11 15 12 7 13
REMARK SMILES IDX 8 14 9 15 10 16 14 17 11 18 13 19 12 22 20 24 21 25 22 26
REMARK SMILES IDX 23 27 24 29 25 30 26 31 78 32 27 33 77 34 28 35 29 36 30 37
REMARK SMILES IDX 71 38 31 39 76 40 70 41 72 42 32 43 75 44 69 45 68 46 33 48
REMARK SMILES IDX 59 49 42 50 58 51 43 52 46 53 57 54 73 55 44 56 45 57 56 59
REMARK SMILES IDX 74 60 47 61 34 62 35 63 40 64 36 65 37 66 39 67 41 68 38 69
REMARK SMILES IDX 60 70 61 71 66 72 62 73 63 74 65 75 67 76 64 77 48 78 49 79
REMARK SMILES IDX 54 80 50 81 51 82 53 83 55 84 52 85
REMARK H PARENT 18 5 14 20 14 21 12 23 22 28 72 47 46 58
REMARK Flexibility Score: inf
ROOT
ATOM      1  C   UNL A   1      31.224  30.834  25.621  1.00  0.00     0.117 C 
ENDROOT
BRANCH   1   2
ATOM      2  N   UNL A   1      32.154  29.870  26.170  1.00  0.00    -0.356 N 
ATOM      3  O   UNL A   1      33.211  29.332  24.198  1.00  0.00    -0.275 OA
ATOM      4  C   UNL A   1      33.069  29.186  25.405  1.00  0.00     0.222 C 
ATOM      5  H   UNL A   1      32.130  29.696  27.139  1.00  0.00     0.163 HD
BRANCH   4   6
ATOM      6  C   UNL A   1      33.932  28.243  26.208  1.00  0.00     0.133 C 
BRANCH   6   7
ATOM      7  C   UNL A   1      33.195  26.917  26.388  1.00  0.00     0.147 C 
ATOM      8  C   UNL A   1      33.942  25.772  25.691  1.00  0.00     0.152 C 
ATOM      9  O   UNL A   1      31.864  27.046  25.850  1.00  0.00    -0.374 OA
ATOM     10  N   UNL A   1      33.209  24.519  25.853  1.00  0.00    -0.333 N 
ATOM     11  C   UNL A   1      31.115  25.833  26.056  1.00  0.00     0.182 C 
ATOM     12  C   UNL A   1      31.808  24.620  25.421  1.00  0.00     0.148 C 
BRANCH  10  13
ATOM     13  C   UNL A   1      33.701  23.293  26.279  1.00  0.00     0.281 C 
ATOM     14  O   UNL A   1      33.257  22.767  27.306  1.00  0.00    -0.268 OA
BRANCH  13  15
ATOM     15  C   UNL A   1      34.802  22.548  25.485  1.00  0.00     0.275 C 
ATOM     16  C   UNL A   1      34.872  22.879  24.000  1.00  0.00     0.113 C 
ATOM     17  N   UNL A   1      36.149  22.714  26.076  1.00  0.00    -0.334 N 
ATOM     18  C   UNL A   1      36.305  23.319  23.743  1.00  0.00     0.175 C 
ATOM     19  C   UNL A   1      37.092  22.840  24.962  1.00  0.00     0.293 C 
ATOM     20  H   UNL A   1      36.384  21.901  26.645  1.00  0.00     0.347 HD
ATOM     21  H   UNL A   1      36.184  23.537  26.678  1.00  0.00     0.347 HD
BRANCH  18  22
ATOM     22  O   UNL A   1      36.793  22.780  22.525  1.00  0.00    -0.387 OA
ATOM     23  H   UNL A   1      36.536  23.357  21.789  1.00  0.00     0.211 HD
ENDBRANCH  18  22
ENDBRANCH  13  15
ENDBRANCH  10  13
ENDBRANCH   6   7
ENDBRANCH   4   6
ENDBRANCH   1   2
BRANCH   1  24
ATOM     24  C   UNL A   1      31.149  32.098  26.469  1.00  0.00     0.042 C 
BRANCH  24  25
ATOM     25  C   UNL A   1      32.470  32.510  27.114  1.00  0.00     0.118 C 
BRANCH  25  26
ATOM     26  N   UNL A   1      32.483  33.891  27.571  1.00  0.00    -0.352 N 
ATOM     27  C   UNL A   1      33.332  34.519  28.448  1.00  0.00     0.251 C 
ATOM     28  H   UNL A   1      31.775  34.461  27.194  1.00  0.00     0.163 HD
ATOM     29  O   UNL A   1      33.095  35.675  28.789  1.00  0.00    -0.269 OA
BRANCH  27  30
ATOM     30  C   UNL A   1      34.511  33.817  29.003  1.00  0.00     0.039 A 
ATOM     31  C   UNL A   1      34.294  32.748  29.879  1.00  0.00     0.014 A 
ATOM     32  C   UNL A   1      35.816  34.223  28.713  1.00  0.00     0.014 A 
ATOM     33  C   UNL A   1      35.380  32.063  30.428  1.00  0.00     0.010 A 
ATOM     34  C   UNL A   1      36.898  33.496  29.206  1.00  0.00     0.010 A 
ATOM     35  C   UNL A   1      36.692  32.417  30.079  1.00  0.00    -0.014 A 
BRANCH  35  36
ATOM     36  C   UNL A   1      37.855  31.692  30.653  1.00  0.00     0.031 A 
ATOM     37  C   UNL A   1      38.331  32.008  32.045  1.00  0.00     0.074 A 
ATOM     38  C   UNL A   1      38.508  30.778  29.910  1.00  0.00     0.049 A 
ATOM     39  N   UNL A   1      39.346  31.509  32.706  1.00  0.00    -0.248 NA
ATOM     40  C   UNL A   1      37.583  33.037  32.783  1.00  0.00     0.031 C 
ATOM     41  C   UNL A   1      38.177  30.412  28.533  1.00  0.00     0.029 A 
ATOM     42  N   UNL A   1      39.592  29.992  30.212  1.00  0.00    -0.354 N 
ATOM     43  C   UNL A   1      39.366  32.173  33.925  1.00  0.00     0.074 A 
ATOM     44  C   UNL A   1      38.296  33.146  33.895  1.00  0.00     0.031 C 
ATOM     45  C   UNL A   1      39.023  29.456  28.117  1.00  0.00     0.029 A 
ATOM     46  C   UNL A   1      39.972  29.161  29.187  1.00  0.00     0.049 A 
ATOM     47  H   UNL A   1      40.052  30.020  31.082  1.00  0.00     0.167 HD
ATOM     48  C   UNL A   1      40.187  31.976  34.985  1.00  0.00     0.037 A 
ATOM     49  C   UNL A   1      40.972  28.262  29.118  1.00  0.00     0.037 A 
ATOM     50  C   UNL A   1      41.230  30.986  35.031  1.00  0.00     0.049 A 
ATOM     51  C   UNL A   1      41.856  28.047  30.315  1.00  0.00     0.074 A 
ATOM     52  C   UNL A   1      42.079  30.675  36.079  1.00  0.00     0.029 A 
ATOM     53  N   UNL A   1      41.563  30.143  33.982  1.00  0.00    -0.354 N 
ATOM     54  N   UNL A   1      41.825  28.641  31.483  1.00  0.00    -0.248 NA
ATOM     55  C   UNL A   1      42.907  27.027  30.187  1.00  0.00     0.031 C 
ATOM     56  C   UNL A   1      42.948  29.664  35.654  1.00  0.00     0.029 A 
ATOM     57  C   UNL A   1      42.612  29.318  34.354  1.00  0.00     0.049 A 
ATOM     58  H   UNL A   1      41.120  30.132  33.104  1.00  0.00     0.167 HD
ATOM     59  C   UNL A   1      42.827  28.045  32.239  1.00  0.00     0.074 A 
ATOM     60  C   UNL A   1      43.441  27.038  31.400  1.00  0.00     0.031 C 
ATOM     61  C   UNL A   1      43.203  28.309  33.515  1.00  0.00     0.037 A 
BRANCH  48  62
ATOM     62  C   UNL A   1      39.978  32.848  36.189  1.00  0.00     0.057 A 
ATOM     63  C   UNL A   1      40.704  34.031  36.376  1.00  0.00     0.134 A 
ATOM     64  C   UNL A   1      39.024  32.514  37.158  1.00  0.00     0.134 A 
ATOM     65  F   UNL A   1      41.643  34.401  35.493  1.00  0.00    -0.206 F 
ATOM     66  C   UNL A   1      40.508  34.838  37.499  1.00  0.00     0.040 A 
ATOM     67  C   UNL A   1      38.799  33.327  38.271  1.00  0.00     0.040 A 
ATOM     68  F   UNL A   1      38.290  31.398  37.036  1.00  0.00    -0.206 F 
ATOM     69  C   UNL A   1      39.549  34.489  38.447  1.00  0.00     0.006 A 
ENDBRANCH  48  62
BRANCH  49  70
ATOM     70  C   UNL A   1      41.168  27.464  27.883  1.00  0.00     0.057 A 
ATOM     71  C   UNL A   1      41.965  27.943  26.835  1.00  0.00     0.134 A 
ATOM     72  C   UNL A   1      40.560  26.215  27.713  1.00  0.00     0.134 A 
ATOM     73  F   UNL A   1      42.558  29.142  26.934  1.00  0.00    -0.206 F 
ATOM     74  C   UNL A   1      42.135  27.218  25.656  1.00  0.00     0.040 A 
ATOM     75  C   UNL A   1      40.740  25.469  26.548  1.00  0.00     0.040 A 
ATOM     76  F   UNL A   1      39.792  25.700  28.682  1.00  0.00    -0.206 F 
ATOM     77  C   UNL A   1      41.525  25.974  25.512  1.00  0.00     0.006 A 
ENDBRANCH  49  70
BRANCH  61  78
ATOM     78  C   UNL A   1      44.297  27.464  34.096  1.00  0.00     0.057 A 
ATOM     79  C   UNL A   1      44.035  26.237  34.717  1.00  0.00     0.134 A 
ATOM     80  C   UNL A   1      45.634  27.871  34.003  1.00  0.00     0.134 A 
ATOM     81  F   UNL A   1      42.774  25.797  34.849  1.00  0.00    -0.206 F 
ATOM     82  C   UNL A   1      45.063  25.455  35.245  1.00  0.00     0.040 A 
ATOM     83  C   UNL A   1      46.672  27.087  34.504  1.00  0.00     0.040 A 
ATOM     84  F   UNL A   1      45.952  29.033  33.412  1.00  0.00    -0.206 F 
ATOM     85  C   UNL A   1      46.387  25.876  35.134  1.00  0.00     0.006 A 
ENDBRANCH  61  78
ENDBRANCH  35  36
ENDBRANCH  27  30
ENDBRANCH  25  26
ENDBRANCH  24  25
ENDBRANCH   1  24
TORSDOF 14
ENDMDL
