MODEL 1
REMARK VINA RESULT:     -12.0      0.000      0.000
REMARK SMILES C[C@@H]1[C@@H](C(=O)NCCCNC(=O)c2ccc(-c3c4nc(c(-c5c(F)cccc5F)c5ccc([nH]5)c(-c5c(F)cccc5F)c5nc(c(-c6c(F)cccc6F)c6ccc3[nH]6)C=C5)C=C4)cc2)CC[N@@H+]1C[C@H]1Cc2ccccc2O1
REMARK SMILES IDX 8 1 7 2 6 3 4 4 5 5 3 7 1 8 2 9 69 10 67 11 68 12 70 14
REMARK SMILES IDX 71 15 72 16 79 17 73 18 78 19 74 20 77 21 75 22 76 23 9 24
REMARK SMILES IDX 10 25 11 26 12 28 13 29 14 30 66 31 15 32 65 33 16 34 17 35
REMARK SMILES IDX 18 36 59 37 19 38 64 39 58 40 60 41 20 42 63 43 57 44 56 45
REMARK SMILES IDX 21 47 47 48 30 49 46 50 31 51 34 52 45 53 61 54 32 55 33 56
REMARK SMILES IDX 44 58 62 59 35 60 22 61 23 62 28 63 24 64 25 65 27 66 29 67
REMARK SMILES IDX 26 68 48 69 49 70 54 71 50 72 51 73 53 74 55 75 52 76 36 77
REMARK SMILES IDX 37 78 42 79 38 80 39 81 41 82 43 83 40 84
REMARK H PARENT 6 6 69 13 10 27 60 46 34 57
REMARK Flexibility Score: inf
ROOT
ATOM      1  C   UNL A   1      38.000  19.873  24.797  1.00  0.00     0.042 C 
ENDROOT
BRANCH   1   2
ATOM      2  C   UNL A   1      37.085  21.074  24.596  1.00  0.00     0.117 C 
BRANCH   2   3
ATOM      3  N   UNL A   1      37.654  22.307  25.114  1.00  0.00    -0.356 N 
ATOM      4  C   UNL A   1      37.143  23.348  25.815  1.00  0.00     0.229 C 
ATOM      5  O   UNL A   1      37.962  24.214  26.153  1.00  0.00    -0.275 OA
ATOM      6  H   UNL A   1      38.613  22.406  24.914  1.00  0.00     0.163 HD
BRANCH   4   7
ATOM      7  C   UNL A   1      35.666  23.582  26.118  1.00  0.00     0.142 C 
ATOM      8  C   UNL A   1      34.058  22.393  27.657  1.00  0.00     0.076 C 
ATOM      9  C   UNL A   1      34.736  22.373  26.284  1.00  0.00     0.193 C 
ATOM     10  N   UNL A   1      33.837  22.432  25.125  1.00  0.00    -0.329 N 
ATOM     11  C   UNL A   1      35.002  24.468  25.075  1.00  0.00     0.081 C 
ATOM     12  C   UNL A   1      34.174  23.523  24.236  1.00  0.00     0.263 C 
ATOM     13  H   UNL A   1      34.062  21.548  24.668  1.00  0.00     0.348 HD
BRANCH  10  14
ATOM     14  C   UNL A   1      32.468  21.942  25.154  1.00  0.00     0.308 C 
BRANCH  14  15
ATOM     15  C   UNL A   1      32.232  20.469  24.769  1.00  0.00     0.232 C 
ATOM     16  C   UNL A   1      33.055  19.976  23.572  1.00  0.00     0.090 C 
ATOM     17  O   UNL A   1      32.554  19.594  25.893  1.00  0.00    -0.484 OA
ATOM     18  C   UNL A   1      33.095  18.541  23.915  1.00  0.00    -0.002 A 
ATOM     19  C   UNL A   1      32.831  18.400  25.270  1.00  0.00     0.123 A 
ATOM     20  C   UNL A   1      33.379  17.451  23.115  1.00  0.00     0.007 A 
ATOM     21  C   UNL A   1      32.843  17.168  25.883  1.00  0.00     0.047 A 
ATOM     22  C   UNL A   1      33.368  16.190  23.712  1.00  0.00     0.001 A 
ATOM     23  C   UNL A   1      33.105  16.050  25.086  1.00  0.00     0.004 A 
ENDBRANCH  14  15
ENDBRANCH  10  14
ENDBRANCH   4   7
ENDBRANCH   2   3
ENDBRANCH   1   2
BRANCH   1  24
ATOM     24  C   UNL A   1      38.918  19.973  26.003  1.00  0.00     0.118 C 
BRANCH  24  25
ATOM     25  N   UNL A   1      40.149  19.217  25.841  1.00  0.00    -0.352 N 
ATOM     26  C   UNL A   1      41.466  19.593  25.952  1.00  0.00     0.251 C 
ATOM     27  H   UNL A   1      40.016  18.269  25.612  1.00  0.00     0.163 HD
ATOM     28  O   UNL A   1      42.338  18.807  25.591  1.00  0.00    -0.269 OA
BRANCH  26  29
ATOM     29  C   UNL A   1      41.859  20.923  26.477  1.00  0.00     0.039 A 
ATOM     30  C   UNL A   1      41.896  21.110  27.864  1.00  0.00     0.014 A 
ATOM     31  C   UNL A   1      42.124  22.005  25.636  1.00  0.00     0.014 A 
ATOM     32  C   UNL A   1      42.245  22.353  28.399  1.00  0.00     0.010 A 
ATOM     33  C   UNL A   1      42.567  23.215  26.166  1.00  0.00     0.010 A 
ATOM     34  C   UNL A   1      42.613  23.411  27.553  1.00  0.00    -0.014 A 
BRANCH  34  35
ATOM     35  C   UNL A   1      42.999  24.741  28.092  1.00  0.00     0.031 A 
ATOM     36  C   UNL A   1      41.941  25.780  28.361  1.00  0.00     0.074 A 
ATOM     37  C   UNL A   1      44.298  25.040  28.286  1.00  0.00     0.049 A 
ATOM     38  N   UNL A   1      42.080  27.027  28.737  1.00  0.00    -0.248 NA
ATOM     39  C   UNL A   1      40.544  25.372  28.146  1.00  0.00     0.031 C 
ATOM     40  C   UNL A   1      45.423  24.141  28.027  1.00  0.00     0.029 A 
ATOM     41  N   UNL A   1      44.891  26.191  28.741  1.00  0.00    -0.354 N 
ATOM     42  C   UNL A   1      40.795  27.555  28.772  1.00  0.00     0.074 A 
ATOM     43  C   UNL A   1      39.895  26.511  28.336  1.00  0.00     0.031 C 
ATOM     44  C   UNL A   1      46.568  24.765  28.351  1.00  0.00     0.029 A 
ATOM     45  C   UNL A   1      46.261  26.117  28.805  1.00  0.00     0.049 A 
ATOM     46  H   UNL A   1      44.382  26.995  28.996  1.00  0.00     0.167 HD
ATOM     47  C   UNL A   1      40.397  28.792  29.157  1.00  0.00     0.037 A 
ATOM     48  C   UNL A   1      47.168  27.036  29.187  1.00  0.00     0.037 A 
ATOM     49  C   UNL A   1      41.285  29.814  29.640  1.00  0.00     0.049 A 
ATOM     50  C   UNL A   1      46.699  28.391  29.636  1.00  0.00     0.074 A 
ATOM     51  C   UNL A   1      40.971  31.076  30.114  1.00  0.00     0.029 A 
ATOM     52  N   UNL A   1      42.662  29.686  29.722  1.00  0.00    -0.354 N 
ATOM     53  N   UNL A   1      45.477  28.862  29.707  1.00  0.00    -0.248 NA
ATOM     54  C   UNL A   1      47.735  29.343  30.062  1.00  0.00     0.031 C 
ATOM     55  C   UNL A   1      42.164  31.722  30.459  1.00  0.00     0.029 A 
ATOM     56  C   UNL A   1      43.216  30.849  30.231  1.00  0.00     0.049 A 
ATOM     57  H   UNL A   1      43.173  28.886  29.458  1.00  0.00     0.167 HD
ATOM     58  C   UNL A   1      45.595  30.151  30.209  1.00  0.00     0.074 A 
ATOM     59  C   UNL A   1      47.006  30.385  30.435  1.00  0.00     0.031 C 
ATOM     60  C   UNL A   1      44.622  31.059  30.459  1.00  0.00     0.037 A 
BRANCH  47  61
ATOM     61  C   UNL A   1      38.930  29.098  29.080  1.00  0.00     0.057 A 
ATOM     62  C   UNL A   1      38.095  28.994  30.199  1.00  0.00     0.134 A 
ATOM     63  C   UNL A   1      38.350  29.523  27.878  1.00  0.00     0.134 A 
ATOM     64  F   UNL A   1      38.585  28.579  31.376  1.00  0.00    -0.206 F 
ATOM     65  C   UNL A   1      36.730  29.276  30.120  1.00  0.00     0.040 A 
ATOM     66  C   UNL A   1      36.992  29.832  27.792  1.00  0.00     0.040 A 
ATOM     67  F   UNL A   1      39.094  29.649  26.769  1.00  0.00    -0.206 F 
ATOM     68  C   UNL A   1      36.175  29.702  28.915  1.00  0.00     0.006 A 
ENDBRANCH  47  61
BRANCH  48  69
ATOM     69  C   UNL A   1      48.612  26.695  29.193  1.00  0.00     0.057 A 
ATOM     70  C   UNL A   1      49.199  26.080  30.304  1.00  0.00     0.134 A 
ATOM     71  C   UNL A   1      49.436  26.973  28.097  1.00  0.00     0.134 A 
ATOM     72  F   UNL A   1      48.462  25.806  31.390  1.00  0.00    -0.206 F 
ATOM     73  C   UNL A   1      50.558  25.765  30.332  1.00  0.00     0.040 A 
ATOM     74  C   UNL A   1      50.793  26.645  28.103  1.00  0.00     0.040 A 
ATOM     75  F   UNL A   1      48.931  27.556  26.999  1.00  0.00    -0.206 F 
ATOM     76  C   UNL A   1      51.358  26.045  29.226  1.00  0.00     0.006 A 
ENDBRANCH  48  69
BRANCH  60  77
ATOM     77  C   UNL A   1      45.046  32.376  31.035  1.00  0.00     0.057 A 
ATOM     78  C   UNL A   1      45.354  33.471  30.220  1.00  0.00     0.134 A 
ATOM     79  C   UNL A   1      45.108  32.559  32.422  1.00  0.00     0.134 A 
ATOM     80  F   UNL A   1      45.324  33.354  28.884  1.00  0.00    -0.206 F 
ATOM     81  C   UNL A   1      45.726  34.701  30.765  1.00  0.00     0.040 A 
ATOM     82  C   UNL A   1      45.459  33.789  32.978  1.00  0.00     0.040 A 
ATOM     83  F   UNL A   1      44.818  31.549  33.257  1.00  0.00    -0.206 F 
ATOM     84  C   UNL A   1      45.773  34.864  32.149  1.00  0.00     0.006 A 
ENDBRANCH  60  77
ENDBRANCH  34  35
ENDBRANCH  26  29
ENDBRANCH  24  25
ENDBRANCH   1  24
TORSDOF 12
ENDMDL
MODEL 2
REMARK VINA RESULT:     -11.9      3.080      7.652
REMARK SMILES C[C@@H]1[C@@H](C(=O)NCCCNC(=O)c2ccc(-c3c4nc(c(-c5c(F)cccc5F)c5ccc([nH]5)c(-c5c(F)cccc5F)c5nc(c(-c6c(F)cccc6F)c6ccc3[nH]6)C=C5)C=C4)cc2)CC[N@@H+]1C[C@H]1Cc2ccccc2O1
REMARK SMILES IDX 8 1 7 2 6 3 4 4 5 5 3 7 1 8 2 9 69 10 67 11 68 12 70 14
REMARK SMILES IDX 71 15 72 16 79 17 73 18 78 19 74 20 77 21 75 22 76 23 9 24
REMARK SMILES IDX 10 25 11 26 12 28 13 29 14 30 66 31 15 32 65 33 16 34 17 35
REMARK SMILES IDX 18 36 59 37 19 38 64 39 58 40 60 41 20 42 63 43 57 44 56 45
REMARK SMILES IDX 21 47 47 48 30 49 46 50 31 51 34 52 45 53 61 54 32 55 33 56
REMARK SMILES IDX 44 58 62 59 35 60 22 61 23 62 28 63 24 64 25 65 27 66 29 67
REMARK SMILES IDX 26 68 48 69 49 70 54 71 50 72 51 73 53 74 55 75 52 76 36 77
REMARK SMILES IDX 37 78 42 79 38 80 39 81 41 82 43 83 40 84
REMARK H PARENT 6 6 69 13 10 27 60 46 34 57
REMARK Flexibility Score: inf
ROOT
ATOM      1  C   UNL A   1      33.540  28.978  27.146  1.00  0.00     0.042 C 
ENDROOT
BRANCH   1   2
ATOM      2  C   UNL A   1      32.878  29.819  26.062  1.00  0.00     0.117 C 
BRANCH   2   3
ATOM      3  N   UNL A   1      33.533  29.689  24.772  1.00  0.00    -0.356 N 
ATOM      4  C   UNL A   1      33.393  28.826  23.738  1.00  0.00     0.229 C 
ATOM      5  O   UNL A   1      34.091  29.069  22.743  1.00  0.00    -0.275 OA
ATOM      6  H   UNL A   1      34.223  30.374  24.616  1.00  0.00     0.163 HD
BRANCH   4   7
ATOM      7  C   UNL A   1      32.548  27.554  23.743  1.00  0.00     0.142 C 
ATOM      8  C   UNL A   1      31.664  26.134  25.632  1.00  0.00     0.076 C 
ATOM      9  C   UNL A   1      32.877  26.443  24.749  1.00  0.00     0.193 C 
ATOM     10  N   UNL A   1      33.372  25.331  23.928  1.00  0.00    -0.329 N 
ATOM     11  C   UNL A   1      32.524  26.878  22.381  1.00  0.00     0.081 C 
ATOM     12  C   UNL A   1      33.438  25.684  22.526  1.00  0.00     0.263 C 
ATOM     13  H   UNL A   1      34.320  25.236  24.293  1.00  0.00     0.348 HD
BRANCH  10  14
ATOM     14  C   UNL A   1      33.207  23.935  24.297  1.00  0.00     0.308 C 
BRANCH  14  15
ATOM     15  C   UNL A   1      34.371  23.255  25.044  1.00  0.00     0.232 C 
ATOM     16  C   UNL A   1      35.081  22.146  24.257  1.00  0.00     0.090 C 
ATOM     17  O   UNL A   1      35.389  24.240  25.400  1.00  0.00    -0.484 OA
ATOM     18  C   UNL A   1      36.399  22.225  24.916  1.00  0.00    -0.002 A 
ATOM     19  C   UNL A   1      36.519  23.467  25.523  1.00  0.00     0.123 A 
ATOM     20  C   UNL A   1      37.426  21.301  24.947  1.00  0.00     0.007 A 
ATOM     21  C   UNL A   1      37.668  23.840  26.182  1.00  0.00     0.047 A 
ATOM     22  C   UNL A   1      38.588  21.648  25.635  1.00  0.00     0.001 A 
ATOM     23  C   UNL A   1      38.709  22.909  26.246  1.00  0.00     0.004 A 
ENDBRANCH  14  15
ENDBRANCH  10  14
ENDBRANCH   4   7
ENDBRANCH   2   3
ENDBRANCH   1   2
BRANCH   1  24
ATOM     24  C   UNL A   1      34.960  29.395  27.491  1.00  0.00     0.118 C 
BRANCH  24  25
ATOM     25  N   UNL A   1      35.048  30.118  28.749  1.00  0.00    -0.352 N 
ATOM     26  C   UNL A   1      36.097  30.305  29.616  1.00  0.00     0.251 C 
ATOM     27  H   UNL A   1      34.208  30.549  29.029  1.00  0.00     0.163 HD
ATOM     28  O   UNL A   1      35.875  30.811  30.713  1.00  0.00    -0.269 OA
BRANCH  26  29
ATOM     29  C   UNL A   1      37.481  29.899  29.270  1.00  0.00     0.039 A 
ATOM     30  C   UNL A   1      38.329  29.472  30.299  1.00  0.00     0.014 A 
ATOM     31  C   UNL A   1      37.982  29.994  27.971  1.00  0.00     0.014 A 
ATOM     32  C   UNL A   1      39.645  29.096  30.018  1.00  0.00     0.010 A 
ATOM     33  C   UNL A   1      39.261  29.528  27.674  1.00  0.00     0.010 A 
ATOM     34  C   UNL A   1      40.115  29.094  28.697  1.00  0.00    -0.014 A 
BRANCH  34  35
ATOM     35  C   UNL A   1      41.507  28.690  28.365  1.00  0.00     0.031 A 
ATOM     36  C   UNL A   1      41.808  27.260  27.999  1.00  0.00     0.074 A 
ATOM     37  C   UNL A   1      42.508  29.587  28.448  1.00  0.00     0.049 A 
ATOM     38  N   UNL A   1      42.964  26.688  27.773  1.00  0.00    -0.248 NA
ATOM     39  C   UNL A   1      40.659  26.344  27.908  1.00  0.00     0.031 C 
ATOM     40  C   UNL A   1      42.360  30.992  28.831  1.00  0.00     0.029 A 
ATOM     41  N   UNL A   1      43.854  29.445  28.222  1.00  0.00    -0.354 N 
ATOM     42  C   UNL A   1      42.683  25.346  27.545  1.00  0.00     0.074 A 
ATOM     43  C   UNL A   1      41.255  25.179  27.705  1.00  0.00     0.031 C 
ATOM     44  C   UNL A   1      43.562  31.588  28.788  1.00  0.00     0.029 A 
ATOM     45  C   UNL A   1      44.570  30.603  28.411  1.00  0.00     0.049 A 
ATOM     46  H   UNL A   1      44.269  28.594  27.951  1.00  0.00     0.167 HD
ATOM     47  C   UNL A   1      43.532  24.346  27.207  1.00  0.00     0.037 A 
ATOM     48  C   UNL A   1      45.890  30.842  28.294  1.00  0.00     0.037 A 
ATOM     49  C   UNL A   1      44.944  24.520  26.997  1.00  0.00     0.049 A 
ATOM     50  C   UNL A   1      46.808  29.723  27.892  1.00  0.00     0.074 A 
ATOM     51  C   UNL A   1      45.878  23.584  26.591  1.00  0.00     0.029 A 
ATOM     52  N   UNL A   1      45.623  25.717  27.165  1.00  0.00    -0.354 N 
ATOM     53  N   UNL A   1      46.521  28.470  27.635  1.00  0.00    -0.248 NA
ATOM     54  C   UNL A   1      48.234  30.053  27.758  1.00  0.00     0.031 C 
ATOM     55  C   UNL A   1      47.130  24.209  26.539  1.00  0.00     0.029 A 
ATOM     56  C   UNL A   1      46.967  25.542  26.880  1.00  0.00     0.049 A 
ATOM     57  H   UNL A   1      45.211  26.567  27.446  1.00  0.00     0.167 HD
ATOM     58  C   UNL A   1      47.723  27.868  27.286  1.00  0.00     0.074 A 
ATOM     59  C   UNL A   1      48.741  28.897  27.353  1.00  0.00     0.031 C 
ATOM     60  C   UNL A   1      47.962  26.580  26.941  1.00  0.00     0.037 A 
BRANCH  47  61
ATOM     61  C   UNL A   1      42.949  22.974  27.035  1.00  0.00     0.057 A 
ATOM     62  C   UNL A   1      42.624  22.168  28.132  1.00  0.00     0.134 A 
ATOM     63  C   UNL A   1      42.688  22.464  25.757  1.00  0.00     0.134 A 
ATOM     64  F   UNL A   1      42.863  22.593  29.382  1.00  0.00    -0.206 F 
ATOM     65  C   UNL A   1      42.086  20.891  27.966  1.00  0.00     0.040 A 
ATOM     66  C   UNL A   1      42.127  21.199  25.578  1.00  0.00     0.040 A 
ATOM     67  F   UNL A   1      42.971  23.186  24.663  1.00  0.00    -0.206 F 
ATOM     68  C   UNL A   1      41.831  20.404  26.685  1.00  0.00     0.006 A 
ENDBRANCH  47  61
BRANCH  48  69
ATOM     69  C   UNL A   1      46.419  32.208  28.529  1.00  0.00     0.057 A 
ATOM     70  C   UNL A   1      46.481  33.142  27.489  1.00  0.00     0.134 A 
ATOM     71  C   UNL A   1      46.873  32.612  29.789  1.00  0.00     0.134 A 
ATOM     72  F   UNL A   1      46.077  32.805  26.255  1.00  0.00    -0.206 F 
ATOM     73  C   UNL A   1      46.990  34.426  27.689  1.00  0.00     0.040 A 
ATOM     74  C   UNL A   1      47.365  33.900  30.008  1.00  0.00     0.040 A 
ATOM     75  F   UNL A   1      46.834  31.764  30.828  1.00  0.00    -0.206 F 
ATOM     76  C   UNL A   1      47.430  34.809  28.954  1.00  0.00     0.006 A 
ENDBRANCH  48  69
BRANCH  60  77
ATOM     77  C   UNL A   1      49.371  26.219  26.580  1.00  0.00     0.057 A 
ATOM     78  C   UNL A   1      49.876  26.425  25.291  1.00  0.00     0.134 A 
ATOM     79  C   UNL A   1      50.242  25.698  27.544  1.00  0.00     0.134 A 
ATOM     80  F   UNL A   1      49.087  26.910  24.321  1.00  0.00    -0.206 F 
ATOM     81  C   UNL A   1      51.197  26.108  24.969  1.00  0.00     0.040 A 
ATOM     82  C   UNL A   1      51.570  25.396  27.239  1.00  0.00     0.040 A 
ATOM     83  F   UNL A   1      49.820  25.484  28.800  1.00  0.00    -0.206 F 
ATOM     84  C   UNL A   1      52.049  25.597  25.947  1.00  0.00     0.006 A 
ENDBRANCH  60  77
ENDBRANCH  34  35
ENDBRANCH  26  29
ENDBRANCH  24  25
ENDBRANCH   1  24
TORSDOF 12
ENDMDL
MODEL 3
REMARK VINA RESULT:     -11.9      2.766      7.483
REMARK SMILES C[C@@H]1[C@@H](C(=O)NCCCNC(=O)c2ccc(-c3c4nc(c(-c5c(F)cccc5F)c5ccc([nH]5)c(-c5c(F)cccc5F)c5nc(c(-c6c(F)cccc6F)c6ccc3[nH]6)C=C5)C=C4)cc2)CC[N@@H+]1C[C@H]1Cc2ccccc2O1
REMARK SMILES IDX 8 1 7 2 6 3 4 4 5 5 3 7 1 8 2 9 69 10 67 11 68 12 70 14
REMARK SMILES IDX 71 15 72 16 79 17 73 18 78 19 74 20 77 21 75 22 76 23 9 24
REMARK SMILES IDX 10 25 11 26 12 28 13 29 14 30 66 31 15 32 65 33 16 34 17 35
REMARK SMILES IDX 18 36 59 37 19 38 64 39 58 40 60 41 20 42 63 43 57 44 56 45
REMARK SMILES IDX 21 47 47 48 30 49 46 50 31 51 34 52 45 53 61 54 32 55 33 56
REMARK SMILES IDX 44 58 62 59 35 60 22 61 23 62 28 63 24 64 25 65 27 66 29 67
REMARK SMILES IDX 26 68 48 69 49 70 54 71 50 72 51 73 53 74 55 75 52 76 36 77
REMARK SMILES IDX 37 78 42 79 38 80 39 81 41 82 43 83 40 84
REMARK H PARENT 6 6 69 13 10 27 60 46 34 57
REMARK Flexibility Score: inf
ROOT
ATOM      1  C   UNL A   1      33.370  28.331  25.331  1.00  0.00     0.042 C 
ENDROOT
BRANCH   1   2
ATOM      2  C   UNL A   1      31.875  28.048  25.248  1.00  0.00     0.117 C 
BRANCH   2   3
ATOM      3  N   UNL A   1      31.284  28.509  24.004  1.00  0.00    -0.356 N 
ATOM      4  C   UNL A   1      30.937  27.891  22.850  1.00  0.00     0.229 C 
ATOM      5  O   UNL A   1      30.379  28.608  22.008  1.00  0.00    -0.275 OA
ATOM      6  H   UNL A   1      31.095  29.475  23.999  1.00  0.00     0.163 HD
BRANCH   4   7
ATOM      7  C   UNL A   1      31.267  26.448  22.475  1.00  0.00     0.142 C 
ATOM      8  C   UNL A   1      30.467  24.245  23.410  1.00  0.00     0.076 C 
ATOM      9  C   UNL A   1      31.446  25.409  23.590  1.00  0.00     0.193 C 
ATOM     10  N   UNL A   1      32.871  25.059  23.548  1.00  0.00    -0.329 N 
ATOM     11  C   UNL A   1      32.522  26.352  21.622  1.00  0.00     0.081 C 
ATOM     12  C   UNL A   1      33.588  25.835  22.559  1.00  0.00     0.263 C 
ATOM     13  H   UNL A   1      33.165  25.354  24.479  1.00  0.00     0.348 HD
BRANCH  10  14
ATOM     14  C   UNL A   1      33.381  23.749  23.922  1.00  0.00     0.308 C 
BRANCH  14  15
ATOM     15  C   UNL A   1      34.906  23.600  24.085  1.00  0.00     0.232 C 
ATOM     16  C   UNL A   1      35.490  24.282  25.329  1.00  0.00     0.090 C 
ATOM     17  O   UNL A   1      35.271  22.189  24.164  1.00  0.00    -0.484 OA
ATOM     18  C   UNL A   1      36.682  23.428  25.502  1.00  0.00    -0.002 A 
ATOM     19  C   UNL A   1      36.472  22.231  24.834  1.00  0.00     0.123 A 
ATOM     20  C   UNL A   1      37.839  23.664  26.218  1.00  0.00     0.007 A 
ATOM     21  C   UNL A   1      37.404  21.219  24.856  1.00  0.00     0.047 A 
ATOM     22  C   UNL A   1      38.809  22.663  26.230  1.00  0.00     0.001 A 
ATOM     23  C   UNL A   1      38.592  21.448  25.555  1.00  0.00     0.004 A 
ENDBRANCH  14  15
ENDBRANCH  10  14
ENDBRANCH   4   7
ENDBRANCH   2   3
ENDBRANCH   1   2
BRANCH   1  24
ATOM     24  C   UNL A   1      33.920  28.409  26.745  1.00  0.00     0.118 C 
BRANCH  24  25
ATOM     25  N   UNL A   1      33.783  29.732  27.333  1.00  0.00    -0.352 N 
ATOM     26  C   UNL A   1      34.634  30.465  28.125  1.00  0.00     0.251 C 
ATOM     27  H   UNL A   1      32.931  30.181  27.128  1.00  0.00     0.163 HD
ATOM     28  O   UNL A   1      34.215  31.495  28.648  1.00  0.00    -0.269 OA
BRANCH  26  29
ATOM     29  C   UNL A   1      36.031  30.039  28.377  1.00  0.00     0.039 A 
ATOM     30  C   UNL A   1      36.968  30.174  27.345  1.00  0.00     0.014 A 
ATOM     31  C   UNL A   1      36.423  29.448  29.580  1.00  0.00     0.014 A 
ATOM     32  C   UNL A   1      38.292  29.768  27.537  1.00  0.00     0.010 A 
ATOM     33  C   UNL A   1      37.761  29.134  29.806  1.00  0.00     0.010 A 
ATOM     34  C   UNL A   1      38.708  29.270  28.781  1.00  0.00    -0.014 A 
BRANCH  34  35
ATOM     35  C   UNL A   1      40.110  28.841  29.018  1.00  0.00     0.031 A 
ATOM     36  C   UNL A   1      41.084  29.782  29.679  1.00  0.00     0.074 A 
ATOM     37  C   UNL A   1      40.529  27.634  28.591  1.00  0.00     0.049 A 
ATOM     38  N   UNL A   1      42.368  29.635  29.887  1.00  0.00    -0.248 NA
ATOM     39  C   UNL A   1      40.547  31.073  30.138  1.00  0.00     0.031 C 
ATOM     40  C   UNL A   1      39.701  26.644  27.901  1.00  0.00     0.029 A 
ATOM     41  N   UNL A   1      41.762  27.037  28.669  1.00  0.00    -0.354 N 
ATOM     42  C   UNL A   1      42.795  30.823  30.469  1.00  0.00     0.074 A 
ATOM     43  C   UNL A   1      41.645  31.697  30.539  1.00  0.00     0.031 C 
ATOM     44  C   UNL A   1      40.442  25.555  27.642  1.00  0.00     0.029 A 
ATOM     45  C   UNL A   1      41.803  25.781  28.114  1.00  0.00     0.049 A 
ATOM     46  H   UNL A   1      42.545  27.469  29.083  1.00  0.00     0.167 HD
ATOM     47  C   UNL A   1      44.027  31.149  30.927  1.00  0.00     0.037 A 
ATOM     48  C   UNL A   1      42.825  24.912  27.998  1.00  0.00     0.037 A 
ATOM     49  C   UNL A   1      45.159  30.263  30.905  1.00  0.00     0.049 A 
ATOM     50  C   UNL A   1      44.176  25.285  28.539  1.00  0.00     0.074 A 
ATOM     51  C   UNL A   1      46.433  30.477  31.403  1.00  0.00     0.029 A 
ATOM     52  N   UNL A   1      45.149  28.986  30.365  1.00  0.00    -0.354 N 
ATOM     53  N   UNL A   1      44.553  26.395  29.128  1.00  0.00    -0.248 NA
ATOM     54  C   UNL A   1      45.243  24.284  28.403  1.00  0.00     0.031 C 
ATOM     55  C   UNL A   1      47.202  29.337  31.139  1.00  0.00     0.029 A 
ATOM     56  C   UNL A   1      46.396  28.402  30.509  1.00  0.00     0.049 A 
ATOM     57  H   UNL A   1      44.370  28.557  29.941  1.00  0.00     0.167 HD
ATOM     58  C   UNL A   1      45.890  26.216  29.455  1.00  0.00     0.074 A 
ATOM     59  C   UNL A   1      46.257  24.887  29.009  1.00  0.00     0.031 C 
ATOM     60  C   UNL A   1      46.739  27.075  30.069  1.00  0.00     0.037 A 
BRANCH  47  61
ATOM     61  C   UNL A   1      44.208  32.523  31.502  1.00  0.00     0.057 A 
ATOM     62  C   UNL A   1      44.572  33.614  30.704  1.00  0.00     0.134 A 
ATOM     63  C   UNL A   1      43.992  32.763  32.866  1.00  0.00     0.134 A 
ATOM     64  F   UNL A   1      44.808  33.449  29.394  1.00  0.00    -0.206 F 
ATOM     65  C   UNL A   1      44.744  34.890  31.245  1.00  0.00     0.040 A 
ATOM     66  C   UNL A   1      44.135  34.038  33.414  1.00  0.00     0.040 A 
ATOM     67  F   UNL A   1      43.636  31.762  33.685  1.00  0.00    -0.206 F 
ATOM     68  C   UNL A   1      44.520  35.105  32.604  1.00  0.00     0.006 A 
ENDBRANCH  47  61
BRANCH  48  69
ATOM     69  C   UNL A   1      42.601  23.585  27.372  1.00  0.00     0.057 A 
ATOM     70  C   UNL A   1      42.244  22.477  28.147  1.00  0.00     0.134 A 
ATOM     71  C   UNL A   1      42.737  23.393  25.993  1.00  0.00     0.134 A 
ATOM     72  F   UNL A   1      42.117  22.597  29.477  1.00  0.00    -0.206 F 
ATOM     73  C   UNL A   1      42.044  21.219  27.576  1.00  0.00     0.040 A 
ATOM     74  C   UNL A   1      42.521  22.145  25.405  1.00  0.00     0.040 A 
ATOM     75  F   UNL A   1      43.072  24.419  25.195  1.00  0.00    -0.206 F 
ATOM     76  C   UNL A   1      42.178  21.053  26.199  1.00  0.00     0.006 A 
ENDBRANCH  48  69
BRANCH  60  77
ATOM     77  C   UNL A   1      48.135  26.594  30.322  1.00  0.00     0.057 A 
ATOM     78  C   UNL A   1      49.173  26.832  29.414  1.00  0.00     0.134 A 
ATOM     79  C   UNL A   1      48.450  25.920  31.508  1.00  0.00     0.134 A 
ATOM     80  F   UNL A   1      48.930  27.463  28.255  1.00  0.00    -0.206 F 
ATOM     81  C   UNL A   1      50.475  26.401  29.669  1.00  0.00     0.040 A 
ATOM     82  C   UNL A   1      49.753  25.501  31.783  1.00  0.00     0.040 A 
ATOM     83  F   UNL A   1      47.501  25.666  32.422  1.00  0.00    -0.206 F 
ATOM     84  C   UNL A   1      50.769  25.738  30.860  1.00  0.00     0.006 A 
ENDBRANCH  60  77
ENDBRANCH  34  35
ENDBRANCH  26  29
ENDBRANCH  24  25
ENDBRANCH   1  24
TORSDOF 12
ENDMDL
