MODEL 1
REMARK VINA RESULT:     -10.2      0.000      0.000
REMARK SMILES CC[C@@H](C(=O)NCCCNC(=O)c1ccc(-c2c3nc(c(-c4c(F)cccc4F)c4ccc([nH]4)c(-c4c(F)cccc4F)c4nc(c(-c5c(F)cccc5F)c5ccc2[nH]5)C=C4)C=C3)cc1)[N@@H+](C)[C@@H](C)Cc1cccs1
REMARK SMILES IDX 7 1 6 2 4 3 5 4 3 6 2 7 1 8 67 9 68 10 69 12 70 13 71 14
REMARK SMILES IDX 72 15 73 16 76 17 74 18 75 19 8 20 9 21 10 22 11 23 12 25
REMARK SMILES IDX 13 26 14 27 66 28 15 29 65 30 16 31 17 32 18 33 59 34 19 35
REMARK SMILES IDX 64 36 58 37 60 38 20 39 63 40 57 41 56 42 21 44 47 45 30 46
REMARK SMILES IDX 46 47 31 48 34 49 45 50 61 51 32 52 33 53 44 55 62 56 35 57
REMARK SMILES IDX 22 58 23 59 28 60 24 61 25 62 27 63 29 64 26 65 48 66 49 67
REMARK SMILES IDX 54 68 50 69 51 70 53 71 55 72 52 73 36 74 37 75 42 76 38 77
REMARK SMILES IDX 39 78 41 79 43 80 40 81
REMARK H PARENT 6 5 67 11 10 24 60 43 34 54
REMARK Flexibility Score: inf
ROOT
ATOM      1  C   UNL A   1      36.194  20.452  24.931  1.00  0.00     0.118 C 
ENDROOT
BRANCH   1   2
ATOM      2  N   UNL A   1      34.962  19.704  24.986  1.00  0.00    -0.351 N 
ATOM      3  C   UNL A   1      33.675  20.041  25.250  1.00  0.00     0.278 C 
ATOM      4  O   UNL A   1      32.906  19.080  25.139  1.00  0.00    -0.268 OA
ATOM      5  H   UNL A   1      35.079  18.748  24.788  1.00  0.00     0.163 HD
BRANCH   3   6
ATOM      6  C   UNL A   1      33.206  21.510  25.536  1.00  0.00     0.273 C 
BRANCH   6   7
ATOM      7  C   UNL A   1      33.126  21.943  27.016  1.00  0.00     0.072 C 
ATOM      8  C   UNL A   1      34.349  22.617  27.630  1.00  0.00     0.011 C 
ENDBRANCH   6   7
BRANCH   6   9
ATOM      9  N   UNL A   1      31.921  21.859  24.824  1.00  0.00    -0.325 N 
ATOM     10  C   UNL A   1      30.878  22.306  25.755  1.00  0.00     0.333 C 
ATOM     11  H   UNL A   1      31.737  20.935  24.433  1.00  0.00     0.348 HD
BRANCH   9  12
ATOM     12  C   UNL A   1      31.890  22.640  23.554  1.00  0.00     0.186 C 
ATOM     13  C   UNL A   1      30.732  23.641  23.410  1.00  0.00     0.075 C 
BRANCH  12  14
ATOM     14  C   UNL A   1      33.181  23.380  23.096  1.00  0.00     0.111 C 
BRANCH  14  15
ATOM     15  C   UNL A   1      33.454  24.745  23.676  1.00  0.00     0.010 A 
ATOM     16  C   UNL A   1      33.706  25.151  24.973  1.00  0.00     0.015 A 
ATOM     17  S   UNL A   1      33.402  26.096  22.609  1.00  0.00    -0.149 S 
ATOM     18  C   UNL A   1      33.802  26.568  25.095  1.00  0.00     0.012 A 
ATOM     19  C   UNL A   1      33.661  27.202  23.883  1.00  0.00     0.065 A 
ENDBRANCH  14  15
ENDBRANCH  12  14
ENDBRANCH   9  12
ENDBRANCH   6   9
ENDBRANCH   3   6
ENDBRANCH   1   2
BRANCH   1  20
ATOM     20  C   UNL A   1      37.399  19.521  25.002  1.00  0.00     0.042 C 
BRANCH  20  21
ATOM     21  C   UNL A   1      38.712  20.227  25.322  1.00  0.00     0.118 C 
BRANCH  21  22
ATOM     22  N   UNL A   1      39.796  19.299  25.604  1.00  0.00    -0.352 N 
ATOM     23  C   UNL A   1      41.062  19.535  26.080  1.00  0.00     0.251 C 
ATOM     24  H   UNL A   1      39.589  18.354  25.426  1.00  0.00     0.163 HD
ATOM     25  O   UNL A   1      41.892  18.632  26.062  1.00  0.00    -0.269 OA
BRANCH  23  26
ATOM     26  C   UNL A   1      41.442  20.871  26.596  1.00  0.00     0.039 A 
ATOM     27  C   UNL A   1      41.266  21.139  27.956  1.00  0.00     0.014 A 
ATOM     28  C   UNL A   1      41.930  21.868  25.749  1.00  0.00     0.014 A 
ATOM     29  C   UNL A   1      41.631  22.385  28.473  1.00  0.00     0.010 A 
ATOM     30  C   UNL A   1      42.382  23.073  26.279  1.00  0.00     0.010 A 
ATOM     31  C   UNL A   1      42.221  23.353  27.644  1.00  0.00    -0.014 A 
BRANCH  31  32
ATOM     32  C   UNL A   1      42.641  24.675  28.176  1.00  0.00     0.031 A 
ATOM     33  C   UNL A   1      41.616  25.756  28.397  1.00  0.00     0.074 A 
ATOM     34  C   UNL A   1      43.944  24.925  28.406  1.00  0.00     0.049 A 
ATOM     35  N   UNL A   1      41.789  26.995  28.781  1.00  0.00    -0.248 NA
ATOM     36  C   UNL A   1      40.213  25.407  28.118  1.00  0.00     0.031 C 
ATOM     37  C   UNL A   1      45.040  23.979  28.189  1.00  0.00     0.029 A 
ATOM     38  N   UNL A   1      44.568  26.057  28.867  1.00  0.00    -0.354 N 
ATOM     39  C   UNL A   1      40.526  27.574  28.770  1.00  0.00     0.074 A 
ATOM     40  C   UNL A   1      39.604  26.570  28.287  1.00  0.00     0.031 C 
ATOM     41  C   UNL A   1      46.198  24.560  28.542  1.00  0.00     0.029 A 
ATOM     42  C   UNL A   1      45.933  25.928  28.975  1.00  0.00     0.049 A 
ATOM     43  H   UNL A   1      44.085  26.882  29.100  1.00  0.00     0.167 HD
ATOM     44  C   UNL A   1      40.160  28.821  29.152  1.00  0.00     0.037 A 
ATOM     45  C   UNL A   1      46.864  26.815  29.373  1.00  0.00     0.037 A 
ATOM     46  C   UNL A   1      41.073  29.807  29.669  1.00  0.00     0.049 A 
ATOM     47  C   UNL A   1      46.433  28.192  29.798  1.00  0.00     0.074 A 
ATOM     48  C   UNL A   1      40.792  31.076  30.143  1.00  0.00     0.029 A 
ATOM     49  N   UNL A   1      42.443  29.630  29.781  1.00  0.00    -0.354 N 
ATOM     50  N   UNL A   1      45.227  28.704  29.841  1.00  0.00    -0.248 NA
ATOM     51  C   UNL A   1      47.493  29.112  30.235  1.00  0.00     0.031 C 
ATOM     52  C   UNL A   1      41.999  31.682  30.507  1.00  0.00     0.029 A 
ATOM     53  C   UNL A   1      43.025  30.774  30.301  1.00  0.00     0.049 A 
ATOM     54  H   UNL A   1      42.930  28.812  29.528  1.00  0.00     0.167 HD
ATOM     55  C   UNL A   1      45.379  29.994  30.334  1.00  0.00     0.074 A 
ATOM     56  C   UNL A   1      46.792  30.181  30.588  1.00  0.00     0.031 C 
ATOM     57  C   UNL A   1      44.433  30.938  30.556  1.00  0.00     0.037 A 
BRANCH  44  58
ATOM     58  C   UNL A   1      38.708  29.183  29.033  1.00  0.00     0.057 A 
ATOM     59  C   UNL A   1      37.835  29.102  30.126  1.00  0.00     0.134 A 
ATOM     60  C   UNL A   1      38.181  29.642  27.819  1.00  0.00     0.134 A 
ATOM     61  F   UNL A   1      38.272  28.657  31.314  1.00  0.00    -0.206 F 
ATOM     62  C   UNL A   1      36.484  29.435  30.008  1.00  0.00     0.040 A 
ATOM     63  C   UNL A   1      36.839  30.006  27.697  1.00  0.00     0.040 A 
ATOM     64  F   UNL A   1      38.963  29.751  26.734  1.00  0.00    -0.206 F 
ATOM     65  C   UNL A   1      35.984  29.895  28.792  1.00  0.00     0.006 A 
ENDBRANCH  44  58
BRANCH  45  66
ATOM     66  C   UNL A   1      48.294  26.422  29.418  1.00  0.00     0.057 A 
ATOM     67  C   UNL A   1      49.142  26.662  28.330  1.00  0.00     0.134 A 
ATOM     68  C   UNL A   1      48.847  25.796  30.541  1.00  0.00     0.134 A 
ATOM     69  F   UNL A   1      48.665  27.242  27.219  1.00  0.00    -0.206 F 
ATOM     70  C   UNL A   1      50.484  26.276  28.348  1.00  0.00     0.040 A 
ATOM     71  C   UNL A   1      50.194  25.426  30.582  1.00  0.00     0.040 A 
ATOM     72  F   UNL A   1      48.090  25.545  31.619  1.00  0.00    -0.206 F 
ATOM     73  C   UNL A   1      51.013  25.661  29.480  1.00  0.00     0.006 A 
ENDBRANCH  45  66
BRANCH  57  74
ATOM     74  C   UNL A   1      44.891  32.244  31.135  1.00  0.00     0.057 A 
ATOM     75  C   UNL A   1      45.251  33.326  30.323  1.00  0.00     0.134 A 
ATOM     76  C   UNL A   1      44.929  32.433  32.523  1.00  0.00     0.134 A 
ATOM     77  F   UNL A   1      45.248  33.204  28.987  1.00  0.00    -0.206 F 
ATOM     78  C   UNL A   1      45.654  34.545  30.871  1.00  0.00     0.040 A 
ATOM     79  C   UNL A   1      45.306  33.654  33.081  1.00  0.00     0.040 A 
ATOM     80  F   UNL A   1      44.587  31.439  33.356  1.00  0.00    -0.206 F 
ATOM     81  C   UNL A   1      45.675  34.712  32.255  1.00  0.00     0.006 A 
ENDBRANCH  57  74
ENDBRANCH  31  32
ENDBRANCH  23  26
ENDBRANCH  21  22
ENDBRANCH  20  21
ENDBRANCH   1  20
TORSDOF 15
ENDMDL
MODEL 2
REMARK VINA RESULT:     -10.2      1.025      2.062
REMARK SMILES CC[C@@H](C(=O)NCCCNC(=O)c1ccc(-c2c3nc(c(-c4c(F)cccc4F)c4ccc([nH]4)c(-c4c(F)cccc4F)c4nc(c(-c5c(F)cccc5F)c5ccc2[nH]5)C=C4)C=C3)cc1)[N@@H+](C)[C@@H](C)Cc1cccs1
REMARK SMILES IDX 7 1 6 2 4 3 5 4 3 6 2 7 1 8 67 9 68 10 69 12 70 13 71 14
REMARK SMILES IDX 72 15 73 16 76 17 74 18 75 19 8 20 9 21 10 22 11 23 12 25
REMARK SMILES IDX 13 26 14 27 66 28 15 29 65 30 16 31 17 32 18 33 59 34 19 35
REMARK SMILES IDX 64 36 58 37 60 38 20 39 63 40 57 41 56 42 21 44 47 45 30 46
REMARK SMILES IDX 46 47 31 48 34 49 45 50 61 51 32 52 33 53 44 55 62 56 35 57
REMARK SMILES IDX 22 58 23 59 28 60 24 61 25 62 27 63 29 64 26 65 48 66 49 67
REMARK SMILES IDX 54 68 50 69 51 70 53 71 55 72 52 73 36 74 37 75 42 76 38 77
REMARK SMILES IDX 39 78 41 79 43 80 40 81
REMARK H PARENT 6 5 67 11 10 24 60 43 34 54
REMARK Flexibility Score: inf
ROOT
ATOM      1  C   UNL A   1      36.493  20.573  24.879  1.00  0.00     0.118 C 
ENDROOT
BRANCH   1   2
ATOM      2  N   UNL A   1      35.222  19.904  25.010  1.00  0.00    -0.351 N 
ATOM      3  C   UNL A   1      33.945  20.341  25.140  1.00  0.00     0.278 C 
ATOM      4  O   UNL A   1      33.132  19.410  25.173  1.00  0.00    -0.268 OA
ATOM      5  H   UNL A   1      35.297  18.923  25.001  1.00  0.00     0.163 HD
BRANCH   3   6
ATOM      6  C   UNL A   1      33.543  21.857  25.122  1.00  0.00     0.273 C 
BRANCH   6   7
ATOM      7  C   UNL A   1      33.754  22.652  26.428  1.00  0.00     0.072 C 
ATOM      8  C   UNL A   1      34.039  21.867  27.704  1.00  0.00     0.011 C 
ENDBRANCH   6   7
BRANCH   6   9
ATOM      9  N   UNL A   1      32.145  22.080  24.600  1.00  0.00    -0.325 N 
ATOM     10  C   UNL A   1      31.227  22.532  25.653  1.00  0.00     0.333 C 
ATOM     11  H   UNL A   1      31.965  21.122  24.299  1.00  0.00     0.348 HD
BRANCH   9  12
ATOM     12  C   UNL A   1      31.868  22.766  23.304  1.00  0.00     0.186 C 
ATOM     13  C   UNL A   1      30.669  23.729  23.297  1.00  0.00     0.075 C 
BRANCH  12  14
ATOM     14  C   UNL A   1      33.034  23.500  22.579  1.00  0.00     0.111 C 
BRANCH  14  15
ATOM     15  C   UNL A   1      33.306  24.935  22.955  1.00  0.00     0.010 A 
ATOM     16  C   UNL A   1      33.759  25.499  24.133  1.00  0.00     0.015 A 
ATOM     17  S   UNL A   1      32.961  26.151  21.785  1.00  0.00    -0.149 S 
ATOM     18  C   UNL A   1      33.770  26.924  24.090  1.00  0.00     0.012 A 
ATOM     19  C   UNL A   1      33.365  27.407  22.868  1.00  0.00     0.065 A 
ENDBRANCH  14  15
ENDBRANCH  12  14
ENDBRANCH   9  12
ENDBRANCH   6   9
ENDBRANCH   3   6
ENDBRANCH   1   2
BRANCH   1  20
ATOM     20  C   UNL A   1      37.645  19.581  24.998  1.00  0.00     0.042 C 
BRANCH  20  21
ATOM     21  C   UNL A   1      38.856  20.122  25.750  1.00  0.00     0.118 C 
BRANCH  21  22
ATOM     22  N   UNL A   1      39.939  19.157  25.843  1.00  0.00    -0.352 N 
ATOM     23  C   UNL A   1      41.278  19.348  26.080  1.00  0.00     0.251 C 
ATOM     24  H   UNL A   1      39.670  18.218  25.716  1.00  0.00     0.163 HD
ATOM     25  O   UNL A   1      42.059  18.414  25.923  1.00  0.00    -0.269 OA
BRANCH  23  26
ATOM     26  C   UNL A   1      41.792  20.670  26.504  1.00  0.00     0.039 A 
ATOM     27  C   UNL A   1      42.138  21.603  25.522  1.00  0.00     0.014 A 
ATOM     28  C   UNL A   1      41.972  20.984  27.853  1.00  0.00     0.014 A 
ATOM     29  C   UNL A   1      42.610  22.864  25.895  1.00  0.00     0.010 A 
ATOM     30  C   UNL A   1      42.350  22.271  28.225  1.00  0.00     0.010 A 
ATOM     31  C   UNL A   1      42.690  23.220  27.251  1.00  0.00    -0.014 A 
BRANCH  31  32
ATOM     32  C   UNL A   1      43.165  24.564  27.671  1.00  0.00     0.031 A 
ATOM     33  C   UNL A   1      42.171  25.616  28.086  1.00  0.00     0.074 A 
ATOM     34  C   UNL A   1      44.478  24.859  27.625  1.00  0.00     0.049 A 
ATOM     35  N   UNL A   1      42.376  26.867  28.413  1.00  0.00    -0.248 NA
ATOM     36  C   UNL A   1      40.753  25.218  28.106  1.00  0.00     0.031 C 
ATOM     37  C   UNL A   1      45.538  23.944  27.197  1.00  0.00     0.029 A 
ATOM     38  N   UNL A   1      45.145  26.018  27.935  1.00  0.00    -0.354 N 
ATOM     39  C   UNL A   1      41.119  27.406  28.655  1.00  0.00     0.074 A 
ATOM     40  C   UNL A   1      40.153  26.365  28.384  1.00  0.00     0.031 C 
ATOM     41  C   UNL A   1      46.723  24.567  27.298  1.00  0.00     0.029 A 
ATOM     42  C   UNL A   1      46.506  25.934  27.760  1.00  0.00     0.049 A 
ATOM     43  H   UNL A   1      44.692  26.832  28.253  1.00  0.00     0.167 HD
ATOM     44  C   UNL A   1      40.797  28.647  29.091  1.00  0.00     0.037 A 
ATOM     45  C   UNL A   1      47.468  26.857  27.948  1.00  0.00     0.037 A 
ATOM     46  C   UNL A   1      41.761  29.670  29.398  1.00  0.00     0.049 A 
ATOM     47  C   UNL A   1      47.086  28.227  28.438  1.00  0.00     0.074 A 
ATOM     48  C   UNL A   1      41.541  30.939  29.905  1.00  0.00     0.029 A 
ATOM     49  N   UNL A   1      43.131  29.538  29.227  1.00  0.00    -0.354 N 
ATOM     50  N   UNL A   1      45.898  28.702  28.722  1.00  0.00    -0.248 NA
ATOM     51  C   UNL A   1      48.181  29.187  28.637  1.00  0.00     0.031 C 
ATOM     52  C   UNL A   1      42.775  31.588  30.006  1.00  0.00     0.029 A 
ATOM     53  C   UNL A   1      43.768  30.709  29.603  1.00  0.00     0.049 A 
ATOM     54  H   UNL A   1      43.583  28.732  28.888  1.00  0.00     0.167 HD
ATOM     55  C   UNL A   1      46.103  30.004  29.160  1.00  0.00     0.074 A 
ATOM     56  C   UNL A   1      47.532  30.240  29.115  1.00  0.00     0.031 C 
ATOM     57  C   UNL A   1      45.192  30.922  29.561  1.00  0.00     0.037 A 
BRANCH  44  58
ATOM     58  C   UNL A   1      39.340  28.962  29.269  1.00  0.00     0.057 A 
ATOM     59  C   UNL A   1      38.552  29.436  28.210  1.00  0.00     0.134 A 
ATOM     60  C   UNL A   1      38.709  28.766  30.504  1.00  0.00     0.134 A 
ATOM     61  F   UNL A   1      39.097  29.658  27.005  1.00  0.00    -0.206 F 
ATOM     62  C   UNL A   1      37.198  29.732  28.383  1.00  0.00     0.040 A 
ATOM     63  C   UNL A   1      37.350  29.031  30.680  1.00  0.00     0.040 A 
ATOM     64  F   UNL A   1      39.403  28.308  31.557  1.00  0.00    -0.206 F 
ATOM     65  C   UNL A   1      36.593  29.523  29.620  1.00  0.00     0.006 A 
ENDBRANCH  44  58
BRANCH  45  66
ATOM     66  C   UNL A   1      48.889  26.510  27.702  1.00  0.00     0.057 A 
ATOM     67  C   UNL A   1      49.692  25.989  28.725  1.00  0.00     0.134 A 
ATOM     68  C   UNL A   1      49.482  26.692  26.447  1.00  0.00     0.134 A 
ATOM     69  F   UNL A   1      49.185  25.809  29.953  1.00  0.00    -0.206 F 
ATOM     70  C   UNL A   1      51.037  25.681  28.515  1.00  0.00     0.040 A 
ATOM     71  C   UNL A   1      50.820  26.365  26.216  1.00  0.00     0.040 A 
ATOM     72  F   UNL A   1      48.765  27.179  25.423  1.00  0.00    -0.206 F 
ATOM     73  C   UNL A   1      51.602  25.864  27.255  1.00  0.00     0.006 A 
ENDBRANCH  45  66
BRANCH  57  74
ATOM     74  C   UNL A   1      45.713  32.252  30.019  1.00  0.00     0.057 A 
ATOM     75  C   UNL A   1      46.090  32.479  31.348  1.00  0.00     0.134 A 
ATOM     76  C   UNL A   1      45.879  33.303  29.108  1.00  0.00     0.134 A 
ATOM     77  F   UNL A   1      45.943  31.517  32.271  1.00  0.00    -0.206 F 
ATOM     78  C   UNL A   1      46.595  33.714  31.760  1.00  0.00     0.040 A 
ATOM     79  C   UNL A   1      46.406  34.533  29.503  1.00  0.00     0.040 A 
ATOM     80  F   UNL A   1      45.545  33.147  27.818  1.00  0.00    -0.206 F 
ATOM     81  C   UNL A   1      46.761  34.742  30.833  1.00  0.00     0.006 A 
ENDBRANCH  57  74
ENDBRANCH  31  32
ENDBRANCH  23  26
ENDBRANCH  21  22
ENDBRANCH  20  21
ENDBRANCH   1  20
TORSDOF 15
ENDMDL
MODEL 3
REMARK VINA RESULT:     -10.0      1.967      7.040
REMARK SMILES CC[C@@H](C(=O)NCCCNC(=O)c1ccc(-c2c3nc(c(-c4c(F)cccc4F)c4ccc([nH]4)c(-c4c(F)cccc4F)c4nc(c(-c5c(F)cccc5F)c5ccc2[nH]5)C=C4)C=C3)cc1)[N@@H+](C)[C@@H](C)Cc1cccs1
REMARK SMILES IDX 7 1 6 2 4 3 5 4 3 6 2 7 1 8 67 9 68 10 69 12 70 13 71 14
REMARK SMILES IDX 72 15 73 16 76 17 74 18 75 19 8 20 9 21 10 22 11 23 12 25
REMARK SMILES IDX 13 26 14 27 66 28 15 29 65 30 16 31 17 32 18 33 59 34 19 35
REMARK SMILES IDX 64 36 58 37 60 38 20 39 63 40 57 41 56 42 21 44 47 45 30 46
REMARK SMILES IDX 46 47 31 48 34 49 45 50 61 51 32 52 33 53 44 55 62 56 35 57
REMARK SMILES IDX 22 58 23 59 28 60 24 61 25 62 27 63 29 64 26 65 48 66 49 67
REMARK SMILES IDX 54 68 50 69 51 70 53 71 55 72 52 73 36 74 37 75 42 76 38 77
REMARK SMILES IDX 39 78 41 79 43 80 40 81
REMARK H PARENT 6 5 67 11 10 24 60 43 34 54
REMARK Flexibility Score: inf
ROOT
ATOM      1  C   UNL A   1      37.112  20.365  24.942  1.00  0.00     0.118 C 
ENDROOT
BRANCH   1   2
ATOM      2  N   UNL A   1      37.332  21.741  25.316  1.00  0.00    -0.351 N 
ATOM      3  C   UNL A   1      36.516  22.816  25.445  1.00  0.00     0.278 C 
ATOM      4  O   UNL A   1      37.121  23.818  25.843  1.00  0.00    -0.268 OA
ATOM      5  H   UNL A   1      38.274  21.941  25.521  1.00  0.00     0.163 HD
BRANCH   3   6
ATOM      6  C   UNL A   1      34.963  22.755  25.235  1.00  0.00     0.273 C 
BRANCH   6   7
ATOM      7  C   UNL A   1      34.196  24.093  25.296  1.00  0.00     0.072 C 
ATOM      8  C   UNL A   1      33.776  24.737  23.979  1.00  0.00     0.011 C 
ENDBRANCH   6   7
BRANCH   6   9
ATOM      9  N   UNL A   1      34.297  21.734  26.125  1.00  0.00    -0.325 N 
ATOM     10  C   UNL A   1      33.948  22.290  27.438  1.00  0.00     0.333 C 
ATOM     11  H   UNL A   1      35.073  21.073  26.165  1.00  0.00     0.348 HD
BRANCH   9  12
ATOM     12  C   UNL A   1      33.244  20.798  25.632  1.00  0.00     0.186 C 
ATOM     13  C   UNL A   1      31.843  21.402  25.449  1.00  0.00     0.075 C 
BRANCH  12  14
ATOM     14  C   UNL A   1      33.533  19.946  24.362  1.00  0.00     0.111 C 
BRANCH  14  15
ATOM     15  C   UNL A   1      33.671  18.453  24.531  1.00  0.00     0.010 A 
ATOM     16  C   UNL A   1      34.483  17.534  23.893  1.00  0.00     0.015 A 
ATOM     17  S   UNL A   1      32.627  17.673  25.656  1.00  0.00    -0.149 S 
ATOM     18  C   UNL A   1      34.209  16.192  24.289  1.00  0.00     0.012 A 
ATOM     19  C   UNL A   1      33.225  16.128  25.247  1.00  0.00     0.065 A 
ENDBRANCH  14  15
ENDBRANCH  12  14
ENDBRANCH   9  12
ENDBRANCH   6   9
ENDBRANCH   3   6
ENDBRANCH   1   2
BRANCH   1  20
ATOM     20  C   UNL A   1      38.434  19.613  24.829  1.00  0.00     0.042 C 
BRANCH  20  21
ATOM     21  C   UNL A   1      39.291  19.671  26.088  1.00  0.00     0.118 C 
BRANCH  21  22
ATOM     22  N   UNL A   1      40.502  18.873  25.982  1.00  0.00    -0.352 N 
ATOM     23  C   UNL A   1      41.821  19.254  26.019  1.00  0.00     0.251 C 
ATOM     24  H   UNL A   1      40.352  17.907  25.867  1.00  0.00     0.163 HD
ATOM     25  O   UNL A   1      42.692  18.446  25.714  1.00  0.00    -0.269 OA
BRANCH  23  26
ATOM     26  C   UNL A   1      42.201  20.633  26.404  1.00  0.00     0.039 A 
ATOM     27  C   UNL A   1      42.429  21.573  25.395  1.00  0.00     0.014 A 
ATOM     28  C   UNL A   1      42.372  20.995  27.742  1.00  0.00     0.014 A 
ATOM     29  C   UNL A   1      42.773  22.885  25.730  1.00  0.00     0.010 A 
ATOM     30  C   UNL A   1      42.620  22.323  28.078  1.00  0.00     0.010 A 
ATOM     31  C   UNL A   1      42.842  23.279  27.077  1.00  0.00    -0.014 A 
BRANCH  31  32
ATOM     32  C   UNL A   1      43.181  24.674  27.457  1.00  0.00     0.031 A 
ATOM     33  C   UNL A   1      44.613  25.138  27.418  1.00  0.00     0.074 A 
ATOM     34  C   UNL A   1      42.215  25.507  27.892  1.00  0.00     0.049 A 
ATOM     35  N   UNL A   1      45.122  26.288  27.780  1.00  0.00    -0.248 NA
ATOM     36  C   UNL A   1      45.610  24.169  26.934  1.00  0.00     0.031 C 
ATOM     37  C   UNL A   1      40.797  25.166  28.022  1.00  0.00     0.029 A 
ATOM     38  N   UNL A   1      42.283  26.811  28.315  1.00  0.00    -0.354 N 
ATOM     39  C   UNL A   1      46.493  26.172  27.590  1.00  0.00     0.074 A 
ATOM     40  C   UNL A   1      46.744  24.823  27.133  1.00  0.00     0.031 C 
ATOM     41  C   UNL A   1      40.126  26.241  28.466  1.00  0.00     0.029 A 
ATOM     42  C   UNL A   1      41.068  27.334  28.686  1.00  0.00     0.049 A 
ATOM     43  H   UNL A   1      43.123  27.323  28.348  1.00  0.00     0.167 HD
ATOM     44  C   UNL A   1      47.455  27.110  27.753  1.00  0.00     0.037 A 
ATOM     45  C   UNL A   1      40.750  28.555  29.157  1.00  0.00     0.037 A 
ATOM     46  C   UNL A   1      47.200  28.464  28.170  1.00  0.00     0.049 A 
ATOM     47  C   UNL A   1      41.836  29.583  29.324  1.00  0.00     0.074 A 
ATOM     48  C   UNL A   1      48.098  29.508  28.305  1.00  0.00     0.029 A 
ATOM     49  N   UNL A   1      45.953  28.959  28.517  1.00  0.00    -0.354 N 
ATOM     50  N   UNL A   1      43.120  29.477  29.081  1.00  0.00    -0.248 NA
ATOM     51  C   UNL A   1      41.427  30.901  29.829  1.00  0.00     0.031 C 
ATOM     52  C   UNL A   1      47.399  30.627  28.770  1.00  0.00     0.029 A 
ATOM     53  C   UNL A   1      46.059  30.291  28.883  1.00  0.00     0.049 A 
ATOM     54  H   UNL A   1      45.116  28.441  28.506  1.00  0.00     0.167 HD
ATOM     55  C   UNL A   1      43.666  30.719  29.374  1.00  0.00     0.074 A 
ATOM     56  C   UNL A   1      42.573  31.567  29.802  1.00  0.00     0.031 C 
ATOM     57  C   UNL A   1      44.957  31.121  29.297  1.00  0.00     0.037 A 
BRANCH  44  58
ATOM     58  C   UNL A   1      48.873  26.704  27.471  1.00  0.00     0.057 A 
ATOM     59  C   UNL A   1      49.708  26.193  28.474  1.00  0.00     0.134 A 
ATOM     60  C   UNL A   1      49.402  26.801  26.178  1.00  0.00     0.134 A 
ATOM     61  F   UNL A   1      49.268  26.087  29.737  1.00  0.00    -0.206 F 
ATOM     62  C   UNL A   1      51.028  25.823  28.207  1.00  0.00     0.040 A 
ATOM     63  C   UNL A   1      50.711  26.406  25.893  1.00  0.00     0.040 A 
ATOM     64  F   UNL A   1      48.656  27.275  25.169  1.00  0.00    -0.206 F 
ATOM     65  C   UNL A   1      51.530  25.923  26.912  1.00  0.00     0.006 A 
ENDBRANCH  44  58
BRANCH  45  66
ATOM     66  C   UNL A   1      39.339  28.885  29.475  1.00  0.00     0.057 A 
ATOM     67  C   UNL A   1      38.811  28.642  30.748  1.00  0.00     0.134 A 
ATOM     68  C   UNL A   1      38.484  29.446  28.518  1.00  0.00     0.134 A 
ATOM     69  F   UNL A   1      39.577  28.090  31.701  1.00  0.00    -0.206 F 
ATOM     70  C   UNL A   1      37.479  28.925  31.055  1.00  0.00     0.040 A 
ATOM     71  C   UNL A   1      37.156  29.757  28.818  1.00  0.00     0.040 A 
ATOM     72  F   UNL A   1      38.931  29.710  27.282  1.00  0.00    -0.206 F 
ATOM     73  C   UNL A   1      36.650  29.490  30.089  1.00  0.00     0.006 A 
ENDBRANCH  45  66
BRANCH  57  74
ATOM     74  C   UNL A   1      45.253  32.550  29.647  1.00  0.00     0.057 A 
ATOM     75  C   UNL A   1      45.640  32.929  30.938  1.00  0.00     0.134 A 
ATOM     76  C   UNL A   1      45.191  33.550  28.668  1.00  0.00     0.134 A 
ATOM     77  F   UNL A   1      45.705  32.020  31.923  1.00  0.00    -0.206 F 
ATOM     78  C   UNL A   1      45.934  34.257  31.249  1.00  0.00     0.040 A 
ATOM     79  C   UNL A   1      45.507  34.877  28.962  1.00  0.00     0.040 A 
ATOM     80  F   UNL A   1      44.836  33.251  27.409  1.00  0.00    -0.206 F 
ATOM     81  C   UNL A   1      45.875  35.234  30.256  1.00  0.00     0.006 A 
ENDBRANCH  57  74
ENDBRANCH  31  32
ENDBRANCH  23  26
ENDBRANCH  21  22
ENDBRANCH  20  21
ENDBRANCH   1  20
TORSDOF 15
ENDMDL
