MODEL 1
REMARK VINA RESULT:     -13.7      0.000      0.000
REMARK SMILES O=C(NCCCNC(=O)[C@@H]1[C@H](C(=O)Nc2ccc(Cn3cncn3)cc2)[C@@H]2C=C[C@H]1CC2)c1ccc(-c2c3nc(c(-c4c(F)cccc4F)c4ccc([nH]4)c(-c4c(F)cccc4F)c4nc(c(-c5c(F)cccc5F)c5ccc2[nH]5)C=C4)C=C3)cc1
REMARK SMILES IDX 6 1 5 2 4 3 3 4 1 5 2 6 33 8 34 9 86 10 35 11 85 12 36 13
REMARK SMILES IDX 37 14 38 15 79 16 39 17 84 18 78 19 80 20 40 21 83 22 77 23
REMARK SMILES IDX 76 24 41 26 67 27 50 28 66 29 51 30 54 31 65 32 81 33 52 34
REMARK SMILES IDX 53 35 64 37 82 38 55 39 42 40 43 41 48 42 44 43 45 44 47 45
REMARK SMILES IDX 49 46 46 47 68 48 69 49 74 50 70 51 71 52 73 53 75 54 72 55
REMARK SMILES IDX 56 56 57 57 62 58 58 59 59 60 61 61 63 62 60 63 7 64 8 65
REMARK SMILES IDX 9 67 10 68 11 69 30 70 27 71 29 72 31 73 28 74 32 75 12 76
REMARK SMILES IDX 13 77 14 78 15 80 16 81 26 82 17 83 25 84 18 85 19 86 20 87
REMARK SMILES IDX 21 88 24 89 22 90 23 91
REMARK H PARENT 3 7 80 25 54 36 7 66 14 79
REMARK Flexibility Score: inf
ROOT
ATOM      1  C   UNL A   1      37.101  22.691  24.591  1.00  0.00     0.117 C 
ENDROOT
BRANCH   1   2
ATOM      2  C   UNL A   1      38.141  22.613  25.716  1.00  0.00     0.042 C 
BRANCH   2   3
ATOM      3  C   UNL A   1      38.384  23.912  26.486  1.00  0.00     0.118 C 
BRANCH   3   4
ATOM      4  N   UNL A   1      39.698  24.510  26.537  1.00  0.00    -0.352 N 
ATOM      5  O   UNL A   1      41.327  24.646  28.132  1.00  0.00    -0.269 OA
ATOM      6  C   UNL A   1      40.231  25.009  27.704  1.00  0.00     0.251 C 
ATOM      7  H   UNL A   1      40.230  24.562  25.711  1.00  0.00     0.163 HD
BRANCH   6   8
ATOM      8  C   UNL A   1      39.586  26.221  28.219  1.00  0.00     0.039 A 
ATOM      9  C   UNL A   1      39.608  27.428  27.516  1.00  0.00     0.014 A 
ATOM     10  C   UNL A   1      39.285  26.168  29.580  1.00  0.00     0.014 A 
ATOM     11  C   UNL A   1      39.606  28.608  28.226  1.00  0.00     0.010 A 
ATOM     12  C   UNL A   1      39.205  27.348  30.279  1.00  0.00     0.010 A 
ATOM     13  C   UNL A   1      39.473  28.549  29.612  1.00  0.00    -0.014 A 
BRANCH  13  14
ATOM     14  C   UNL A   1      39.468  29.797  30.361  1.00  0.00     0.031 A 
ATOM     15  C   UNL A   1      40.792  30.495  30.381  1.00  0.00     0.074 A 
ATOM     16  C   UNL A   1      38.288  30.327  30.741  1.00  0.00     0.049 A 
ATOM     17  N   UNL A   1      41.380  31.123  31.349  1.00  0.00    -0.248 NA
ATOM     18  C   UNL A   1      41.620  30.389  29.159  1.00  0.00     0.031 C 
ATOM     19  C   UNL A   1      36.942  29.786  30.493  1.00  0.00     0.029 A 
ATOM     20  N   UNL A   1      38.018  31.549  31.266  1.00  0.00    -0.354 N 
ATOM     21  C   UNL A   1      42.552  31.648  30.800  1.00  0.00     0.074 A 
ATOM     22  C   UNL A   1      42.721  31.046  29.508  1.00  0.00     0.031 C 
ATOM     23  C   UNL A   1      36.038  30.783  30.592  1.00  0.00     0.029 A 
ATOM     24  C   UNL A   1      36.723  31.987  31.022  1.00  0.00     0.049 A 
ATOM     25  H   UNL A   1      38.679  32.076  31.771  1.00  0.00     0.167 HD
ATOM     26  C   UNL A   1      43.186  32.726  31.334  1.00  0.00     0.037 A 
ATOM     27  C   UNL A   1      36.294  33.272  31.045  1.00  0.00     0.037 A 
ATOM     28  C   UNL A   1      42.892  32.880  32.728  1.00  0.00     0.049 A 
ATOM     29  C   UNL A   1      37.327  34.075  31.746  1.00  0.00     0.074 A 
ATOM     30  C   UNL A   1      43.100  32.103  33.851  1.00  0.00     0.029 A 
ATOM     31  N   UNL A   1      41.981  33.835  33.103  1.00  0.00    -0.354 N 
ATOM     32  N   UNL A   1      37.616  33.949  33.012  1.00  0.00    -0.248 NA
ATOM     33  C   UNL A   1      38.362  34.694  30.929  1.00  0.00     0.031 C 
ATOM     34  C   UNL A   1      41.950  32.317  34.664  1.00  0.00     0.029 A 
ATOM     35  C   UNL A   1      41.137  33.240  34.005  1.00  0.00     0.049 A 
ATOM     36  H   UNL A   1      41.942  34.767  32.787  1.00  0.00     0.167 HD
ATOM     37  C   UNL A   1      38.996  34.097  33.082  1.00  0.00     0.074 A 
ATOM     38  C   UNL A   1      39.390  34.627  31.780  1.00  0.00     0.031 C 
ATOM     39  C   UNL A   1      39.722  33.511  34.079  1.00  0.00     0.037 A 
BRANCH  26  40
ATOM     40  C   UNL A   1      43.769  33.832  30.490  1.00  0.00     0.057 A 
ATOM     41  C   UNL A   1      42.950  34.505  29.568  1.00  0.00     0.134 A 
ATOM     42  C   UNL A   1      45.155  34.057  30.335  1.00  0.00     0.134 A 
ATOM     43  F   UNL A   1      41.616  34.361  29.601  1.00  0.00    -0.206 F 
ATOM     44  C   UNL A   1      43.474  35.281  28.527  1.00  0.00     0.040 A 
ATOM     45  C   UNL A   1      45.685  34.870  29.331  1.00  0.00     0.040 A 
ATOM     46  F   UNL A   1      46.073  33.427  31.078  1.00  0.00    -0.206 F 
ATOM     47  C   UNL A   1      44.846  35.458  28.401  1.00  0.00     0.006 A 
ENDBRANCH  26  40
BRANCH  27  48
ATOM     48  C   UNL A   1      35.260  33.880  30.173  1.00  0.00     0.057 A 
ATOM     49  C   UNL A   1      34.176  34.585  30.708  1.00  0.00     0.134 A 
ATOM     50  C   UNL A   1      35.434  33.984  28.779  1.00  0.00     0.134 A 
ATOM     51  F   UNL A   1      33.960  34.593  32.031  1.00  0.00    -0.206 F 
ATOM     52  C   UNL A   1      33.312  35.344  29.906  1.00  0.00     0.040 A 
ATOM     53  C   UNL A   1      34.574  34.726  27.965  1.00  0.00     0.040 A 
ATOM     54  F   UNL A   1      36.494  33.435  28.168  1.00  0.00    -0.206 F 
ATOM     55  C   UNL A   1      33.511  35.419  28.529  1.00  0.00     0.006 A 
ENDBRANCH  27  48
BRANCH  39  56
ATOM     56  C   UNL A   1      38.971  32.852  35.202  1.00  0.00     0.057 A 
ATOM     57  C   UNL A   1      38.675  31.481  35.233  1.00  0.00     0.134 A 
ATOM     58  C   UNL A   1      38.703  33.580  36.364  1.00  0.00     0.134 A 
ATOM     59  F   UNL A   1      39.005  30.679  34.216  1.00  0.00    -0.206 F 
ATOM     60  C   UNL A   1      38.094  30.870  36.348  1.00  0.00     0.040 A 
ATOM     61  C   UNL A   1      38.155  32.975  37.500  1.00  0.00     0.040 A 
ATOM     62  F   UNL A   1      39.024  34.880  36.436  1.00  0.00    -0.206 F 
ATOM     63  C   UNL A   1      37.839  31.619  37.491  1.00  0.00     0.006 A 
ENDBRANCH  39  56
ENDBRANCH  13  14
ENDBRANCH   6   8
ENDBRANCH   3   4
ENDBRANCH   2   3
ENDBRANCH   1   2
BRANCH   1  64
ATOM     64  N   UNL A   1      36.096  23.796  24.639  1.00  0.00    -0.356 N 
ATOM     65  C   UNL A   1      34.793  24.033  24.226  1.00  0.00     0.224 C 
ATOM     66  H   UNL A   1      36.466  24.585  25.096  1.00  0.00     0.163 HD
ATOM     67  O   UNL A   1      34.459  25.220  24.102  1.00  0.00    -0.275 OA
BRANCH  65  68
ATOM     68  C   UNL A   1      33.746  22.980  23.793  1.00  0.00     0.098 C 
ATOM     69  C   UNL A   1      32.458  23.672  23.518  1.00  0.00     0.098 C 
ATOM     70  C   UNL A   1      33.586  21.952  24.979  1.00  0.00     0.025 C 
ATOM     71  C   UNL A   1      31.797  23.817  25.035  1.00  0.00     0.025 C 
ATOM     72  C   UNL A   1      33.715  22.794  26.223  1.00  0.00    -0.027 C 
ATOM     73  C   UNL A   1      32.169  21.330  25.151  1.00  0.00     0.009 C 
ATOM     74  C   UNL A   1      32.825  23.806  26.232  1.00  0.00    -0.027 C 
ATOM     75  C   UNL A   1      31.118  22.457  25.372  1.00  0.00     0.009 C 
BRANCH  69  76
ATOM     76  C   UNL A   1      32.575  24.746  22.293  1.00  0.00     0.228 C 
ATOM     77  O   UNL A   1      33.114  24.321  21.252  1.00  0.00    -0.274 OA
ATOM     78  N   UNL A   1      32.232  26.115  22.210  1.00  0.00    -0.326 N 
ATOM     79  H   UNL A   1      32.807  26.609  21.581  1.00  0.00     0.169 HD
BRANCH  78  80
ATOM     80  C   UNL A   1      31.240  26.960  22.827  1.00  0.00     0.041 A 
ATOM     81  C   UNL A   1      31.386  28.358  22.856  1.00  0.00     0.026 A 
ATOM     82  C   UNL A   1      30.092  26.485  23.431  1.00  0.00     0.026 A 
ATOM     83  C   UNL A   1      30.265  29.205  22.840  1.00  0.00     0.008 A 
ATOM     84  C   UNL A   1      28.985  27.345  23.596  1.00  0.00     0.008 A 
ATOM     85  C   UNL A   1      29.014  28.648  23.072  1.00  0.00    -0.026 A 
BRANCH  85  86
ATOM     86  C   UNL A   1      27.744  29.264  22.509  1.00  0.00     0.181 C 
BRANCH  86  87
ATOM     87  N   UNL A   1      27.877  30.664  22.196  1.00  0.00    -0.249 N 
ATOM     88  C   UNL A   1      27.878  31.715  23.058  1.00  0.00     0.220 A 
ATOM     89  N   UNL A   1      28.071  31.072  20.930  1.00  0.00    -0.160 NA
ATOM     90  N   UNL A   1      27.970  32.833  22.378  1.00  0.00    -0.224 NA
ATOM     91  C   UNL A   1      28.077  32.397  21.087  1.00  0.00     0.246 A 
ENDBRANCH  86  87
ENDBRANCH  85  86
ENDBRANCH  78  80
ENDBRANCH  69  76
ENDBRANCH  65  68
ENDBRANCH   1  64
TORSDOF 14
ENDMDL
MODEL 2
REMARK VINA RESULT:     -13.6      5.108     10.084
REMARK SMILES O=C(NCCCNC(=O)[C@@H]1[C@H](C(=O)Nc2ccc(Cn3cncn3)cc2)[C@@H]2C=C[C@H]1CC2)c1ccc(-c2c3nc(c(-c4c(F)cccc4F)c4ccc([nH]4)c(-c4c(F)cccc4F)c4nc(c(-c5c(F)cccc5F)c5ccc2[nH]5)C=C4)C=C3)cc1
REMARK SMILES IDX 6 1 5 2 4 3 3 4 1 5 2 6 33 8 34 9 86 10 35 11 85 12 36 13
REMARK SMILES IDX 37 14 38 15 79 16 39 17 84 18 78 19 80 20 40 21 83 22 77 23
REMARK SMILES IDX 76 24 41 26 67 27 50 28 66 29 51 30 54 31 65 32 81 33 52 34
REMARK SMILES IDX 53 35 64 37 82 38 55 39 42 40 43 41 48 42 44 43 45 44 47 45
REMARK SMILES IDX 49 46 46 47 68 48 69 49 74 50 70 51 71 52 73 53 75 54 72 55
REMARK SMILES IDX 56 56 57 57 62 58 58 59 59 60 61 61 63 62 60 63 7 64 8 65
REMARK SMILES IDX 9 67 10 68 11 69 30 70 27 71 29 72 31 73 28 74 32 75 12 76
REMARK SMILES IDX 13 77 14 78 15 80 16 81 26 82 17 83 25 84 18 85 19 86 20 87
REMARK SMILES IDX 21 88 24 89 22 90 23 91
REMARK H PARENT 3 7 80 25 54 36 7 66 14 79
REMARK Flexibility Score: inf
ROOT
ATOM      1  C   UNL A   1      32.951  29.714  26.551  1.00  0.00     0.117 C 
ENDROOT
BRANCH   1   2
ATOM      2  C   UNL A   1      33.919  30.600  27.346  1.00  0.00     0.042 C 
BRANCH   2   3
ATOM      3  C   UNL A   1      35.297  29.996  27.621  1.00  0.00     0.118 C 
BRANCH   3   4
ATOM      4  N   UNL A   1      35.847  29.980  28.957  1.00  0.00    -0.352 N 
ATOM      5  O   UNL A   1      37.532  31.114  30.001  1.00  0.00    -0.269 OA
ATOM      6  C   UNL A   1      37.175  30.246  29.206  1.00  0.00     0.251 C 
ATOM      7  H   UNL A   1      35.253  29.774  29.714  1.00  0.00     0.163 HD
BRANCH   6   8
ATOM      8  C   UNL A   1      38.116  29.225  28.733  1.00  0.00     0.039 A 
ATOM      9  C   UNL A   1      38.305  28.019  29.411  1.00  0.00     0.014 A 
ATOM     10  C   UNL A   1      39.040  29.697  27.800  1.00  0.00     0.014 A 
ATOM     11  C   UNL A   1      39.545  27.423  29.369  1.00  0.00     0.010 A 
ATOM     12  C   UNL A   1      40.251  29.056  27.697  1.00  0.00     0.010 A 
ATOM     13  C   UNL A   1      40.529  27.990  28.561  1.00  0.00    -0.014 A 
BRANCH  13  14
ATOM     14  C   UNL A   1      41.838  27.357  28.515  1.00  0.00     0.031 A 
ATOM     15  C   UNL A   1      42.697  27.656  29.703  1.00  0.00     0.074 A 
ATOM     16  C   UNL A   1      42.071  26.404  27.589  1.00  0.00     0.049 A 
ATOM     17  N   UNL A   1      43.968  27.900  29.764  1.00  0.00    -0.248 NA
ATOM     18  C   UNL A   1      42.008  27.795  31.006  1.00  0.00     0.031 C 
ATOM     19  C   UNL A   1      41.137  25.899  26.570  1.00  0.00     0.029 A 
ATOM     20  N   UNL A   1      43.120  25.551  27.472  1.00  0.00    -0.354 N 
ATOM     21  C   UNL A   1      44.261  28.030  31.124  1.00  0.00     0.074 A 
ATOM     22  C   UNL A   1      43.010  28.106  31.821  1.00  0.00     0.031 C 
ATOM     23  C   UNL A   1      41.542  24.677  26.165  1.00  0.00     0.029 A 
ATOM     24  C   UNL A   1      42.809  24.375  26.803  1.00  0.00     0.049 A 
ATOM     25  H   UNL A   1      44.016  25.747  27.829  1.00  0.00     0.167 HD
ATOM     26  C   UNL A   1      45.510  27.825  31.621  1.00  0.00     0.037 A 
ATOM     27  C   UNL A   1      43.485  23.203  26.886  1.00  0.00     0.037 A 
ATOM     28  C   UNL A   1      46.520  28.033  30.625  1.00  0.00     0.049 A 
ATOM     29  C   UNL A   1      44.809  23.494  27.491  1.00  0.00     0.074 A 
ATOM     30  C   UNL A   1      46.917  29.113  29.862  1.00  0.00     0.029 A 
ATOM     31  N   UNL A   1      47.096  26.934  30.038  1.00  0.00    -0.354 N 
ATOM     32  N   UNL A   1      45.736  24.206  26.911  1.00  0.00    -0.248 NA
ATOM     33  C   UNL A   1      44.924  23.379  28.938  1.00  0.00     0.031 C 
ATOM     34  C   UNL A   1      47.276  28.559  28.600  1.00  0.00     0.029 A 
ATOM     35  C   UNL A   1      47.116  27.176  28.689  1.00  0.00     0.049 A 
ATOM     36  H   UNL A   1      47.430  26.130  30.498  1.00  0.00     0.167 HD
ATOM     37  C   UNL A   1      46.309  24.951  27.934  1.00  0.00     0.074 A 
ATOM     38  C   UNL A   1      45.819  24.345  29.169  1.00  0.00     0.031 C 
ATOM     39  C   UNL A   1      46.895  26.160  27.689  1.00  0.00     0.037 A 
BRANCH  26  40
ATOM     40  C   UNL A   1      45.765  27.081  32.908  1.00  0.00     0.057 A 
ATOM     41  C   UNL A   1      46.598  27.653  33.884  1.00  0.00     0.134 A 
ATOM     42  C   UNL A   1      45.470  25.713  33.099  1.00  0.00     0.134 A 
ATOM     43  F   UNL A   1      46.964  28.942  33.806  1.00  0.00    -0.206 F 
ATOM     44  C   UNL A   1      47.156  26.902  34.926  1.00  0.00     0.040 A 
ATOM     45  C   UNL A   1      45.980  24.968  34.164  1.00  0.00     0.040 A 
ATOM     46  F   UNL A   1      44.760  25.001  32.216  1.00  0.00    -0.206 F 
ATOM     47  C   UNL A   1      46.854  25.553  35.063  1.00  0.00     0.006 A 
ENDBRANCH  26  40
BRANCH  27  48
ATOM     48  C   UNL A   1      42.907  21.838  26.838  1.00  0.00     0.057 A 
ATOM     49  C   UNL A   1      41.818  21.479  27.641  1.00  0.00     0.134 A 
ATOM     50  C   UNL A   1      43.261  20.918  25.832  1.00  0.00     0.134 A 
ATOM     51  F   UNL A   1      41.370  22.313  28.589  1.00  0.00    -0.206 F 
ATOM     52  C   UNL A   1      41.125  20.273  27.458  1.00  0.00     0.040 A 
ATOM     53  C   UNL A   1      42.588  19.708  25.647  1.00  0.00     0.040 A 
ATOM     54  F   UNL A   1      44.222  21.199  24.940  1.00  0.00    -0.206 F 
ATOM     55  C   UNL A   1      41.507  19.384  26.457  1.00  0.00     0.006 A 
ENDBRANCH  27  48
BRANCH  39  56
ATOM     56  C   UNL A   1      47.064  26.581  26.256  1.00  0.00     0.057 A 
ATOM     57  C   UNL A   1      46.141  27.389  25.574  1.00  0.00     0.134 A 
ATOM     58  C   UNL A   1      48.273  26.321  25.606  1.00  0.00     0.134 A 
ATOM     59  F   UNL A   1      45.010  27.792  26.160  1.00  0.00    -0.206 F 
ATOM     60  C   UNL A   1      46.388  27.876  24.287  1.00  0.00     0.040 A 
ATOM     61  C   UNL A   1      48.548  26.831  24.334  1.00  0.00     0.040 A 
ATOM     62  F   UNL A   1      49.234  25.616  26.223  1.00  0.00    -0.206 F 
ATOM     63  C   UNL A   1      47.600  27.602  23.665  1.00  0.00     0.006 A 
ENDBRANCH  39  56
ENDBRANCH  13  14
ENDBRANCH   6   8
ENDBRANCH   3   4
ENDBRANCH   2   3
ENDBRANCH   1   2
BRANCH   1  64
ATOM     64  N   UNL A   1      33.267  28.258  26.434  1.00  0.00    -0.356 N 
ATOM     65  C   UNL A   1      32.694  27.111  25.905  1.00  0.00     0.224 C 
ATOM     66  H   UNL A   1      34.133  28.054  26.855  1.00  0.00     0.163 HD
ATOM     67  O   UNL A   1      33.087  26.031  26.370  1.00  0.00    -0.275 OA
BRANCH  65  68
ATOM     68  C   UNL A   1      31.538  27.033  24.881  1.00  0.00     0.098 C 
ATOM     69  C   UNL A   1      31.134  25.610  24.724  1.00  0.00     0.098 C 
ATOM     70  C   UNL A   1      32.072  27.617  23.516  1.00  0.00     0.025 C 
ATOM     71  C   UNL A   1      32.245  25.040  23.628  1.00  0.00     0.025 C 
ATOM     72  C   UNL A   1      33.508  27.163  23.451  1.00  0.00    -0.027 C 
ATOM     73  C   UNL A   1      31.471  26.983  22.226  1.00  0.00     0.009 C 
ATOM     74  C   UNL A   1      33.613  25.824  23.570  1.00  0.00    -0.027 C 
ATOM     75  C   UNL A   1      31.745  25.450  22.212  1.00  0.00     0.009 C 
BRANCH  69  76
ATOM     76  C   UNL A   1      30.571  24.963  26.113  1.00  0.00     0.228 C 
ATOM     77  O   UNL A   1      29.543  25.494  26.578  1.00  0.00    -0.274 OA
ATOM     78  N   UNL A   1      31.077  23.935  26.942  1.00  0.00    -0.326 N 
ATOM     79  H   UNL A   1      30.837  24.062  27.889  1.00  0.00     0.169 HD
BRANCH  78  80
ATOM     80  C   UNL A   1      31.859  22.743  26.730  1.00  0.00     0.041 A 
ATOM     81  C   UNL A   1      31.558  21.847  25.689  1.00  0.00     0.026 A 
ATOM     82  C   UNL A   1      32.941  22.382  27.509  1.00  0.00     0.026 A 
ATOM     83  C   UNL A   1      32.567  21.095  25.064  1.00  0.00     0.008 A 
ATOM     84  C   UNL A   1      33.906  21.491  26.993  1.00  0.00     0.008 A 
ATOM     85  C   UNL A   1      33.819  21.043  25.664  1.00  0.00    -0.026 A 
BRANCH  85  86
ATOM     86  C   UNL A   1      35.088  20.816  24.859  1.00  0.00     0.181 C 
BRANCH  86  87
ATOM     87  N   UNL A   1      36.074  21.849  25.045  1.00  0.00    -0.249 N 
ATOM     88  C   UNL A   1      37.283  21.747  25.659  1.00  0.00     0.220 A 
ATOM     89  N   UNL A   1      35.882  23.084  24.550  1.00  0.00    -0.160 NA
ATOM     90  N   UNL A   1      37.864  22.923  25.670  1.00  0.00    -0.224 NA
ATOM     91  C   UNL A   1      36.975  23.709  24.992  1.00  0.00     0.246 A 
ENDBRANCH  86  87
ENDBRANCH  85  86
ENDBRANCH  78  80
ENDBRANCH  69  76
ENDBRANCH  65  68
ENDBRANCH   1  64
TORSDOF 14
ENDMDL
MODEL 3
REMARK VINA RESULT:     -13.4      1.761      2.423
REMARK SMILES O=C(NCCCNC(=O)[C@@H]1[C@H](C(=O)Nc2ccc(Cn3cncn3)cc2)[C@@H]2C=C[C@H]1CC2)c1ccc(-c2c3nc(c(-c4c(F)cccc4F)c4ccc([nH]4)c(-c4c(F)cccc4F)c4nc(c(-c5c(F)cccc5F)c5ccc2[nH]5)C=C4)C=C3)cc1
REMARK SMILES IDX 6 1 5 2 4 3 3 4 1 5 2 6 33 8 34 9 86 10 35 11 85 12 36 13
REMARK SMILES IDX 37 14 38 15 79 16 39 17 84 18 78 19 80 20 40 21 83 22 77 23
REMARK SMILES IDX 76 24 41 26 67 27 50 28 66 29 51 30 54 31 65 32 81 33 52 34
REMARK SMILES IDX 53 35 64 37 82 38 55 39 42 40 43 41 48 42 44 43 45 44 47 45
REMARK SMILES IDX 49 46 46 47 68 48 69 49 74 50 70 51 71 52 73 53 75 54 72 55
REMARK SMILES IDX 56 56 57 57 62 58 58 59 59 60 61 61 63 62 60 63 7 64 8 65
REMARK SMILES IDX 9 67 10 68 11 69 30 70 27 71 29 72 31 73 28 74 32 75 12 76
REMARK SMILES IDX 13 77 14 78 15 80 16 81 26 82 17 83 25 84 18 85 19 86 20 87
REMARK SMILES IDX 21 88 24 89 22 90 23 91
REMARK H PARENT 3 7 80 25 54 36 7 66 14 79
REMARK Flexibility Score: inf
ROOT
ATOM      1  C   UNL A   1      37.205  22.251  24.944  1.00  0.00     0.117 C 
ENDROOT
BRANCH   1   2
ATOM      2  C   UNL A   1      38.437  22.339  25.853  1.00  0.00     0.042 C 
BRANCH   2   3
ATOM      3  C   UNL A   1      38.671  23.693  26.523  1.00  0.00     0.118 C 
BRANCH   3   4
ATOM      4  N   UNL A   1      39.878  24.447  26.274  1.00  0.00    -0.352 N 
ATOM      5  O   UNL A   1      41.781  24.851  27.469  1.00  0.00    -0.269 OA
ATOM      6  C   UNL A   1      40.582  25.059  27.286  1.00  0.00     0.251 C 
ATOM      7  H   UNL A   1      40.208  24.525  25.350  1.00  0.00     0.163 HD
BRANCH   6   8
ATOM      8  C   UNL A   1      39.914  26.206  27.909  1.00  0.00     0.039 A 
ATOM      9  C   UNL A   1      39.724  27.412  27.230  1.00  0.00     0.014 A 
ATOM     10  C   UNL A   1      39.823  26.123  29.298  1.00  0.00     0.014 A 
ATOM     11  C   UNL A   1      39.722  28.585  27.951  1.00  0.00     0.010 A 
ATOM     12  C   UNL A   1      39.741  27.288  30.020  1.00  0.00     0.010 A 
ATOM     13  C   UNL A   1      39.799  28.511  29.341  1.00  0.00    -0.014 A 
BRANCH  13  14
ATOM     14  C   UNL A   1      39.793  29.751  30.102  1.00  0.00     0.031 A 
ATOM     15  C   UNL A   1      41.094  30.491  30.063  1.00  0.00     0.074 A 
ATOM     16  C   UNL A   1      38.618  30.240  30.547  1.00  0.00     0.049 A 
ATOM     17  N   UNL A   1      41.711  31.128  31.007  1.00  0.00    -0.248 NA
ATOM     18  C   UNL A   1      41.862  30.422  28.800  1.00  0.00     0.031 C 
ATOM     19  C   UNL A   1      37.279  29.658  30.361  1.00  0.00     0.029 A 
ATOM     20  N   UNL A   1      38.337  31.447  31.098  1.00  0.00    -0.354 N 
ATOM     21  C   UNL A   1      42.836  31.696  30.405  1.00  0.00     0.074 A 
ATOM     22  C   UNL A   1      42.958  31.111  29.101  1.00  0.00     0.031 C 
ATOM     23  C   UNL A   1      36.350  30.625  30.517  1.00  0.00     0.029 A 
ATOM     24  C   UNL A   1      37.018  31.846  30.924  1.00  0.00     0.049 A 
ATOM     25  H   UNL A   1      39.005  31.991  31.574  1.00  0.00     0.167 HD
ATOM     26  C   UNL A   1      43.462  32.788  30.918  1.00  0.00     0.037 A 
ATOM     27  C   UNL A   1      36.551  33.116  30.983  1.00  0.00     0.037 A 
ATOM     28  C   UNL A   1      43.234  32.920  32.327  1.00  0.00     0.049 A 
ATOM     29  C   UNL A   1      37.593  33.946  31.639  1.00  0.00     0.074 A 
ATOM     30  C   UNL A   1      43.524  32.140  33.429  1.00  0.00     0.029 A 
ATOM     31  N   UNL A   1      42.314  33.842  32.758  1.00  0.00    -0.354 N 
ATOM     32  N   UNL A   1      37.949  33.818  32.887  1.00  0.00    -0.248 NA
ATOM     33  C   UNL A   1      38.564  34.605  30.777  1.00  0.00     0.031 C 
ATOM     34  C   UNL A   1      42.410  32.310  34.301  1.00  0.00     0.029 A 
ATOM     35  C   UNL A   1      41.536  33.213  33.694  1.00  0.00     0.049 A 
ATOM     36  H   UNL A   1      42.230  34.775  32.453  1.00  0.00     0.167 HD
ATOM     37  C   UNL A   1      39.325  34.009  32.889  1.00  0.00     0.074 A 
ATOM     38  C   UNL A   1      39.636  34.563  31.574  1.00  0.00     0.031 C 
ATOM     39  C   UNL A   1      40.119  33.438  33.842  1.00  0.00     0.037 A 
BRANCH  26  40
ATOM     40  C   UNL A   1      43.967  33.920  30.057  1.00  0.00     0.057 A 
ATOM     41  C   UNL A   1      43.074  34.595  29.208  1.00  0.00     0.134 A 
ATOM     42  C   UNL A   1      45.335  34.172  29.811  1.00  0.00     0.134 A 
ATOM     43  F   UNL A   1      41.749  34.426  29.331  1.00  0.00    -0.206 F 
ATOM     44  C   UNL A   1      43.512  35.399  28.148  1.00  0.00     0.040 A 
ATOM     45  C   UNL A   1      45.780  35.013  28.790  1.00  0.00     0.040 A 
ATOM     46  F   UNL A   1      46.312  33.545  30.477  1.00  0.00    -0.206 F 
ATOM     47  C   UNL A   1      44.869  35.603  27.931  1.00  0.00     0.006 A 
ENDBRANCH  26  40
BRANCH  27  48
ATOM     48  C   UNL A   1      35.455  33.699  30.170  1.00  0.00     0.057 A 
ATOM     49  C   UNL A   1      34.368  34.345  30.768  1.00  0.00     0.134 A 
ATOM     50  C   UNL A   1      35.564  33.841  28.773  1.00  0.00     0.134 A 
ATOM     51  F   UNL A   1      34.209  34.316  32.098  1.00  0.00    -0.206 F 
ATOM     52  C   UNL A   1      33.439  35.085  30.021  1.00  0.00     0.040 A 
ATOM     53  C   UNL A   1      34.639  34.564  28.014  1.00  0.00     0.040 A 
ATOM     54  F   UNL A   1      36.618  33.351  28.104  1.00  0.00    -0.206 F 
ATOM     55  C   UNL A   1      33.574  35.198  28.639  1.00  0.00     0.006 A 
ENDBRANCH  27  48
BRANCH  39  56
ATOM     56  C   UNL A   1      39.447  32.744  34.995  1.00  0.00     0.057 A 
ATOM     57  C   UNL A   1      38.962  33.419  36.125  1.00  0.00     0.134 A 
ATOM     58  C   UNL A   1      39.115  31.392  34.879  1.00  0.00     0.134 A 
ATOM     59  F   UNL A   1      39.124  34.739  36.265  1.00  0.00    -0.206 F 
ATOM     60  C   UNL A   1      38.223  32.770  37.119  1.00  0.00     0.040 A 
ATOM     61  C   UNL A   1      38.347  30.738  35.847  1.00  0.00     0.040 A 
ATOM     62  F   UNL A   1      39.482  30.697  33.791  1.00  0.00    -0.206 F 
ATOM     63  C   UNL A   1      37.907  31.424  36.976  1.00  0.00     0.006 A 
ENDBRANCH  39  56
ENDBRANCH  13  14
ENDBRANCH   6   8
ENDBRANCH   3   4
ENDBRANCH   2   3
ENDBRANCH   1   2
BRANCH   1  64
ATOM     64  N   UNL A   1      36.298  23.437  24.873  1.00  0.00    -0.356 N 
ATOM     65  C   UNL A   1      35.040  23.754  24.381  1.00  0.00     0.224 C 
ATOM     66  H   UNL A   1      36.715  24.220  25.298  1.00  0.00     0.163 HD
ATOM     67  O   UNL A   1      34.816  24.954  24.167  1.00  0.00    -0.275 OA
BRANCH  65  68
ATOM     68  C   UNL A   1      33.926  22.766  23.963  1.00  0.00     0.098 C 
ATOM     69  C   UNL A   1      32.753  23.544  23.483  1.00  0.00     0.098 C 
ATOM     70  C   UNL A   1      33.548  21.909  25.233  1.00  0.00     0.025 C 
ATOM     71  C   UNL A   1      31.979  23.937  24.899  1.00  0.00     0.025 C 
ATOM     72  C   UNL A   1      33.657  22.878  26.383  1.00  0.00    -0.027 C 
ATOM     73  C   UNL A   1      32.061  21.457  25.327  1.00  0.00     0.009 C 
ATOM     74  C   UNL A   1      32.887  23.968  26.189  1.00  0.00    -0.027 C 
ATOM     75  C   UNL A   1      31.125  22.701  25.314  1.00  0.00     0.009 C 
BRANCH  69  76
ATOM     76  C   UNL A   1      33.097  24.445  22.165  1.00  0.00     0.228 C 
ATOM     77  O   UNL A   1      33.337  23.806  21.122  1.00  0.00    -0.274 OA
ATOM     78  N   UNL A   1      33.242  25.841  21.996  1.00  0.00    -0.326 N 
ATOM     79  H   UNL A   1      33.878  26.069  21.279  1.00  0.00     0.169 HD
BRANCH  78  80
ATOM     80  C   UNL A   1      32.677  27.011  22.621  1.00  0.00     0.041 A 
ATOM     81  C   UNL A   1      31.318  27.067  22.974  1.00  0.00     0.026 A 
ATOM     82  C   UNL A   1      33.399  28.151  22.917  1.00  0.00     0.026 A 
ATOM     83  C   UNL A   1      30.885  27.823  24.076  1.00  0.00     0.008 A 
ATOM     84  C   UNL A   1      32.923  29.041  23.903  1.00  0.00     0.008 A 
ATOM     85  C   UNL A   1      31.771  28.728  24.644  1.00  0.00    -0.026 A 
BRANCH  85  86
ATOM     86  C   UNL A   1      31.683  29.129  26.108  1.00  0.00     0.181 C 
BRANCH  86  87
ATOM     87  N   UNL A   1      32.957  29.473  26.684  1.00  0.00    -0.249 N 
ATOM     88  C   UNL A   1      33.423  30.710  27.002  1.00  0.00     0.220 A 
ATOM     89  N   UNL A   1      33.843  28.519  27.019  1.00  0.00    -0.160 NA
ATOM     90  N   UNL A   1      34.650  30.608  27.456  1.00  0.00    -0.224 NA
ATOM     91  C   UNL A   1      34.869  29.259  27.442  1.00  0.00     0.246 A 
ENDBRANCH  86  87
ENDBRANCH  85  86
ENDBRANCH  78  80
ENDBRANCH  69  76
ENDBRANCH  65  68
ENDBRANCH   1  64
TORSDOF 14
ENDMDL
