MODEL 1
REMARK VINA RESULT:     -12.2      0.000      0.000
REMARK SMILES COc1ccc2c(c1OC)C(=O)O[C@@H]2Nc1nonc1C(=O)NCCCNC(=O)c1ccc(-c2c3nc(c(-c4c(F)cccc4F)c4ccc([nH]4)c(-c4c(F)cccc4F)c4nc(c(-c5c(F)cccc5F)c5ccc2[nH]5)C=C4)C=C3)cc1
REMARK SMILES IDX 24 1 23 2 21 3 22 4 20 6 16 7 17 8 18 9 19 10 15 11 14 13
REMARK SMILES IDX 3 14 4 15 8 16 5 17 7 18 6 19 11 20 12 21 13 22 2 23 1 24
REMARK SMILES IDX 9 25 10 26 25 27 26 28 27 29 28 30 29 32 30 33 31 34 83 35
REMARK SMILES IDX 32 36 82 37 33 38 34 39 35 40 76 41 36 42 81 43 75 44 77 45
REMARK SMILES IDX 37 46 80 47 74 48 73 49 38 51 64 52 47 53 63 54 48 55 51 56
REMARK SMILES IDX 62 57 78 58 49 59 50 60 61 62 79 63 52 64 39 65 40 66 45 67
REMARK SMILES IDX 41 68 42 69 44 70 46 71 43 72 65 73 66 74 71 75 67 76 68 77
REMARK SMILES IDX 70 78 72 79 69 80 53 81 54 82 59 83 55 84 56 85 58 86 60 87
REMARK SMILES IDX 57 88
REMARK H PARENT 23 5 15 12 27 31 77 50 51 61
REMARK Flexibility Score: inf
ROOT
ATOM      1  C   UNL A   1      36.335  21.121  25.269  1.00  0.00     0.118 C 
ENDROOT
BRANCH   1   2
ATOM      2  N   UNL A   1      35.391  21.454  26.314  1.00  0.00    -0.350 N 
ATOM      3  C   UNL A   1      34.029  21.226  26.272  1.00  0.00     0.277 C 
ATOM      4  O   UNL A   1      33.348  21.596  27.228  1.00  0.00    -0.267 OA
ATOM      5  H   UNL A   1      35.752  21.880  27.125  1.00  0.00     0.163 HD
BRANCH   3   6
ATOM      6  C   UNL A   1      33.452  20.608  25.085  1.00  0.00     0.216 A 
ATOM      7  C   UNL A   1      32.847  21.170  23.929  1.00  0.00     0.207 A 
ATOM      8  N   UNL A   1      32.286  20.194  23.218  1.00  0.00    -0.031 NA
ATOM      9  O   UNL A   1      32.627  19.017  23.865  1.00  0.00    -0.242 OA
ATOM     10  N   UNL A   1      33.357  19.271  25.014  1.00  0.00    -0.042 NA
BRANCH   7  11
ATOM     11  N   UNL A   1      32.687  22.484  23.618  1.00  0.00    -0.326 N 
ATOM     12  H   UNL A   1      31.780  22.835  23.464  1.00  0.00     0.166 HD
BRANCH  11  13
ATOM     13  C   UNL A   1      33.818  23.378  23.509  1.00  0.00     0.307 C 
ATOM     14  C   UNL A   1      33.348  27.227  25.254  1.00  0.00     0.161 A 
ATOM     15  C   UNL A   1      33.578  26.139  26.121  1.00  0.00     0.051 A 
ATOM     16  C   UNL A   1      33.311  27.038  23.852  1.00  0.00     0.175 A 
ATOM     17  C   UNL A   1      33.724  24.843  25.632  1.00  0.00     0.014 A 
ATOM     18  C   UNL A   1      33.438  25.719  23.389  1.00  0.00     0.114 A 
ATOM     19  C   UNL A   1      33.631  24.645  24.263  1.00  0.00     0.032 A 
ATOM     20  C   UNL A   1      33.497  25.142  22.039  1.00  0.00     0.344 C 
ATOM     21  O   UNL A   1      33.279  25.669  20.963  1.00  0.00    -0.246 OA
ATOM     22  O   UNL A   1      33.839  23.828  22.156  1.00  0.00    -0.434 OA
BRANCH  14  23
ATOM     23  O   UNL A   1      33.216  28.415  25.936  1.00  0.00    -0.493 OA
ATOM     24  C   UNL A   1      34.399  29.026  26.442  1.00  0.00     0.278 C 
ENDBRANCH  14  23
BRANCH  16  25
ATOM     25  O   UNL A   1      33.273  28.184  23.113  1.00  0.00    -0.492 OA
ATOM     26  C   UNL A   1      32.027  28.720  22.700  1.00  0.00     0.278 C 
ENDBRANCH  16  25
ENDBRANCH  11  13
ENDBRANCH   7  11
ENDBRANCH   3   6
ENDBRANCH   1   2
BRANCH   1  27
ATOM     27  C   UNL A   1      37.429  22.140  25.031  1.00  0.00     0.042 C 
BRANCH  27  28
ATOM     28  C   UNL A   1      38.637  21.974  25.946  1.00  0.00     0.118 C 
BRANCH  28  29
ATOM     29  N   UNL A   1      39.152  20.613  25.960  1.00  0.00    -0.352 N 
ATOM     30  C   UNL A   1      40.410  20.088  26.071  1.00  0.00     0.251 C 
ATOM     31  H   UNL A   1      38.449  19.928  25.869  1.00  0.00     0.163 HD
ATOM     32  O   UNL A   1      40.559  18.910  25.751  1.00  0.00    -0.269 OA
BRANCH  30  33
ATOM     33  C   UNL A   1      41.587  20.892  26.466  1.00  0.00     0.039 A 
ATOM     34  C   UNL A   1      42.291  21.543  25.446  1.00  0.00     0.014 A 
ATOM     35  C   UNL A   1      41.937  21.125  27.792  1.00  0.00     0.014 A 
ATOM     36  C   UNL A   1      43.149  22.587  25.759  1.00  0.00     0.010 A 
ATOM     37  C   UNL A   1      42.648  22.272  28.103  1.00  0.00     0.010 A 
ATOM     38  C   UNL A   1      43.188  23.055  27.078  1.00  0.00    -0.014 A 
BRANCH  38  39
ATOM     39  C   UNL A   1      43.606  24.447  27.351  1.00  0.00     0.031 A 
ATOM     40  C   UNL A   1      42.610  25.476  27.779  1.00  0.00     0.074 A 
ATOM     41  C   UNL A   1      44.893  24.773  27.104  1.00  0.00     0.049 A 
ATOM     42  N   UNL A   1      42.802  26.743  28.031  1.00  0.00    -0.248 NA
ATOM     43  C   UNL A   1      41.211  25.039  27.905  1.00  0.00     0.031 C 
ATOM     44  C   UNL A   1      45.913  23.856  26.576  1.00  0.00     0.029 A 
ATOM     45  N   UNL A   1      45.576  25.949  27.269  1.00  0.00    -0.354 N 
ATOM     46  C   UNL A   1      41.549  27.255  28.335  1.00  0.00     0.074 A 
ATOM     47  C   UNL A   1      40.596  26.181  28.172  1.00  0.00     0.031 C 
ATOM     48  C   UNL A   1      47.098  24.480  26.535  1.00  0.00     0.029 A 
ATOM     49  C   UNL A   1      46.915  25.856  26.964  1.00  0.00     0.049 A 
ATOM     50  H   UNL A   1      45.149  26.782  27.575  1.00  0.00     0.167 HD
ATOM     51  C   UNL A   1      41.236  28.508  28.739  1.00  0.00     0.037 A 
ATOM     52  C   UNL A   1      47.886  26.784  27.022  1.00  0.00     0.037 A 
ATOM     53  C   UNL A   1      42.211  29.555  28.895  1.00  0.00     0.049 A 
ATOM     54  C   UNL A   1      47.512  28.159  27.491  1.00  0.00     0.074 A 
ATOM     55  C   UNL A   1      42.024  30.849  29.342  1.00  0.00     0.029 A 
ATOM     56  N   UNL A   1      43.563  29.422  28.600  1.00  0.00    -0.354 N 
ATOM     57  N   UNL A   1      46.336  28.610  27.860  1.00  0.00    -0.248 NA
ATOM     58  C   UNL A   1      48.589  29.152  27.556  1.00  0.00     0.031 C 
ATOM     59  C   UNL A   1      43.251  31.515  29.266  1.00  0.00     0.029 A 
ATOM     60  C   UNL A   1      44.217  30.620  28.832  1.00  0.00     0.049 A 
ATOM     61  H   UNL A   1      43.991  28.598  28.274  1.00  0.00     0.167 HD
ATOM     62  C   UNL A   1      46.533  29.934  28.221  1.00  0.00     0.074 A 
ATOM     63  C   UNL A   1      47.949  30.202  28.050  1.00  0.00     0.031 C 
ATOM     64  C   UNL A   1      45.630  30.849  28.651  1.00  0.00     0.037 A 
BRANCH  51  65
ATOM     65  C   UNL A   1      39.792  28.799  29.026  1.00  0.00     0.057 A 
ATOM     66  C   UNL A   1      39.251  28.673  30.313  1.00  0.00     0.134 A 
ATOM     67  C   UNL A   1      38.927  29.210  28.004  1.00  0.00     0.134 A 
ATOM     68  F   UNL A   1      40.018  28.265  31.337  1.00  0.00    -0.206 F 
ATOM     69  C   UNL A   1      37.899  28.912  30.567  1.00  0.00     0.040 A 
ATOM     70  C   UNL A   1      37.580  29.481  28.251  1.00  0.00     0.040 A 
ATOM     71  F   UNL A   1      39.375  29.351  26.748  1.00  0.00    -0.206 F 
ATOM     72  C   UNL A   1      37.060  29.322  29.534  1.00  0.00     0.006 A 
ENDBRANCH  51  65
BRANCH  52  73
ATOM     73  C   UNL A   1      49.285  26.440  26.650  1.00  0.00     0.057 A 
ATOM     74  C   UNL A   1      50.171  25.891  27.584  1.00  0.00     0.134 A 
ATOM     75  C   UNL A   1      49.770  26.644  25.351  1.00  0.00     0.134 A 
ATOM     76  F   UNL A   1      49.773  25.677  28.847  1.00  0.00    -0.206 F 
ATOM     77  C   UNL A   1      51.493  25.585  27.251  1.00  0.00     0.040 A 
ATOM     78  C   UNL A   1      51.079  26.313  24.996  1.00  0.00     0.040 A 
ATOM     79  F   UNL A   1      48.970  27.149  24.400  1.00  0.00    -0.206 F 
ATOM     80  C   UNL A   1      51.948  25.793  25.951  1.00  0.00     0.006 A 
ENDBRANCH  52  73
BRANCH  64  81
ATOM     81  C   UNL A   1      46.160  32.208  28.993  1.00  0.00     0.057 A 
ATOM     82  C   UNL A   1      46.212  33.242  28.050  1.00  0.00     0.134 A 
ATOM     83  C   UNL A   1      46.594  32.492  30.294  1.00  0.00     0.134 A 
ATOM     84  F   UNL A   1      45.826  33.028  26.783  1.00  0.00    -0.206 F 
ATOM     85  C   UNL A   1      46.701  34.506  28.384  1.00  0.00     0.040 A 
ATOM     86  C   UNL A   1      47.053  33.760  30.647  1.00  0.00     0.040 A 
ATOM     87  F   UNL A   1      46.562  31.547  31.245  1.00  0.00    -0.206 F 
ATOM     88  C   UNL A   1      47.115  34.769  29.688  1.00  0.00     0.006 A 
ENDBRANCH  64  81
ENDBRANCH  38  39
ENDBRANCH  30  33
ENDBRANCH  28  29
ENDBRANCH  27  28
ENDBRANCH   1  27
TORSDOF 14
ENDMDL
MODEL 2
REMARK VINA RESULT:     -12.2      5.003      9.249
REMARK SMILES COc1ccc2c(c1OC)C(=O)O[C@@H]2Nc1nonc1C(=O)NCCCNC(=O)c1ccc(-c2c3nc(c(-c4c(F)cccc4F)c4ccc([nH]4)c(-c4c(F)cccc4F)c4nc(c(-c5c(F)cccc5F)c5ccc2[nH]5)C=C4)C=C3)cc1
REMARK SMILES IDX 24 1 23 2 21 3 22 4 20 6 16 7 17 8 18 9 19 10 15 11 14 13
REMARK SMILES IDX 3 14 4 15 8 16 5 17 7 18 6 19 11 20 12 21 13 22 2 23 1 24
REMARK SMILES IDX 9 25 10 26 25 27 26 28 27 29 28 30 29 32 30 33 31 34 83 35
REMARK SMILES IDX 32 36 82 37 33 38 34 39 35 40 76 41 36 42 81 43 75 44 77 45
REMARK SMILES IDX 37 46 80 47 74 48 73 49 38 51 64 52 47 53 63 54 48 55 51 56
REMARK SMILES IDX 62 57 78 58 49 59 50 60 61 62 79 63 52 64 39 65 40 66 45 67
REMARK SMILES IDX 41 68 42 69 44 70 46 71 43 72 65 73 66 74 71 75 67 76 68 77
REMARK SMILES IDX 70 78 72 79 69 80 53 81 54 82 59 83 55 84 56 85 58 86 60 87
REMARK SMILES IDX 57 88
REMARK H PARENT 23 5 15 12 27 31 77 50 51 61
REMARK Flexibility Score: inf
ROOT
ATOM      1  C   UNL A   1      31.876  30.017  25.771  1.00  0.00     0.118 C 
ENDROOT
BRANCH   1   2
ATOM      2  N   UNL A   1      32.613  29.624  24.590  1.00  0.00    -0.350 N 
ATOM      3  C   UNL A   1      32.097  28.929  23.512  1.00  0.00     0.277 C 
ATOM      4  O   UNL A   1      32.859  28.636  22.591  1.00  0.00    -0.267 OA
ATOM      5  H   UNL A   1      33.565  29.873  24.551  1.00  0.00     0.163 HD
BRANCH   3   6
ATOM      6  C   UNL A   1      30.696  28.531  23.534  1.00  0.00     0.216 A 
ATOM      7  C   UNL A   1      30.068  27.312  23.906  1.00  0.00     0.207 A 
ATOM      8  N   UNL A   1      28.784  27.365  23.555  1.00  0.00    -0.031 NA
ATOM      9  O   UNL A   1      28.582  28.645  23.065  1.00  0.00    -0.242 OA
ATOM     10  N   UNL A   1      29.762  29.371  23.062  1.00  0.00    -0.042 NA
BRANCH   7  11
ATOM     11  N   UNL A   1      30.647  26.181  24.390  1.00  0.00    -0.326 N 
ATOM     12  H   UNL A   1      30.625  25.360  23.847  1.00  0.00     0.166 HD
BRANCH  11  13
ATOM     13  C   UNL A   1      31.291  26.157  25.683  1.00  0.00     0.307 C 
ATOM     14  C   UNL A   1      34.812  23.793  25.985  1.00  0.00     0.161 A 
ATOM     15  C   UNL A   1      34.914  25.039  25.334  1.00  0.00     0.051 A 
ATOM     16  C   UNL A   1      33.584  23.369  26.545  1.00  0.00     0.175 A 
ATOM     17  C   UNL A   1      33.805  25.866  25.176  1.00  0.00     0.014 A 
ATOM     18  C   UNL A   1      32.477  24.211  26.351  1.00  0.00     0.114 A 
ATOM     19  C   UNL A   1      32.587  25.429  25.672  1.00  0.00     0.032 A 
ATOM     20  C   UNL A   1      31.084  24.142  26.812  1.00  0.00     0.344 C 
ATOM     21  O   UNL A   1      30.493  23.225  27.353  1.00  0.00    -0.246 OA
ATOM     22  O   UNL A   1      30.482  25.328  26.515  1.00  0.00    -0.434 OA
BRANCH  14  23
ATOM     23  O   UNL A   1      36.015  23.125  26.021  1.00  0.00    -0.493 OA
ATOM     24  C   UNL A   1      37.164  23.799  25.514  1.00  0.00     0.278 C 
ENDBRANCH  14  23
BRANCH  16  25
ATOM     25  O   UNL A   1      33.653  22.242  27.310  1.00  0.00    -0.492 OA
ATOM     26  C   UNL A   1      33.504  20.967  26.709  1.00  0.00     0.278 C 
ENDBRANCH  16  25
ENDBRANCH  11  13
ENDBRANCH   7  11
ENDBRANCH   3   6
ENDBRANCH   1   2
BRANCH   1  27
ATOM     27  C   UNL A   1      32.609  29.843  27.085  1.00  0.00     0.042 C 
BRANCH  27  28
ATOM     28  C   UNL A   1      33.580  30.973  27.405  1.00  0.00     0.118 C 
BRANCH  28  29
ATOM     29  N   UNL A   1      32.965  32.289  27.312  1.00  0.00    -0.352 N 
ATOM     30  C   UNL A   1      33.158  33.463  27.985  1.00  0.00     0.251 C 
ATOM     31  H   UNL A   1      32.264  32.344  26.621  1.00  0.00     0.163 HD
ATOM     32  O   UNL A   1      32.281  34.320  27.885  1.00  0.00    -0.269 OA
BRANCH  30  33
ATOM     33  C   UNL A   1      34.312  33.699  28.881  1.00  0.00     0.039 A 
ATOM     34  C   UNL A   1      34.188  33.279  30.210  1.00  0.00     0.014 A 
ATOM     35  C   UNL A   1      35.532  34.194  28.434  1.00  0.00     0.014 A 
ATOM     36  C   UNL A   1      35.323  33.124  30.993  1.00  0.00     0.010 A 
ATOM     37  C   UNL A   1      36.681  33.876  29.140  1.00  0.00     0.010 A 
ATOM     38  C   UNL A   1      36.580  33.262  30.391  1.00  0.00    -0.014 A 
BRANCH  38  39
ATOM     39  C   UNL A   1      37.754  32.580  30.978  1.00  0.00     0.031 A 
ATOM     40  C   UNL A   1      38.372  33.073  32.245  1.00  0.00     0.074 A 
ATOM     41  C   UNL A   1      38.301  31.563  30.276  1.00  0.00     0.049 A 
ATOM     42  N   UNL A   1      39.418  32.612  32.877  1.00  0.00    -0.248 NA
ATOM     43  C   UNL A   1      37.766  34.262  32.865  1.00  0.00     0.031 C 
ATOM     44  C   UNL A   1      37.828  31.083  28.970  1.00  0.00     0.029 A 
ATOM     45  N   UNL A   1      39.358  30.738  30.554  1.00  0.00    -0.354 N 
ATOM     46  C   UNL A   1      39.599  33.457  33.962  1.00  0.00     0.074 A 
ATOM     47  C   UNL A   1      38.600  34.497  33.866  1.00  0.00     0.031 C 
ATOM     48  C   UNL A   1      38.539  30.010  28.602  1.00  0.00     0.029 A 
ATOM     49  C   UNL A   1      39.562  29.763  29.605  1.00  0.00     0.049 A 
ATOM     50  H   UNL A   1      39.920  30.835  31.357  1.00  0.00     0.167 HD
ATOM     51  C   UNL A   1      40.507  33.351  34.959  1.00  0.00     0.037 A 
ATOM     52  C   UNL A   1      40.478  28.781  29.550  1.00  0.00     0.037 A 
ATOM     53  C   UNL A   1      41.487  32.299  35.027  1.00  0.00     0.049 A 
ATOM     54  C   UNL A   1      41.460  28.677  30.680  1.00  0.00     0.074 A 
ATOM     55  C   UNL A   1      42.429  32.058  36.009  1.00  0.00     0.029 A 
ATOM     56  N   UNL A   1      41.653  31.314  34.061  1.00  0.00    -0.354 N 
ATOM     57  N   UNL A   1      41.568  29.432  31.747  1.00  0.00    -0.248 NA
ATOM     58  C   UNL A   1      42.443  27.592  30.604  1.00  0.00     0.031 C 
ATOM     59  C   UNL A   1      43.199  30.960  35.612  1.00  0.00     0.029 A 
ATOM     60  C   UNL A   1      42.698  30.477  34.413  1.00  0.00     0.049 A 
ATOM     61  H   UNL A   1      41.107  31.224  33.246  1.00  0.00     0.167 HD
ATOM     62  C   UNL A   1      42.616  28.903  32.483  1.00  0.00     0.074 A 
ATOM     63  C   UNL A   1      43.094  27.747  31.748  1.00  0.00     0.031 C 
ATOM     64  C   UNL A   1      43.144  29.333  33.655  1.00  0.00     0.037 A 
BRANCH  51  65
ATOM     65  C   UNL A   1      40.477  34.398  36.034  1.00  0.00     0.057 A 
ATOM     66  C   UNL A   1      41.236  35.574  35.945  1.00  0.00     0.134 A 
ATOM     67  C   UNL A   1      39.681  34.232  37.174  1.00  0.00     0.134 A 
ATOM     68  F   UNL A   1      42.036  35.790  34.889  1.00  0.00    -0.206 F 
ATOM     69  C   UNL A   1      41.230  36.528  36.965  1.00  0.00     0.040 A 
ATOM     70  C   UNL A   1      39.643  35.194  38.186  1.00  0.00     0.040 A 
ATOM     71  F   UNL A   1      38.930  33.132  37.326  1.00  0.00    -0.206 F 
ATOM     72  C   UNL A   1      40.428  36.342  38.087  1.00  0.00     0.006 A 
ENDBRANCH  51  65
BRANCH  52  73
ATOM     73  C   UNL A   1      40.493  27.822  28.412  1.00  0.00     0.057 A 
ATOM     74  C   UNL A   1      41.216  28.093  27.244  1.00  0.00     0.134 A 
ATOM     75  C   UNL A   1      39.791  26.611  28.464  1.00  0.00     0.134 A 
ATOM     76  F   UNL A   1      41.903  29.238  27.126  1.00  0.00    -0.206 F 
ATOM     77  C   UNL A   1      41.219  27.210  26.161  1.00  0.00     0.040 A 
ATOM     78  C   UNL A   1      39.811  25.704  27.402  1.00  0.00     0.040 A 
ATOM     79  F   UNL A   1      39.092  26.279  29.560  1.00  0.00    -0.206 F 
ATOM     80  C   UNL A   1      40.517  26.009  26.242  1.00  0.00     0.006 A 
ENDBRANCH  52  73
BRANCH  64  81
ATOM     81  C   UNL A   1      44.271  28.524  34.222  1.00  0.00     0.057 A 
ATOM     82  C   UNL A   1      45.612  28.845  33.973  1.00  0.00     0.134 A 
ATOM     83  C   UNL A   1      44.009  27.431  35.055  1.00  0.00     0.134 A 
ATOM     84  F   UNL A   1      45.927  29.872  33.169  1.00  0.00    -0.206 F 
ATOM     85  C   UNL A   1      46.652  28.089  34.513  1.00  0.00     0.040 A 
ATOM     86  C   UNL A   1      45.041  26.687  35.628  1.00  0.00     0.040 A 
ATOM     87  F   UNL A   1      42.747  27.077  35.340  1.00  0.00    -0.206 F 
ATOM     88  C   UNL A   1      46.367  27.012  35.350  1.00  0.00     0.006 A 
ENDBRANCH  64  81
ENDBRANCH  38  39
ENDBRANCH  30  33
ENDBRANCH  28  29
ENDBRANCH  27  28
ENDBRANCH   1  27
TORSDOF 14
ENDMDL
MODEL 3
REMARK VINA RESULT:     -12.1      5.062      9.982
REMARK SMILES COc1ccc2c(c1OC)C(=O)O[C@@H]2Nc1nonc1C(=O)NCCCNC(=O)c1ccc(-c2c3nc(c(-c4c(F)cccc4F)c4ccc([nH]4)c(-c4c(F)cccc4F)c4nc(c(-c5c(F)cccc5F)c5ccc2[nH]5)C=C4)C=C3)cc1
REMARK SMILES IDX 24 1 23 2 21 3 22 4 20 6 16 7 17 8 18 9 19 10 15 11 14 13
REMARK SMILES IDX 3 14 4 15 8 16 5 17 7 18 6 19 11 20 12 21 13 22 2 23 1 24
REMARK SMILES IDX 9 25 10 26 25 27 26 28 27 29 28 30 29 32 30 33 31 34 83 35
REMARK SMILES IDX 32 36 82 37 33 38 34 39 35 40 76 41 36 42 81 43 75 44 77 45
REMARK SMILES IDX 37 46 80 47 74 48 73 49 38 51 64 52 47 53 63 54 48 55 51 56
REMARK SMILES IDX 62 57 78 58 49 59 50 60 61 62 79 63 52 64 39 65 40 66 45 67
REMARK SMILES IDX 41 68 42 69 44 70 46 71 43 72 65 73 66 74 71 75 67 76 68 77
REMARK SMILES IDX 70 78 72 79 69 80 53 81 54 82 59 83 55 84 56 85 58 86 60 87
REMARK SMILES IDX 57 88
REMARK H PARENT 23 5 15 12 27 31 77 50 51 61
REMARK Flexibility Score: inf
ROOT
ATOM      1  C   UNL A   1      31.912  29.964  25.750  1.00  0.00     0.118 C 
ENDROOT
BRANCH   1   2
ATOM      2  N   UNL A   1      32.650  29.582  24.566  1.00  0.00    -0.350 N 
ATOM      3  C   UNL A   1      32.131  28.912  23.475  1.00  0.00     0.277 C 
ATOM      4  O   UNL A   1      32.894  28.626  22.552  1.00  0.00    -0.267 OA
ATOM      5  H   UNL A   1      33.605  29.821  24.536  1.00  0.00     0.163 HD
BRANCH   3   6
ATOM      6  C   UNL A   1      30.725  28.530  23.483  1.00  0.00     0.216 A 
ATOM      7  C   UNL A   1      30.080  27.318  23.849  1.00  0.00     0.207 A 
ATOM      8  N   UNL A   1      28.799  27.385  23.486  1.00  0.00    -0.031 NA
ATOM      9  O   UNL A   1      28.617  28.668  22.995  1.00  0.00    -0.242 OA
ATOM     10  N   UNL A   1      29.805  29.380  23.002  1.00  0.00    -0.042 NA
BRANCH   7  11
ATOM     11  N   UNL A   1      30.641  26.181  24.339  1.00  0.00    -0.326 N 
ATOM     12  H   UNL A   1      30.538  25.340  23.838  1.00  0.00     0.166 HD
BRANCH  11  13
ATOM     13  C   UNL A   1      31.385  26.179  25.577  1.00  0.00     0.307 C 
ATOM     14  C   UNL A   1      34.871  23.746  25.673  1.00  0.00     0.161 A 
ATOM     15  C   UNL A   1      34.946  24.971  24.979  1.00  0.00     0.051 A 
ATOM     16  C   UNL A   1      33.683  23.366  26.339  1.00  0.00     0.175 A 
ATOM     17  C   UNL A   1      33.845  25.818  24.884  1.00  0.00     0.014 A 
ATOM     18  C   UNL A   1      32.581  24.227  26.208  1.00  0.00     0.114 A 
ATOM     19  C   UNL A   1      32.661  25.422  25.487  1.00  0.00     0.032 A 
ATOM     20  C   UNL A   1      31.228  24.201  26.778  1.00  0.00     0.344 C 
ATOM     21  O   UNL A   1      30.663  23.313  27.391  1.00  0.00    -0.246 OA
ATOM     22  O   UNL A   1      30.627  25.392  26.494  1.00  0.00    -0.434 OA
BRANCH  14  23
ATOM     23  O   UNL A   1      36.060  23.054  25.634  1.00  0.00    -0.493 OA
ATOM     24  C   UNL A   1      37.241  23.736  26.046  1.00  0.00     0.278 C 
ENDBRANCH  14  23
BRANCH  16  25
ATOM     25  O   UNL A   1      33.789  22.260  27.130  1.00  0.00    -0.492 OA
ATOM     26  C   UNL A   1      33.505  20.977  26.598  1.00  0.00     0.278 C 
ENDBRANCH  16  25
ENDBRANCH  11  13
ENDBRANCH   7  11
ENDBRANCH   3   6
ENDBRANCH   1   2
BRANCH   1  27
ATOM     27  C   UNL A   1      32.634  29.753  27.064  1.00  0.00     0.042 C 
BRANCH  27  28
ATOM     28  C   UNL A   1      33.563  30.898  27.450  1.00  0.00     0.118 C 
BRANCH  28  29
ATOM     29  N   UNL A   1      32.939  32.205  27.303  1.00  0.00    -0.352 N 
ATOM     30  C   UNL A   1      33.119  33.405  27.932  1.00  0.00     0.251 C 
ATOM     31  H   UNL A   1      32.242  32.229  26.607  1.00  0.00     0.163 HD
ATOM     32  O   UNL A   1      32.237  34.251  27.794  1.00  0.00    -0.269 OA
BRANCH  30  33
ATOM     33  C   UNL A   1      34.266  33.684  28.825  1.00  0.00     0.039 A 
ATOM     34  C   UNL A   1      34.125  33.343  30.175  1.00  0.00     0.014 A 
ATOM     35  C   UNL A   1      35.495  34.142  28.362  1.00  0.00     0.014 A 
ATOM     36  C   UNL A   1      35.250  33.225  30.977  1.00  0.00     0.010 A 
ATOM     37  C   UNL A   1      36.633  33.857  29.098  1.00  0.00     0.010 A 
ATOM     38  C   UNL A   1      36.514  33.317  30.382  1.00  0.00    -0.014 A 
BRANCH  38  39
ATOM     39  C   UNL A   1      37.676  32.661  31.020  1.00  0.00     0.031 A 
ATOM     40  C   UNL A   1      38.331  31.478  30.386  1.00  0.00     0.074 A 
ATOM     41  C   UNL A   1      38.055  33.108  32.237  1.00  0.00     0.049 A 
ATOM     42  N   UNL A   1      39.338  30.769  30.824  1.00  0.00    -0.248 NA
ATOM     43  C   UNL A   1      37.763  31.001  29.116  1.00  0.00     0.031 C 
ATOM     44  C   UNL A   1      37.399  34.191  32.985  1.00  0.00     0.029 A 
ATOM     45  N   UNL A   1      39.082  32.729  33.061  1.00  0.00    -0.354 N 
ATOM     46  C   UNL A   1      39.516  29.760  29.890  1.00  0.00     0.074 A 
ATOM     47  C   UNL A   1      38.476  29.906  28.898  1.00  0.00     0.031 C 
ATOM     48  C   UNL A   1      38.082  34.436  34.111  1.00  0.00     0.029 A 
ATOM     49  C   UNL A   1      39.180  33.488  34.205  1.00  0.00     0.049 A 
ATOM     50  H   UNL A   1      39.690  31.983  32.855  1.00  0.00     0.167 HD
ATOM     51  C   UNL A   1      40.484  28.815  29.858  1.00  0.00     0.037 A 
ATOM     52  C   UNL A   1      40.059  33.421  35.220  1.00  0.00     0.037 A 
ATOM     53  C   UNL A   1      41.509  28.699  30.861  1.00  0.00     0.049 A 
ATOM     54  C   UNL A   1      41.131  32.374  35.147  1.00  0.00     0.074 A 
ATOM     55  C   UNL A   1      42.569  27.814  30.915  1.00  0.00     0.029 A 
ATOM     56  N   UNL A   1      41.594  29.498  31.996  1.00  0.00    -0.354 N 
ATOM     57  N   UNL A   1      41.344  31.478  34.213  1.00  0.00    -0.248 NA
ATOM     58  C   UNL A   1      42.085  32.326  36.260  1.00  0.00     0.031 C 
ATOM     59  C   UNL A   1      43.264  28.041  32.107  1.00  0.00     0.029 A 
ATOM     60  C   UNL A   1      42.676  29.109  32.768  1.00  0.00     0.049 A 
ATOM     61  H   UNL A   1      40.976  30.231  32.218  1.00  0.00     0.167 HD
ATOM     62  C   UNL A   1      42.467  30.771  34.613  1.00  0.00     0.074 A 
ATOM     63  C   UNL A   1      42.904  31.363  35.863  1.00  0.00     0.031 C 
ATOM     64  C   UNL A   1      43.081  29.724  34.008  1.00  0.00     0.037 A 
BRANCH  51  65
ATOM     65  C   UNL A   1      40.461  27.843  28.714  1.00  0.00     0.057 A 
ATOM     66  C   UNL A   1      39.738  26.643  28.774  1.00  0.00     0.134 A 
ATOM     67  C   UNL A   1      41.172  28.107  27.536  1.00  0.00     0.134 A 
ATOM     68  F   UNL A   1      39.049  26.318  29.879  1.00  0.00    -0.206 F 
ATOM     69  C   UNL A   1      39.749  25.728  27.720  1.00  0.00     0.040 A 
ATOM     70  C   UNL A   1      41.166  27.213  26.464  1.00  0.00     0.040 A 
ATOM     71  F   UNL A   1      41.887  29.234  27.410  1.00  0.00    -0.206 F 
ATOM     72  C   UNL A   1      40.461  26.014  26.558  1.00  0.00     0.006 A 
ENDBRANCH  51  65
BRANCH  52  73
ATOM     73  C   UNL A   1      39.973  34.373  36.360  1.00  0.00     0.057 A 
ATOM     74  C   UNL A   1      40.622  35.613  36.321  1.00  0.00     0.134 A 
ATOM     75  C   UNL A   1      39.236  34.072  37.513  1.00  0.00     0.134 A 
ATOM     76  F   UNL A   1      41.349  35.961  35.250  1.00  0.00    -0.206 F 
ATOM     77  C   UNL A   1      40.565  36.505  37.396  1.00  0.00     0.040 A 
ATOM     78  C   UNL A   1      39.145  34.966  38.581  1.00  0.00     0.040 A 
ATOM     79  F   UNL A   1      38.575  32.909  37.610  1.00  0.00    -0.206 F 
ATOM     80  C   UNL A   1      39.821  36.183  38.529  1.00  0.00     0.006 A 
ENDBRANCH  52  73
BRANCH  64  81
ATOM     81  C   UNL A   1      44.307  29.184  34.680  1.00  0.00     0.057 A 
ATOM     82  C   UNL A   1      45.584  29.693  34.411  1.00  0.00     0.134 A 
ATOM     83  C   UNL A   1      44.201  28.165  35.633  1.00  0.00     0.134 A 
ATOM     84  F   UNL A   1      45.752  30.660  33.497  1.00  0.00    -0.206 F 
ATOM     85  C   UNL A   1      46.716  29.187  35.050  1.00  0.00     0.040 A 
ATOM     86  C   UNL A   1      45.322  27.674  36.302  1.00  0.00     0.040 A 
ATOM     87  F   UNL A   1      43.005  27.641  35.942  1.00  0.00    -0.206 F 
ATOM     88  C   UNL A   1      46.585  28.181  36.005  1.00  0.00     0.006 A 
ENDBRANCH  64  81
ENDBRANCH  38  39
ENDBRANCH  30  33
ENDBRANCH  28  29
ENDBRANCH  27  28
ENDBRANCH   1  27
TORSDOF 14
ENDMDL
