MODEL 1
REMARK VINA RESULT:     -10.4      0.000      0.000
REMARK SMILES O=C(COC[C@@H]1CCCCO1)NCCCNC(=O)c1ccc(-c2c3nc(c(-c4c(F)cccc4F)c4ccc([nH]4)c(-c4c(F)cccc4F)c4nc(c(-c5c(F)cccc5F)c5ccc2[nH]5)C=C4)C=C3)cc1
REMARK SMILES IDX 13 1 12 2 1 3 2 4 3 6 4 7 5 8 6 9 7 10 11 11 8 12 10 13 9 14
REMARK SMILES IDX 14 15 15 16 16 17 17 18 18 20 19 21 20 22 72 23 21 24 71 25
REMARK SMILES IDX 22 26 23 27 24 28 65 29 25 30 70 31 64 32 66 33 26 34 69 35
REMARK SMILES IDX 63 36 62 37 27 39 53 40 36 41 52 42 37 43 40 44 51 45 67 46
REMARK SMILES IDX 38 47 39 48 50 50 68 51 41 52 28 53 29 54 34 55 30 56 31 57
REMARK SMILES IDX 33 58 35 59 32 60 54 61 55 62 60 63 56 64 57 65 59 66 61 67
REMARK SMILES IDX 58 68 42 69 43 70 48 71 44 72 45 73 47 74 49 75 46 76
REMARK H PARENT 12 5 16 19 66 38 40 49
REMARK Flexibility Score: inf
ROOT
ATOM      1  C   UNL A   1      41.490  19.421  26.113  1.00  0.00     0.117 C 
ENDROOT
BRANCH   1   2
ATOM      2  N   UNL A   1      42.707  19.630  25.360  1.00  0.00    -0.354 N 
ATOM      3  O   UNL A   1      43.860  17.852  26.254  1.00  0.00    -0.272 OA
ATOM      4  C   UNL A   1      43.790  18.782  25.457  1.00  0.00     0.246 C 
ATOM      5  H   UNL A   1      42.765  20.406  24.757  1.00  0.00     0.163 HD
BRANCH   4   6
ATOM      6  C   UNL A   1      44.932  19.137  24.498  1.00  0.00     0.260 C 
BRANCH   6   7
ATOM      7  O   UNL A   1      45.997  19.909  25.038  1.00  0.00    -0.369 OA
BRANCH   7   8
ATOM      8  C   UNL A   1      45.667  21.261  25.370  1.00  0.00     0.192 C 
BRANCH   8   9
ATOM      9  C   UNL A   1      45.301  22.174  24.182  1.00  0.00     0.144 C 
ATOM     10  C   UNL A   1      45.988  23.542  24.210  1.00  0.00     0.034 C 
ATOM     11  O   UNL A   1      43.879  22.315  24.048  1.00  0.00    -0.376 OA
ATOM     12  C   UNL A   1      45.365  24.476  25.240  1.00  0.00     0.005 C 
ATOM     13  C   UNL A   1      43.261  23.130  25.041  1.00  0.00     0.160 C 
ATOM     14  C   UNL A   1      43.853  24.530  25.059  1.00  0.00     0.029 C 
ENDBRANCH   8   9
ENDBRANCH   7   8
ENDBRANCH   6   7
ENDBRANCH   4   6
ENDBRANCH   1   2
BRANCH   1  15
ATOM     15  C   UNL A   1      41.537  20.036  27.507  1.00  0.00     0.042 C 
BRANCH  15  16
ATOM     16  C   UNL A   1      40.959  21.446  27.598  1.00  0.00     0.118 C 
BRANCH  16  17
ATOM     17  N   UNL A   1      39.808  21.650  26.730  1.00  0.00    -0.352 N 
ATOM     18  C   UNL A   1      39.122  22.790  26.404  1.00  0.00     0.251 C 
ATOM     19  H   UNL A   1      39.467  20.831  26.305  1.00  0.00     0.163 HD
ATOM     20  O   UNL A   1      38.089  22.695  25.740  1.00  0.00    -0.269 OA
BRANCH  18  21
ATOM     21  C   UNL A   1      39.579  24.128  26.844  1.00  0.00     0.039 A 
ATOM     22  C   UNL A   1      39.326  24.514  28.165  1.00  0.00     0.014 A 
ATOM     23  C   UNL A   1      40.185  25.032  25.966  1.00  0.00     0.014 A 
ATOM     24  C   UNL A   1      39.718  25.778  28.617  1.00  0.00     0.010 A 
ATOM     25  C   UNL A   1      40.636  26.267  26.434  1.00  0.00     0.010 A 
ATOM     26  C   UNL A   1      40.394  26.659  27.759  1.00  0.00    -0.014 A 
BRANCH  26  27
ATOM     27  C   UNL A   1      40.824  28.002  28.228  1.00  0.00     0.031 A 
ATOM     28  C   UNL A   1      42.283  28.370  28.236  1.00  0.00     0.074 A 
ATOM     29  C   UNL A   1      39.909  28.878  28.685  1.00  0.00     0.049 A 
ATOM     30  N   UNL A   1      42.856  29.472  28.652  1.00  0.00    -0.248 NA
ATOM     31  C   UNL A   1      43.224  27.358  27.732  1.00  0.00     0.031 C 
ATOM     32  C   UNL A   1      38.469  28.633  28.769  1.00  0.00     0.029 A 
ATOM     33  N   UNL A   1      40.059  30.152  29.173  1.00  0.00    -0.354 N 
ATOM     34  C   UNL A   1      44.220  29.277  28.479  1.00  0.00     0.074 A 
ATOM     35  C   UNL A   1      44.393  27.938  27.961  1.00  0.00     0.031 C 
ATOM     36  C   UNL A   1      37.865  29.729  29.258  1.00  0.00     0.029 A 
ATOM     37  C   UNL A   1      38.876  30.741  29.548  1.00  0.00     0.049 A 
ATOM     38  H   UNL A   1      40.932  30.602  29.248  1.00  0.00     0.167 HD
ATOM     39  C   UNL A   1      45.237  30.143  28.711  1.00  0.00     0.037 A 
ATOM     40  C   UNL A   1      38.633  31.960  30.064  1.00  0.00     0.037 A 
ATOM     41  C   UNL A   1      45.068  31.488  29.192  1.00  0.00     0.049 A 
ATOM     42  C   UNL A   1      39.776  32.910  30.289  1.00  0.00     0.074 A 
ATOM     43  C   UNL A   1      46.034  32.456  29.407  1.00  0.00     0.029 A 
ATOM     44  N   UNL A   1      43.849  32.057  29.526  1.00  0.00    -0.354 N 
ATOM     45  N   UNL A   1      41.055  32.732  30.070  1.00  0.00    -0.248 NA
ATOM     46  C   UNL A   1      39.439  34.238  30.824  1.00  0.00     0.031 C 
ATOM     47  C   UNL A   1      45.402  33.604  29.897  1.00  0.00     0.029 A 
ATOM     48  C   UNL A   1      44.039  33.362  29.954  1.00  0.00     0.049 A 
ATOM     49  H   UNL A   1      42.978  31.604  29.468  1.00  0.00     0.167 HD
ATOM     50  C   UNL A   1      41.671  33.929  30.410  1.00  0.00     0.074 A 
ATOM     51  C   UNL A   1      40.624  34.830  30.843  1.00  0.00     0.031 C 
ATOM     52  C   UNL A   1      42.986  34.252  30.366  1.00  0.00     0.037 A 
BRANCH  39  53
ATOM     53  C   UNL A   1      46.630  29.656  28.437  1.00  0.00     0.057 A 
ATOM     54  C   UNL A   1      47.232  29.813  27.182  1.00  0.00     0.134 A 
ATOM     55  C   UNL A   1      47.387  29.048  29.447  1.00  0.00     0.134 A 
ATOM     56  F   UNL A   1      46.555  30.375  26.170  1.00  0.00    -0.206 F 
ATOM     57  C   UNL A   1      48.529  29.360  26.933  1.00  0.00     0.040 A 
ATOM     58  C   UNL A   1      48.694  28.613  29.217  1.00  0.00     0.040 A 
ATOM     59  F   UNL A   1      46.872  28.873  30.673  1.00  0.00    -0.206 F 
ATOM     60  C   UNL A   1      49.265  28.763  27.954  1.00  0.00     0.006 A 
ENDBRANCH  39  53
BRANCH  40  61
ATOM     61  C   UNL A   1      37.241  32.371  30.372  1.00  0.00     0.057 A 
ATOM     62  C   UNL A   1      36.693  32.157  31.642  1.00  0.00     0.134 A 
ATOM     63  C   UNL A   1      36.427  32.975  29.409  1.00  0.00     0.134 A 
ATOM     64  F   UNL A   1      37.421  31.563  32.599  1.00  0.00    -0.206 F 
ATOM     65  C   UNL A   1      35.377  32.513  31.939  1.00  0.00     0.040 A 
ATOM     66  C   UNL A   1      35.116  33.356  29.698  1.00  0.00     0.040 A 
ATOM     67  F   UNL A   1      36.897  33.211  28.175  1.00  0.00    -0.206 F 
ATOM     68  C   UNL A   1      34.587  33.119  30.966  1.00  0.00     0.006 A 
ENDBRANCH  40  61
BRANCH  52  69
ATOM     69  C   UNL A   1      43.362  35.650  30.755  1.00  0.00     0.057 A 
ATOM     70  C   UNL A   1      43.668  35.994  32.078  1.00  0.00     0.134 A 
ATOM     71  C   UNL A   1      43.450  36.659  29.786  1.00  0.00     0.134 A 
ATOM     72  F   UNL A   1      43.588  35.075  33.053  1.00  0.00    -0.206 F 
ATOM     73  C   UNL A   1      44.029  37.295  32.427  1.00  0.00     0.040 A 
ATOM     74  C   UNL A   1      43.832  37.958  30.119  1.00  0.00     0.040 A 
ATOM     75  F   UNL A   1      43.176  36.393  28.500  1.00  0.00    -0.206 F 
ATOM     76  C   UNL A   1      44.117  38.280  31.445  1.00  0.00     0.006 A 
ENDBRANCH  52  69
ENDBRANCH  26  27
ENDBRANCH  18  21
ENDBRANCH  16  17
ENDBRANCH  15  16
ENDBRANCH   1  15
TORSDOF 13
ENDMDL
MODEL 2
REMARK VINA RESULT:     -10.2      5.025     11.500
REMARK SMILES O=C(COC[C@@H]1CCCCO1)NCCCNC(=O)c1ccc(-c2c3nc(c(-c4c(F)cccc4F)c4ccc([nH]4)c(-c4c(F)cccc4F)c4nc(c(-c5c(F)cccc5F)c5ccc2[nH]5)C=C4)C=C3)cc1
REMARK SMILES IDX 13 1 12 2 1 3 2 4 3 6 4 7 5 8 6 9 7 10 11 11 8 12 10 13 9 14
REMARK SMILES IDX 14 15 15 16 16 17 17 18 18 20 19 21 20 22 72 23 21 24 71 25
REMARK SMILES IDX 22 26 23 27 24 28 65 29 25 30 70 31 64 32 66 33 26 34 69 35
REMARK SMILES IDX 63 36 62 37 27 39 53 40 36 41 52 42 37 43 40 44 51 45 67 46
REMARK SMILES IDX 38 47 39 48 50 50 68 51 41 52 28 53 29 54 34 55 30 56 31 57
REMARK SMILES IDX 33 58 35 59 32 60 54 61 55 62 60 63 56 64 57 65 59 66 61 67
REMARK SMILES IDX 58 68 42 69 43 70 48 71 44 72 45 73 47 74 49 75 46 76
REMARK H PARENT 12 5 16 19 66 38 40 49
REMARK Flexibility Score: inf
ROOT
ATOM      1  C   UNL A   1      33.269  35.237  28.727  1.00  0.00     0.117 C 
ENDROOT
BRANCH   1   2
ATOM      2  N   UNL A   1      33.271  35.033  30.159  1.00  0.00    -0.354 N 
ATOM      3  O   UNL A   1      32.855  37.224  30.721  1.00  0.00    -0.272 OA
ATOM      4  C   UNL A   1      33.007  36.051  31.049  1.00  0.00     0.246 C 
ATOM      5  H   UNL A   1      33.469  34.134  30.509  1.00  0.00     0.163 HD
BRANCH   4   6
ATOM      6  C   UNL A   1      32.965  35.590  32.511  1.00  0.00     0.260 C 
BRANCH   6   7
ATOM      7  O   UNL A   1      32.941  34.185  32.732  1.00  0.00    -0.369 OA
BRANCH   7   8
ATOM      8  C   UNL A   1      34.126  33.637  33.319  1.00  0.00     0.192 C 
BRANCH   8   9
ATOM      9  C   UNL A   1      35.170  33.081  32.329  1.00  0.00     0.144 C 
ATOM     10  C   UNL A   1      36.061  31.981  32.913  1.00  0.00     0.034 C 
ATOM     11  O   UNL A   1      35.960  34.132  31.754  1.00  0.00    -0.376 OA
ATOM     12  C   UNL A   1      37.118  32.540  33.858  1.00  0.00     0.005 C 
ATOM     13  C   UNL A   1      36.911  34.720  32.639  1.00  0.00     0.160 C 
ATOM     14  C   UNL A   1      37.875  33.681  33.189  1.00  0.00     0.029 C 
ENDBRANCH   8   9
ENDBRANCH   7   8
ENDBRANCH   6   7
ENDBRANCH   4   6
ENDBRANCH   1   2
BRANCH   1  15
ATOM     15  C   UNL A   1      34.409  34.514  28.019  1.00  0.00     0.042 C 
BRANCH  15  16
ATOM     16  C   UNL A   1      34.741  33.139  28.593  1.00  0.00     0.118 C 
BRANCH  16  17
ATOM     17  N   UNL A   1      34.068  32.051  27.898  1.00  0.00    -0.352 N 
ATOM     18  C   UNL A   1      34.488  30.781  27.600  1.00  0.00     0.251 C 
ATOM     19  H   UNL A   1      33.157  32.264  27.592  1.00  0.00     0.163 HD
ATOM     20  O   UNL A   1      33.780  30.072  26.883  1.00  0.00    -0.269 OA
BRANCH  18  21
ATOM     21  C   UNL A   1      35.775  30.248  28.101  1.00  0.00     0.039 A 
ATOM     22  C   UNL A   1      35.810  29.706  29.392  1.00  0.00     0.014 A 
ATOM     23  C   UNL A   1      36.955  30.333  27.357  1.00  0.00     0.014 A 
ATOM     24  C   UNL A   1      37.009  29.213  29.915  1.00  0.00     0.010 A 
ATOM     25  C   UNL A   1      38.137  29.780  27.853  1.00  0.00     0.010 A 
ATOM     26  C   UNL A   1      38.180  29.228  29.142  1.00  0.00    -0.014 A 
BRANCH  26  27
ATOM     27  C   UNL A   1      39.459  28.699  29.683  1.00  0.00     0.031 A 
ATOM     28  C   UNL A   1      40.084  29.325  30.900  1.00  0.00     0.074 A 
ATOM     29  C   UNL A   1      40.082  27.681  29.057  1.00  0.00     0.049 A 
ATOM     30  N   UNL A   1      41.217  29.035  31.490  1.00  0.00    -0.248 NA
ATOM     31  C   UNL A   1      39.352  30.438  31.521  1.00  0.00     0.031 C 
ATOM     32  C   UNL A   1      39.605  27.011  27.847  1.00  0.00     0.029 A 
ATOM     33  N   UNL A   1      41.257  27.037  29.353  1.00  0.00    -0.354 N 
ATOM     34  C   UNL A   1      41.341  29.940  32.535  1.00  0.00     0.074 A 
ATOM     35  C   UNL A   1      40.191  30.816  32.474  1.00  0.00     0.031 C 
ATOM     36  C   UNL A   1      40.469  26.037  27.515  1.00  0.00     0.029 A 
ATOM     37  C   UNL A   1      41.572  26.032  28.472  1.00  0.00     0.049 A 
ATOM     38  H   UNL A   1      41.822  27.273  30.125  1.00  0.00     0.167 HD
ATOM     39  C   UNL A   1      42.314  30.023  33.476  1.00  0.00     0.037 A 
ATOM     40  C   UNL A   1      42.628  25.199  28.439  1.00  0.00     0.037 A 
ATOM     41  C   UNL A   1      43.440  29.132  33.563  1.00  0.00     0.049 A 
ATOM     42  C   UNL A   1      43.681  25.296  29.507  1.00  0.00     0.074 A 
ATOM     43  C   UNL A   1      44.449  29.105  34.510  1.00  0.00     0.029 A 
ATOM     44  N   UNL A   1      43.703  28.105  32.669  1.00  0.00    -0.354 N 
ATOM     45  N   UNL A   1      43.757  26.122  30.520  1.00  0.00    -0.248 NA
ATOM     46  C   UNL A   1      44.791  24.335  29.431  1.00  0.00     0.031 C 
ATOM     47  C   UNL A   1      45.337  28.078  34.176  1.00  0.00     0.029 A 
ATOM     48  C   UNL A   1      44.862  27.443  33.040  1.00  0.00     0.049 A 
ATOM     49  H   UNL A   1      43.148  27.879  31.889  1.00  0.00     0.167 HD
ATOM     50  C   UNL A   1      44.902  25.763  31.220  1.00  0.00     0.074 A 
ATOM     51  C   UNL A   1      45.486  24.638  30.518  1.00  0.00     0.031 C 
ATOM     52  C   UNL A   1      45.422  26.316  32.342  1.00  0.00     0.037 A 
BRANCH  39  53
ATOM     53  C   UNL A   1      42.194  31.118  34.494  1.00  0.00     0.057 A 
ATOM     54  C   UNL A   1      41.463  30.948  35.677  1.00  0.00     0.134 A 
ATOM     55  C   UNL A   1      42.839  32.347  34.303  1.00  0.00     0.134 A 
ATOM     56  F   UNL A   1      40.811  29.799  35.913  1.00  0.00    -0.206 F 
ATOM     57  C   UNL A   1      41.356  31.969  36.622  1.00  0.00     0.040 A 
ATOM     58  C   UNL A   1      42.759  33.368  35.253  1.00  0.00     0.040 A 
ATOM     59  F   UNL A   1      43.560  32.574  33.195  1.00  0.00    -0.206 F 
ATOM     60  C   UNL A   1      42.010  33.181  36.413  1.00  0.00     0.006 A 
ENDBRANCH  39  53
BRANCH  40  61
ATOM     61  C   UNL A   1      42.728  24.171  27.373  1.00  0.00     0.057 A 
ATOM     62  C   UNL A   1      43.336  24.463  26.147  1.00  0.00     0.134 A 
ATOM     63  C   UNL A   1      42.215  22.882  27.551  1.00  0.00     0.134 A 
ATOM     64  F   UNL A   1      43.828  25.689  25.913  1.00  0.00    -0.206 F 
ATOM     65  C   UNL A   1      43.414  23.515  25.126  1.00  0.00     0.040 A 
ATOM     66  C   UNL A   1      42.305  21.917  26.547  1.00  0.00     0.040 A 
ATOM     67  F   UNL A   1      41.626  22.540  28.706  1.00  0.00    -0.206 F 
ATOM     68  C   UNL A   1      42.901  22.235  25.328  1.00  0.00     0.006 A 
ENDBRANCH  40  61
BRANCH  52  69
ATOM     69  C   UNL A   1      46.660  25.685  32.906  1.00  0.00     0.057 A 
ATOM     70  C   UNL A   1      46.600  24.682  33.881  1.00  0.00     0.134 A 
ATOM     71  C   UNL A   1      47.926  26.064  32.442  1.00  0.00     0.134 A 
ATOM     72  F   UNL A   1      45.417  24.285  34.376  1.00  0.00    -0.206 F 
ATOM     73  C   UNL A   1      47.758  24.092  34.390  1.00  0.00     0.040 A 
ATOM     74  C   UNL A   1      49.089  25.466  32.927  1.00  0.00     0.040 A 
ATOM     75  F   UNL A   1      48.051  27.015  31.503  1.00  0.00    -0.206 F 
ATOM     76  C   UNL A   1      49.007  24.480  33.909  1.00  0.00     0.006 A 
ENDBRANCH  52  69
ENDBRANCH  26  27
ENDBRANCH  18  21
ENDBRANCH  16  17
ENDBRANCH  15  16
ENDBRANCH   1  15
TORSDOF 13
ENDMDL
MODEL 3
REMARK VINA RESULT:     -10.1      0.337      6.677
REMARK SMILES O=C(COC[C@@H]1CCCCO1)NCCCNC(=O)c1ccc(-c2c3nc(c(-c4c(F)cccc4F)c4ccc([nH]4)c(-c4c(F)cccc4F)c4nc(c(-c5c(F)cccc5F)c5ccc2[nH]5)C=C4)C=C3)cc1
REMARK SMILES IDX 13 1 12 2 1 3 2 4 3 6 4 7 5 8 6 9 7 10 11 11 8 12 10 13 9 14
REMARK SMILES IDX 14 15 15 16 16 17 17 18 18 20 19 21 20 22 72 23 21 24 71 25
REMARK SMILES IDX 22 26 23 27 24 28 65 29 25 30 70 31 64 32 66 33 26 34 69 35
REMARK SMILES IDX 63 36 62 37 27 39 53 40 36 41 52 42 37 43 40 44 51 45 67 46
REMARK SMILES IDX 38 47 39 48 50 50 68 51 41 52 28 53 29 54 34 55 30 56 31 57
REMARK SMILES IDX 33 58 35 59 32 60 54 61 55 62 60 63 56 64 57 65 59 66 61 67
REMARK SMILES IDX 58 68 42 69 43 70 48 71 44 72 45 73 47 74 49 75 46 76
REMARK H PARENT 12 5 16 19 66 38 40 49
REMARK Flexibility Score: inf
ROOT
ATOM      1  C   UNL A   1      41.341  19.440  26.103  1.00  0.00     0.117 C 
ENDROOT
BRANCH   1   2
ATOM      2  N   UNL A   1      42.570  19.653  25.371  1.00  0.00    -0.354 N 
ATOM      3  O   UNL A   1      43.712  17.875  26.279  1.00  0.00    -0.272 OA
ATOM      4  C   UNL A   1      43.653  18.807  25.483  1.00  0.00     0.246 C 
ATOM      5  H   UNL A   1      42.636  20.431  24.770  1.00  0.00     0.163 HD
BRANCH   4   6
ATOM      6  C   UNL A   1      44.810  19.167  24.544  1.00  0.00     0.260 C 
BRANCH   6   7
ATOM      7  O   UNL A   1      45.874  19.923  25.108  1.00  0.00    -0.369 OA
BRANCH   7   8
ATOM      8  C   UNL A   1      45.554  21.278  25.441  1.00  0.00     0.192 C 
BRANCH   8   9
ATOM      9  C   UNL A   1      45.262  22.211  24.247  1.00  0.00     0.144 C 
ATOM     10  C   UNL A   1      45.959  23.572  24.335  1.00  0.00     0.034 C 
ATOM     11  O   UNL A   1      43.852  22.368  24.036  1.00  0.00    -0.376 OA
ATOM     12  C   UNL A   1      45.287  24.496  25.342  1.00  0.00     0.005 C 
ATOM     13  C   UNL A   1      43.185  23.174  25.005  1.00  0.00     0.160 C 
ATOM     14  C   UNL A   1      43.788  24.568  25.077  1.00  0.00     0.029 C 
ENDBRANCH   8   9
ENDBRANCH   7   8
ENDBRANCH   6   7
ENDBRANCH   4   6
ENDBRANCH   1   2
BRANCH   1  15
ATOM     15  C   UNL A   1      41.379  20.018  27.513  1.00  0.00     0.042 C 
BRANCH  15  16
ATOM     16  C   UNL A   1      40.841  21.442  27.629  1.00  0.00     0.118 C 
BRANCH  16  17
ATOM     17  N   UNL A   1      39.711  21.701  26.748  1.00  0.00    -0.352 N 
ATOM     18  C   UNL A   1      39.072  22.871  26.429  1.00  0.00     0.251 C 
ATOM     19  H   UNL A   1      39.344  20.901  26.308  1.00  0.00     0.163 HD
ATOM     20  O   UNL A   1      38.046  22.823  25.750  1.00  0.00    -0.269 OA
BRANCH  18  21
ATOM     21  C   UNL A   1      39.573  24.184  26.892  1.00  0.00     0.039 A 
ATOM     22  C   UNL A   1      39.390  24.527  28.237  1.00  0.00     0.014 A 
ATOM     23  C   UNL A   1      40.152  25.109  26.019  1.00  0.00     0.014 A 
ATOM     24  C   UNL A   1      39.825  25.767  28.713  1.00  0.00     0.010 A 
ATOM     25  C   UNL A   1      40.646  26.320  26.507  1.00  0.00     0.010 A 
ATOM     26  C   UNL A   1      40.475  26.668  27.855  1.00  0.00    -0.014 A 
BRANCH  26  27
ATOM     27  C   UNL A   1      40.951  27.986  28.350  1.00  0.00     0.031 A 
ATOM     28  C   UNL A   1      39.965  29.015  28.833  1.00  0.00     0.074 A 
ATOM     29  C   UNL A   1      42.266  28.276  28.328  1.00  0.00     0.049 A 
ATOM     30  N   UNL A   1      40.183  30.235  29.254  1.00  0.00    -0.248 NA
ATOM     31  C   UNL A   1      38.546  28.630  28.816  1.00  0.00     0.031 C 
ATOM     32  C   UNL A   1      43.323  27.384  27.848  1.00  0.00     0.029 A 
ATOM     33  N   UNL A   1      42.937  29.409  28.716  1.00  0.00    -0.354 N 
ATOM     34  C   UNL A   1      38.931  30.768  29.534  1.00  0.00     0.074 A 
ATOM     35  C   UNL A   1      37.956  29.755  29.193  1.00  0.00     0.031 C 
ATOM     36  C   UNL A   1      44.510  27.997  27.989  1.00  0.00     0.029 A 
ATOM     37  C   UNL A   1      44.297  29.331  28.541  1.00  0.00     0.049 A 
ATOM     38  H   UNL A   1      42.485  30.204  29.083  1.00  0.00     0.167 HD
ATOM     39  C   UNL A   1      38.621  31.983  30.047  1.00  0.00     0.037 A 
ATOM     40  C   UNL A   1      45.263  30.231  28.800  1.00  0.00     0.037 A 
ATOM     41  C   UNL A   1      39.588  32.980  30.421  1.00  0.00     0.049 A 
ATOM     42  C   UNL A   1      44.895  31.563  29.392  1.00  0.00     0.074 A 
ATOM     43  C   UNL A   1      39.372  34.220  30.997  1.00  0.00     0.029 A 
ATOM     44  N   UNL A   1      40.959  32.847  30.260  1.00  0.00    -0.354 N 
ATOM     45  N   UNL A   1      43.712  32.032  29.700  1.00  0.00    -0.248 NA
ATOM     46  C   UNL A   1      46.001  32.488  29.680  1.00  0.00     0.031 C 
ATOM     47  C   UNL A   1      40.611  34.849  31.162  1.00  0.00     0.029 A 
ATOM     48  C   UNL A   1      41.601  33.986  30.720  1.00  0.00     0.049 A 
ATOM     49  H   UNL A   1      41.409  32.060  29.878  1.00  0.00     0.167 HD
ATOM     50  C   UNL A   1      43.930  33.290  30.247  1.00  0.00     0.074 A 
ATOM     51  C   UNL A   1      45.362  33.508  30.234  1.00  0.00     0.031 C 
ATOM     52  C   UNL A   1      43.026  34.183  30.717  1.00  0.00     0.037 A 
BRANCH  39  53
ATOM     53  C   UNL A   1      37.167  32.297  30.240  1.00  0.00     0.057 A 
ATOM     54  C   UNL A   1      36.495  31.978  31.427  1.00  0.00     0.134 A 
ATOM     55  C   UNL A   1      36.436  32.951  29.240  1.00  0.00     0.134 A 
ATOM     56  F   UNL A   1      37.135  31.339  32.419  1.00  0.00    -0.206 F 
ATOM     57  C   UNL A   1      35.142  32.273  31.603  1.00  0.00     0.040 A 
ATOM     58  C   UNL A   1      35.088  33.274  29.413  1.00  0.00     0.040 A 
ATOM     59  F   UNL A   1      37.020  33.290  28.081  1.00  0.00    -0.206 F 
ATOM     60  C   UNL A   1      34.437  32.928  30.596  1.00  0.00     0.006 A 
ENDBRANCH  39  53
BRANCH  40  61
ATOM     61  C   UNL A   1      46.683  29.891  28.535  1.00  0.00     0.057 A 
ATOM     62  C   UNL A   1      47.262  30.149  27.287  1.00  0.00     0.134 A 
ATOM     63  C   UNL A   1      47.488  29.299  29.512  1.00  0.00     0.134 A 
ATOM     64  F   UNL A   1      46.532  30.697  26.304  1.00  0.00    -0.206 F 
ATOM     65  C   UNL A   1      48.588  29.810  27.014  1.00  0.00     0.040 A 
ATOM     66  C   UNL A   1      48.821  28.975  29.260  1.00  0.00     0.040 A 
ATOM     67  F   UNL A   1      46.991  29.033  30.730  1.00  0.00    -0.206 F 
ATOM     68  C   UNL A   1      49.373  29.226  28.005  1.00  0.00     0.006 A 
ENDBRANCH  40  61
BRANCH  52  69
ATOM     69  C   UNL A   1      43.560  35.458  31.296  1.00  0.00     0.057 A 
ATOM     70  C   UNL A   1      43.774  36.596  30.509  1.00  0.00     0.134 A 
ATOM     71  C   UNL A   1      43.833  35.557  32.667  1.00  0.00     0.134 A 
ATOM     72  F   UNL A   1      43.544  36.561  29.187  1.00  0.00    -0.206 F 
ATOM     73  C   UNL A   1      44.258  37.782  31.061  1.00  0.00     0.040 A 
ATOM     74  C   UNL A   1      44.296  36.744  33.234  1.00  0.00     0.040 A 
ATOM     75  F   UNL A   1      43.643  34.504  33.477  1.00  0.00    -0.206 F 
ATOM     76  C   UNL A   1      44.515  37.860  32.429  1.00  0.00     0.006 A 
ENDBRANCH  52  69
ENDBRANCH  26  27
ENDBRANCH  18  21
ENDBRANCH  16  17
ENDBRANCH  15  16
ENDBRANCH   1  15
TORSDOF 13
ENDMDL
