MODEL 1
REMARK VINA RESULT:     -14.4      0.000      0.000
REMARK SMILES NC(=O)c1cc(NC(=O)/C=C\C(=O)NCCCNC(=O)c2ccc(-c3c4nc(c(-c5c(F)cccc5F)c5ccc([nH]5)c(-c5c(F)cccc5F)c5nc(c(-c6c(F)cccc6F)c6ccc3[nH]6)C=C5)C=C4)cc2)ccc1N1CCOCC1
REMARK SMILES IDX 15 1 14 2 12 3 13 4 11 6 10 7 8 8 7 9 9 11 6 12 4 13 5 14
REMARK SMILES IDX 77 15 76 16 75 17 2 18 1 19 3 22 78 23 79 24 83 25 80 26
REMARK SMILES IDX 82 27 81 28 16 29 17 30 18 31 19 32 20 34 21 35 22 36 74 37
REMARK SMILES IDX 23 38 73 39 24 40 25 41 26 42 67 43 27 44 72 45 66 46 68 47
REMARK SMILES IDX 28 48 71 49 65 50 64 51 29 53 55 54 38 55 54 56 39 57 42 58
REMARK SMILES IDX 53 59 69 60 40 61 41 62 52 64 70 65 43 66 30 67 31 68 36 69
REMARK SMILES IDX 32 70 33 71 35 72 37 73 34 74 56 75 57 76 62 77 58 78 59 79
REMARK SMILES IDX 61 80 63 81 60 82 44 83 45 84 50 85 46 86 47 87 49 88 51 89
REMARK SMILES IDX 48 90
REMARK H PARENT 14 5 7 10 1 20 1 21 18 33 68 52 42 63
REMARK Flexibility Score: inf
ROOT
ATOM      1  C   UNL A   1      36.327  20.778  24.886  1.00  0.00     0.118 C 
ENDROOT
BRANCH   1   2
ATOM      2  N   UNL A   1      34.731  20.180  24.966  1.00  0.00    -0.352 N 
ATOM      3  C   UNL A   1      32.834  20.671  24.748  1.00  0.00     0.244 C 
ATOM      4  O   UNL A   1      31.782  20.008  24.976  1.00  0.00    -0.270 OA
ATOM      5  H   UNL A   1      34.775  19.229  25.215  1.00  0.00     0.163 HD
BRANCH   3   6
ATOM      6  C   UNL A   1      32.135  22.089  24.045  1.00  0.00     0.077 C 
ATOM      7  C   UNL A   1      31.319  23.105  24.401  1.00  0.00     0.077 C 
BRANCH   7   8
ATOM      8  C   UNL A   1      30.619  23.259  25.705  1.00  0.00     0.248 C 
ATOM      9  N   UNL A   1      30.386  24.544  26.071  1.00  0.00    -0.322 N 
ATOM     10  H   UNL A   1      30.250  24.783  27.017  1.00  0.00     0.170 HD
ATOM     11  O   UNL A   1      30.408  22.302  26.437  1.00  0.00    -0.270 OA
BRANCH   9  12
ATOM     12  C   UNL A   1      30.342  25.513  25.086  1.00  0.00     0.042 A 
ATOM     13  C   UNL A   1      31.493  28.297  24.087  1.00  0.00     0.064 A 
ATOM     14  C   UNL A   1      31.775  26.689  24.910  1.00  0.00     0.042 A 
ATOM     15  C   UNL A   1      29.867  28.714  23.368  1.00  0.00     0.050 A 
ATOM     16  C   UNL A   1      28.497  27.487  23.477  1.00  0.00     0.029 A 
ATOM     17  C   UNL A   1      28.723  25.919  24.362  1.00  0.00     0.028 A 
BRANCH  13  18
ATOM     18  C   UNL A   1      32.310  29.354  24.715  1.00  0.00     0.250 C 
ATOM     19  N   UNL A   1      33.455  29.635  24.024  1.00  0.00    -0.366 N 
ATOM     20  H   UNL A   1      34.073  30.326  24.356  1.00  0.00     0.159 HD
ATOM     21  H   UNL A   1      33.660  29.147  23.195  1.00  0.00     0.159 HD
ATOM     22  O   UNL A   1      31.917  30.013  25.664  1.00  0.00    -0.269 OA
ENDBRANCH  13  18
BRANCH  15  23
ATOM     23  N   UNL A   1      29.538  30.013  22.957  1.00  0.00    -0.366 N 
ATOM     24  C   UNL A   1      29.133  31.136  23.829  1.00  0.00     0.145 C 
ATOM     25  C   UNL A   1      29.494  30.353  21.523  1.00  0.00     0.145 C 
ATOM     26  C   UNL A   1      27.811  31.779  23.334  1.00  0.00     0.181 C 
ATOM     27  C   UNL A   1      28.128  30.953  21.159  1.00  0.00     0.181 C 
ATOM     28  O   UNL A   1      27.859  32.125  21.940  1.00  0.00    -0.378 OA
ENDBRANCH  15  23
ENDBRANCH   9  12
ENDBRANCH   7   8
ENDBRANCH   3   6
ENDBRANCH   1   2
BRANCH   1  29
ATOM     29  C   UNL A   1      37.568  19.836  24.982  1.00  0.00     0.042 C 
BRANCH  29  30
ATOM     30  C   UNL A   1      38.868  20.447  25.498  1.00  0.00     0.118 C 
BRANCH  30  31
ATOM     31  N   UNL A   1      39.834  19.410  25.794  1.00  0.00    -0.352 N 
ATOM     32  C   UNL A   1      41.167  19.563  26.070  1.00  0.00     0.251 C 
ATOM     33  H   UNL A   1      39.493  18.486  25.798  1.00  0.00     0.163 HD
ATOM     34  O   UNL A   1      41.935  18.620  25.910  1.00  0.00    -0.269 OA
BRANCH  32  35
ATOM     35  C   UNL A   1      41.680  20.856  26.578  1.00  0.00     0.039 A 
ATOM     36  C   UNL A   1      41.516  21.158  27.931  1.00  0.00     0.014 A 
ATOM     37  C   UNL A   1      42.226  21.807  25.707  1.00  0.00     0.014 A 
ATOM     38  C   UNL A   1      41.889  22.414  28.413  1.00  0.00     0.010 A 
ATOM     39  C   UNL A   1      42.648  23.044  26.201  1.00  0.00     0.010 A 
ATOM     40  C   UNL A   1      42.461  23.369  27.554  1.00  0.00    -0.014 A 
BRANCH  40  41
ATOM     41  C   UNL A   1      42.834  24.711  28.070  1.00  0.00     0.031 A 
ATOM     42  C   UNL A   1      41.782  25.769  28.282  1.00  0.00     0.074 A 
ATOM     43  C   UNL A   1      44.124  24.977  28.351  1.00  0.00     0.049 A 
ATOM     44  N   UNL A   1      41.919  26.993  28.727  1.00  0.00    -0.248 NA
ATOM     45  C   UNL A   1      40.398  25.411  27.934  1.00  0.00     0.031 C 
ATOM     46  C   UNL A   1      45.237  24.046  28.160  1.00  0.00     0.029 A 
ATOM     47  N   UNL A   1      44.719  26.105  28.857  1.00  0.00    -0.354 N 
ATOM     48  C   UNL A   1      40.644  27.545  28.718  1.00  0.00     0.074 A 
ATOM     49  C   UNL A   1      39.756  26.547  28.162  1.00  0.00     0.031 C 
ATOM     50  C   UNL A   1      46.374  24.630  28.570  1.00  0.00     0.029 A 
ATOM     51  C   UNL A   1      46.080  25.990  29.008  1.00  0.00     0.049 A 
ATOM     52  H   UNL A   1      44.218  26.920  29.091  1.00  0.00     0.167 HD
ATOM     53  C   UNL A   1      40.245  28.764  29.156  1.00  0.00     0.037 A 
ATOM     54  C   UNL A   1      46.991  26.884  29.436  1.00  0.00     0.037 A 
ATOM     55  C   UNL A   1      41.133  29.753  29.710  1.00  0.00     0.049 A 
ATOM     56  C   UNL A   1      46.525  28.248  29.870  1.00  0.00     0.074 A 
ATOM     57  C   UNL A   1      40.824  31.006  30.210  1.00  0.00     0.029 A 
ATOM     58  N   UNL A   1      42.507  29.604  29.831  1.00  0.00    -0.354 N 
ATOM     59  N   UNL A   1      45.307  28.734  29.912  1.00  0.00    -0.248 NA
ATOM     60  C   UNL A   1      47.560  29.188  30.324  1.00  0.00     0.031 C 
ATOM     61  C   UNL A   1      42.015  31.639  30.573  1.00  0.00     0.029 A 
ATOM     62  C   UNL A   1      43.061  30.754  30.371  1.00  0.00     0.049 A 
ATOM     63  H   UNL A   1      43.013  28.800  29.573  1.00  0.00     0.167 HD
ATOM     64  C   UNL A   1      45.427  30.018  30.428  1.00  0.00     0.074 A 
ATOM     65  C   UNL A   1      46.832  30.228  30.704  1.00  0.00     0.031 C 
ATOM     66  C   UNL A   1      44.462  30.944  30.650  1.00  0.00     0.037 A 
BRANCH  53  67
ATOM     67  C   UNL A   1      38.783  29.102  29.060  1.00  0.00     0.057 A 
ATOM     68  C   UNL A   1      37.929  29.009  30.167  1.00  0.00     0.134 A 
ATOM     69  C   UNL A   1      38.236  29.586  27.865  1.00  0.00     0.134 A 
ATOM     70  F   UNL A   1      38.384  28.545  31.341  1.00  0.00    -0.206 F 
ATOM     71  C   UNL A   1      36.581  29.365  30.083  1.00  0.00     0.040 A 
ATOM     72  C   UNL A   1      36.898  29.976  27.777  1.00  0.00     0.040 A 
ATOM     73  F   UNL A   1      38.997  29.709  26.766  1.00  0.00    -0.206 F 
ATOM     74  C   UNL A   1      36.065  29.860  28.888  1.00  0.00     0.006 A 
ENDBRANCH  53  67
BRANCH  54  75
ATOM     75  C   UNL A   1      48.436  26.532  29.466  1.00  0.00     0.057 A 
ATOM     76  C   UNL A   1      49.015  25.913  30.581  1.00  0.00     0.134 A 
ATOM     77  C   UNL A   1      49.283  26.847  28.396  1.00  0.00     0.134 A 
ATOM     78  F   UNL A   1      48.262  25.598  31.645  1.00  0.00    -0.206 F 
ATOM     79  C   UNL A   1      50.386  25.657  30.647  1.00  0.00     0.040 A 
ATOM     80  C   UNL A   1      50.649  26.563  28.434  1.00  0.00     0.040 A 
ATOM     81  F   UNL A   1      48.793  27.431  27.293  1.00  0.00    -0.206 F 
ATOM     82  C   UNL A   1      51.206  25.980  29.568  1.00  0.00     0.006 A 
ENDBRANCH  54  75
BRANCH  66  83
ATOM     83  C   UNL A   1      44.885  32.248  31.265  1.00  0.00     0.057 A 
ATOM     84  C   UNL A   1      45.237  33.360  30.488  1.00  0.00     0.134 A 
ATOM     85  C   UNL A   1      44.909  32.401  32.658  1.00  0.00     0.134 A 
ATOM     86  F   UNL A   1      45.246  33.279  29.149  1.00  0.00    -0.206 F 
ATOM     87  C   UNL A   1      45.631  34.564  31.074  1.00  0.00     0.040 A 
ATOM     88  C   UNL A   1      45.264  33.612  33.255  1.00  0.00     0.040 A 
ATOM     89  F   UNL A   1      44.570  31.383  33.462  1.00  0.00    -0.206 F 
ATOM     90  C   UNL A   1      45.638  34.694  32.462  1.00  0.00     0.006 A 
ENDBRANCH  66  83
ENDBRANCH  40  41
ENDBRANCH  32  35
ENDBRANCH  30  31
ENDBRANCH  29  30
ENDBRANCH   1  29
TORSDOF 14
ENDMDL
MODEL 2
REMARK VINA RESULT:     -14.3      0.498      6.175
REMARK SMILES NC(=O)c1cc(NC(=O)/C=C\C(=O)NCCCNC(=O)c2ccc(-c3c4nc(c(-c5c(F)cccc5F)c5ccc([nH]5)c(-c5c(F)cccc5F)c5nc(c(-c6c(F)cccc6F)c6ccc3[nH]6)C=C5)C=C4)cc2)ccc1N1CCOCC1
REMARK SMILES IDX 15 1 14 2 12 3 13 4 11 6 10 7 8 8 7 9 9 11 6 12 4 13 5 14
REMARK SMILES IDX 77 15 76 16 75 17 2 18 1 19 3 22 78 23 79 24 83 25 80 26
REMARK SMILES IDX 82 27 81 28 16 29 17 30 18 31 19 32 20 34 21 35 22 36 74 37
REMARK SMILES IDX 23 38 73 39 24 40 25 41 26 42 67 43 27 44 72 45 66 46 68 47
REMARK SMILES IDX 28 48 71 49 65 50 64 51 29 53 55 54 38 55 54 56 39 57 42 58
REMARK SMILES IDX 53 59 69 60 40 61 41 62 52 64 70 65 43 66 30 67 31 68 36 69
REMARK SMILES IDX 32 70 33 71 35 72 37 73 34 74 56 75 57 76 62 77 58 78 59 79
REMARK SMILES IDX 61 80 63 81 60 82 44 83 45 84 50 85 46 86 47 87 49 88 51 89
REMARK SMILES IDX 48 90
REMARK H PARENT 14 5 7 10 1 20 1 21 18 33 68 52 42 63
REMARK Flexibility Score: inf
ROOT
ATOM      1  C   UNL A   1      36.366  20.653  24.923  1.00  0.00     0.118 C 
ENDROOT
BRANCH   1   2
ATOM      2  N   UNL A   1      34.761  20.082  25.004  1.00  0.00    -0.352 N 
ATOM      3  C   UNL A   1      32.872  20.605  24.784  1.00  0.00     0.244 C 
ATOM      4  O   UNL A   1      31.809  19.961  25.013  1.00  0.00    -0.270 OA
ATOM      5  H   UNL A   1      34.788  19.131  25.255  1.00  0.00     0.163 HD
BRANCH   3   6
ATOM      6  C   UNL A   1      32.197  22.032  24.078  1.00  0.00     0.077 C 
ATOM      7  C   UNL A   1      31.392  23.059  24.429  1.00  0.00     0.077 C 
BRANCH   7   8
ATOM      8  C   UNL A   1      30.683  23.220  25.727  1.00  0.00     0.248 C 
ATOM      9  N   UNL A   1      30.439  24.507  26.080  1.00  0.00    -0.322 N 
ATOM     10  H   UNL A   1      30.296  24.753  27.022  1.00  0.00     0.170 HD
ATOM     11  O   UNL A   1      30.474  22.268  26.466  1.00  0.00    -0.270 OA
BRANCH   9  12
ATOM     12  C   UNL A   1      30.394  25.466  25.085  1.00  0.00     0.042 A 
ATOM     13  C   UNL A   1      31.566  28.225  24.043  1.00  0.00     0.064 A 
ATOM     14  C   UNL A   1      31.839  26.622  24.879  1.00  0.00     0.042 A 
ATOM     15  C   UNL A   1      29.937  28.655  23.341  1.00  0.00     0.050 A 
ATOM     16  C   UNL A   1      28.553  27.447  23.480  1.00  0.00     0.029 A 
ATOM     17  C   UNL A   1      28.771  25.885  24.378  1.00  0.00     0.028 A 
BRANCH  13  18
ATOM     18  C   UNL A   1      32.405  29.278  24.649  1.00  0.00     0.250 C 
ATOM     19  N   UNL A   1      33.538  29.546  23.935  1.00  0.00    -0.366 N 
ATOM     20  H   UNL A   1      34.168  30.233  24.251  1.00  0.00     0.159 HD
ATOM     21  H   UNL A   1      33.723  29.052  23.104  1.00  0.00     0.159 HD
ATOM     22  O   UNL A   1      32.036  29.945  25.602  1.00  0.00    -0.269 OA
ENDBRANCH  13  18
BRANCH  15  23
ATOM     23  N   UNL A   1      29.619  29.954  22.920  1.00  0.00    -0.366 N 
ATOM     24  C   UNL A   1      29.240  31.091  23.786  1.00  0.00     0.145 C 
ATOM     25  C   UNL A   1      29.559  30.280  21.484  1.00  0.00     0.145 C 
ATOM     26  C   UNL A   1      27.919  31.746  23.303  1.00  0.00     0.181 C 
ATOM     27  C   UNL A   1      28.196  30.894  21.132  1.00  0.00     0.181 C 
ATOM     28  O   UNL A   1      27.952  32.077  21.904  1.00  0.00    -0.378 OA
ENDBRANCH  15  23
ENDBRANCH   9  12
ENDBRANCH   7   8
ENDBRANCH   3   6
ENDBRANCH   1   2
BRANCH   1  29
ATOM     29  C   UNL A   1      37.591  19.693  25.047  1.00  0.00     0.042 C 
BRANCH  29  30
ATOM     30  C   UNL A   1      38.932  20.320  25.421  1.00  0.00     0.118 C 
BRANCH  30  31
ATOM     31  N   UNL A   1      39.886  19.295  25.790  1.00  0.00    -0.352 N 
ATOM     32  C   UNL A   1      41.212  19.458  26.095  1.00  0.00     0.251 C 
ATOM     33  H   UNL A   1      39.542  18.373  25.825  1.00  0.00     0.163 HD
ATOM     34  O   UNL A   1      41.981  18.507  25.998  1.00  0.00    -0.269 OA
BRANCH  32  35
ATOM     35  C   UNL A   1      41.714  20.771  26.559  1.00  0.00     0.039 A 
ATOM     36  C   UNL A   1      41.632  21.079  27.918  1.00  0.00     0.014 A 
ATOM     37  C   UNL A   1      42.170  21.732  25.648  1.00  0.00     0.014 A 
ATOM     38  C   UNL A   1      41.994  22.350  28.366  1.00  0.00     0.010 A 
ATOM     39  C   UNL A   1      42.583  22.985  26.104  1.00  0.00     0.010 A 
ATOM     40  C   UNL A   1      42.476  23.316  27.464  1.00  0.00    -0.014 A 
BRANCH  40  41
ATOM     41  C   UNL A   1      42.838  24.674  27.945  1.00  0.00     0.031 A 
ATOM     42  C   UNL A   1      44.282  25.053  28.149  1.00  0.00     0.074 A 
ATOM     43  C   UNL A   1      41.864  25.569  28.196  1.00  0.00     0.049 A 
ATOM     44  N   UNL A   1      44.788  26.190  28.559  1.00  0.00    -0.248 NA
ATOM     45  C   UNL A   1      45.289  24.016  27.873  1.00  0.00     0.031 C 
ATOM     46  C   UNL A   1      40.429  25.312  28.064  1.00  0.00     0.029 A 
ATOM     47  N   UNL A   1      41.929  26.876  28.612  1.00  0.00    -0.354 N 
ATOM     48  C   UNL A   1      46.165  26.006  28.582  1.00  0.00     0.074 A 
ATOM     49  C   UNL A   1      46.414  24.630  28.209  1.00  0.00     0.031 C 
ATOM     50  C   UNL A   1      39.752  26.431  28.366  1.00  0.00     0.029 A 
ATOM     51  C   UNL A   1      40.698  27.470  28.756  1.00  0.00     0.049 A 
ATOM     52  H   UNL A   1      42.778  27.343  28.789  1.00  0.00     0.167 HD
ATOM     53  C   UNL A   1      47.136  26.908  28.864  1.00  0.00     0.037 A 
ATOM     54  C   UNL A   1      40.369  28.708  29.172  1.00  0.00     0.037 A 
ATOM     55  C   UNL A   1      46.883  28.278  29.233  1.00  0.00     0.049 A 
ATOM     56  C   UNL A   1      41.468  29.674  29.527  1.00  0.00     0.074 A 
ATOM     57  C   UNL A   1      47.798  29.279  29.509  1.00  0.00     0.029 A 
ATOM     58  N   UNL A   1      45.623  28.837  29.383  1.00  0.00    -0.354 N 
ATOM     59  N   UNL A   1      42.768  29.503  29.485  1.00  0.00    -0.248 NA
ATOM     60  C   UNL A   1      41.054  31.009  29.979  1.00  0.00     0.031 C 
ATOM     61  C   UNL A   1      47.092  30.424  29.889  1.00  0.00     0.029 A 
ATOM     62  C   UNL A   1      45.737  30.161  29.777  1.00  0.00     0.049 A 
ATOM     63  H   UNL A   1      44.773  28.364  29.232  1.00  0.00     0.167 HD
ATOM     64  C   UNL A   1      43.323  30.716  29.872  1.00  0.00     0.074 A 
ATOM     65  C   UNL A   1      42.221  31.620  30.120  1.00  0.00     0.031 C 
ATOM     66  C   UNL A   1      44.630  31.052  30.011  1.00  0.00     0.037 A 
BRANCH  53  67
ATOM     67  C   UNL A   1      48.566  26.451  28.784  1.00  0.00     0.057 A 
ATOM     68  C   UNL A   1      49.311  26.558  27.602  1.00  0.00     0.134 A 
ATOM     69  C   UNL A   1      49.226  25.957  29.917  1.00  0.00     0.134 A 
ATOM     70  F   UNL A   1      48.740  27.015  26.476  1.00  0.00    -0.206 F 
ATOM     71  C   UNL A   1      50.652  26.171  27.544  1.00  0.00     0.040 A 
ATOM     72  C   UNL A   1      50.575  25.598  29.880  1.00  0.00     0.040 A 
ATOM     73  F   UNL A   1      48.577  25.835  31.085  1.00  0.00    -0.206 F 
ATOM     74  C   UNL A   1      51.290  25.699  28.689  1.00  0.00     0.006 A 
ENDBRANCH  53  67
BRANCH  54  75
ATOM     75  C   UNL A   1      38.942  29.107  29.290  1.00  0.00     0.057 A 
ATOM     76  C   UNL A   1      38.234  28.949  30.489  1.00  0.00     0.134 A 
ATOM     77  C   UNL A   1      38.236  29.617  28.193  1.00  0.00     0.134 A 
ATOM     78  F   UNL A   1      38.847  28.453  31.574  1.00  0.00    -0.206 F 
ATOM     79  C   UNL A   1      36.873  29.244  30.580  1.00  0.00     0.040 A 
ATOM     80  C   UNL A   1      36.884  29.951  28.280  1.00  0.00     0.040 A 
ATOM     81  F   UNL A   1      38.855  29.805  27.018  1.00  0.00    -0.206 F 
ATOM     82  C   UNL A   1      36.195  29.750  29.473  1.00  0.00     0.006 A 
ENDBRANCH  54  75
BRANCH  66  83
ATOM     83  C   UNL A   1      44.939  32.469  30.405  1.00  0.00     0.057 A 
ATOM     84  C   UNL A   1      45.125  32.848  31.741  1.00  0.00     0.134 A 
ATOM     85  C   UNL A   1      45.084  33.462  29.428  1.00  0.00     0.134 A 
ATOM     86  F   UNL A   1      44.990  31.950  32.729  1.00  0.00    -0.206 F 
ATOM     87  C   UNL A   1      45.410  34.168  32.092  1.00  0.00     0.040 A 
ATOM     88  C   UNL A   1      45.406  34.778  29.763  1.00  0.00     0.040 A 
ATOM     89  F   UNL A   1      44.934  33.168  28.128  1.00  0.00    -0.206 F 
ATOM     90  C   UNL A   1      45.558  35.136  31.101  1.00  0.00     0.006 A 
ENDBRANCH  66  83
ENDBRANCH  40  41
ENDBRANCH  32  35
ENDBRANCH  30  31
ENDBRANCH  29  30
ENDBRANCH   1  29
TORSDOF 14
ENDMDL
MODEL 3
REMARK VINA RESULT:     -14.2      1.011      1.696
REMARK SMILES NC(=O)c1cc(NC(=O)/C=C\C(=O)NCCCNC(=O)c2ccc(-c3c4nc(c(-c5c(F)cccc5F)c5ccc([nH]5)c(-c5c(F)cccc5F)c5nc(c(-c6c(F)cccc6F)c6ccc3[nH]6)C=C5)C=C4)cc2)ccc1N1CCOCC1
REMARK SMILES IDX 15 1 14 2 12 3 13 4 11 6 10 7 8 8 7 9 9 11 6 12 4 13 5 14
REMARK SMILES IDX 77 15 76 16 75 17 2 18 1 19 3 22 78 23 79 24 83 25 80 26
REMARK SMILES IDX 82 27 81 28 16 29 17 30 18 31 19 32 20 34 21 35 22 36 74 37
REMARK SMILES IDX 23 38 73 39 24 40 25 41 26 42 67 43 27 44 72 45 66 46 68 47
REMARK SMILES IDX 28 48 71 49 65 50 64 51 29 53 55 54 38 55 54 56 39 57 42 58
REMARK SMILES IDX 53 59 69 60 40 61 41 62 52 64 70 65 43 66 30 67 31 68 36 69
REMARK SMILES IDX 32 70 33 71 35 72 37 73 34 74 56 75 57 76 62 77 58 78 59 79
REMARK SMILES IDX 61 80 63 81 60 82 44 83 45 84 50 85 46 86 47 87 49 88 51 89
REMARK SMILES IDX 48 90
REMARK H PARENT 14 5 7 10 1 20 1 21 18 33 68 52 42 63
REMARK Flexibility Score: inf
ROOT
ATOM      1  C   UNL A   1      36.635  20.521  24.890  1.00  0.00     0.118 C 
ENDROOT
BRANCH   1   2
ATOM      2  N   UNL A   1      35.052  19.892  24.984  1.00  0.00    -0.352 N 
ATOM      3  C   UNL A   1      33.143  20.356  24.823  1.00  0.00     0.244 C 
ATOM      4  O   UNL A   1      32.107  19.667  25.051  1.00  0.00    -0.270 OA
ATOM      5  H   UNL A   1      35.117  18.935  25.200  1.00  0.00     0.163 HD
BRANCH   3   6
ATOM      6  C   UNL A   1      32.404  21.783  24.182  1.00  0.00     0.077 C 
ATOM      7  C   UNL A   1      31.786  22.898  24.630  1.00  0.00     0.077 C 
BRANCH   7   8
ATOM      8  C   UNL A   1      31.450  23.212  26.045  1.00  0.00     0.248 C 
ATOM      9  N   UNL A   1      31.390  24.538  26.329  1.00  0.00    -0.322 N 
ATOM     10  H   UNL A   1      31.513  24.862  27.250  1.00  0.00     0.170 HD
ATOM     11  O   UNL A   1      31.377  22.337  26.896  1.00  0.00    -0.270 OA
BRANCH   9  12
ATOM     12  C   UNL A   1      31.154  25.424  25.295  1.00  0.00     0.042 A 
ATOM     13  C   UNL A   1      32.058  28.122  23.890  1.00  0.00     0.064 A 
ATOM     14  C   UNL A   1      32.511  26.587  24.772  1.00  0.00     0.042 A 
ATOM     15  C   UNL A   1      30.323  28.475  23.444  1.00  0.00     0.050 A 
ATOM     16  C   UNL A   1      29.016  27.257  23.894  1.00  0.00     0.029 A 
ATOM     17  C   UNL A   1      29.424  25.766  24.845  1.00  0.00     0.028 A 
BRANCH  13  18
ATOM     18  C   UNL A   1      32.956  29.229  24.275  1.00  0.00     0.250 C 
ATOM     19  N   UNL A   1      33.907  29.506  23.334  1.00  0.00    -0.366 N 
ATOM     20  H   UNL A   1      34.558  30.228  23.491  1.00  0.00     0.159 HD
ATOM     21  H   UNL A   1      33.940  28.985  22.500  1.00  0.00     0.159 HD
ATOM     22  O   UNL A   1      32.760  29.922  25.260  1.00  0.00    -0.269 OA
ENDBRANCH  13  18
BRANCH  15  23
ATOM     23  N   UNL A   1      29.902  29.736  22.998  1.00  0.00    -0.366 N 
ATOM     24  C   UNL A   1      29.582  30.906  23.843  1.00  0.00     0.145 C 
ATOM     25  C   UNL A   1      29.658  29.977  21.564  1.00  0.00     0.145 C 
ATOM     26  C   UNL A   1      28.186  31.485  23.489  1.00  0.00     0.181 C 
ATOM     27  C   UNL A   1      28.239  30.521  21.349  1.00  0.00     0.181 C 
ATOM     28  O   UNL A   1      28.039  31.736  22.082  1.00  0.00    -0.378 OA
ENDBRANCH  15  23
ENDBRANCH   9  12
ENDBRANCH   7   8
ENDBRANCH   3   6
ENDBRANCH   1   2
BRANCH   1  29
ATOM     29  C   UNL A   1      37.896  19.610  25.029  1.00  0.00     0.042 C 
BRANCH  29  30
ATOM     30  C   UNL A   1      39.113  20.208  25.729  1.00  0.00     0.118 C 
BRANCH  30  31
ATOM     31  N   UNL A   1      40.105  19.184  25.986  1.00  0.00    -0.352 N 
ATOM     32  C   UNL A   1      41.460  19.344  26.103  1.00  0.00     0.251 C 
ATOM     33  H   UNL A   1      39.765  18.266  26.087  1.00  0.00     0.163 HD
ATOM     34  O   UNL A   1      42.205  18.386  25.922  1.00  0.00    -0.269 OA
BRANCH  32  35
ATOM     35  C   UNL A   1      42.027  20.663  26.464  1.00  0.00     0.039 A 
ATOM     36  C   UNL A   1      42.015  21.054  27.805  1.00  0.00     0.014 A 
ATOM     37  C   UNL A   1      42.474  21.551  25.479  1.00  0.00     0.014 A 
ATOM     38  C   UNL A   1      42.440  22.335  28.159  1.00  0.00     0.010 A 
ATOM     39  C   UNL A   1      42.949  22.814  25.840  1.00  0.00     0.010 A 
ATOM     40  C   UNL A   1      42.913  23.227  27.181  1.00  0.00    -0.014 A 
BRANCH  40  41
ATOM     41  C   UNL A   1      43.343  24.598  27.563  1.00  0.00     0.031 A 
ATOM     42  C   UNL A   1      42.322  25.647  27.921  1.00  0.00     0.074 A 
ATOM     43  C   UNL A   1      44.656  24.897  27.591  1.00  0.00     0.049 A 
ATOM     44  N   UNL A   1      42.509  26.892  28.282  1.00  0.00    -0.248 NA
ATOM     45  C   UNL A   1      40.907  25.252  27.849  1.00  0.00     0.031 C 
ATOM     46  C   UNL A   1      45.737  23.975  27.238  1.00  0.00     0.029 A 
ATOM     47  N   UNL A   1      45.306  26.056  27.933  1.00  0.00    -0.354 N 
ATOM     48  C   UNL A   1      41.241  27.423  28.485  1.00  0.00     0.074 A 
ATOM     49  C   UNL A   1      40.290  26.387  28.144  1.00  0.00     0.031 C 
ATOM     50  C   UNL A   1      46.916  24.595  27.408  1.00  0.00     0.029 A 
ATOM     51  C   UNL A   1      46.675  25.968  27.836  1.00  0.00     0.049 A 
ATOM     52  H   UNL A   1      44.837  26.872  28.221  1.00  0.00     0.167 HD
ATOM     53  C   UNL A   1      40.900  28.654  28.938  1.00  0.00     0.037 A 
ATOM     54  C   UNL A   1      47.627  26.896  28.051  1.00  0.00     0.037 A 
ATOM     55  C   UNL A   1      41.851  29.681  29.277  1.00  0.00     0.049 A 
ATOM     56  C   UNL A   1      47.215  28.270  28.506  1.00  0.00     0.074 A 
ATOM     57  C   UNL A   1      41.608  30.950  29.773  1.00  0.00     0.029 A 
ATOM     58  N   UNL A   1      43.227  29.559  29.151  1.00  0.00    -0.354 N 
ATOM     59  N   UNL A   1      46.015  28.738  28.751  1.00  0.00    -0.248 NA
ATOM     60  C   UNL A   1      48.293  29.246  28.722  1.00  0.00     0.031 C 
ATOM     61  C   UNL A   1      42.831  31.618  29.885  1.00  0.00     0.029 A 
ATOM     62  C   UNL A   1      43.843  30.741  29.531  1.00  0.00     0.049 A 
ATOM     63  H   UNL A   1      43.696  28.753  28.837  1.00  0.00     0.167 HD
ATOM     64  C   UNL A   1      46.196  30.046  29.182  1.00  0.00     0.074 A 
ATOM     65  C   UNL A   1      47.622  30.290  29.187  1.00  0.00     0.031 C 
ATOM     66  C   UNL A   1      45.266  30.966  29.540  1.00  0.00     0.037 A 
BRANCH  53  67
ATOM     67  C   UNL A   1      39.438  28.964  29.098  1.00  0.00     0.057 A 
ATOM     68  C   UNL A   1      38.651  29.394  28.021  1.00  0.00     0.134 A 
ATOM     69  C   UNL A   1      38.794  28.770  30.327  1.00  0.00     0.134 A 
ATOM     70  F   UNL A   1      39.205  29.608  26.817  1.00  0.00    -0.206 F 
ATOM     71  C   UNL A   1      37.284  29.640  28.165  1.00  0.00     0.040 A 
ATOM     72  C   UNL A   1      37.421  28.982  30.475  1.00  0.00     0.040 A 
ATOM     73  F   UNL A   1      39.483  28.352  31.400  1.00  0.00    -0.206 F 
ATOM     74  C   UNL A   1      36.664  29.424  29.393  1.00  0.00     0.006 A 
ENDBRANCH  53  67
BRANCH  54  75
ATOM     75  C   UNL A   1      49.060  26.568  27.830  1.00  0.00     0.057 A 
ATOM     76  C   UNL A   1      49.879  26.124  28.875  1.00  0.00     0.134 A 
ATOM     77  C   UNL A   1      49.658  26.734  26.574  1.00  0.00     0.134 A 
ATOM     78  F   UNL A   1      49.373  25.959  30.106  1.00  0.00    -0.206 F 
ATOM     79  C   UNL A   1      51.244  25.896  28.691  1.00  0.00     0.040 A 
ATOM     80  C   UNL A   1      51.013  26.474  26.366  1.00  0.00     0.040 A 
ATOM     81  F   UNL A   1      48.930  27.145  25.525  1.00  0.00    -0.206 F 
ATOM     82  C   UNL A   1      51.813  26.068  27.431  1.00  0.00     0.006 A 
ENDBRANCH  54  75
BRANCH  66  83
ATOM     83  C   UNL A   1      45.763  32.303  30.012  1.00  0.00     0.057 A 
ATOM     84  C   UNL A   1      46.077  32.551  31.354  1.00  0.00     0.134 A 
ATOM     85  C   UNL A   1      45.960  33.349  29.100  1.00  0.00     0.134 A 
ATOM     86  F   UNL A   1      45.903  31.598  32.282  1.00  0.00    -0.206 F 
ATOM     87  C   UNL A   1      46.536  33.800  31.778  1.00  0.00     0.040 A 
ATOM     88  C   UNL A   1      46.453  34.590  29.505  1.00  0.00     0.040 A 
ATOM     89  F   UNL A   1      45.692  33.178  27.797  1.00  0.00    -0.206 F 
ATOM     90  C   UNL A   1      46.732  34.821  30.850  1.00  0.00     0.006 A 
ENDBRANCH  66  83
ENDBRANCH  40  41
ENDBRANCH  32  35
ENDBRANCH  30  31
ENDBRANCH  29  30
ENDBRANCH   1  29
TORSDOF 14
ENDMDL
