MODEL 1
REMARK VINA RESULT:     -12.3      0.000      0.000
REMARK SMILES C[C@@H]1OCC[C@@H]1c1nnc(-c2cccc(C(=O)NCCCNC(=O)c3ccc(-c4c5nc(c(-c6c(F)cccc6F)c6ccc([nH]6)c(-c6c(F)cccc6F)c6nc(c(-c7c(F)cccc7F)c7ccc4[nH]7)C=C6)C=C5)cc3)c2)o1
REMARK SMILES IDX 20 1 19 2 18 3 16 4 17 5 15 7 11 8 12 9 79 10 13 11 14 12
REMARK SMILES IDX 10 13 7 14 8 15 80 16 9 17 6 18 1 19 2 20 3 21 4 22 5 23
REMARK SMILES IDX 21 24 22 25 23 26 24 28 25 29 26 30 78 31 27 32 77 33 28 34
REMARK SMILES IDX 29 35 30 36 71 37 31 38 76 39 70 40 72 41 32 42 75 43 69 44
REMARK SMILES IDX 68 45 33 47 59 48 42 49 58 50 43 51 46 52 57 53 73 54 44 55
REMARK SMILES IDX 45 56 56 58 74 59 47 60 34 61 35 62 40 63 36 64 37 65 39 66
REMARK SMILES IDX 41 67 38 68 60 69 61 70 66 71 62 72 63 73 65 74 67 75 64 76
REMARK SMILES IDX 48 77 49 78 54 79 50 80 51 81 53 82 55 83 52 84
REMARK H PARENT 18 6 22 27 72 46 46 57
REMARK Flexibility Score: inf
ROOT
ATOM      1  C   UNL A   1      33.256  27.556  26.434  1.00  0.00     0.042 C 
ENDROOT
BRANCH   1   2
ATOM      2  C   UNL A   1      32.302  26.918  25.433  1.00  0.00     0.118 C 
BRANCH   2   3
ATOM      3  N   UNL A   1      32.902  26.681  24.129  1.00  0.00    -0.352 N 
ATOM      4  C   UNL A   1      33.658  25.696  23.543  1.00  0.00     0.251 C 
ATOM      5  O   UNL A   1      33.946  25.879  22.357  1.00  0.00    -0.269 OA
ATOM      6  H   UNL A   1      32.719  27.418  23.504  1.00  0.00     0.163 HD
BRANCH   4   7
ATOM      7  C   UNL A   1      34.196  24.478  24.220  1.00  0.00     0.040 A 
ATOM      8  C   UNL A   1      34.142  22.124  24.872  1.00  0.00     0.040 A 
ATOM      9  C   UNL A   1      35.189  22.338  25.771  1.00  0.00     0.014 A 
ATOM     10  C   UNL A   1      33.710  23.184  24.059  1.00  0.00     0.027 A 
ATOM     11  C   UNL A   1      35.776  23.597  25.865  1.00  0.00     0.002 A 
ATOM     12  C   UNL A   1      35.266  24.662  25.114  1.00  0.00     0.014 A 
BRANCH   8  13
ATOM     13  C   UNL A   1      33.405  20.872  24.859  1.00  0.00     0.247 A 
ATOM     14  C   UNL A   1      33.167  18.761  24.967  1.00  0.00     0.222 A 
ATOM     15  N   UNL A   1      32.069  19.236  24.417  1.00  0.00    -0.112 NA
ATOM     16  O   UNL A   1      34.061  19.746  25.292  1.00  0.00    -0.420 OA
ATOM     17  N   UNL A   1      32.218  20.605  24.358  1.00  0.00    -0.108 NA
BRANCH  14  18
ATOM     18  C   UNL A   1      33.462  17.366  25.354  1.00  0.00     0.109 C 
ATOM     19  C   UNL A   1      34.205  16.621  22.963  1.00  0.00     0.039 C 
ATOM     20  C   UNL A   1      34.395  16.537  24.476  1.00  0.00     0.127 C 
ATOM     21  O   UNL A   1      34.123  15.162  24.842  1.00  0.00    -0.378 OA
ATOM     22  C   UNL A   1      32.871  15.107  25.542  1.00  0.00     0.161 C 
ATOM     23  C   UNL A   1      32.237  16.476  25.423  1.00  0.00     0.044 C 
ENDBRANCH  14  18
ENDBRANCH   8  13
ENDBRANCH   4   7
ENDBRANCH   2   3
ENDBRANCH   1   2
BRANCH   1  24
ATOM     24  C   UNL A   1      34.146  28.634  25.821  1.00  0.00     0.118 C 
BRANCH  24  25
ATOM     25  N   UNL A   1      33.867  29.961  26.362  1.00  0.00    -0.352 N 
ATOM     26  C   UNL A   1      34.414  30.649  27.416  1.00  0.00     0.251 C 
ATOM     27  H   UNL A   1      33.158  30.450  25.885  1.00  0.00     0.163 HD
ATOM     28  O   UNL A   1      33.836  31.642  27.848  1.00  0.00    -0.269 OA
BRANCH  26  29
ATOM     29  C   UNL A   1      35.682  30.214  28.039  1.00  0.00     0.039 A 
ATOM     30  C   UNL A   1      35.649  29.638  29.314  1.00  0.00     0.014 A 
ATOM     31  C   UNL A   1      36.907  30.422  27.405  1.00  0.00     0.014 A 
ATOM     32  C   UNL A   1      36.834  29.204  29.913  1.00  0.00     0.010 A 
ATOM     33  C   UNL A   1      38.075  29.910  27.961  1.00  0.00     0.010 A 
ATOM     34  C   UNL A   1      38.052  29.296  29.221  1.00  0.00    -0.014 A 
BRANCH  34  35
ATOM     35  C   UNL A   1      39.310  28.743  29.783  1.00  0.00     0.031 A 
ATOM     36  C   UNL A   1      39.954  29.385  30.981  1.00  0.00     0.074 A 
ATOM     37  C   UNL A   1      39.922  27.722  29.153  1.00  0.00     0.049 A 
ATOM     38  N   UNL A   1      41.104  29.116  31.545  1.00  0.00    -0.248 NA
ATOM     39  C   UNL A   1      39.225  30.498  31.609  1.00  0.00     0.031 C 
ATOM     40  C   UNL A   1      39.428  27.054  27.947  1.00  0.00     0.029 A 
ATOM     41  N   UNL A   1      41.103  27.080  29.428  1.00  0.00    -0.354 N 
ATOM     42  C   UNL A   1      41.247  30.039  32.573  1.00  0.00     0.074 A 
ATOM     43  C   UNL A   1      40.089  30.905  32.526  1.00  0.00     0.031 C 
ATOM     44  C   UNL A   1      40.291  26.088  27.594  1.00  0.00     0.029 A 
ATOM     45  C   UNL A   1      41.416  26.095  28.522  1.00  0.00     0.049 A 
ATOM     46  H   UNL A   1      41.672  27.304  30.198  1.00  0.00     0.167 HD
ATOM     47  C   UNL A   1      42.242  30.142  33.486  1.00  0.00     0.037 A 
ATOM     48  C   UNL A   1      42.496  25.296  28.440  1.00  0.00     0.037 A 
ATOM     49  C   UNL A   1      43.376  29.256  33.547  1.00  0.00     0.049 A 
ATOM     50  C   UNL A   1      43.582  25.421  29.470  1.00  0.00     0.074 A 
ATOM     51  C   UNL A   1      44.394  29.222  34.485  1.00  0.00     0.029 A 
ATOM     52  N   UNL A   1      43.641  28.249  32.632  1.00  0.00    -0.354 N 
ATOM     53  N   UNL A   1      43.665  26.246  30.485  1.00  0.00    -0.248 NA
ATOM     54  C   UNL A   1      44.721  24.502  29.347  1.00  0.00     0.031 C 
ATOM     55  C   UNL A   1      45.300  28.225  34.109  1.00  0.00     0.029 A 
ATOM     56  C   UNL A   1      44.822  27.606  32.966  1.00  0.00     0.049 A 
ATOM     57  H   UNL A   1      43.076  28.023  31.859  1.00  0.00     0.167 HD
ATOM     58  C   UNL A   1      44.853  25.936  31.132  1.00  0.00     0.074 A 
ATOM     59  C   UNL A   1      45.449  24.832  30.406  1.00  0.00     0.031 C 
ATOM     60  C   UNL A   1      45.402  26.512  32.229  1.00  0.00     0.037 A 
BRANCH  47  61
ATOM     61  C   UNL A   1      42.149  31.251  34.493  1.00  0.00     0.057 A 
ATOM     62  C   UNL A   1      42.726  32.508  34.266  1.00  0.00     0.134 A 
ATOM     63  C   UNL A   1      41.447  31.071  35.691  1.00  0.00     0.134 A 
ATOM     64  F   UNL A   1      43.421  32.744  33.143  1.00  0.00    -0.206 F 
ATOM     65  C   UNL A   1      42.632  33.535  35.206  1.00  0.00     0.040 A 
ATOM     66  C   UNL A   1      41.323  32.100  36.627  1.00  0.00     0.040 A 
ATOM     67  F   UNL A   1      40.864  29.895  35.970  1.00  0.00    -0.206 F 
ATOM     68  C   UNL A   1      41.923  33.335  36.388  1.00  0.00     0.006 A 
ENDBRANCH  47  61
BRANCH  48  69
ATOM     69  C   UNL A   1      42.595  24.297  27.346  1.00  0.00     0.057 A 
ATOM     70  C   UNL A   1      43.184  24.627  26.119  1.00  0.00     0.134 A 
ATOM     71  C   UNL A   1      42.113  22.992  27.501  1.00  0.00     0.134 A 
ATOM     72  F   UNL A   1      43.647  25.866  25.906  1.00  0.00    -0.206 F 
ATOM     73  C   UNL A   1      43.277  23.698  25.081  1.00  0.00     0.040 A 
ATOM     74  C   UNL A   1      42.223  22.047  26.480  1.00  0.00     0.040 A 
ATOM     75  F   UNL A   1      41.548  22.611  28.656  1.00  0.00    -0.206 F 
ATOM     76  C   UNL A   1      42.801  22.401  25.263  1.00  0.00     0.006 A 
ENDBRANCH  48  69
BRANCH  60  77
ATOM     77  C   UNL A   1      46.704  25.948  32.719  1.00  0.00     0.057 A 
ATOM     78  C   UNL A   1      47.936  26.450  32.280  1.00  0.00     0.134 A 
ATOM     79  C   UNL A   1      46.723  24.920  33.669  1.00  0.00     0.134 A 
ATOM     80  F   UNL A   1      47.984  27.426  31.360  1.00  0.00    -0.206 F 
ATOM     81  C   UNL A   1      49.142  25.934  32.755  1.00  0.00     0.040 A 
ATOM     82  C   UNL A   1      47.923  24.414  34.170  1.00  0.00     0.040 A 
ATOM     83  F   UNL A   1      45.577  24.400  34.136  1.00  0.00    -0.206 F 
ATOM     84  C   UNL A   1      49.137  24.918  33.709  1.00  0.00     0.006 A 
ENDBRANCH  60  77
ENDBRANCH  34  35
ENDBRANCH  26  29
ENDBRANCH  24  25
ENDBRANCH   1  24
TORSDOF 12
ENDMDL
MODEL 2
REMARK VINA RESULT:     -12.3      3.146      7.858
REMARK SMILES C[C@@H]1OCC[C@@H]1c1nnc(-c2cccc(C(=O)NCCCNC(=O)c3ccc(-c4c5nc(c(-c6c(F)cccc6F)c6ccc([nH]6)c(-c6c(F)cccc6F)c6nc(c(-c7c(F)cccc7F)c7ccc4[nH]7)C=C6)C=C5)cc3)c2)o1
REMARK SMILES IDX 20 1 19 2 18 3 16 4 17 5 15 7 11 8 12 9 79 10 13 11 14 12
REMARK SMILES IDX 10 13 7 14 8 15 80 16 9 17 6 18 1 19 2 20 3 21 4 22 5 23
REMARK SMILES IDX 21 24 22 25 23 26 24 28 25 29 26 30 78 31 27 32 77 33 28 34
REMARK SMILES IDX 29 35 30 36 71 37 31 38 76 39 70 40 72 41 32 42 75 43 69 44
REMARK SMILES IDX 68 45 33 47 59 48 42 49 58 50 43 51 46 52 57 53 73 54 44 55
REMARK SMILES IDX 45 56 56 58 74 59 47 60 34 61 35 62 40 63 36 64 37 65 39 66
REMARK SMILES IDX 41 67 38 68 60 69 61 70 66 71 62 72 63 73 65 74 67 75 64 76
REMARK SMILES IDX 48 77 49 78 54 79 50 80 51 81 53 82 55 83 52 84
REMARK H PARENT 18 6 22 27 72 46 46 57
REMARK Flexibility Score: inf
ROOT
ATOM      1  C   UNL A   1      31.396  32.457  26.539  1.00  0.00     0.042 C 
ENDROOT
BRANCH   1   2
ATOM      2  C   UNL A   1      31.360  30.936  26.449  1.00  0.00     0.118 C 
BRANCH   2   3
ATOM      3  N   UNL A   1      32.202  30.398  25.392  1.00  0.00    -0.352 N 
ATOM      4  C   UNL A   1      32.180  29.310  24.556  1.00  0.00     0.251 C 
ATOM      5  O   UNL A   1      33.111  29.237  23.750  1.00  0.00    -0.269 OA
ATOM      6  H   UNL A   1      32.995  30.960  25.236  1.00  0.00     0.163 HD
BRANCH   4   7
ATOM      7  C   UNL A   1      31.176  28.203  24.576  1.00  0.00     0.040 A 
ATOM      8  C   UNL A   1      30.350  25.999  25.233  1.00  0.00     0.040 A 
ATOM      9  C   UNL A   1      29.316  26.097  24.300  1.00  0.00     0.014 A 
ATOM     10  C   UNL A   1      31.223  27.087  25.405  1.00  0.00     0.027 A 
ATOM     11  C   UNL A   1      29.174  27.257  23.542  1.00  0.00     0.002 A 
ATOM     12  C   UNL A   1      30.111  28.288  23.662  1.00  0.00     0.014 A 
BRANCH   8  13
ATOM     13  C   UNL A   1      30.624  24.752  25.926  1.00  0.00     0.247 A 
ATOM     14  C   UNL A   1      31.396  22.781  26.139  1.00  0.00     0.222 A 
ATOM     15  N   UNL A   1      30.519  22.949  27.107  1.00  0.00    -0.112 NA
ATOM     16  O   UNL A   1      31.531  23.894  25.353  1.00  0.00    -0.420 OA
ATOM     17  N   UNL A   1      30.026  24.229  26.976  1.00  0.00    -0.108 NA
BRANCH  14  18
ATOM     18  C   UNL A   1      32.283  21.624  25.904  1.00  0.00     0.109 C 
ATOM     19  C   UNL A   1      34.409  22.763  26.906  1.00  0.00     0.039 C 
ATOM     20  C   UNL A   1      33.570  21.502  26.715  1.00  0.00     0.127 C 
ATOM     21  O   UNL A   1      34.394  20.576  25.966  1.00  0.00    -0.378 OA
ATOM     22  C   UNL A   1      33.876  20.469  24.631  1.00  0.00     0.161 C 
ATOM     23  C   UNL A   1      32.807  21.531  24.485  1.00  0.00     0.044 C 
ENDBRANCH  14  18
ENDBRANCH   8  13
ENDBRANCH   4   7
ENDBRANCH   2   3
ENDBRANCH   1   2
BRANCH   1  24
ATOM     24  C   UNL A   1      32.644  32.993  27.235  1.00  0.00     0.118 C 
BRANCH  24  25
ATOM     25  N   UNL A   1      32.483  34.375  27.679  1.00  0.00    -0.352 N 
ATOM     26  C   UNL A   1      33.056  35.073  28.713  1.00  0.00     0.251 C 
ATOM     27  H   UNL A   1      31.848  34.900  27.141  1.00  0.00     0.163 HD
ATOM     28  O   UNL A   1      32.567  36.146  29.055  1.00  0.00    -0.269 OA
BRANCH  26  29
ATOM     29  C   UNL A   1      34.247  34.555  29.420  1.00  0.00     0.039 A 
ATOM     30  C   UNL A   1      34.085  33.966  30.678  1.00  0.00     0.014 A 
ATOM     31  C   UNL A   1      35.525  34.697  28.880  1.00  0.00     0.014 A 
ATOM     32  C   UNL A   1      35.196  33.453  31.355  1.00  0.00     0.010 A 
ATOM     33  C   UNL A   1      36.617  34.108  29.511  1.00  0.00     0.010 A 
ATOM     34  C   UNL A   1      36.464  33.480  30.755  1.00  0.00    -0.014 A 
BRANCH  34  35
ATOM     35  C   UNL A   1      37.642  32.846  31.398  1.00  0.00     0.031 A 
ATOM     36  C   UNL A   1      38.295  31.645  30.772  1.00  0.00     0.074 A 
ATOM     37  C   UNL A   1      38.063  33.296  32.596  1.00  0.00     0.049 A 
ATOM     38  N   UNL A   1      39.259  30.890  31.237  1.00  0.00    -0.248 NA
ATOM     39  C   UNL A   1      37.773  31.212  29.466  1.00  0.00     0.031 C 
ATOM     40  C   UNL A   1      37.474  34.415  33.334  1.00  0.00     0.029 A 
ATOM     41  N   UNL A   1      39.072  32.853  33.414  1.00  0.00    -0.354 N 
ATOM     42  C   UNL A   1      39.441  29.885  30.296  1.00  0.00     0.074 A 
ATOM     43  C   UNL A   1      38.457  30.097  29.257  1.00  0.00     0.031 C 
ATOM     44  C   UNL A   1      38.140  34.581  34.487  1.00  0.00     0.029 A 
ATOM     45  C   UNL A   1      39.174  33.557  34.590  1.00  0.00     0.049 A 
ATOM     46  H   UNL A   1      39.665  32.104  33.181  1.00  0.00     0.167 HD
ATOM     47  C   UNL A   1      40.358  28.888  30.289  1.00  0.00     0.037 A 
ATOM     48  C   UNL A   1      39.999  33.387  35.640  1.00  0.00     0.037 A 
ATOM     49  C   UNL A   1      41.356  28.702  31.310  1.00  0.00     0.049 A 
ATOM     50  C   UNL A   1      41.016  32.282  35.604  1.00  0.00     0.074 A 
ATOM     51  C   UNL A   1      42.384  27.776  31.352  1.00  0.00     0.029 A 
ATOM     52  N   UNL A   1      41.448  29.456  32.470  1.00  0.00    -0.354 N 
ATOM     53  N   UNL A   1      41.229  31.388  34.670  1.00  0.00    -0.248 NA
ATOM     54  C   UNL A   1      41.908  32.165  36.764  1.00  0.00     0.031 C 
ATOM     55  C   UNL A   1      43.069  27.940  32.561  1.00  0.00     0.029 A 
ATOM     56  C   UNL A   1      42.498  28.998  33.249  1.00  0.00     0.049 A 
ATOM     57  H   UNL A   1      40.856  30.205  32.706  1.00  0.00     0.167 HD
ATOM     58  C   UNL A   1      42.289  30.614  35.120  1.00  0.00     0.074 A 
ATOM     59  C   UNL A   1      42.689  31.156  36.402  1.00  0.00     0.031 C 
ATOM     60  C   UNL A   1      42.880  29.548  34.524  1.00  0.00     0.037 A 
BRANCH  47  61
ATOM     61  C   UNL A   1      40.325  27.923  29.140  1.00  0.00     0.057 A 
ATOM     62  C   UNL A   1      41.082  28.128  27.978  1.00  0.00     0.134 A 
ATOM     63  C   UNL A   1      39.551  26.757  29.207  1.00  0.00     0.134 A 
ATOM     64  F   UNL A   1      41.837  29.229  27.844  1.00  0.00    -0.206 F 
ATOM     65  C   UNL A   1      41.048  27.224  26.915  1.00  0.00     0.040 A 
ATOM     66  C   UNL A   1      39.531  25.832  28.162  1.00  0.00     0.040 A 
ATOM     67  F   UNL A   1      38.807  26.494  30.292  1.00  0.00    -0.206 F 
ATOM     68  C   UNL A   1      40.276  26.068  27.008  1.00  0.00     0.006 A 
ENDBRANCH  47  61
BRANCH  48  69
ATOM     69  C   UNL A   1      39.904  34.298  36.808  1.00  0.00     0.057 A 
ATOM     70  C   UNL A   1      40.584  35.522  36.826  1.00  0.00     0.134 A 
ATOM     71  C   UNL A   1      39.127  33.975  37.927  1.00  0.00     0.134 A 
ATOM     72  F   UNL A   1      41.356  35.879  35.791  1.00  0.00    -0.206 F 
ATOM     73  C   UNL A   1      40.507  36.384  37.921  1.00  0.00     0.040 A 
ATOM     74  C   UNL A   1      39.021  34.840  39.018  1.00  0.00     0.040 A 
ATOM     75  F   UNL A   1      38.443  32.822  37.967  1.00  0.00    -0.206 F 
ATOM     76  C   UNL A   1      39.718  36.046  39.019  1.00  0.00     0.006 A 
ENDBRANCH  48  69
BRANCH  60  77
ATOM     77  C   UNL A   1      44.031  28.912  35.247  1.00  0.00     0.057 A 
ATOM     78  C   UNL A   1      43.838  27.885  36.179  1.00  0.00     0.134 A 
ATOM     79  C   UNL A   1      45.347  29.305  34.978  1.00  0.00     0.134 A 
ATOM     80  F   UNL A   1      42.600  27.473  36.491  1.00  0.00    -0.206 F 
ATOM     81  C   UNL A   1      44.915  27.284  36.833  1.00  0.00     0.040 A 
ATOM     82  C   UNL A   1      46.433  28.693  35.606  1.00  0.00     0.040 A 
ATOM     83  F   UNL A   1      45.601  30.278  34.089  1.00  0.00    -0.206 F 
ATOM     84  C   UNL A   1      46.217  27.683  36.540  1.00  0.00     0.006 A 
ENDBRANCH  60  77
ENDBRANCH  34  35
ENDBRANCH  26  29
ENDBRANCH  24  25
ENDBRANCH   1  24
TORSDOF 12
ENDMDL
MODEL 3
REMARK VINA RESULT:     -12.3      3.267      8.521
REMARK SMILES C[C@@H]1OCC[C@@H]1c1nnc(-c2cccc(C(=O)NCCCNC(=O)c3ccc(-c4c5nc(c(-c6c(F)cccc6F)c6ccc([nH]6)c(-c6c(F)cccc6F)c6nc(c(-c7c(F)cccc7F)c7ccc4[nH]7)C=C6)C=C5)cc3)c2)o1
REMARK SMILES IDX 20 1 19 2 18 3 16 4 17 5 15 7 11 8 12 9 79 10 13 11 14 12
REMARK SMILES IDX 10 13 7 14 8 15 80 16 9 17 6 18 1 19 2 20 3 21 4 22 5 23
REMARK SMILES IDX 21 24 22 25 23 26 24 28 25 29 26 30 78 31 27 32 77 33 28 34
REMARK SMILES IDX 29 35 30 36 71 37 31 38 76 39 70 40 72 41 32 42 75 43 69 44
REMARK SMILES IDX 68 45 33 47 59 48 42 49 58 50 43 51 46 52 57 53 73 54 44 55
REMARK SMILES IDX 45 56 56 58 74 59 47 60 34 61 35 62 40 63 36 64 37 65 39 66
REMARK SMILES IDX 41 67 38 68 60 69 61 70 66 71 62 72 63 73 65 74 67 75 64 76
REMARK SMILES IDX 48 77 49 78 54 79 50 80 51 81 53 82 55 83 52 84
REMARK H PARENT 18 6 22 27 72 46 46 57
REMARK Flexibility Score: inf
ROOT
ATOM      1  C   UNL A   1      38.090  19.441  24.961  1.00  0.00     0.042 C 
ENDROOT
BRANCH   1   2
ATOM      2  C   UNL A   1      36.868  20.332  24.774  1.00  0.00     0.118 C 
BRANCH   2   3
ATOM      3  N   UNL A   1      37.140  21.743  25.001  1.00  0.00    -0.352 N 
ATOM      4  C   UNL A   1      36.488  22.804  25.578  1.00  0.00     0.251 C 
ATOM      5  O   UNL A   1      37.109  23.870  25.589  1.00  0.00    -0.269 OA
ATOM      6  H   UNL A   1      38.021  22.005  24.650  1.00  0.00     0.163 HD
BRANCH   4   7
ATOM      7  C   UNL A   1      35.100  22.790  26.131  1.00  0.00     0.040 A 
ATOM      8  C   UNL A   1      32.898  23.758  26.562  1.00  0.00     0.040 A 
ATOM      9  C   UNL A   1      32.611  22.730  27.462  1.00  0.00     0.014 A 
ATOM     10  C   UNL A   1      34.113  23.731  25.857  1.00  0.00     0.027 A 
ATOM     11  C   UNL A   1      33.534  21.707  27.665  1.00  0.00     0.002 A 
ATOM     12  C   UNL A   1      34.776  21.752  27.024  1.00  0.00     0.014 A 
BRANCH   8  13
ATOM     13  C   UNL A   1      32.033  24.918  26.443  1.00  0.00     0.247 A 
ATOM     14  C   UNL A   1      31.515  26.976  26.602  1.00  0.00     0.222 A 
ATOM     15  N   UNL A   1      30.385  26.311  26.480  1.00  0.00    -0.112 NA
ATOM     16  O   UNL A   1      32.612  26.157  26.570  1.00  0.00    -0.420 OA
ATOM     17  N   UNL A   1      30.720  24.980  26.365  1.00  0.00    -0.108 NA
BRANCH  14  18
ATOM     18  C   UNL A   1      31.712  28.439  26.646  1.00  0.00     0.109 C 
ATOM     19  C   UNL A   1      32.243  28.671  24.099  1.00  0.00     0.039 C 
ATOM     20  C   UNL A   1      31.585  29.241  25.354  1.00  0.00     0.127 C 
ATOM     21  O   UNL A   1      32.256  30.495  25.629  1.00  0.00    -0.378 OA
ATOM     22  C   UNL A   1      33.081  30.334  26.792  1.00  0.00     0.161 C 
ATOM     23  C   UNL A   1      33.084  28.859  27.132  1.00  0.00     0.044 C 
ENDBRANCH  14  18
ENDBRANCH   8  13
ENDBRANCH   4   7
ENDBRANCH   2   3
ENDBRANCH   1   2
BRANCH   1  24
ATOM     24  C   UNL A   1      39.186  20.084  25.806  1.00  0.00     0.118 C 
BRANCH  24  25
ATOM     25  N   UNL A   1      40.387  19.257  25.882  1.00  0.00    -0.352 N 
ATOM     26  C   UNL A   1      41.706  19.582  26.080  1.00  0.00     0.251 C 
ATOM     27  H   UNL A   1      40.222  18.293  25.769  1.00  0.00     0.163 HD
ATOM     28  O   UNL A   1      42.572  18.745  25.839  1.00  0.00    -0.269 OA
BRANCH  26  29
ATOM     29  C   UNL A   1      42.100  20.918  26.576  1.00  0.00     0.039 A 
ATOM     30  C   UNL A   1      42.530  21.882  25.658  1.00  0.00     0.014 A 
ATOM     31  C   UNL A   1      42.106  21.209  27.940  1.00  0.00     0.014 A 
ATOM     32  C   UNL A   1      42.889  23.157  26.104  1.00  0.00     0.010 A 
ATOM     33  C   UNL A   1      42.377  22.502  28.375  1.00  0.00     0.010 A 
ATOM     34  C   UNL A   1      42.772  23.490  27.462  1.00  0.00    -0.014 A 
BRANCH  34  35
ATOM     35  C   UNL A   1      43.039  24.866  27.951  1.00  0.00     0.031 A 
ATOM     36  C   UNL A   1      44.428  25.271  28.361  1.00  0.00     0.074 A 
ATOM     37  C   UNL A   1      42.010  25.719  28.117  1.00  0.00     0.049 A 
ATOM     38  N   UNL A   1      44.836  26.386  28.913  1.00  0.00    -0.248 NA
ATOM     39  C   UNL A   1      45.496  24.280  28.153  1.00  0.00     0.031 C 
ATOM     40  C   UNL A   1      40.608  25.423  27.813  1.00  0.00     0.029 A 
ATOM     41  N   UNL A   1      41.981  27.003  28.602  1.00  0.00    -0.354 N 
ATOM     42  C   UNL A   1      46.196  26.221  29.141  1.00  0.00     0.074 A 
ATOM     43  C   UNL A   1      46.536  24.882  28.710  1.00  0.00     0.031 C 
ATOM     44  C   UNL A   1      39.859  26.498  28.105  1.00  0.00     0.029 A 
ATOM     45  C   UNL A   1      40.718  27.542  28.653  1.00  0.00     0.049 A 
ATOM     46  H   UNL A   1      42.786  27.490  28.887  1.00  0.00     0.167 HD
ATOM     47  C   UNL A   1      47.084  27.111  29.644  1.00  0.00     0.037 A 
ATOM     48  C   UNL A   1      40.297  28.738  29.103  1.00  0.00     0.037 A 
ATOM     49  C   UNL A   1      46.745  28.453  30.040  1.00  0.00     0.049 A 
ATOM     50  C   UNL A   1      41.302  29.714  29.646  1.00  0.00     0.074 A 
ATOM     51  C   UNL A   1      47.587  29.461  30.480  1.00  0.00     0.029 A 
ATOM     52  N   UNL A   1      45.460  28.974  30.045  1.00  0.00    -0.354 N 
ATOM     53  N   UNL A   1      42.599  29.573  29.781  1.00  0.00    -0.248 NA
ATOM     54  C   UNL A   1      40.788  31.014  30.095  1.00  0.00     0.031 C 
ATOM     55  C   UNL A   1      46.804  30.576  30.797  1.00  0.00     0.029 A 
ATOM     56  C   UNL A   1      45.482  30.279  30.509  1.00  0.00     0.049 A 
ATOM     57  H   UNL A   1      44.652  28.489  29.763  1.00  0.00     0.167 HD
ATOM     58  C   UNL A   1      43.058  30.770  30.312  1.00  0.00     0.074 A 
ATOM     59  C   UNL A   1      41.903  31.634  30.457  1.00  0.00     0.031 C 
ATOM     60  C   UNL A   1      44.322  31.123  30.649  1.00  0.00     0.037 A 
BRANCH  47  61
ATOM     61  C   UNL A   1      48.508  26.662  29.792  1.00  0.00     0.057 A 
ATOM     62  C   UNL A   1      48.966  26.020  30.951  1.00  0.00     0.134 A 
ATOM     63  C   UNL A   1      49.429  26.845  28.752  1.00  0.00     0.134 A 
ATOM     64  F   UNL A   1      48.140  25.823  31.990  1.00  0.00    -0.206 F 
ATOM     65  C   UNL A   1      50.291  25.603  31.081  1.00  0.00     0.040 A 
ATOM     66  C   UNL A   1      50.750  26.407  28.859  1.00  0.00     0.040 A 
ATOM     67  F   UNL A   1      49.057  27.446  27.611  1.00  0.00    -0.206 F 
ATOM     68  C   UNL A   1      51.186  25.790  30.029  1.00  0.00     0.006 A 
ENDBRANCH  47  61
BRANCH  48  69
ATOM     69  C   UNL A   1      38.854  29.083  29.047  1.00  0.00     0.057 A 
ATOM     70  C   UNL A   1      38.039  28.961  30.178  1.00  0.00     0.134 A 
ATOM     71  C   UNL A   1      38.259  29.549  27.869  1.00  0.00     0.134 A 
ATOM     72  F   UNL A   1      38.549  28.503  31.330  1.00  0.00    -0.206 F 
ATOM     73  C   UNL A   1      36.680  29.276  30.136  1.00  0.00     0.040 A 
ATOM     74  C   UNL A   1      36.906  29.892  27.821  1.00  0.00     0.040 A 
ATOM     75  F   UNL A   1      38.988  29.698  26.753  1.00  0.00    -0.206 F 
ATOM     76  C   UNL A   1      36.111  29.749  28.955  1.00  0.00     0.006 A 
ENDBRANCH  48  69
BRANCH  60  77
ATOM     77  C   UNL A   1      44.524  32.508  31.192  1.00  0.00     0.057 A 
ATOM     78  C   UNL A   1      44.749  33.604  30.350  1.00  0.00     0.134 A 
ATOM     79  C   UNL A   1      44.453  32.751  32.569  1.00  0.00     0.134 A 
ATOM     80  F   UNL A   1      44.841  33.434  29.022  1.00  0.00    -0.206 F 
ATOM     81  C   UNL A   1      44.915  34.892  30.861  1.00  0.00     0.040 A 
ATOM     82  C   UNL A   1      44.593  34.038  33.090  1.00  0.00     0.040 A 
ATOM     83  F   UNL A   1      44.233  31.745  33.430  1.00  0.00    -0.206 F 
ATOM     84  C   UNL A   1      44.830  35.112  32.234  1.00  0.00     0.006 A 
ENDBRANCH  60  77
ENDBRANCH  34  35
ENDBRANCH  26  29
ENDBRANCH  24  25
ENDBRANCH   1  24
TORSDOF 12
ENDMDL
