MODEL 1
REMARK VINA RESULT:     -11.8      0.000      0.000
REMARK SMILES C[C@H]1SCCC[C@]1(Nc1ccc(Cl)cc1)C(=O)NCCCNC(=O)c1ccc(-c2c3nc(c(-c4c(F)cccc4F)c4ccc([nH]4)c(-c4c(F)cccc4F)c4nc(c(-c5c(F)cccc5F)c5ccc2[nH]5)C=C4)C=C3)cc1
REMARK SMILES IDX 20 1 19 2 18 3 16 4 17 5 7 7 1 8 2 9 3 10 4 11 6 12 5 13
REMARK SMILES IDX 8 14 9 16 10 17 15 18 11 19 14 20 12 21 13 22 21 23 22 24
REMARK SMILES IDX 23 25 24 27 25 28 26 29 78 30 27 31 77 32 28 33 29 34 30 35
REMARK SMILES IDX 71 36 31 37 76 38 70 39 72 40 32 41 75 42 69 43 68 44 33 46
REMARK SMILES IDX 59 47 42 48 58 49 43 50 46 51 57 52 73 53 44 54 45 55 56 57
REMARK SMILES IDX 74 58 47 59 34 60 35 61 40 62 36 63 37 64 39 65 41 66 38 67
REMARK SMILES IDX 60 68 61 69 66 70 62 71 63 72 65 73 67 74 64 75 48 76 49 77
REMARK SMILES IDX 54 78 50 79 51 80 53 81 55 82 52 83
REMARK H PARENT 18 6 8 15 22 26 72 45 46 56
REMARK Flexibility Score: inf
ROOT
ATOM      1  C   UNL A   1      38.058  19.603  24.949  1.00  0.00     0.042 C 
ENDROOT
BRANCH   1   2
ATOM      2  C   UNL A   1      37.059  20.713  24.670  1.00  0.00     0.117 C 
BRANCH   2   3
ATOM      3  N   UNL A   1      36.440  21.199  25.892  1.00  0.00    -0.354 N 
ATOM      4  C   UNL A   1      35.154  21.526  26.199  1.00  0.00     0.246 C 
ATOM      5  O   UNL A   1      34.979  21.827  27.388  1.00  0.00    -0.272 OA
ATOM      6  H   UNL A   1      37.071  21.315  26.639  1.00  0.00     0.163 HD
BRANCH   4   7
ATOM      7  C   UNL A   1      33.967  21.585  25.166  1.00  0.00     0.128 C 
ATOM      8  C   UNL A   1      35.362  22.958  23.374  1.00  0.00     0.022 C 
ATOM      9  C   UNL A   1      34.131  22.868  24.269  1.00  0.00     0.078 C 
ATOM     10  S   UNL A   1      32.710  23.116  23.121  1.00  0.00    -0.156 SA
ATOM     11  C   UNL A   1      31.424  23.285  24.373  1.00  0.00     0.070 C 
ATOM     12  C   UNL A   1      32.652  21.754  26.004  1.00  0.00     0.040 C 
ATOM     13  C   UNL A   1      31.365  22.027  25.221  1.00  0.00     0.014 C 
BRANCH   7  14
ATOM     14  N   UNL A   1      33.830  20.363  24.326  1.00  0.00    -0.370 N 
ATOM     15  H   UNL A   1      33.755  20.514  23.356  1.00  0.00     0.161 HD
BRANCH  14  16
ATOM     16  C   UNL A   1      33.795  19.043  24.735  1.00  0.00     0.035 A 
ATOM     17  C   UNL A   1      34.683  18.061  24.284  1.00  0.00     0.027 A 
ATOM     18  C   UNL A   1      32.689  18.617  25.491  1.00  0.00     0.027 A 
ATOM     19  C   UNL A   1      34.445  16.700  24.518  1.00  0.00     0.022 A 
ATOM     20  C   UNL A   1      32.427  17.259  25.705  1.00  0.00     0.022 A 
ATOM     21  C   UNL A   1      33.302  16.304  25.203  1.00  0.00     0.041 A 
ATOM     22  Cl  UNL A   1      32.948  14.631  25.390  1.00  0.00    -0.084 Cl
ENDBRANCH  14  16
ENDBRANCH   7  14
ENDBRANCH   4   7
ENDBRANCH   2   3
ENDBRANCH   1   2
BRANCH   1  23
ATOM     23  C   UNL A   1      39.114  20.016  25.956  1.00  0.00     0.118 C 
BRANCH  23  24
ATOM     24  N   UNL A   1      40.315  19.203  25.854  1.00  0.00    -0.352 N 
ATOM     25  C   UNL A   1      41.635  19.565  25.988  1.00  0.00     0.251 C 
ATOM     26  H   UNL A   1      40.161  18.250  25.659  1.00  0.00     0.163 HD
ATOM     27  O   UNL A   1      42.520  18.792  25.638  1.00  0.00    -0.269 OA
BRANCH  25  28
ATOM     28  C   UNL A   1      41.989  20.896  26.529  1.00  0.00     0.039 A 
ATOM     29  C   UNL A   1      42.321  21.925  25.646  1.00  0.00     0.014 A 
ATOM     30  C   UNL A   1      42.005  21.132  27.906  1.00  0.00     0.014 A 
ATOM     31  C   UNL A   1      42.606  23.200  26.143  1.00  0.00     0.010 A 
ATOM     32  C   UNL A   1      42.156  22.425  28.388  1.00  0.00     0.010 A 
ATOM     33  C   UNL A   1      42.490  23.469  27.516  1.00  0.00    -0.014 A 
BRANCH  33  34
ATOM     34  C   UNL A   1      42.763  24.818  28.072  1.00  0.00     0.031 A 
ATOM     35  C   UNL A   1      44.168  25.200  28.457  1.00  0.00     0.074 A 
ATOM     36  C   UNL A   1      41.748  25.677  28.286  1.00  0.00     0.049 A 
ATOM     37  N   UNL A   1      44.606  26.302  29.011  1.00  0.00    -0.248 NA
ATOM     38  C   UNL A   1      45.217  24.193  28.222  1.00  0.00     0.031 C 
ATOM     39  C   UNL A   1      40.335  25.407  28.009  1.00  0.00     0.029 A 
ATOM     40  N   UNL A   1      41.748  26.953  28.789  1.00  0.00    -0.354 N 
ATOM     41  C   UNL A   1      45.968  26.109  29.209  1.00  0.00     0.074 A 
ATOM     42  C   UNL A   1      46.271  24.760  28.787  1.00  0.00     0.031 C 
ATOM     43  C   UNL A   1      39.614  26.501  28.303  1.00  0.00     0.029 A 
ATOM     44  C   UNL A   1      40.503  27.532  28.826  1.00  0.00     0.049 A 
ATOM     45  H   UNL A   1      42.565  27.412  29.094  1.00  0.00     0.167 HD
ATOM     46  C   UNL A   1      46.893  26.986  29.665  1.00  0.00     0.037 A 
ATOM     47  C   UNL A   1      40.124  28.757  29.234  1.00  0.00     0.037 A 
ATOM     48  C   UNL A   1      46.595  28.339  30.051  1.00  0.00     0.049 A 
ATOM     49  C   UNL A   1      41.167  29.715  29.741  1.00  0.00     0.074 A 
ATOM     50  C   UNL A   1      47.465  29.330  30.468  1.00  0.00     0.029 A 
ATOM     51  N   UNL A   1      45.322  28.889  30.067  1.00  0.00    -0.354 N 
ATOM     52  N   UNL A   1      42.461  29.544  29.857  1.00  0.00    -0.248 NA
ATOM     53  C   UNL A   1      40.694  31.039  30.168  1.00  0.00     0.031 C 
ATOM     54  C   UNL A   1      46.712  30.467  30.779  1.00  0.00     0.029 A 
ATOM     55  C   UNL A   1      45.379  30.200  30.508  1.00  0.00     0.049 A 
ATOM     56  H   UNL A   1      44.499  28.417  29.803  1.00  0.00     0.167 HD
ATOM     57  C   UNL A   1      42.963  30.745  30.342  1.00  0.00     0.074 A 
ATOM     58  C   UNL A   1      41.832  31.639  30.487  1.00  0.00     0.031 C 
ATOM     59  C   UNL A   1      44.243  31.076  30.642  1.00  0.00     0.037 A 
BRANCH  46  60
ATOM     60  C   UNL A   1      48.313  26.499  29.761  1.00  0.00     0.057 A 
ATOM     61  C   UNL A   1      49.229  26.679  28.714  1.00  0.00     0.134 A 
ATOM     62  C   UNL A   1      48.768  25.842  30.909  1.00  0.00     0.134 A 
ATOM     63  F   UNL A   1      48.855  27.288  27.579  1.00  0.00    -0.206 F 
ATOM     64  C   UNL A   1      50.532  26.184  28.790  1.00  0.00     0.040 A 
ATOM     65  C   UNL A   1      50.079  25.372  31.010  1.00  0.00     0.040 A 
ATOM     66  F   UNL A   1      47.948  25.642  31.952  1.00  0.00    -0.206 F 
ATOM     67  C   UNL A   1      50.961  25.532  29.944  1.00  0.00     0.006 A 
ENDBRANCH  46  60
BRANCH  47  68
ATOM     68  C   UNL A   1      38.700  29.162  29.135  1.00  0.00     0.057 A 
ATOM     69  C   UNL A   1      37.850  29.074  30.245  1.00  0.00     0.134 A 
ATOM     70  C   UNL A   1      38.154  29.654  27.943  1.00  0.00     0.134 A 
ATOM     71  F   UNL A   1      38.310  28.595  31.409  1.00  0.00    -0.206 F 
ATOM     72  C   UNL A   1      36.507  29.447  30.169  1.00  0.00     0.040 A 
ATOM     73  C   UNL A   1      36.819  30.053  27.860  1.00  0.00     0.040 A 
ATOM     74  F   UNL A   1      38.918  29.771  26.848  1.00  0.00    -0.206 F 
ATOM     75  C   UNL A   1      35.990  29.944  28.975  1.00  0.00     0.006 A 
ENDBRANCH  47  68
BRANCH  59  76
ATOM     76  C   UNL A   1      44.493  32.475  31.123  1.00  0.00     0.057 A 
ATOM     77  C   UNL A   1      44.508  32.797  32.486  1.00  0.00     0.134 A 
ATOM     78  C   UNL A   1      44.763  33.504  30.211  1.00  0.00     0.134 A 
ATOM     79  F   UNL A   1      44.244  31.860  33.409  1.00  0.00    -0.206 F 
ATOM     80  C   UNL A   1      44.760  34.099  32.924  1.00  0.00     0.040 A 
ATOM     81  C   UNL A   1      45.044  34.802  30.638  1.00  0.00     0.040 A 
ATOM     82  F   UNL A   1      44.773  33.260  28.892  1.00  0.00    -0.206 F 
ATOM     83  C   UNL A   1      45.036  35.104  31.999  1.00  0.00     0.006 A 
ENDBRANCH  59  76
ENDBRANCH  33  34
ENDBRANCH  25  28
ENDBRANCH  23  24
ENDBRANCH   1  23
TORSDOF 12
ENDMDL
MODEL 2
REMARK VINA RESULT:     -11.7      1.181      6.493
REMARK SMILES C[C@H]1SCCC[C@]1(Nc1ccc(Cl)cc1)C(=O)NCCCNC(=O)c1ccc(-c2c3nc(c(-c4c(F)cccc4F)c4ccc([nH]4)c(-c4c(F)cccc4F)c4nc(c(-c5c(F)cccc5F)c5ccc2[nH]5)C=C4)C=C3)cc1
REMARK SMILES IDX 20 1 19 2 18 3 16 4 17 5 7 7 1 8 2 9 3 10 4 11 6 12 5 13
REMARK SMILES IDX 8 14 9 16 10 17 15 18 11 19 14 20 12 21 13 22 21 23 22 24
REMARK SMILES IDX 23 25 24 27 25 28 26 29 78 30 27 31 77 32 28 33 29 34 30 35
REMARK SMILES IDX 71 36 31 37 76 38 70 39 72 40 32 41 75 42 69 43 68 44 33 46
REMARK SMILES IDX 59 47 42 48 58 49 43 50 46 51 57 52 73 53 44 54 45 55 56 57
REMARK SMILES IDX 74 58 47 59 34 60 35 61 40 62 36 63 37 64 39 65 41 66 38 67
REMARK SMILES IDX 60 68 61 69 66 70 62 71 63 72 65 73 67 74 64 75 48 76 49 77
REMARK SMILES IDX 54 78 50 79 51 80 53 81 55 82 52 83
REMARK H PARENT 18 6 8 15 22 26 72 45 46 56
REMARK Flexibility Score: inf
ROOT
ATOM      1  C   UNL A   1      37.937  19.609  25.022  1.00  0.00     0.042 C 
ENDROOT
BRANCH   1   2
ATOM      2  C   UNL A   1      36.907  20.688  24.736  1.00  0.00     0.117 C 
BRANCH   2   3
ATOM      3  N   UNL A   1      36.288  21.178  25.956  1.00  0.00    -0.354 N 
ATOM      4  C   UNL A   1      35.006  21.525  26.256  1.00  0.00     0.246 C 
ATOM      5  O   UNL A   1      34.827  21.823  27.445  1.00  0.00    -0.272 OA
ATOM      6  H   UNL A   1      36.915  21.279  26.708  1.00  0.00     0.163 HD
BRANCH   4   7
ATOM      7  C   UNL A   1      33.827  21.610  25.215  1.00  0.00     0.128 C 
ATOM      8  C   UNL A   1      35.260  22.964  23.437  1.00  0.00     0.022 C 
ATOM      9  C   UNL A   1      34.022  22.893  24.323  1.00  0.00     0.078 C 
ATOM     10  S   UNL A   1      32.613  23.171  23.166  1.00  0.00    -0.156 SA
ATOM     11  C   UNL A   1      31.322  23.360  24.410  1.00  0.00     0.070 C 
ATOM     12  C   UNL A   1      32.510  21.801  26.044  1.00  0.00     0.040 C 
ATOM     13  C   UNL A   1      31.234  22.100  25.253  1.00  0.00     0.014 C 
BRANCH   7  14
ATOM     14  N   UNL A   1      33.673  20.394  24.369  1.00  0.00    -0.370 N 
ATOM     15  H   UNL A   1      33.545  20.553  23.406  1.00  0.00     0.161 HD
BRANCH  14  16
ATOM     16  C   UNL A   1      33.689  19.070  24.765  1.00  0.00     0.035 A 
ATOM     17  C   UNL A   1      34.597  18.120  24.284  1.00  0.00     0.027 A 
ATOM     18  C   UNL A   1      32.613  18.602  25.540  1.00  0.00     0.027 A 
ATOM     19  C   UNL A   1      34.406  16.750  24.508  1.00  0.00     0.022 A 
ATOM     20  C   UNL A   1      32.397  17.234  25.745  1.00  0.00     0.022 A 
ATOM     21  C   UNL A   1      33.291  16.312  25.214  1.00  0.00     0.041 A 
ATOM     22  Cl  UNL A   1      32.993  14.627  25.390  1.00  0.00    -0.084 Cl
ENDBRANCH  14  16
ENDBRANCH   7  14
ENDBRANCH   4   7
ENDBRANCH   2   3
ENDBRANCH   1   2
BRANCH   1  23
ATOM     23  C   UNL A   1      39.137  20.143  25.780  1.00  0.00     0.118 C 
BRANCH  23  24
ATOM     24  N   UNL A   1      40.186  19.144  25.917  1.00  0.00    -0.352 N 
ATOM     25  C   UNL A   1      41.535  19.311  26.123  1.00  0.00     0.251 C 
ATOM     26  H   UNL A   1      39.885  18.209  25.853  1.00  0.00     0.163 HD
ATOM     27  O   UNL A   1      42.297  18.361  25.979  1.00  0.00    -0.269 OA
BRANCH  25  28
ATOM     28  C   UNL A   1      42.073  20.639  26.491  1.00  0.00     0.039 A 
ATOM     29  C   UNL A   1      42.453  21.526  25.480  1.00  0.00     0.014 A 
ATOM     30  C   UNL A   1      42.214  21.013  27.829  1.00  0.00     0.014 A 
ATOM     31  C   UNL A   1      42.912  22.802  25.815  1.00  0.00     0.010 A 
ATOM     32  C   UNL A   1      42.542  22.322  28.156  1.00  0.00     0.010 A 
ATOM     33  C   UNL A   1      42.925  23.223  27.155  1.00  0.00    -0.014 A 
BRANCH  33  34
ATOM     34  C   UNL A   1      43.385  24.581  27.541  1.00  0.00     0.031 A 
ATOM     35  C   UNL A   1      42.378  25.628  27.940  1.00  0.00     0.074 A 
ATOM     36  C   UNL A   1      44.693  24.894  27.477  1.00  0.00     0.049 A 
ATOM     37  N   UNL A   1      42.567  26.885  28.253  1.00  0.00    -0.248 NA
ATOM     38  C   UNL A   1      40.964  25.218  27.952  1.00  0.00     0.031 C 
ATOM     39  C   UNL A   1      45.762  23.987  27.052  1.00  0.00     0.029 A 
ATOM     40  N   UNL A   1      45.348  26.063  27.769  1.00  0.00    -0.354 N 
ATOM     41  C   UNL A   1      41.301  27.413  28.474  1.00  0.00     0.074 A 
ATOM     42  C   UNL A   1      40.349  26.365  28.188  1.00  0.00     0.031 C 
ATOM     43  C   UNL A   1      46.941  24.620  27.155  1.00  0.00     0.029 A 
ATOM     44  C   UNL A   1      46.710  25.986  27.612  1.00  0.00     0.049 A 
ATOM     45  H   UNL A   1      44.885  26.881  28.065  1.00  0.00     0.167 HD
ATOM     46  C   UNL A   1      40.961  28.648  28.914  1.00  0.00     0.037 A 
ATOM     47  C   UNL A   1      47.665  26.914  27.817  1.00  0.00     0.037 A 
ATOM     48  C   UNL A   1      41.913  29.678  29.232  1.00  0.00     0.049 A 
ATOM     49  C   UNL A   1      47.265  28.280  28.302  1.00  0.00     0.074 A 
ATOM     50  C   UNL A   1      41.681  30.941  29.744  1.00  0.00     0.029 A 
ATOM     51  N   UNL A   1      43.285  29.557  29.067  1.00  0.00    -0.354 N 
ATOM     52  N   UNL A   1      46.069  28.744  28.575  1.00  0.00    -0.248 NA
ATOM     53  C   UNL A   1      48.349  29.249  28.512  1.00  0.00     0.031 C 
ATOM     54  C   UNL A   1      42.909  31.602  29.845  1.00  0.00     0.029 A 
ATOM     55  C   UNL A   1      43.912  30.733  29.445  1.00  0.00     0.049 A 
ATOM     56  H   UNL A   1      43.746  28.754  28.731  1.00  0.00     0.167 HD
ATOM     57  C   UNL A   1      46.259  30.048  29.016  1.00  0.00     0.074 A 
ATOM     58  C   UNL A   1      47.686  30.294  28.985  1.00  0.00     0.031 C 
ATOM     59  C   UNL A   1      45.334  30.958  29.410  1.00  0.00     0.037 A 
BRANCH  46  60
ATOM     60  C   UNL A   1      39.495  28.938  29.079  1.00  0.00     0.057 A 
ATOM     61  C   UNL A   1      38.841  28.775  30.309  1.00  0.00     0.134 A 
ATOM     62  C   UNL A   1      38.727  29.383  27.996  1.00  0.00     0.134 A 
ATOM     63  F   UNL A   1      39.514  28.337  31.384  1.00  0.00    -0.206 F 
ATOM     64  C   UNL A   1      37.470  29.001  30.445  1.00  0.00     0.040 A 
ATOM     65  C   UNL A   1      37.362  29.645  28.128  1.00  0.00     0.040 A 
ATOM     66  F   UNL A   1      39.289  29.568  26.792  1.00  0.00    -0.206 F 
ATOM     67  C   UNL A   1      36.728  29.443  29.351  1.00  0.00     0.006 A 
ENDBRANCH  46  60
BRANCH  47  68
ATOM     68  C   UNL A   1      49.092  26.565  27.610  1.00  0.00     0.057 A 
ATOM     69  C   UNL A   1      49.711  26.783  26.373  1.00  0.00     0.134 A 
ATOM     70  C   UNL A   1      49.874  26.019  28.636  1.00  0.00     0.134 A 
ATOM     71  F   UNL A   1      49.010  27.287  25.348  1.00  0.00    -0.206 F 
ATOM     72  C   UNL A   1      51.052  26.458  26.159  1.00  0.00     0.040 A 
ATOM     73  C   UNL A   1      51.221  25.711  28.442  1.00  0.00     0.040 A 
ATOM     74  F   UNL A   1      49.342  25.795  29.845  1.00  0.00    -0.206 F 
ATOM     75  C   UNL A   1      51.812  25.926  27.199  1.00  0.00     0.006 A 
ENDBRANCH  47  68
BRANCH  59  76
ATOM     76  C   UNL A   1      45.841  32.293  29.872  1.00  0.00     0.057 A 
ATOM     77  C   UNL A   1      46.047  33.354  28.981  1.00  0.00     0.134 A 
ATOM     78  C   UNL A   1      46.086  32.530  31.231  1.00  0.00     0.134 A 
ATOM     79  F   UNL A   1      45.843  33.187  27.666  1.00  0.00    -0.206 F 
ATOM     80  C   UNL A   1      46.502  34.598  29.423  1.00  0.00     0.040 A 
ATOM     81  C   UNL A   1      46.514  33.777  31.688  1.00  0.00     0.040 A 
ATOM     82  F   UNL A   1      45.900  31.558  32.137  1.00  0.00    -0.206 F 
ATOM     83  C   UNL A   1      46.729  34.814  30.782  1.00  0.00     0.006 A 
ENDBRANCH  59  76
ENDBRANCH  33  34
ENDBRANCH  25  28
ENDBRANCH  23  24
ENDBRANCH   1  23
TORSDOF 12
ENDMDL
MODEL 3
REMARK VINA RESULT:     -11.7      2.558      7.384
REMARK SMILES C[C@H]1SCCC[C@]1(Nc1ccc(Cl)cc1)C(=O)NCCCNC(=O)c1ccc(-c2c3nc(c(-c4c(F)cccc4F)c4ccc([nH]4)c(-c4c(F)cccc4F)c4nc(c(-c5c(F)cccc5F)c5ccc2[nH]5)C=C4)C=C3)cc1
REMARK SMILES IDX 20 1 19 2 18 3 16 4 17 5 7 7 1 8 2 9 3 10 4 11 6 12 5 13
REMARK SMILES IDX 8 14 9 16 10 17 15 18 11 19 14 20 12 21 13 22 21 23 22 24
REMARK SMILES IDX 23 25 24 27 25 28 26 29 78 30 27 31 77 32 28 33 29 34 30 35
REMARK SMILES IDX 71 36 31 37 76 38 70 39 72 40 32 41 75 42 69 43 68 44 33 46
REMARK SMILES IDX 59 47 42 48 58 49 43 50 46 51 57 52 73 53 44 54 45 55 56 57
REMARK SMILES IDX 74 58 47 59 34 60 35 61 40 62 36 63 37 64 39 65 41 66 38 67
REMARK SMILES IDX 60 68 61 69 66 70 62 71 63 72 65 73 67 74 64 75 48 76 49 77
REMARK SMILES IDX 54 78 50 79 51 80 53 81 55 82 52 83
REMARK H PARENT 18 6 8 15 22 26 72 45 46 56
REMARK Flexibility Score: inf
ROOT
ATOM      1  C   UNL A   1      33.636  28.538  25.555  1.00  0.00     0.042 C 
ENDROOT
BRANCH   1   2
ATOM      2  C   UNL A   1      32.850  27.316  25.111  1.00  0.00     0.117 C 
BRANCH   2   3
ATOM      3  N   UNL A   1      33.426  26.708  23.924  1.00  0.00    -0.354 N 
ATOM      4  C   UNL A   1      33.545  25.411  23.527  1.00  0.00     0.246 C 
ATOM      5  O   UNL A   1      34.024  25.271  22.393  1.00  0.00    -0.272 OA
ATOM      6  H   UNL A   1      33.803  27.357  23.287  1.00  0.00     0.163 HD
BRANCH   4   7
ATOM      7  C   UNL A   1      33.172  24.159  24.408  1.00  0.00     0.128 C 
ATOM      8  C   UNL A   1      30.819  23.809  23.230  1.00  0.00     0.022 C 
ATOM      9  C   UNL A   1      31.605  24.054  24.513  1.00  0.00     0.078 C 
ATOM     10  S   UNL A   1      31.060  22.707  25.649  1.00  0.00    -0.156 SA
ATOM     11  C   UNL A   1      31.833  23.341  27.150  1.00  0.00     0.070 C 
ATOM     12  C   UNL A   1      33.729  24.442  25.846  1.00  0.00     0.040 C 
ATOM     13  C   UNL A   1      33.333  23.454  26.946  1.00  0.00     0.014 C 
BRANCH   7  14
ATOM     14  N   UNL A   1      33.759  22.879  23.924  1.00  0.00    -0.370 N 
ATOM     15  H   UNL A   1      33.276  22.434  23.190  1.00  0.00     0.161 HD
BRANCH  14  16
ATOM     16  C   UNL A   1      34.897  22.235  24.375  1.00  0.00     0.035 A 
ATOM     17  C   UNL A   1      36.194  22.732  24.208  1.00  0.00     0.027 A 
ATOM     18  C   UNL A   1      34.764  20.918  24.849  1.00  0.00     0.027 A 
ATOM     19  C   UNL A   1      37.318  21.928  24.440  1.00  0.00     0.022 A 
ATOM     20  C   UNL A   1      35.879  20.098  25.055  1.00  0.00     0.022 A 
ATOM     21  C   UNL A   1      37.154  20.604  24.835  1.00  0.00     0.041 A 
ATOM     22  Cl  UNL A   1      38.527  19.583  25.007  1.00  0.00    -0.084 Cl
ENDBRANCH  14  16
ENDBRANCH   7  14
ENDBRANCH   4   7
ENDBRANCH   2   3
ENDBRANCH   1   2
BRANCH   1  23
ATOM     23  C   UNL A   1      33.894  28.548  27.049  1.00  0.00     0.118 C 
BRANCH  23  24
ATOM     24  N   UNL A   1      33.814  29.888  27.609  1.00  0.00    -0.352 N 
ATOM     25  C   UNL A   1      34.733  30.580  28.363  1.00  0.00     0.251 C 
ATOM     26  H   UNL A   1      32.978  30.372  27.421  1.00  0.00     0.163 HD
ATOM     27  O   UNL A   1      34.398  31.608  28.943  1.00  0.00    -0.269 OA
BRANCH  25  28
ATOM     28  C   UNL A   1      36.117  30.075  28.498  1.00  0.00     0.039 A 
ATOM     29  C   UNL A   1      36.991  30.183  27.414  1.00  0.00     0.014 A 
ATOM     30  C   UNL A   1      36.555  29.486  29.686  1.00  0.00     0.014 A 
ATOM     31  C   UNL A   1      38.316  29.757  27.548  1.00  0.00     0.010 A 
ATOM     32  C   UNL A   1      37.900  29.188  29.861  1.00  0.00     0.010 A 
ATOM     33  C   UNL A   1      38.790  29.290  28.785  1.00  0.00    -0.014 A 
BRANCH  33  34
ATOM     34  C   UNL A   1      40.198  28.853  28.965  1.00  0.00     0.031 A 
ATOM     35  C   UNL A   1      41.202  29.794  29.577  1.00  0.00     0.074 A 
ATOM     36  C   UNL A   1      40.588  27.641  28.529  1.00  0.00     0.049 A 
ATOM     37  N   UNL A   1      42.487  29.629  29.766  1.00  0.00    -0.248 NA
ATOM     38  C   UNL A   1      40.703  31.115  29.998  1.00  0.00     0.031 C 
ATOM     39  C   UNL A   1      39.725  26.658  27.869  1.00  0.00     0.029 A 
ATOM     40  N   UNL A   1      41.814  27.027  28.574  1.00  0.00    -0.354 N 
ATOM     41  C   UNL A   1      42.946  30.825  30.304  1.00  0.00     0.074 A 
ATOM     42  C   UNL A   1      41.822  31.732  30.340  1.00  0.00     0.031 C 
ATOM     43  C   UNL A   1      40.439  25.550  27.613  1.00  0.00     0.029 A 
ATOM     44  C   UNL A   1      41.815  25.757  28.052  1.00  0.00     0.049 A 
ATOM     45  H   UNL A   1      42.618  27.457  28.947  1.00  0.00     0.167 HD
ATOM     46  C   UNL A   1      44.183  31.131  30.762  1.00  0.00     0.037 A 
ATOM     47  C   UNL A   1      42.813  24.860  27.942  1.00  0.00     0.037 A 
ATOM     48  C   UNL A   1      45.291  30.214  30.757  1.00  0.00     0.049 A 
ATOM     49  C   UNL A   1      44.180  25.222  28.455  1.00  0.00     0.074 A 
ATOM     50  C   UNL A   1      46.568  30.399  31.253  1.00  0.00     0.029 A 
ATOM     51  N   UNL A   1      45.248  28.933  30.226  1.00  0.00    -0.354 N 
ATOM     52  N   UNL A   1      44.584  26.331  29.024  1.00  0.00    -0.248 NA
ATOM     53  C   UNL A   1      45.228  24.202  28.312  1.00  0.00     0.031 C 
ATOM     54  C   UNL A   1      47.312  29.246  30.981  1.00  0.00     0.029 A 
ATOM     55  C   UNL A   1      46.484  28.324  30.361  1.00  0.00     0.049 A 
ATOM     56  H   UNL A   1      44.455  28.518  29.813  1.00  0.00     0.167 HD
ATOM     57  C   UNL A   1      45.923  26.134  29.334  1.00  0.00     0.074 A 
ATOM     58  C   UNL A   1      46.259  24.794  28.900  1.00  0.00     0.031 C 
ATOM     59  C   UNL A   1      46.797  26.987  29.925  1.00  0.00     0.037 A 
BRANCH  46  60
ATOM     60  C   UNL A   1      44.389  32.516  31.310  1.00  0.00     0.057 A 
ATOM     61  C   UNL A   1      44.798  33.582  30.496  1.00  0.00     0.134 A 
ATOM     62  C   UNL A   1      44.178  32.786  32.668  1.00  0.00     0.134 A 
ATOM     63  F   UNL A   1      45.032  33.389  29.190  1.00  0.00    -0.206 F 
ATOM     64  C   UNL A   1      45.032  34.855  31.020  1.00  0.00     0.040 A 
ATOM     65  C   UNL A   1      44.376  34.064  33.197  1.00  0.00     0.040 A 
ATOM     66  F   UNL A   1      43.779  31.816  33.503  1.00  0.00    -0.206 F 
ATOM     67  C   UNL A   1      44.816  35.099  32.375  1.00  0.00     0.006 A 
ENDBRANCH  46  60
BRANCH  47  68
ATOM     68  C   UNL A   1      42.543  23.520  27.366  1.00  0.00     0.057 A 
ATOM     69  C   UNL A   1      42.140  22.456  28.183  1.00  0.00     0.134 A 
ATOM     70  C   UNL A   1      42.669  23.268  25.995  1.00  0.00     0.134 A 
ATOM     71  F   UNL A   1      42.019  22.631  29.506  1.00  0.00    -0.206 F 
ATOM     72  C   UNL A   1      41.885  21.187  27.659  1.00  0.00     0.040 A 
ATOM     73  C   UNL A   1      42.395  22.011  25.454  1.00  0.00     0.040 A 
ATOM     74  F   UNL A   1      43.043  24.247  25.159  1.00  0.00    -0.206 F 
ATOM     75  C   UNL A   1      42.007  20.965  26.289  1.00  0.00     0.006 A 
ENDBRANCH  47  68
BRANCH  59  76
ATOM     76  C   UNL A   1      48.189  26.483  30.166  1.00  0.00     0.057 A 
ATOM     77  C   UNL A   1      49.216  26.668  29.232  1.00  0.00     0.134 A 
ATOM     78  C   UNL A   1      48.515  25.838  31.367  1.00  0.00     0.134 A 
ATOM     79  F   UNL A   1      48.966  27.267  28.057  1.00  0.00    -0.206 F 
ATOM     80  C   UNL A   1      50.513  26.212  29.474  1.00  0.00     0.040 A 
ATOM     81  C   UNL A   1      49.813  25.402  31.632  1.00  0.00     0.040 A 
ATOM     82  F   UNL A   1      47.580  25.636  32.308  1.00  0.00    -0.206 F 
ATOM     83  C   UNL A   1      50.816  25.583  30.680  1.00  0.00     0.006 A 
ENDBRANCH  59  76
ENDBRANCH  33  34
ENDBRANCH  25  28
ENDBRANCH  23  24
ENDBRANCH   1  23
TORSDOF 12
ENDMDL
