MODEL 1
REMARK VINA RESULT:     -11.5      0.000      0.000
REMARK SMILES CO[C@@H]1C[C@@H](C(=O)NCCCNC(=O)c2ccc(-c3c4nc(c(-c5c(F)cccc5F)c5ccc([nH]5)c(-c5c(F)cccc5F)c5nc(c(-c6c(F)cccc6F)c6ccc3[nH]6)C=C5)C=C4)cc2)N(S(=O)(=O)c2ccc(Cl)cc2F)C1
REMARK SMILES IDX 10 1 9 2 8 3 6 4 7 5 5 7 3 8 4 9 81 10 69 11 2 12 1 13 70 14
REMARK SMILES IDX 71 15 72 16 73 17 74 18 79 19 75 20 78 21 80 22 76 23 77 24
REMARK SMILES IDX 11 25 12 26 13 27 14 29 15 30 16 31 68 32 17 33 67 34 18 35
REMARK SMILES IDX 19 36 20 37 61 38 21 39 66 40 60 41 62 42 22 43 65 44 59 45
REMARK SMILES IDX 58 46 23 48 49 49 32 50 48 51 33 52 36 53 47 54 63 55 34 56
REMARK SMILES IDX 35 57 46 59 64 60 37 61 24 62 25 63 30 64 26 65 27 66 29 67
REMARK SMILES IDX 31 68 28 69 50 70 51 71 56 72 52 73 53 74 55 75 57 76 54 77
REMARK SMILES IDX 38 78 39 79 44 80 40 81 41 82 43 83 45 84 42 85
REMARK H PARENT 8 6 12 28 62 47 36 58
REMARK Flexibility Score: inf
ROOT
ATOM      1  C   UNL A   1      38.128  19.346  24.976  1.00  0.00     0.042 C 
ENDROOT
BRANCH   1   2
ATOM      2  C   UNL A   1      37.234  20.443  24.407  1.00  0.00     0.117 C 
BRANCH   2   3
ATOM      3  N   UNL A   1      36.860  21.429  25.397  1.00  0.00    -0.355 N 
ATOM      4  C   UNL A   1      35.670  21.780  25.942  1.00  0.00     0.238 C 
ATOM      5  O   UNL A   1      35.738  22.585  26.881  1.00  0.00    -0.273 OA
ATOM      6  H   UNL A   1      37.620  21.948  25.744  1.00  0.00     0.163 HD
BRANCH   4   7
ATOM      7  C   UNL A   1      34.329  21.165  25.578  1.00  0.00     0.165 C 
ATOM      8  C   UNL A   1      32.658  19.747  24.642  1.00  0.00     0.135 C 
ATOM      9  C   UNL A   1      34.170  19.939  24.688  1.00  0.00     0.064 C 
ATOM     10  C   UNL A   1      32.060  21.148  24.880  1.00  0.00     0.135 C 
ATOM     11  N   UNL A   1      33.231  22.084  25.097  1.00  0.00    -0.183 NA
BRANCH   8  12
ATOM     12  O   UNL A   1      32.178  18.729  25.529  1.00  0.00    -0.380 OA
ATOM     13  C   UNL A   1      32.538  17.380  25.271  1.00  0.00     0.195 C 
ENDBRANCH   8  12
BRANCH  11  14
ATOM     14  S   UNL A   1      33.518  23.092  23.730  1.00  0.00     0.246 S 
ATOM     15  O   UNL A   1      34.814  22.738  23.185  1.00  0.00    -0.207 OA
ATOM     16  O   UNL A   1      32.346  22.979  22.887  1.00  0.00    -0.207 OA
BRANCH  14  17
ATOM     17  C   UNL A   1      33.561  24.763  24.283  1.00  0.00     0.118 A 
ATOM     18  C   UNL A   1      33.446  25.044  25.652  1.00  0.00     0.026 A 
ATOM     19  C   UNL A   1      33.603  25.811  23.368  1.00  0.00     0.144 A 
ATOM     20  C   UNL A   1      33.463  26.371  26.092  1.00  0.00     0.022 A 
ATOM     21  C   UNL A   1      33.658  27.132  23.804  1.00  0.00     0.061 A 
ATOM     22  F   UNL A   1      33.661  25.585  22.049  1.00  0.00    -0.205 F 
ATOM     23  C   UNL A   1      33.599  27.406  25.167  1.00  0.00     0.044 A 
ATOM     24  Cl  UNL A   1      33.690  29.035  25.713  1.00  0.00    -0.084 Cl
ENDBRANCH  14  17
ENDBRANCH  11  14
ENDBRANCH   4   7
ENDBRANCH   2   3
ENDBRANCH   1   2
BRANCH   1  25
ATOM     25  C   UNL A   1      39.136  19.845  26.008  1.00  0.00     0.118 C 
BRANCH  25  26
ATOM     26  N   UNL A   1      40.411  19.152  25.912  1.00  0.00    -0.352 N 
ATOM     27  C   UNL A   1      41.697  19.616  25.986  1.00  0.00     0.251 C 
ATOM     28  H   UNL A   1      40.337  18.182  25.769  1.00  0.00     0.163 HD
ATOM     29  O   UNL A   1      42.610  18.882  25.616  1.00  0.00    -0.269 OA
BRANCH  27  30
ATOM     30  C   UNL A   1      42.008  20.965  26.509  1.00  0.00     0.039 A 
ATOM     31  C   UNL A   1      41.986  21.157  27.894  1.00  0.00     0.014 A 
ATOM     32  C   UNL A   1      42.228  22.055  25.661  1.00  0.00     0.014 A 
ATOM     33  C   UNL A   1      42.216  22.427  28.425  1.00  0.00     0.010 A 
ATOM     34  C   UNL A   1      42.536  23.306  26.195  1.00  0.00     0.010 A 
ATOM     35  C   UNL A   1      42.517  23.509  27.582  1.00  0.00    -0.014 A 
BRANCH  35  36
ATOM     36  C   UNL A   1      42.808  24.848  28.153  1.00  0.00     0.031 A 
ATOM     37  C   UNL A   1      44.210  25.231  28.542  1.00  0.00     0.074 A 
ATOM     38  C   UNL A   1      41.795  25.717  28.335  1.00  0.00     0.049 A 
ATOM     39  N   UNL A   1      44.649  26.360  29.040  1.00  0.00    -0.248 NA
ATOM     40  C   UNL A   1      45.254  24.207  28.372  1.00  0.00     0.031 C 
ATOM     41  C   UNL A   1      40.385  25.442  28.054  1.00  0.00     0.029 A 
ATOM     42  N   UNL A   1      41.795  27.008  28.799  1.00  0.00    -0.354 N 
ATOM     43  C   UNL A   1      46.013  26.183  29.240  1.00  0.00     0.074 A 
ATOM     44  C   UNL A   1      46.320  24.819  28.868  1.00  0.00     0.031 C 
ATOM     45  C   UNL A   1      39.660  26.539  28.322  1.00  0.00     0.029 A 
ATOM     46  C   UNL A   1      40.548  27.584  28.821  1.00  0.00     0.049 A 
ATOM     47  H   UNL A   1      42.611  27.477  29.089  1.00  0.00     0.167 HD
ATOM     48  C   UNL A   1      46.931  27.083  29.667  1.00  0.00     0.037 A 
ATOM     49  C   UNL A   1      40.164  28.817  29.200  1.00  0.00     0.037 A 
ATOM     50  C   UNL A   1      46.626  28.443  30.028  1.00  0.00     0.049 A 
ATOM     51  C   UNL A   1      41.206  29.799  29.655  1.00  0.00     0.074 A 
ATOM     52  C   UNL A   1      47.491  29.442  30.443  1.00  0.00     0.029 A 
ATOM     53  N   UNL A   1      45.355  28.998  30.013  1.00  0.00    -0.354 N 
ATOM     54  N   UNL A   1      42.501  29.636  29.778  1.00  0.00    -0.248 NA
ATOM     55  C   UNL A   1      40.734  31.144  30.008  1.00  0.00     0.031 C 
ATOM     56  C   UNL A   1      46.737  30.590  30.714  1.00  0.00     0.029 A 
ATOM     57  C   UNL A   1      45.410  30.321  30.421  1.00  0.00     0.049 A 
ATOM     58  H   UNL A   1      44.534  28.521  29.752  1.00  0.00     0.167 HD
ATOM     59  C   UNL A   1      43.000  30.860  30.200  1.00  0.00     0.074 A 
ATOM     60  C   UNL A   1      41.872  31.764  30.283  1.00  0.00     0.031 C 
ATOM     61  C   UNL A   1      44.277  31.205  30.500  1.00  0.00     0.037 A 
BRANCH  48  62
ATOM     62  C   UNL A   1      48.361  26.629  29.750  1.00  0.00     0.057 A 
ATOM     63  C   UNL A   1      49.264  26.852  28.701  1.00  0.00     0.134 A 
ATOM     64  C   UNL A   1      48.855  26.008  30.904  1.00  0.00     0.134 A 
ATOM     65  F   UNL A   1      48.853  27.431  27.562  1.00  0.00    -0.206 F 
ATOM     66  C   UNL A   1      50.599  26.455  28.788  1.00  0.00     0.040 A 
ATOM     67  C   UNL A   1      50.196  25.631  31.013  1.00  0.00     0.040 A 
ATOM     68  F   UNL A   1      48.049  25.769  31.948  1.00  0.00    -0.206 F 
ATOM     69  C   UNL A   1      51.070  25.850  29.951  1.00  0.00     0.006 A 
ENDBRANCH  48  62
BRANCH  49  70
ATOM     70  C   UNL A   1      38.731  29.202  29.142  1.00  0.00     0.057 A 
ATOM     71  C   UNL A   1      37.913  29.127  30.276  1.00  0.00     0.134 A 
ATOM     72  C   UNL A   1      38.141  29.634  27.950  1.00  0.00     0.134 A 
ATOM     73  F   UNL A   1      38.416  28.704  31.445  1.00  0.00    -0.206 F 
ATOM     74  C   UNL A   1      36.554  29.436  30.218  1.00  0.00     0.040 A 
ATOM     75  C   UNL A   1      36.790  29.976  27.884  1.00  0.00     0.040 A 
ATOM     76  F   UNL A   1      38.874  29.740  26.831  1.00  0.00    -0.206 F 
ATOM     77  C   UNL A   1      35.989  29.866  29.019  1.00  0.00     0.006 A 
ENDBRANCH  49  70
BRANCH  61  78
ATOM     78  C   UNL A   1      44.513  32.630  30.915  1.00  0.00     0.057 A 
ATOM     79  C   UNL A   1      44.792  33.636  29.982  1.00  0.00     0.134 A 
ATOM     80  C   UNL A   1      44.465  32.996  32.266  1.00  0.00     0.134 A 
ATOM     81  F   UNL A   1      44.867  33.349  28.673  1.00  0.00    -0.206 F 
ATOM     82  C   UNL A   1      45.057  34.947  30.380  1.00  0.00     0.040 A 
ATOM     83  C   UNL A   1      44.697  34.310  32.674  1.00  0.00     0.040 A 
ATOM     84  F   UNL A   1      44.192  32.084  33.211  1.00  0.00    -0.206 F 
ATOM     85  C   UNL A   1      45.005  35.287  31.731  1.00  0.00     0.006 A 
ENDBRANCH  61  78
ENDBRANCH  35  36
ENDBRANCH  27  30
ENDBRANCH  25  26
ENDBRANCH   1  25
TORSDOF 13
ENDMDL
MODEL 2
REMARK VINA RESULT:     -11.4      4.204      8.100
REMARK SMILES CO[C@@H]1C[C@@H](C(=O)NCCCNC(=O)c2ccc(-c3c4nc(c(-c5c(F)cccc5F)c5ccc([nH]5)c(-c5c(F)cccc5F)c5nc(c(-c6c(F)cccc6F)c6ccc3[nH]6)C=C5)C=C4)cc2)N(S(=O)(=O)c2ccc(Cl)cc2F)C1
REMARK SMILES IDX 10 1 9 2 8 3 6 4 7 5 5 7 3 8 4 9 81 10 69 11 2 12 1 13 70 14
REMARK SMILES IDX 71 15 72 16 73 17 74 18 79 19 75 20 78 21 80 22 76 23 77 24
REMARK SMILES IDX 11 25 12 26 13 27 14 29 15 30 16 31 68 32 17 33 67 34 18 35
REMARK SMILES IDX 19 36 20 37 61 38 21 39 66 40 60 41 62 42 22 43 65 44 59 45
REMARK SMILES IDX 58 46 23 48 49 49 32 50 48 51 33 52 36 53 47 54 63 55 34 56
REMARK SMILES IDX 35 57 46 59 64 60 37 61 24 62 25 63 30 64 26 65 27 66 29 67
REMARK SMILES IDX 31 68 28 69 50 70 51 71 56 72 52 73 53 74 55 75 57 76 54 77
REMARK SMILES IDX 38 78 39 79 44 80 40 81 41 82 43 83 45 84 42 85
REMARK H PARENT 8 6 12 28 62 47 36 58
REMARK Flexibility Score: inf
ROOT
ATOM      1  C   UNL A   1      37.198  23.308  25.218  1.00  0.00     0.042 C 
ENDROOT
BRANCH   1   2
ATOM      2  C   UNL A   1      36.647  21.977  25.720  1.00  0.00     0.117 C 
BRANCH   2   3
ATOM      3  N   UNL A   1      35.578  22.141  26.681  1.00  0.00    -0.355 N 
ATOM      4  C   UNL A   1      34.330  21.621  26.766  1.00  0.00     0.238 C 
ATOM      5  O   UNL A   1      33.725  21.873  27.817  1.00  0.00    -0.273 OA
ATOM      6  H   UNL A   1      35.802  22.751  27.420  1.00  0.00     0.163 HD
BRANCH   4   7
ATOM      7  C   UNL A   1      33.710  20.671  25.755  1.00  0.00     0.165 C 
ATOM      8  C   UNL A   1      33.437  19.033  24.046  1.00  0.00     0.135 C 
ATOM      9  C   UNL A   1      34.517  19.751  24.848  1.00  0.00     0.064 C 
ATOM     10  C   UNL A   1      32.236  19.998  24.019  1.00  0.00     0.135 C 
ATOM     11  N   UNL A   1      32.641  21.210  24.834  1.00  0.00    -0.183 NA
BRANCH   8  12
ATOM     12  O   UNL A   1      33.140  17.716  24.528  1.00  0.00    -0.380 OA
ATOM     13  C   UNL A   1      33.786  16.608  23.917  1.00  0.00     0.195 C 
ENDBRANCH   8  12
BRANCH  11  14
ATOM     14  S   UNL A   1      32.996  22.571  23.840  1.00  0.00     0.246 S 
ATOM     15  O   UNL A   1      34.393  22.488  23.461  1.00  0.00    -0.207 OA
ATOM     16  O   UNL A   1      31.986  22.593  22.802  1.00  0.00    -0.207 OA
BRANCH  14  17
ATOM     17  C   UNL A   1      32.742  24.027  24.797  1.00  0.00     0.118 A 
ATOM     18  C   UNL A   1      33.795  24.936  24.968  1.00  0.00     0.026 A 
ATOM     19  C   UNL A   1      31.542  24.231  25.471  1.00  0.00     0.144 A 
ATOM     20  C   UNL A   1      33.601  26.084  25.742  1.00  0.00     0.022 A 
ATOM     21  C   UNL A   1      31.332  25.391  26.212  1.00  0.00     0.061 A 
ATOM     22  F   UNL A   1      30.530  23.358  25.376  1.00  0.00    -0.205 F 
ATOM     23  C   UNL A   1      32.360  26.319  26.336  1.00  0.00     0.044 A 
ATOM     24  Cl  UNL A   1      32.100  27.765  27.231  1.00  0.00    -0.084 Cl
ENDBRANCH  14  17
ENDBRANCH  11  14
ENDBRANCH   4   7
ENDBRANCH   2   3
ENDBRANCH   1   2
BRANCH   1  25
ATOM     25  C   UNL A   1      38.034  24.057  26.252  1.00  0.00     0.118 C 
BRANCH  25  26
ATOM     26  N   UNL A   1      39.461  23.837  26.070  1.00  0.00    -0.352 N 
ATOM     27  C   UNL A   1      40.546  24.558  26.493  1.00  0.00     0.251 C 
ATOM     28  H   UNL A   1      39.685  23.030  25.554  1.00  0.00     0.163 HD
ATOM     29  O   UNL A   1      41.643  24.317  25.995  1.00  0.00    -0.269 OA
BRANCH  27  30
ATOM     30  C   UNL A   1      40.427  25.602  27.534  1.00  0.00     0.039 A 
ATOM     31  C   UNL A   1      41.313  26.684  27.487  1.00  0.00     0.014 A 
ATOM     32  C   UNL A   1      39.528  25.489  28.598  1.00  0.00     0.014 A 
ATOM     33  C   UNL A   1      41.274  27.660  28.483  1.00  0.00     0.010 A 
ATOM     34  C   UNL A   1      39.436  26.506  29.549  1.00  0.00     0.010 A 
ATOM     35  C   UNL A   1      40.319  27.594  29.510  1.00  0.00    -0.014 A 
BRANCH  35  36
ATOM     36  C   UNL A   1      40.248  28.660  30.541  1.00  0.00     0.031 A 
ATOM     37  C   UNL A   1      39.244  29.775  30.428  1.00  0.00     0.074 A 
ATOM     38  C   UNL A   1      41.109  28.628  31.577  1.00  0.00     0.049 A 
ATOM     39  N   UNL A   1      39.032  30.779  31.242  1.00  0.00    -0.248 NA
ATOM     40  C   UNL A   1      38.380  29.778  29.237  1.00  0.00     0.031 C 
ATOM     41  C   UNL A   1      42.167  27.634  31.765  1.00  0.00     0.029 A 
ATOM     42  N   UNL A   1      41.230  29.452  32.667  1.00  0.00    -0.354 N 
ATOM     43  C   UNL A   1      38.013  31.528  30.663  1.00  0.00     0.074 A 
ATOM     44  C   UNL A   1      37.692  30.899  29.401  1.00  0.00     0.031 C 
ATOM     45  C   UNL A   1      42.810  27.887  32.916  1.00  0.00     0.029 A 
ATOM     46  C   UNL A   1      42.230  29.077  33.531  1.00  0.00     0.049 A 
ATOM     47  H   UNL A   1      40.655  30.238  32.815  1.00  0.00     0.167 HD
ATOM     48  C   UNL A   1      37.384  32.623  31.153  1.00  0.00     0.037 A 
ATOM     49  C   UNL A   1      42.633  29.630  34.690  1.00  0.00     0.037 A 
ATOM     50  C   UNL A   1      37.699  33.243  32.414  1.00  0.00     0.049 A 
ATOM     51  C   UNL A   1      41.907  30.835  35.216  1.00  0.00     0.074 A 
ATOM     52  C   UNL A   1      37.098  34.338  33.013  1.00  0.00     0.029 A 
ATOM     53  N   UNL A   1      38.701  32.820  33.274  1.00  0.00    -0.354 N 
ATOM     54  N   UNL A   1      40.903  31.494  34.688  1.00  0.00    -0.248 NA
ATOM     55  C   UNL A   1      42.358  31.364  36.509  1.00  0.00     0.031 C 
ATOM     56  C   UNL A   1      37.761  34.598  34.217  1.00  0.00     0.029 A 
ATOM     57  C   UNL A   1      38.742  33.636  34.393  1.00  0.00     0.049 A 
ATOM     58  H   UNL A   1      39.296  32.052  33.112  1.00  0.00     0.167 HD
ATOM     59  C   UNL A   1      40.590  32.499  35.592  1.00  0.00     0.074 A 
ATOM     60  C   UNL A   1      41.490  32.344  36.716  1.00  0.00     0.031 C 
ATOM     61  C   UNL A   1      39.647  33.469  35.500  1.00  0.00     0.037 A 
BRANCH  48  62
ATOM     62  C   UNL A   1      36.275  33.212  30.328  1.00  0.00     0.057 A 
ATOM     63  C   UNL A   1      34.929  33.039  30.678  1.00  0.00     0.134 A 
ATOM     64  C   UNL A   1      36.553  34.000  29.203  1.00  0.00     0.134 A 
ATOM     65  F   UNL A   1      34.593  32.287  31.737  1.00  0.00    -0.206 F 
ATOM     66  C   UNL A   1      33.899  33.610  29.927  1.00  0.00     0.040 A 
ATOM     67  C   UNL A   1      35.532  34.597  28.460  1.00  0.00     0.040 A 
ATOM     68  F   UNL A   1      37.818  34.212  28.814  1.00  0.00    -0.206 F 
ATOM     69  C   UNL A   1      34.201  34.399  28.819  1.00  0.00     0.006 A 
ENDBRANCH  48  62
BRANCH  49  70
ATOM     70  C   UNL A   1      43.765  29.035  35.445  1.00  0.00     0.057 A 
ATOM     71  C   UNL A   1      45.082  29.461  35.234  1.00  0.00     0.134 A 
ATOM     72  C   UNL A   1      43.559  28.015  36.380  1.00  0.00     0.134 A 
ATOM     73  F   UNL A   1      45.344  30.425  34.340  1.00  0.00    -0.206 F 
ATOM     74  C   UNL A   1      46.156  28.872  35.902  1.00  0.00     0.040 A 
ATOM     75  C   UNL A   1      44.621  27.437  37.077  1.00  0.00     0.040 A 
ATOM     76  F   UNL A   1      42.320  27.570  36.636  1.00  0.00    -0.206 F 
ATOM     77  C   UNL A   1      45.926  27.858  36.829  1.00  0.00     0.006 A 
ENDBRANCH  49  70
BRANCH  61  78
ATOM     78  C   UNL A   1      39.531  34.413  36.663  1.00  0.00     0.057 A 
ATOM     79  C   UNL A   1      40.161  35.663  36.666  1.00  0.00     0.134 A 
ATOM     80  C   UNL A   1      38.783  34.062  37.794  1.00  0.00     0.134 A 
ATOM     81  F   UNL A   1      40.904  36.054  35.619  1.00  0.00    -0.206 F 
ATOM     82  C   UNL A   1      40.086  36.515  37.769  1.00  0.00     0.040 A 
ATOM     83  C   UNL A   1      38.676  34.918  38.891  1.00  0.00     0.040 A 
ATOM     84  F   UNL A   1      38.145  32.884  37.853  1.00  0.00    -0.206 F 
ATOM     85  C   UNL A   1      39.338  36.144  38.885  1.00  0.00     0.006 A 
ENDBRANCH  61  78
ENDBRANCH  35  36
ENDBRANCH  27  30
ENDBRANCH  25  26
ENDBRANCH   1  25
TORSDOF 13
ENDMDL
MODEL 3
REMARK VINA RESULT:     -11.4      3.679      8.159
REMARK SMILES CO[C@@H]1C[C@@H](C(=O)NCCCNC(=O)c2ccc(-c3c4nc(c(-c5c(F)cccc5F)c5ccc([nH]5)c(-c5c(F)cccc5F)c5nc(c(-c6c(F)cccc6F)c6ccc3[nH]6)C=C5)C=C4)cc2)N(S(=O)(=O)c2ccc(Cl)cc2F)C1
REMARK SMILES IDX 10 1 9 2 8 3 6 4 7 5 5 7 3 8 4 9 81 10 69 11 2 12 1 13 70 14
REMARK SMILES IDX 71 15 72 16 73 17 74 18 79 19 75 20 78 21 80 22 76 23 77 24
REMARK SMILES IDX 11 25 12 26 13 27 14 29 15 30 16 31 68 32 17 33 67 34 18 35
REMARK SMILES IDX 19 36 20 37 61 38 21 39 66 40 60 41 62 42 22 43 65 44 59 45
REMARK SMILES IDX 58 46 23 48 49 49 32 50 48 51 33 52 36 53 47 54 63 55 34 56
REMARK SMILES IDX 35 57 46 59 64 60 37 61 24 62 25 63 30 64 26 65 27 66 29 67
REMARK SMILES IDX 31 68 28 69 50 70 51 71 56 72 52 73 53 74 55 75 57 76 54 77
REMARK SMILES IDX 38 78 39 79 44 80 40 81 41 82 43 83 45 84 42 85
REMARK H PARENT 8 6 12 28 62 47 36 58
REMARK Flexibility Score: inf
ROOT
ATOM      1  C   UNL A   1      33.520  27.827  26.888  1.00  0.00     0.042 C 
ENDROOT
BRANCH   1   2
ATOM      2  C   UNL A   1      32.040  27.860  27.254  1.00  0.00     0.117 C 
BRANCH   2   3
ATOM      3  N   UNL A   1      31.350  26.637  26.907  1.00  0.00    -0.355 N 
ATOM      4  C   UNL A   1      30.705  26.231  25.787  1.00  0.00     0.238 C 
ATOM      5  O   UNL A   1      30.344  25.046  25.787  1.00  0.00    -0.273 OA
ATOM      6  H   UNL A   1      31.348  25.967  27.628  1.00  0.00     0.163 HD
BRANCH   4   7
ATOM      7  C   UNL A   1      30.531  27.066  24.529  1.00  0.00     0.165 C 
ATOM      8  C   UNL A   1      29.580  28.128  22.620  1.00  0.00     0.135 C 
ATOM      9  C   UNL A   1      29.212  27.210  23.780  1.00  0.00     0.064 C 
ATOM     10  C   UNL A   1      31.084  27.896  22.374  1.00  0.00     0.135 C 
ATOM     11  N   UNL A   1      31.540  26.897  23.418  1.00  0.00    -0.183 NA
BRANCH   8  12
ATOM     12  O   UNL A   1      29.208  29.497  22.825  1.00  0.00    -0.380 OA
ATOM     13  C   UNL A   1      29.250  30.385  21.717  1.00  0.00     0.195 C 
ENDBRANCH   8  12
BRANCH  11  14
ATOM     14  S   UNL A   1      31.798  25.331  22.747  1.00  0.00     0.246 S 
ATOM     15  O   UNL A   1      30.619  24.533  23.025  1.00  0.00    -0.207 OA
ATOM     16  O   UNL A   1      32.200  25.537  21.371  1.00  0.00    -0.207 OA
BRANCH  14  17
ATOM     17  C   UNL A   1      33.185  24.611  23.558  1.00  0.00     0.118 A 
ATOM     18  C   UNL A   1      33.895  25.355  24.511  1.00  0.00     0.026 A 
ATOM     19  C   UNL A   1      33.648  23.352  23.187  1.00  0.00     0.144 A 
ATOM     20  C   UNL A   1      35.007  24.792  25.143  1.00  0.00     0.022 A 
ATOM     21  C   UNL A   1      34.732  22.772  23.841  1.00  0.00     0.061 A 
ATOM     22  F   UNL A   1      33.028  22.631  22.243  1.00  0.00    -0.205 F 
ATOM     23  C   UNL A   1      35.401  23.492  24.825  1.00  0.00     0.044 A 
ATOM     24  Cl  UNL A   1      36.727  22.773  25.653  1.00  0.00    -0.084 Cl
ENDBRANCH  14  17
ENDBRANCH  11  14
ENDBRANCH   4   7
ENDBRANCH   2   3
ENDBRANCH   1   2
BRANCH   1  25
ATOM     25  C   UNL A   1      33.961  28.989  26.001  1.00  0.00     0.118 C 
BRANCH  25  26
ATOM     26  N   UNL A   1      33.786  30.277  26.654  1.00  0.00    -0.352 N 
ATOM     27  C   UNL A   1      34.456  30.859  27.696  1.00  0.00     0.251 C 
ATOM     28  H   UNL A   1      33.059  30.826  26.282  1.00  0.00     0.163 HD
ATOM     29  O   UNL A   1      33.959  31.841  28.241  1.00  0.00    -0.269 OA
BRANCH  27  30
ATOM     30  C   UNL A   1      35.759  30.341  28.169  1.00  0.00     0.039 A 
ATOM     31  C   UNL A   1      35.798  29.677  29.399  1.00  0.00     0.014 A 
ATOM     32  C   UNL A   1      36.947  30.577  27.471  1.00  0.00     0.014 A 
ATOM     33  C   UNL A   1      37.016  29.224  29.908  1.00  0.00     0.010 A 
ATOM     34  C   UNL A   1      38.152  30.056  27.942  1.00  0.00     0.010 A 
ATOM     35  C   UNL A   1      38.201  29.388  29.173  1.00  0.00    -0.014 A 
BRANCH  35  36
ATOM     36  C   UNL A   1      39.488  28.863  29.696  1.00  0.00     0.031 A 
ATOM     37  C   UNL A   1      40.133  29.475  30.910  1.00  0.00     0.074 A 
ATOM     38  C   UNL A   1      40.085  27.838  29.058  1.00  0.00     0.049 A 
ATOM     39  N   UNL A   1      41.246  29.136  31.513  1.00  0.00    -0.248 NA
ATOM     40  C   UNL A   1      39.455  30.632  31.515  1.00  0.00     0.031 C 
ATOM     41  C   UNL A   1      39.590  27.199  27.837  1.00  0.00     0.029 A 
ATOM     42  N   UNL A   1      41.236  27.150  29.349  1.00  0.00    -0.354 N 
ATOM     43  C   UNL A   1      41.398  30.033  32.564  1.00  0.00     0.074 A 
ATOM     44  C   UNL A   1      40.298  30.970  32.481  1.00  0.00     0.031 C 
ATOM     45  C   UNL A   1      40.415  26.196  27.500  1.00  0.00     0.029 A 
ATOM     46  C   UNL A   1      41.511  26.138  28.462  1.00  0.00     0.049 A 
ATOM     47  H   UNL A   1      41.811  27.363  30.120  1.00  0.00     0.167 HD
ATOM     48  C   UNL A   1      42.350  30.058  33.526  1.00  0.00     0.037 A 
ATOM     49  C   UNL A   1      42.531  25.261  28.429  1.00  0.00     0.037 A 
ATOM     50  C   UNL A   1      43.439  29.119  33.613  1.00  0.00     0.049 A 
ATOM     51  C   UNL A   1      43.565  25.301  29.518  1.00  0.00     0.074 A 
ATOM     52  C   UNL A   1      44.439  29.041  34.568  1.00  0.00     0.029 A 
ATOM     53  N   UNL A   1      43.670  28.092  32.710  1.00  0.00    -0.354 N 
ATOM     54  N   UNL A   1      43.659  26.116  30.541  1.00  0.00    -0.248 NA
ATOM     55  C   UNL A   1      44.626  24.288  29.457  1.00  0.00     0.031 C 
ATOM     56  C   UNL A   1      45.294  27.988  34.222  1.00  0.00     0.029 A 
ATOM     57  C   UNL A   1      44.800  27.380  33.080  1.00  0.00     0.049 A 
ATOM     58  H   UNL A   1      43.113  27.897  31.922  1.00  0.00     0.167 HD
ATOM     59  C   UNL A   1      44.774  25.701  31.256  1.00  0.00     0.074 A 
ATOM     60  C   UNL A   1      45.304  24.544  30.566  1.00  0.00     0.031 C 
ATOM     61  C   UNL A   1      45.316  26.233  32.380  1.00  0.00     0.037 A 
BRANCH  48  62
ATOM     62  C   UNL A   1      42.246  31.125  34.578  1.00  0.00     0.057 A 
ATOM     63  C   UNL A   1      41.520  30.923  35.760  1.00  0.00     0.134 A 
ATOM     64  C   UNL A   1      42.916  32.347  34.434  1.00  0.00     0.134 A 
ATOM     65  F   UNL A   1      40.846  29.780  35.956  1.00  0.00    -0.206 F 
ATOM     66  C   UNL A   1      41.446  31.905  36.750  1.00  0.00     0.040 A 
ATOM     67  C   UNL A   1      42.871  33.326  35.430  1.00  0.00     0.040 A 
ATOM     68  F   UNL A   1      43.634  32.606  33.332  1.00  0.00    -0.206 F 
ATOM     69  C   UNL A   1      42.131  33.107  36.589  1.00  0.00     0.006 A 
ENDBRANCH  48  62
BRANCH  49  70
ATOM     70  C   UNL A   1      42.612  24.253  27.341  1.00  0.00     0.057 A 
ATOM     71  C   UNL A   1      42.104  22.960  27.510  1.00  0.00     0.134 A 
ATOM     72  C   UNL A   1      43.218  24.553  26.116  1.00  0.00     0.134 A 
ATOM     73  F   UNL A   1      41.526  22.607  28.668  1.00  0.00    -0.206 F 
ATOM     74  C   UNL A   1      42.224  21.992  26.512  1.00  0.00     0.040 A 
ATOM     75  C   UNL A   1      43.318  23.604  25.098  1.00  0.00     0.040 A 
ATOM     76  F   UNL A   1      43.714  25.778  25.887  1.00  0.00    -0.206 F 
ATOM     77  C   UNL A   1      42.829  22.314  25.300  1.00  0.00     0.006 A 
ENDBRANCH  49  70
BRANCH  61  78
ATOM     78  C   UNL A   1      46.527  25.543  32.939  1.00  0.00     0.057 A 
ATOM     79  C   UNL A   1      46.422  24.523  33.894  1.00  0.00     0.134 A 
ATOM     80  C   UNL A   1      47.813  25.907  32.520  1.00  0.00     0.134 A 
ATOM     81  F   UNL A   1      45.220  24.136  34.348  1.00  0.00    -0.206 F 
ATOM     82  C   UNL A   1      47.554  23.919  34.443  1.00  0.00     0.040 A 
ATOM     83  C   UNL A   1      48.951  25.289  33.040  1.00  0.00     0.040 A 
ATOM     84  F   UNL A   1      47.984  26.869  31.601  1.00  0.00    -0.206 F 
ATOM     85  C   UNL A   1      48.824  24.300  34.012  1.00  0.00     0.006 A 
ENDBRANCH  61  78
ENDBRANCH  35  36
ENDBRANCH  27  30
ENDBRANCH  25  26
ENDBRANCH   1  25
TORSDOF 13
ENDMDL
