MODEL 1
REMARK VINA RESULT:     -12.6      0.000      0.000
REMARK SMILES CC[C@@H](C)[C@H](NC(=O)[C@H](C)N1C(=O)N2CCC3=c4cc(OC)ccc4=N[C@H]3[C@@]2(C)C1=O)C(=O)NCCCNC(=O)c1ccc(-c2c3nc(c(-c4c(F)cccc4F)c4ccc([nH]4)c(-c4c(F)cccc4F)c4nc(c(-c5c(F)cccc5F)c5ccc2[nH]5)C=C4)C=C3)cc1
REMARK SMILES IDX 35 1 34 2 32 3 33 4 5 6 3 7 4 8 2 9 1 10 6 11 7 12 8 14 9 15
REMARK SMILES IDX 10 16 11 17 12 18 30 19 14 20 13 21 28 22 31 23 15 24 27 25
REMARK SMILES IDX 29 26 16 27 17 28 26 29 18 30 25 31 19 32 24 33 20 34 23 35
REMARK SMILES IDX 21 36 22 37 36 38 37 39 38 40 39 41 40 43 41 44 42 45 94 46
REMARK SMILES IDX 43 47 93 48 44 49 45 50 46 51 87 52 47 53 92 54 86 55 88 56
REMARK SMILES IDX 48 57 91 58 85 59 84 60 49 62 75 63 58 64 74 65 59 66 62 67
REMARK SMILES IDX 73 68 89 69 60 70 61 71 72 73 90 74 63 75 50 76 51 77 56 78
REMARK SMILES IDX 52 79 53 80 55 81 57 82 54 83 76 84 77 85 82 86 78 87 79 88
REMARK SMILES IDX 81 89 83 90 80 91 64 92 65 93 70 94 66 95 67 96 69 97 71 98
REMARK SMILES IDX 68 99
REMARK H PARENT 34 5 6 13 38 42 88 61 62 72
REMARK Flexibility Score: inf
ROOT
ATOM      1  C   UNL A   1      36.486  19.631  24.732  1.00  0.00     0.117 C 
ENDROOT
BRANCH   1   2
ATOM      2  N   UNL A   1      35.622  20.263  25.728  1.00  0.00    -0.354 N 
ATOM      3  C   UNL A   1      34.504  21.054  25.623  1.00  0.00     0.242 C 
ATOM      4  O   UNL A   1      33.830  21.234  26.644  1.00  0.00    -0.273 OA
ATOM      5  H   UNL A   1      35.893  20.085  26.657  1.00  0.00     0.163 HD
BRANCH   3   6
ATOM      6  C   UNL A   1      34.028  21.668  24.284  1.00  0.00     0.174 C 
BRANCH   6   7
ATOM      7  C   UNL A   1      33.077  20.709  23.520  1.00  0.00     0.018 C 
ATOM      8  C   UNL A   1      32.066  21.532  22.704  1.00  0.00     0.010 C 
BRANCH   7   9
ATOM      9  C   UNL A   1      32.419  19.688  24.467  1.00  0.00     0.002 C 
ATOM     10  C   UNL A   1      32.394  18.241  24.024  1.00  0.00     0.004 C 
ENDBRANCH   7   9
ENDBRANCH   6   7
BRANCH   6  11
ATOM     11  N   UNL A   1      35.148  22.162  23.491  1.00  0.00    -0.342 N 
ATOM     12  C   UNL A   1      35.605  23.457  23.452  1.00  0.00     0.243 C 
ATOM     13  H   UNL A   1      35.621  21.504  22.931  1.00  0.00     0.164 HD
ATOM     14  O   UNL A   1      36.558  23.706  22.713  1.00  0.00    -0.273 OA
BRANCH  12  15
ATOM     15  C   UNL A   1      34.836  24.547  24.214  1.00  0.00     0.181 C 
ATOM     16  C   UNL A   1      35.311  24.689  25.672  1.00  0.00     0.042 C 
BRANCH  15  17
ATOM     17  N   UNL A   1      33.411  24.828  23.930  1.00  0.00    -0.250 N 
ATOM     18  C   UNL A   1      32.179  24.643  24.585  1.00  0.00     0.328 C 
ATOM     19  C   UNL A   1      33.209  25.745  22.953  1.00  0.00     0.259 C 
ATOM     20  N   UNL A   1      31.099  25.074  23.666  1.00  0.00    -0.307 N 
ATOM     21  O   UNL A   1      32.010  24.373  25.764  1.00  0.00    -0.248 OA
ATOM     22  C   UNL A   1      31.790  26.126  23.024  1.00  0.00     0.147 C 
ATOM     23  O   UNL A   1      34.042  26.295  22.245  1.00  0.00    -0.271 OA
ATOM     24  C   UNL A   1      29.588  25.566  23.914  1.00  0.00     0.127 C 
ATOM     25  C   UNL A   1      31.654  27.193  24.155  1.00  0.00     0.168 C 
ATOM     26  C   UNL A   1      31.282  26.248  21.583  1.00  0.00     0.048 C 
ATOM     27  C   UNL A   1      29.385  27.374  23.700  1.00  0.00     0.055 C 
ATOM     28  C   UNL A   1      30.762  28.294  23.867  1.00  0.00    -0.032 C 
ATOM     29  N   UNL A   1      32.004  27.214  25.641  1.00  0.00    -0.274 NA
ATOM     30  C   UNL A   1      31.312  29.227  24.719  1.00  0.00     0.005 A 
ATOM     31  C   UNL A   1      31.384  28.350  25.938  1.00  0.00     0.066 A 
ATOM     32  C   UNL A   1      32.887  29.581  24.713  1.00  0.00     0.056 A 
ATOM     33  C   UNL A   1      31.513  29.086  27.197  1.00  0.00     0.032 A 
ATOM     34  C   UNL A   1      33.524  29.502  25.943  1.00  0.00     0.119 A 
ATOM     35  C   UNL A   1      32.713  29.686  27.154  1.00  0.00     0.048 A 
BRANCH  34  36
ATOM     36  O   UNL A   1      34.691  28.752  26.150  1.00  0.00    -0.497 OA
ATOM     37  C   UNL A   1      35.368  28.982  27.430  1.00  0.00     0.278 C 
ENDBRANCH  34  36
ENDBRANCH  15  17
ENDBRANCH  12  15
ENDBRANCH   6  11
ENDBRANCH   3   6
ENDBRANCH   1   2
BRANCH   1  38
ATOM     38  C   UNL A   1      37.770  18.955  25.217  1.00  0.00     0.042 C 
BRANCH  38  39
ATOM     39  C   UNL A   1      38.979  19.833  25.596  1.00  0.00     0.118 C 
BRANCH  39  40
ATOM     40  N   UNL A   1      40.233  19.189  25.946  1.00  0.00    -0.352 N 
ATOM     41  C   UNL A   1      41.364  19.767  26.506  1.00  0.00     0.251 C 
ATOM     42  H   UNL A   1      40.286  18.223  25.765  1.00  0.00     0.163 HD
ATOM     43  O   UNL A   1      42.400  19.154  26.623  1.00  0.00    -0.269 OA
BRANCH  41  44
ATOM     44  C   UNL A   1      41.281  21.171  26.977  1.00  0.00     0.039 A 
ATOM     45  C   UNL A   1      40.576  22.099  26.212  1.00  0.00     0.014 A 
ATOM     46  C   UNL A   1      41.952  21.570  28.132  1.00  0.00     0.014 A 
ATOM     47  C   UNL A   1      40.650  23.460  26.524  1.00  0.00     0.010 A 
ATOM     48  C   UNL A   1      41.997  22.930  28.463  1.00  0.00     0.010 A 
ATOM     49  C   UNL A   1      41.403  23.894  27.623  1.00  0.00    -0.014 A 
BRANCH  49  50
ATOM     50  C   UNL A   1      41.768  25.335  27.768  1.00  0.00     0.031 A 
ATOM     51  C   UNL A   1      43.078  25.800  27.180  1.00  0.00     0.074 A 
ATOM     52  C   UNL A   1      40.957  26.241  28.346  1.00  0.00     0.049 A 
ATOM     53  N   UNL A   1      43.718  26.930  27.347  1.00  0.00    -0.248 NA
ATOM     54  C   UNL A   1      43.761  24.851  26.286  1.00  0.00     0.031 C 
ATOM     55  C   UNL A   1      39.616  25.979  28.866  1.00  0.00     0.029 A 
ATOM     56  N   UNL A   1      41.154  27.580  28.591  1.00  0.00    -0.354 N 
ATOM     57  C   UNL A   1      44.904  26.799  26.633  1.00  0.00     0.074 A 
ATOM     58  C   UNL A   1      44.896  25.483  26.032  1.00  0.00     0.031 C 
ATOM     59  C   UNL A   1      39.107  27.122  29.358  1.00  0.00     0.029 A 
ATOM     60  C   UNL A   1      40.111  28.180  29.254  1.00  0.00     0.049 A 
ATOM     61  H   UNL A   1      41.966  28.064  28.316  1.00  0.00     0.167 HD
ATOM     62  C   UNL A   1      45.912  27.693  26.488  1.00  0.00     0.037 A 
ATOM     63  C   UNL A   1      39.998  29.425  29.762  1.00  0.00     0.037 A 
ATOM     64  C   UNL A   1      45.892  29.030  27.019  1.00  0.00     0.049 A 
ATOM     65  C   UNL A   1      41.158  30.382  29.653  1.00  0.00     0.074 A 
ATOM     66  C   UNL A   1      46.858  30.015  26.916  1.00  0.00     0.029 A 
ATOM     67  N   UNL A   1      44.838  29.575  27.735  1.00  0.00    -0.354 N 
ATOM     68  N   UNL A   1      42.311  30.224  29.049  1.00  0.00    -0.248 NA
ATOM     69  C   UNL A   1      41.009  31.683  30.325  1.00  0.00     0.031 C 
ATOM     70  C   UNL A   1      46.402  31.148  27.600  1.00  0.00     0.029 A 
ATOM     71  C   UNL A   1      45.137  30.878  28.095  1.00  0.00     0.049 A 
ATOM     72  H   UNL A   1      44.001  29.106  27.955  1.00  0.00     0.167 HD
ATOM     73  C   UNL A   1      43.014  31.406  29.254  1.00  0.00     0.074 A 
ATOM     74  C   UNL A   1      42.153  32.280  30.021  1.00  0.00     0.031 C 
ATOM     75  C   UNL A   1      44.265  31.738  28.850  1.00  0.00     0.037 A 
BRANCH  62  76
ATOM     76  C   UNL A   1      47.140  27.237  25.760  1.00  0.00     0.057 A 
ATOM     77  C   UNL A   1      48.158  26.565  26.451  1.00  0.00     0.134 A 
ATOM     78  C   UNL A   1      47.330  27.465  24.392  1.00  0.00     0.134 A 
ATOM     79  F   UNL A   1      48.040  26.318  27.764  1.00  0.00    -0.206 F 
ATOM     80  C   UNL A   1      49.320  26.139  25.808  1.00  0.00     0.040 A 
ATOM     81  C   UNL A   1      48.478  27.021  23.731  1.00  0.00     0.040 A 
ATOM     82  F   UNL A   1      46.386  28.086  23.669  1.00  0.00    -0.206 F 
ATOM     83  C   UNL A   1      49.478  26.360  24.441  1.00  0.00     0.006 A 
ENDBRANCH  62  76
BRANCH  63  84
ATOM     84  C   UNL A   1      38.766  29.836  30.486  1.00  0.00     0.057 A 
ATOM     85  C   UNL A   1      37.737  30.530  29.838  1.00  0.00     0.134 A 
ATOM     86  C   UNL A   1      38.563  29.493  31.828  1.00  0.00     0.134 A 
ATOM     87  F   UNL A   1      37.862  30.879  28.549  1.00  0.00    -0.206 F 
ATOM     88  C   UNL A   1      36.557  30.877  30.498  1.00  0.00     0.040 A 
ATOM     89  C   UNL A   1      37.377  29.809  32.494  1.00  0.00     0.040 A 
ATOM     90  F   UNL A   1      39.495  28.796  32.495  1.00  0.00    -0.206 F 
ATOM     91  C   UNL A   1      36.372  30.510  31.829  1.00  0.00     0.006 A 
ENDBRANCH  63  84
BRANCH  75  92
ATOM     92  C   UNL A   1      44.760  33.111  29.198  1.00  0.00     0.057 A 
ATOM     93  C   UNL A   1      44.528  34.193  28.340  1.00  0.00     0.134 A 
ATOM     94  C   UNL A   1      45.495  33.353  30.365  1.00  0.00     0.134 A 
ATOM     95  F   UNL A   1      43.837  34.024  27.202  1.00  0.00    -0.206 F 
ATOM     96  C   UNL A   1      45.012  35.470  28.630  1.00  0.00     0.040 A 
ATOM     97  C   UNL A   1      45.966  34.630  30.676  1.00  0.00     0.040 A 
ATOM     98  F   UNL A   1      45.740  32.361  31.233  1.00  0.00    -0.206 F 
ATOM     99  C   UNL A   1      45.729  35.691  29.804  1.00  0.00     0.006 A 
ENDBRANCH  75  92
ENDBRANCH  49  50
ENDBRANCH  41  44
ENDBRANCH  39  40
ENDBRANCH  38  39
ENDBRANCH   1  38
TORSDOF 16
ENDMDL
MODEL 2
REMARK VINA RESULT:     -12.4      3.685      9.437
REMARK SMILES CC[C@@H](C)[C@H](NC(=O)[C@H](C)N1C(=O)N2CCC3=c4cc(OC)ccc4=N[C@H]3[C@@]2(C)C1=O)C(=O)NCCCNC(=O)c1ccc(-c2c3nc(c(-c4c(F)cccc4F)c4ccc([nH]4)c(-c4c(F)cccc4F)c4nc(c(-c5c(F)cccc5F)c5ccc2[nH]5)C=C4)C=C3)cc1
REMARK SMILES IDX 35 1 34 2 32 3 33 4 5 6 3 7 4 8 2 9 1 10 6 11 7 12 8 14 9 15
REMARK SMILES IDX 10 16 11 17 12 18 30 19 14 20 13 21 28 22 31 23 15 24 27 25
REMARK SMILES IDX 29 26 16 27 17 28 26 29 18 30 25 31 19 32 24 33 20 34 23 35
REMARK SMILES IDX 21 36 22 37 36 38 37 39 38 40 39 41 40 43 41 44 42 45 94 46
REMARK SMILES IDX 43 47 93 48 44 49 45 50 46 51 87 52 47 53 92 54 86 55 88 56
REMARK SMILES IDX 48 57 91 58 85 59 84 60 49 62 75 63 58 64 74 65 59 66 62 67
REMARK SMILES IDX 73 68 89 69 60 70 61 71 72 73 90 74 63 75 50 76 51 77 56 78
REMARK SMILES IDX 52 79 53 80 55 81 57 82 54 83 76 84 77 85 82 86 78 87 79 88
REMARK SMILES IDX 81 89 83 90 80 91 64 92 65 93 70 94 66 95 67 96 69 97 71 98
REMARK SMILES IDX 68 99
REMARK H PARENT 34 5 6 13 38 42 88 61 62 72
REMARK Flexibility Score: inf
ROOT
ATOM      1  C   UNL A   1      32.126  30.631  26.487  1.00  0.00     0.117 C 
ENDROOT
BRANCH   1   2
ATOM      2  N   UNL A   1      32.811  30.270  25.246  1.00  0.00    -0.354 N 
ATOM      3  C   UNL A   1      32.566  29.314  24.292  1.00  0.00     0.242 C 
ATOM      4  O   UNL A   1      33.169  29.407  23.217  1.00  0.00    -0.273 OA
ATOM      5  H   UNL A   1      33.603  30.823  25.057  1.00  0.00     0.163 HD
BRANCH   3   6
ATOM      6  C   UNL A   1      31.533  28.177  24.484  1.00  0.00     0.174 C 
BRANCH   6   7
ATOM      7  C   UNL A   1      30.361  28.290  23.472  1.00  0.00     0.018 C 
ATOM      8  C   UNL A   1      29.792  29.718  23.504  1.00  0.00     0.010 C 
BRANCH   7   9
ATOM      9  C   UNL A   1      29.300  27.199  23.708  1.00  0.00     0.002 C 
ATOM     10  C   UNL A   1      27.850  27.578  23.499  1.00  0.00     0.004 C 
ENDBRANCH   7   9
ENDBRANCH   6   7
BRANCH   6  11
ATOM     11  N   UNL A   1      31.116  28.058  25.877  1.00  0.00    -0.342 N 
ATOM     12  C   UNL A   1      31.604  27.161  26.795  1.00  0.00     0.243 C 
ATOM     13  H   UNL A   1      30.419  28.681  26.187  1.00  0.00     0.164 HD
ATOM     14  O   UNL A   1      31.128  27.187  27.931  1.00  0.00    -0.273 OA
BRANCH  12  15
ATOM     15  C   UNL A   1      32.608  26.090  26.339  1.00  0.00     0.181 C 
ATOM     16  C   UNL A   1      34.020  26.664  26.126  1.00  0.00     0.042 C 
BRANCH  15  17
ATOM     17  N   UNL A   1      32.193  24.961  25.476  1.00  0.00    -0.250 N 
ATOM     18  C   UNL A   1      32.232  24.651  24.105  1.00  0.00     0.328 C 
ATOM     19  C   UNL A   1      31.989  23.799  26.143  1.00  0.00     0.259 C 
ATOM     20  N   UNL A   1      31.534  23.358  23.904  1.00  0.00    -0.307 N 
ATOM     21  O   UNL A   1      32.887  25.217  23.244  1.00  0.00    -0.248 OA
ATOM     22  C   UNL A   1      31.900  22.743  25.122  1.00  0.00     0.147 C 
ATOM     23  O   UNL A   1      32.032  23.598  27.349  1.00  0.00    -0.271 OA
ATOM     24  C   UNL A   1      31.620  22.240  22.751  1.00  0.00     0.127 C 
ATOM     25  C   UNL A   1      33.359  22.350  24.735  1.00  0.00     0.168 C 
ATOM     26  C   UNL A   1      30.779  21.791  25.554  1.00  0.00     0.048 C 
ATOM     27  C   UNL A   1      32.531  20.742  23.280  1.00  0.00     0.055 C 
ATOM     28  C   UNL A   1      33.594  20.935  24.547  1.00  0.00    -0.032 C 
ATOM     29  N   UNL A   1      34.561  23.127  24.201  1.00  0.00    -0.274 NA
ATOM     30  C   UNL A   1      34.948  20.920  24.801  1.00  0.00     0.005 A 
ATOM     31  C   UNL A   1      35.320  22.075  23.915  1.00  0.00     0.066 A 
ATOM     32  C   UNL A   1      35.584  21.564  26.138  1.00  0.00     0.056 A 
ATOM     33  C   UNL A   1      36.740  22.123  23.559  1.00  0.00     0.032 A 
ATOM     34  C   UNL A   1      36.610  22.474  25.935  1.00  0.00     0.119 A 
ATOM     35  C   UNL A   1      37.400  22.361  24.702  1.00  0.00     0.048 A 
BRANCH  34  36
ATOM     36  O   UNL A   1      36.608  23.762  26.492  1.00  0.00    -0.497 OA
ATOM     37  C   UNL A   1      37.909  24.438  26.519  1.00  0.00     0.278 C 
ENDBRANCH  34  36
ENDBRANCH  15  17
ENDBRANCH  12  15
ENDBRANCH   6  11
ENDBRANCH   3   6
ENDBRANCH   1   2
BRANCH   1  38
ATOM     38  C   UNL A   1      31.530  32.036  26.598  1.00  0.00     0.042 C 
BRANCH  38  39
ATOM     39  C   UNL A   1      32.475  33.253  26.566  1.00  0.00     0.118 C 
BRANCH  39  40
ATOM     40  N   UNL A   1      32.385  34.241  27.628  1.00  0.00    -0.352 N 
ATOM     41  C   UNL A   1      33.185  34.359  28.755  1.00  0.00     0.251 C 
ATOM     42  H   UNL A   1      31.669  34.909  27.534  1.00  0.00     0.163 HD
ATOM     43  O   UNL A   1      32.924  35.139  29.642  1.00  0.00    -0.269 OA
BRANCH  41  44
ATOM     44  C   UNL A   1      34.394  33.505  28.857  1.00  0.00     0.039 A 
ATOM     45  C   UNL A   1      34.237  32.124  28.975  1.00  0.00     0.014 A 
ATOM     46  C   UNL A   1      35.663  34.079  28.899  1.00  0.00     0.014 A 
ATOM     47  C   UNL A   1      35.341  31.320  29.274  1.00  0.00     0.010 A 
ATOM     48  C   UNL A   1      36.774  33.267  29.164  1.00  0.00     0.010 A 
ATOM     49  C   UNL A   1      36.613  31.890  29.421  1.00  0.00    -0.014 A 
BRANCH  49  50
ATOM     50  C   UNL A   1      37.718  31.118  30.062  1.00  0.00     0.031 A 
ATOM     51  C   UNL A   1      37.973  31.329  31.535  1.00  0.00     0.074 A 
ATOM     52  C   UNL A   1      38.454  30.205  29.400  1.00  0.00     0.049 A 
ATOM     53  N   UNL A   1      38.985  30.950  32.274  1.00  0.00    -0.248 NA
ATOM     54  C   UNL A   1      36.943  32.081  32.270  1.00  0.00     0.031 C 
ATOM     55  C   UNL A   1      38.265  29.804  28.007  1.00  0.00     0.029 A 
ATOM     56  N   UNL A   1      39.518  29.445  29.825  1.00  0.00    -0.354 N 
ATOM     57  C   UNL A   1      38.743  31.472  33.539  1.00  0.00     0.074 A 
ATOM     58  C   UNL A   1      37.492  32.194  33.470  1.00  0.00     0.031 C 
ATOM     59  C   UNL A   1      39.176  28.864  27.696  1.00  0.00     0.029 A 
ATOM     60  C   UNL A   1      40.056  28.649  28.843  1.00  0.00     0.049 A 
ATOM     61  H   UNL A   1      39.862  29.468  30.747  1.00  0.00     0.167 HD
ATOM     62  C   UNL A   1      39.494  31.362  34.662  1.00  0.00     0.037 A 
ATOM     63  C   UNL A   1      41.160  27.873  28.853  1.00  0.00     0.037 A 
ATOM     64  C   UNL A   1      40.700  30.583  34.757  1.00  0.00     0.049 A 
ATOM     65  C   UNL A   1      42.022  27.820  30.090  1.00  0.00     0.074 A 
ATOM     66  C   UNL A   1      41.524  30.398  35.853  1.00  0.00     0.029 A 
ATOM     67  N   UNL A   1      41.238  29.840  33.720  1.00  0.00    -0.354 N 
ATOM     68  N   UNL A   1      41.833  28.383  31.258  1.00  0.00    -0.248 NA
ATOM     69  C   UNL A   1      43.269  27.043  29.995  1.00  0.00     0.031 C 
ATOM     70  C   UNL A   1      42.584  29.569  35.468  1.00  0.00     0.029 A 
ATOM     71  C   UNL A   1      42.396  29.208  34.144  1.00  0.00     0.049 A 
ATOM     72  H   UNL A   1      40.857  29.771  32.815  1.00  0.00     0.167 HD
ATOM     73  C   UNL A   1      42.924  28.017  32.039  1.00  0.00     0.074 A 
ATOM     74  C   UNL A   1      43.762  27.168  31.219  1.00  0.00     0.031 C 
ATOM     75  C   UNL A   1      43.212  28.358  33.319  1.00  0.00     0.037 A 
BRANCH  62  76
ATOM     76  C   UNL A   1      39.053  32.138  35.867  1.00  0.00     0.057 A 
ATOM     77  C   UNL A   1      39.478  33.463  36.043  1.00  0.00     0.134 A 
ATOM     78  C   UNL A   1      38.228  31.587  36.854  1.00  0.00     0.134 A 
ATOM     79  F   UNL A   1      40.272  34.049  35.135  1.00  0.00    -0.206 F 
ATOM     80  C   UNL A   1      39.098  34.209  37.158  1.00  0.00     0.040 A 
ATOM     81  C   UNL A   1      37.820  32.333  37.962  1.00  0.00     0.040 A 
ATOM     82  F   UNL A   1      37.772  30.331  36.736  1.00  0.00    -0.206 F 
ATOM     83  C   UNL A   1      38.260  33.646  38.118  1.00  0.00     0.006 A 
ENDBRANCH  62  76
BRANCH  63  84
ATOM     84  C   UNL A   1      41.569  27.126  27.635  1.00  0.00     0.057 A 
ATOM     85  C   UNL A   1      42.330  27.733  26.628  1.00  0.00     0.134 A 
ATOM     86  C   UNL A   1      41.258  25.770  27.475  1.00  0.00     0.134 A 
ATOM     87  F   UNL A   1      42.672  29.026  26.725  1.00  0.00    -0.206 F 
ATOM     88  C   UNL A   1      42.758  27.025  25.504  1.00  0.00     0.040 A 
ATOM     89  C   UNL A   1      41.703  25.042  26.369  1.00  0.00     0.040 A 
ATOM     90  F   UNL A   1      40.562  25.121  28.420  1.00  0.00    -0.206 F 
ATOM     91  C   UNL A   1      42.451  25.673  25.376  1.00  0.00     0.006 A 
ENDBRANCH  63  84
BRANCH  75  92
ATOM     92  C   UNL A   1      44.462  27.786  33.919  1.00  0.00     0.057 A 
ATOM     93  C   UNL A   1      45.676  28.480  33.839  1.00  0.00     0.134 A 
ATOM     94  C   UNL A   1      44.471  26.534  34.546  1.00  0.00     0.134 A 
ATOM     95  F   UNL A   1      45.735  29.681  33.243  1.00  0.00    -0.206 F 
ATOM     96  C   UNL A   1      46.856  27.948  34.360  1.00  0.00     0.040 A 
ATOM     97  C   UNL A   1      45.641  26.001  35.091  1.00  0.00     0.040 A 
ATOM     98  F   UNL A   1      43.338  25.825  34.667  1.00  0.00    -0.206 F 
ATOM     99  C   UNL A   1      46.839  26.707  34.993  1.00  0.00     0.006 A 
ENDBRANCH  75  92
ENDBRANCH  49  50
ENDBRANCH  41  44
ENDBRANCH  39  40
ENDBRANCH  38  39
ENDBRANCH   1  38
TORSDOF 16
ENDMDL
MODEL 3
REMARK VINA RESULT:     -12.3      3.693      5.362
REMARK SMILES CC[C@@H](C)[C@H](NC(=O)[C@H](C)N1C(=O)N2CCC3=c4cc(OC)ccc4=N[C@H]3[C@@]2(C)C1=O)C(=O)NCCCNC(=O)c1ccc(-c2c3nc(c(-c4c(F)cccc4F)c4ccc([nH]4)c(-c4c(F)cccc4F)c4nc(c(-c5c(F)cccc5F)c5ccc2[nH]5)C=C4)C=C3)cc1
REMARK SMILES IDX 35 1 34 2 32 3 33 4 5 6 3 7 4 8 2 9 1 10 6 11 7 12 8 14 9 15
REMARK SMILES IDX 10 16 11 17 12 18 30 19 14 20 13 21 28 22 31 23 15 24 27 25
REMARK SMILES IDX 29 26 16 27 17 28 26 29 18 30 25 31 19 32 24 33 20 34 23 35
REMARK SMILES IDX 21 36 22 37 36 38 37 39 38 40 39 41 40 43 41 44 42 45 94 46
REMARK SMILES IDX 43 47 93 48 44 49 45 50 46 51 87 52 47 53 92 54 86 55 88 56
REMARK SMILES IDX 48 57 91 58 85 59 84 60 49 62 75 63 58 64 74 65 59 66 62 67
REMARK SMILES IDX 73 68 89 69 60 70 61 71 72 73 90 74 63 75 50 76 51 77 56 78
REMARK SMILES IDX 52 79 53 80 55 81 57 82 54 83 76 84 77 85 82 86 78 87 79 88
REMARK SMILES IDX 81 89 83 90 80 91 64 92 65 93 70 94 66 95 67 96 69 97 71 98
REMARK SMILES IDX 68 99
REMARK H PARENT 34 5 6 13 38 42 88 61 62 72
REMARK Flexibility Score: inf
ROOT
ATOM      1  C   UNL A   1      37.544  22.620  25.531  1.00  0.00     0.117 C 
ENDROOT
BRANCH   1   2
ATOM      2  N   UNL A   1      36.981  22.915  24.213  1.00  0.00    -0.354 N 
ATOM      3  C   UNL A   1      35.698  22.897  23.724  1.00  0.00     0.242 C 
ATOM      4  O   UNL A   1      35.491  23.442  22.633  1.00  0.00    -0.273 OA
ATOM      5  H   UNL A   1      37.654  23.179  23.545  1.00  0.00     0.163 HD
BRANCH   3   6
ATOM      6  C   UNL A   1      34.507  22.287  24.503  1.00  0.00     0.174 C 
BRANCH   6   7
ATOM      7  C   UNL A   1      34.977  21.214  25.521  1.00  0.00     0.018 C 
ATOM      8  C   UNL A   1      34.819  19.816  24.902  1.00  0.00     0.010 C 
BRANCH   7   9
ATOM      9  C   UNL A   1      34.267  21.371  26.878  1.00  0.00     0.002 C 
ATOM     10  C   UNL A   1      34.403  22.701  27.588  1.00  0.00     0.004 C 
ENDBRANCH   7   9
ENDBRANCH   6   7
BRANCH   6  11
ATOM     11  N   UNL A   1      33.449  21.841  23.603  1.00  0.00    -0.342 N 
ATOM     12  C   UNL A   1      32.201  22.401  23.480  1.00  0.00     0.243 C 
ATOM     13  H   UNL A   1      33.649  21.065  23.031  1.00  0.00     0.164 HD
ATOM     14  O   UNL A   1      31.419  21.886  22.679  1.00  0.00    -0.273 OA
BRANCH  12  15
ATOM     15  C   UNL A   1      31.791  23.539  24.428  1.00  0.00     0.181 C 
ATOM     16  C   UNL A   1      31.448  23.030  25.840  1.00  0.00     0.042 C 
BRANCH  15  17
ATOM     17  N   UNL A   1      31.062  24.728  23.935  1.00  0.00    -0.250 N 
ATOM     18  C   UNL A   1      29.969  25.508  24.356  1.00  0.00     0.328 C 
ATOM     19  C   UNL A   1      31.745  25.460  23.021  1.00  0.00     0.259 C 
ATOM     20  N   UNL A   1      29.696  26.523  23.310  1.00  0.00    -0.307 N 
ATOM     21  O   UNL A   1      29.451  25.507  25.462  1.00  0.00    -0.248 OA
ATOM     22  C   UNL A   1      31.026  26.737  22.887  1.00  0.00     0.147 C 
ATOM     23  O   UNL A   1      32.831  25.216  22.513  1.00  0.00    -0.271 OA
ATOM     24  C   UNL A   1      28.961  27.953  23.344  1.00  0.00     0.127 C 
ATOM     25  C   UNL A   1      31.482  27.650  24.066  1.00  0.00     0.168 C 
ATOM     26  C   UNL A   1      31.022  27.098  21.397  1.00  0.00     0.048 C 
ATOM     27  C   UNL A   1      30.135  29.356  23.256  1.00  0.00     0.055 C 
ATOM     28  C   UNL A   1      31.699  29.040  23.730  1.00  0.00    -0.032 C 
ATOM     29  N   UNL A   1      31.472  27.504  25.587  1.00  0.00    -0.274 NA
ATOM     30  C   UNL A   1      32.581  29.357  24.740  1.00  0.00     0.005 A 
ATOM     31  C   UNL A   1      31.794  28.760  25.873  1.00  0.00     0.066 A 
ATOM     32  C   UNL A   1      33.912  28.490  25.029  1.00  0.00     0.056 A 
ATOM     33  C   UNL A   1      32.176  29.260  27.195  1.00  0.00     0.032 A 
ATOM     34  C   UNL A   1      34.074  28.057  26.336  1.00  0.00     0.119 A 
ATOM     35  C   UNL A   1      33.430  28.830  27.405  1.00  0.00     0.048 A 
BRANCH  34  36
ATOM     36  O   UNL A   1      34.309  26.714  26.669  1.00  0.00    -0.497 OA
ATOM     37  C   UNL A   1      34.416  25.793  25.534  1.00  0.00     0.278 C 
ENDBRANCH  34  36
ENDBRANCH  15  17
ENDBRANCH  12  15
ENDBRANCH   6  11
ENDBRANCH   3   6
ENDBRANCH   1   2
BRANCH   1  38
ATOM     38  C   UNL A   1      38.654  21.571  25.621  1.00  0.00     0.042 C 
BRANCH  38  39
ATOM     39  C   UNL A   1      39.869  21.845  26.530  1.00  0.00     0.118 C 
BRANCH  39  40
ATOM     40  N   UNL A   1      41.170  22.057  25.918  1.00  0.00    -0.352 N 
ATOM     41  C   UNL A   1      41.862  23.251  25.774  1.00  0.00     0.251 C 
ATOM     42  H   UNL A   1      41.614  21.254  25.563  1.00  0.00     0.163 HD
ATOM     43  O   UNL A   1      42.877  23.322  25.120  1.00  0.00    -0.269 OA
BRANCH  41  44
ATOM     44  C   UNL A   1      41.336  24.460  26.453  1.00  0.00     0.039 A 
ATOM     45  C   UNL A   1      41.866  25.706  26.119  1.00  0.00     0.014 A 
ATOM     46  C   UNL A   1      40.374  24.346  27.455  1.00  0.00     0.014 A 
ATOM     47  C   UNL A   1      41.536  26.831  26.880  1.00  0.00     0.010 A 
ATOM     48  C   UNL A   1      40.018  25.481  28.195  1.00  0.00     0.010 A 
ATOM     49  C   UNL A   1      40.647  26.721  27.958  1.00  0.00    -0.014 A 
BRANCH  49  50
ATOM     50  C   UNL A   1      40.548  27.812  28.972  1.00  0.00     0.031 A 
ATOM     51  C   UNL A   1      41.561  27.838  30.091  1.00  0.00     0.074 A 
ATOM     52  C   UNL A   1      39.637  28.800  28.898  1.00  0.00     0.049 A 
ATOM     53  N   UNL A   1      41.571  28.538  31.197  1.00  0.00    -0.248 NA
ATOM     54  C   UNL A   1      42.717  26.939  29.942  1.00  0.00     0.031 C 
ATOM     55  C   UNL A   1      38.661  28.982  27.825  1.00  0.00     0.029 A 
ATOM     56  N   UNL A   1      39.389  29.845  29.757  1.00  0.00    -0.354 N 
ATOM     57  C   UNL A   1      42.694  28.117  31.899  1.00  0.00     0.074 A 
ATOM     58  C   UNL A   1      43.341  27.102  31.098  1.00  0.00     0.031 C 
ATOM     59  C   UNL A   1      37.927  30.080  28.084  1.00  0.00     0.029 A 
ATOM     60  C   UNL A   1      38.332  30.636  29.374  1.00  0.00     0.049 A 
ATOM     61  H   UNL A   1      39.920  30.013  30.569  1.00  0.00     0.167 HD
ATOM     62  C   UNL A   1      43.151  28.537  33.104  1.00  0.00     0.037 A 
ATOM     63  C   UNL A   1      37.730  31.659  30.014  1.00  0.00     0.037 A 
ATOM     64  C   UNL A   1      42.556  29.599  33.871  1.00  0.00     0.049 A 
ATOM     65  C   UNL A   1      38.207  32.065  31.386  1.00  0.00     0.074 A 
ATOM     66  C   UNL A   1      42.951  30.106  35.096  1.00  0.00     0.029 A 
ATOM     67  N   UNL A   1      41.451  30.333  33.470  1.00  0.00    -0.354 N 
ATOM     68  N   UNL A   1      39.219  31.607  32.082  1.00  0.00    -0.248 NA
ATOM     69  C   UNL A   1      37.435  33.114  32.072  1.00  0.00     0.031 C 
ATOM     70  C   UNL A   1      42.063  31.126  35.454  1.00  0.00     0.029 A 
ATOM     71  C   UNL A   1      41.139  31.278  34.434  1.00  0.00     0.049 A 
ATOM     72  H   UNL A   1      40.960  30.202  32.628  1.00  0.00     0.167 HD
ATOM     73  C   UNL A   1      39.215  32.320  33.276  1.00  0.00     0.074 A 
ATOM     74  C   UNL A   1      38.112  33.254  33.204  1.00  0.00     0.031 C 
ATOM     75  C   UNL A   1      40.045  32.208  34.342  1.00  0.00     0.037 A 
BRANCH  62  76
ATOM     76  C   UNL A   1      44.329  27.815  33.686  1.00  0.00     0.057 A 
ATOM     77  C   UNL A   1      45.627  28.298  33.472  1.00  0.00     0.134 A 
ATOM     78  C   UNL A   1      44.192  26.644  34.442  1.00  0.00     0.134 A 
ATOM     79  F   UNL A   1      45.827  29.413  32.753  1.00  0.00    -0.206 F 
ATOM     80  C   UNL A   1      46.745  27.643  33.988  1.00  0.00     0.040 A 
ATOM     81  C   UNL A   1      45.302  25.994  34.986  1.00  0.00     0.040 A 
ATOM     82  F   UNL A   1      42.976  26.140  34.700  1.00  0.00    -0.206 F 
ATOM     83  C   UNL A   1      46.583  26.491  34.754  1.00  0.00     0.006 A 
ENDBRANCH  62  76
BRANCH  63  84
ATOM     84  C   UNL A   1      36.558  32.344  29.407  1.00  0.00     0.057 A 
ATOM     85  C   UNL A   1      36.677  33.610  28.819  1.00  0.00     0.134 A 
ATOM     86  C   UNL A   1      35.304  31.725  29.347  1.00  0.00     0.134 A 
ATOM     87  F   UNL A   1      37.853  34.254  28.831  1.00  0.00    -0.206 F 
ATOM     88  C   UNL A   1      35.593  34.238  28.205  1.00  0.00     0.040 A 
ATOM     89  C   UNL A   1      34.217  32.329  28.712  1.00  0.00     0.040 A 
ATOM     90  F   UNL A   1      35.133  30.497  29.860  1.00  0.00    -0.206 F 
ATOM     91  C   UNL A   1      34.359  33.594  28.143  1.00  0.00     0.006 A 
ENDBRANCH  63  84
BRANCH  75  92
ATOM     92  C   UNL A   1      39.814  33.138  35.495  1.00  0.00     0.057 A 
ATOM     93  C   UNL A   1      38.978  32.768  36.556  1.00  0.00     0.134 A 
ATOM     94  C   UNL A   1      40.393  34.413  35.540  1.00  0.00     0.134 A 
ATOM     95  F   UNL A   1      38.387  31.563  36.569  1.00  0.00    -0.206 F 
ATOM     96  C   UNL A   1      38.723  33.634  37.620  1.00  0.00     0.040 A 
ATOM     97  C   UNL A   1      40.163  35.280  36.610  1.00  0.00     0.040 A 
ATOM     98  F   UNL A   1      41.213  34.821  34.561  1.00  0.00    -0.206 F 
ATOM     99  C   UNL A   1      39.321  34.892  37.651  1.00  0.00     0.006 A 
ENDBRANCH  75  92
ENDBRANCH  49  50
ENDBRANCH  41  44
ENDBRANCH  39  40
ENDBRANCH  38  39
ENDBRANCH   1  38
TORSDOF 16
ENDMDL
