MODEL 1
REMARK VINA RESULT:     -12.6      0.000      0.000
REMARK SMILES O=C(NCCCNC(=O)[C@@H]1CCCC[C@H]1C(=O)Nc1ccc(NC(=O)c2ccco2)cc1)c1ccc(-c2c3nc(c(-c4c(F)cccc4F)c4ccc([nH]4)c(-c4c(F)cccc4F)c4nc(c(-c5c(F)cccc5F)c5ccc2[nH]5)C=C4)C=C3)cc1
REMARK SMILES IDX 6 1 5 2 4 3 3 4 1 5 2 6 33 8 34 9 86 10 35 11 85 12 36 13
REMARK SMILES IDX 37 14 38 15 79 16 39 17 84 18 78 19 80 20 40 21 83 22 77 23
REMARK SMILES IDX 76 24 41 26 67 27 50 28 66 29 51 30 54 31 65 32 81 33 52 34
REMARK SMILES IDX 53 35 64 37 82 38 55 39 42 40 43 41 48 42 44 43 45 44 47 45
REMARK SMILES IDX 49 46 46 47 68 48 69 49 74 50 70 51 71 52 73 53 75 54 72 55
REMARK SMILES IDX 56 56 57 57 62 58 58 59 59 60 61 61 63 62 60 63 7 64 8 65
REMARK SMILES IDX 9 67 10 68 11 69 15 70 12 71 14 72 13 73 16 74 17 75 18 76
REMARK SMILES IDX 19 78 20 79 32 80 21 81 31 82 22 83 23 84 24 85 25 87 26 88
REMARK SMILES IDX 27 89 30 90 28 91 29 92
REMARK H PARENT 3 7 80 25 54 36 7 66 18 77 23 86
REMARK Flexibility Score: inf
ROOT
ATOM      1  C   UNL A   1      36.586  20.596  25.022  1.00  0.00     0.117 C 
ENDROOT
BRANCH   1   2
ATOM      2  C   UNL A   1      37.913  19.878  24.815  1.00  0.00     0.042 C 
BRANCH   2   3
ATOM      3  C   UNL A   1      38.992  20.319  25.791  1.00  0.00     0.118 C 
BRANCH   3   4
ATOM      4  N   UNL A   1      39.993  19.278  25.962  1.00  0.00    -0.352 N 
ATOM      5  O   UNL A   1      42.076  18.440  25.857  1.00  0.00    -0.269 OA
ATOM      6  C   UNL A   1      41.352  19.403  26.078  1.00  0.00     0.251 C 
ATOM      7  H   UNL A   1      39.646  18.357  25.999  1.00  0.00     0.163 HD
BRANCH   6   8
ATOM      8  C   UNL A   1      41.943  20.696  26.486  1.00  0.00     0.039 A 
ATOM      9  C   UNL A   1      42.286  21.658  25.530  1.00  0.00     0.014 A 
ATOM     10  C   UNL A   1      42.073  20.979  27.848  1.00  0.00     0.014 A 
ATOM     11  C   UNL A   1      42.840  22.869  25.928  1.00  0.00     0.010 A 
ATOM     12  C   UNL A   1      42.556  22.225  28.249  1.00  0.00     0.010 A 
ATOM     13  C   UNL A   1      42.945  23.176  27.291  1.00  0.00    -0.014 A 
BRANCH  13  14
ATOM     14  C   UNL A   1      43.376  24.527  27.719  1.00  0.00     0.031 A 
ATOM     15  C   UNL A   1      42.369  25.557  28.126  1.00  0.00     0.074 A 
ATOM     16  C   UNL A   1      44.687  24.831  27.678  1.00  0.00     0.049 A 
ATOM     17  N   UNL A   1      42.549  26.822  28.404  1.00  0.00    -0.248 NA
ATOM     18  C   UNL A   1      40.971  25.111  28.217  1.00  0.00     0.031 C 
ATOM     19  C   UNL A   1      45.753  23.905  27.290  1.00  0.00     0.029 A 
ATOM     20  N   UNL A   1      45.344  26.004  27.942  1.00  0.00    -0.354 N 
ATOM     21  C   UNL A   1      41.287  27.332  28.677  1.00  0.00     0.074 A 
ATOM     22  C   UNL A   1      40.347  26.244  28.509  1.00  0.00     0.031 C 
ATOM     23  C   UNL A   1      46.930  24.543  27.342  1.00  0.00     0.029 A 
ATOM     24  C   UNL A   1      46.694  25.936  27.702  1.00  0.00     0.049 A 
ATOM     25  H   UNL A   1      44.893  26.815  28.272  1.00  0.00     0.167 HD
ATOM     26  C   UNL A   1      40.950  28.595  29.033  1.00  0.00     0.037 A 
ATOM     27  C   UNL A   1      47.635  26.899  27.725  1.00  0.00     0.037 A 
ATOM     28  C   UNL A   1      41.901  29.664  29.199  1.00  0.00     0.049 A 
ATOM     29  C   UNL A   1      47.236  28.298  28.087  1.00  0.00     0.074 A 
ATOM     30  C   UNL A   1      41.670  30.968  29.602  1.00  0.00     0.029 A 
ATOM     31  N   UNL A   1      43.264  29.555  28.958  1.00  0.00    -0.354 N 
ATOM     32  N   UNL A   1      46.045  28.763  28.380  1.00  0.00    -0.248 NA
ATOM     33  C   UNL A   1      48.303  29.305  28.123  1.00  0.00     0.031 C 
ATOM     34  C   UNL A   1      42.885  31.661  29.551  1.00  0.00     0.029 A 
ATOM     35  C   UNL A   1      43.883  30.775  29.173  1.00  0.00     0.049 A 
ATOM     36  H   UNL A   1      43.722  28.731  28.674  1.00  0.00     0.167 HD
ATOM     37  C   UNL A   1      46.221  30.110  28.659  1.00  0.00     0.074 A 
ATOM     38  C   UNL A   1      47.635  30.387  28.502  1.00  0.00     0.031 C 
ATOM     39  C   UNL A   1      45.294  31.031  29.020  1.00  0.00     0.037 A 
BRANCH  26  40
ATOM     40  C   UNL A   1      39.490  28.890  29.228  1.00  0.00     0.057 A 
ATOM     41  C   UNL A   1      38.862  28.771  30.475  1.00  0.00     0.134 A 
ATOM     42  C   UNL A   1      38.700  29.305  28.146  1.00  0.00     0.134 A 
ATOM     43  F   UNL A   1      39.557  28.369  31.549  1.00  0.00    -0.206 F 
ATOM     44  C   UNL A   1      37.496  29.014  30.631  1.00  0.00     0.040 A 
ATOM     45  C   UNL A   1      37.339  29.580  28.298  1.00  0.00     0.040 A 
ATOM     46  F   UNL A   1      39.236  29.449  26.925  1.00  0.00    -0.206 F 
ATOM     47  C   UNL A   1      36.731  29.423  29.541  1.00  0.00     0.006 A 
ENDBRANCH  26  40
BRANCH  27  48
ATOM     48  C   UNL A   1      49.033  26.550  27.374  1.00  0.00     0.057 A 
ATOM     49  C   UNL A   1      49.895  25.982  28.317  1.00  0.00     0.134 A 
ATOM     50  C   UNL A   1      49.516  26.712  26.069  1.00  0.00     0.134 A 
ATOM     51  F   UNL A   1      49.493  25.813  29.584  1.00  0.00    -0.206 F 
ATOM     52  C   UNL A   1      51.190  25.587  27.975  1.00  0.00     0.040 A 
ATOM     53  C   UNL A   1      50.798  26.299  25.708  1.00  0.00     0.040 A 
ATOM     54  F   UNL A   1      48.731  27.237  25.117  1.00  0.00    -0.206 F 
ATOM     55  C   UNL A   1      51.641  25.736  26.664  1.00  0.00     0.006 A 
ENDBRANCH  27  48
BRANCH  39  56
ATOM     56  C   UNL A   1      45.779  32.418  29.315  1.00  0.00     0.057 A 
ATOM     57  C   UNL A   1      46.272  32.780  30.575  1.00  0.00     0.134 A 
ATOM     58  C   UNL A   1      45.823  33.382  28.299  1.00  0.00     0.134 A 
ATOM     59  F   UNL A   1      46.244  31.907  31.593  1.00  0.00    -0.206 F 
ATOM     60  C   UNL A   1      46.788  34.055  30.815  1.00  0.00     0.040 A 
ATOM     61  C   UNL A   1      46.359  34.650  28.520  1.00  0.00     0.040 A 
ATOM     62  F   UNL A   1      45.372  33.095  27.069  1.00  0.00    -0.206 F 
ATOM     63  C   UNL A   1      46.842  34.991  29.782  1.00  0.00     0.006 A 
ENDBRANCH  39  56
ENDBRANCH  13  14
ENDBRANCH   6   8
ENDBRANCH   3   4
ENDBRANCH   2   3
ENDBRANCH   1   2
BRANCH   1  64
ATOM     64  N   UNL A   1      36.420  21.686  24.078  1.00  0.00    -0.356 N 
ATOM     65  C   UNL A   1      35.433  22.604  23.938  1.00  0.00     0.223 C 
ATOM     66  H   UNL A   1      37.152  21.775  23.426  1.00  0.00     0.163 HD
ATOM     67  O   UNL A   1      35.454  23.323  22.935  1.00  0.00    -0.275 OA
BRANCH  65  68
ATOM     68  C   UNL A   1      34.351  22.797  24.985  1.00  0.00     0.091 C 
ATOM     69  C   UNL A   1      34.930  22.995  26.390  1.00  0.00     0.014 C 
ATOM     70  C   UNL A   1      33.186  21.806  24.898  1.00  0.00     0.091 C 
ATOM     71  C   UNL A   1      33.817  23.295  27.388  1.00  0.00     0.001 C 
ATOM     72  C   UNL A   1      32.139  22.014  26.004  1.00  0.00     0.014 C 
ATOM     73  C   UNL A   1      32.782  22.177  27.384  1.00  0.00     0.001 C 
BRANCH  70  74
ATOM     74  C   UNL A   1      32.550  21.625  23.505  1.00  0.00     0.228 C 
ATOM     75  O   UNL A   1      32.548  20.493  22.999  1.00  0.00    -0.274 OA
ATOM     76  N   UNL A   1      31.848  22.563  22.814  1.00  0.00    -0.326 N 
ATOM     77  H   UNL A   1      31.449  22.221  21.982  1.00  0.00     0.169 HD
BRANCH  76  78
ATOM     78  C   UNL A   1      31.581  23.909  23.050  1.00  0.00     0.041 A 
ATOM     79  C   UNL A   1      32.346  24.843  22.365  1.00  0.00     0.028 A 
ATOM     80  C   UNL A   1      30.652  24.371  23.969  1.00  0.00     0.028 A 
ATOM     81  C   UNL A   1      32.017  26.198  22.431  1.00  0.00     0.028 A 
ATOM     82  C   UNL A   1      30.272  25.716  23.983  1.00  0.00     0.028 A 
ATOM     83  C   UNL A   1      30.900  26.633  23.140  1.00  0.00     0.041 A 
BRANCH  83  84
ATOM     84  N   UNL A   1      30.350  27.926  23.080  1.00  0.00    -0.319 N 
ATOM     85  C   UNL A   1      30.626  29.095  23.764  1.00  0.00     0.291 C 
ATOM     86  H   UNL A   1      29.624  28.016  22.420  1.00  0.00     0.170 HD
ATOM     87  O   UNL A   1      29.947  30.085  23.487  1.00  0.00    -0.265 OA
BRANCH  85  88
ATOM     88  C   UNL A   1      31.699  29.133  24.723  1.00  0.00     0.191 A 
ATOM     89  C   UNL A   1      33.073  29.233  24.583  1.00  0.00     0.056 A 
ATOM     90  O   UNL A   1      31.385  28.980  26.047  1.00  0.00    -0.459 OA
ATOM     91  C   UNL A   1      33.623  29.070  25.881  1.00  0.00     0.043 A 
ATOM     92  C   UNL A   1      32.554  28.931  26.734  1.00  0.00     0.196 A 
ENDBRANCH  85  88
ENDBRANCH  83  84
ENDBRANCH  76  78
ENDBRANCH  70  74
ENDBRANCH  65  68
ENDBRANCH   1  64
TORSDOF 14
ENDMDL
MODEL 2
REMARK VINA RESULT:     -12.5      0.721      2.069
REMARK SMILES O=C(NCCCNC(=O)[C@@H]1CCCC[C@H]1C(=O)Nc1ccc(NC(=O)c2ccco2)cc1)c1ccc(-c2c3nc(c(-c4c(F)cccc4F)c4ccc([nH]4)c(-c4c(F)cccc4F)c4nc(c(-c5c(F)cccc5F)c5ccc2[nH]5)C=C4)C=C3)cc1
REMARK SMILES IDX 6 1 5 2 4 3 3 4 1 5 2 6 33 8 34 9 86 10 35 11 85 12 36 13
REMARK SMILES IDX 37 14 38 15 79 16 39 17 84 18 78 19 80 20 40 21 83 22 77 23
REMARK SMILES IDX 76 24 41 26 67 27 50 28 66 29 51 30 54 31 65 32 81 33 52 34
REMARK SMILES IDX 53 35 64 37 82 38 55 39 42 40 43 41 48 42 44 43 45 44 47 45
REMARK SMILES IDX 49 46 46 47 68 48 69 49 74 50 70 51 71 52 73 53 75 54 72 55
REMARK SMILES IDX 56 56 57 57 62 58 58 59 59 60 61 61 63 62 60 63 7 64 8 65
REMARK SMILES IDX 9 67 10 68 11 69 15 70 12 71 14 72 13 73 16 74 17 75 18 76
REMARK SMILES IDX 19 78 20 79 32 80 21 81 31 82 22 83 23 84 24 85 25 87 26 88
REMARK SMILES IDX 27 89 30 90 28 91 29 92
REMARK H PARENT 3 7 80 25 54 36 7 66 18 77 23 86
REMARK Flexibility Score: inf
ROOT
ATOM      1  C   UNL A   1      36.458  20.714  25.009  1.00  0.00     0.117 C 
ENDROOT
BRANCH   1   2
ATOM      2  C   UNL A   1      37.752  19.935  24.810  1.00  0.00     0.042 C 
BRANCH   2   3
ATOM      3  C   UNL A   1      38.868  20.379  25.743  1.00  0.00     0.118 C 
BRANCH   3   4
ATOM      4  N   UNL A   1      39.855  19.325  25.908  1.00  0.00    -0.352 N 
ATOM      5  O   UNL A   1      41.931  18.466  25.817  1.00  0.00    -0.269 OA
ATOM      6  C   UNL A   1      41.214  19.433  26.046  1.00  0.00     0.251 C 
ATOM      7  H   UNL A   1      39.498  18.407  25.923  1.00  0.00     0.163 HD
BRANCH   6   8
ATOM      8  C   UNL A   1      41.812  20.711  26.486  1.00  0.00     0.039 A 
ATOM      9  C   UNL A   1      42.201  21.677  25.552  1.00  0.00     0.014 A 
ATOM     10  C   UNL A   1      41.904  20.978  27.855  1.00  0.00     0.014 A 
ATOM     11  C   UNL A   1      42.761  22.875  25.981  1.00  0.00     0.010 A 
ATOM     12  C   UNL A   1      42.394  22.212  28.284  1.00  0.00     0.010 A 
ATOM     13  C   UNL A   1      42.829  23.166  27.350  1.00  0.00    -0.014 A 
BRANCH  13  14
ATOM     14  C   UNL A   1      43.267  24.505  27.806  1.00  0.00     0.031 A 
ATOM     15  C   UNL A   1      42.264  25.550  28.187  1.00  0.00     0.074 A 
ATOM     16  C   UNL A   1      44.584  24.785  27.816  1.00  0.00     0.049 A 
ATOM     17  N   UNL A   1      42.457  26.808  28.483  1.00  0.00    -0.248 NA
ATOM     18  C   UNL A   1      40.856  25.128  28.222  1.00  0.00     0.031 C 
ATOM     19  C   UNL A   1      45.647  23.844  27.457  1.00  0.00     0.029 A 
ATOM     20  N   UNL A   1      45.252  25.944  28.115  1.00  0.00    -0.354 N 
ATOM     21  C   UNL A   1      41.195  27.339  28.715  1.00  0.00     0.074 A 
ATOM     22  C   UNL A   1      40.242  26.269  28.503  1.00  0.00     0.031 C 
ATOM     23  C   UNL A   1      46.833  24.460  27.558  1.00  0.00     0.029 A 
ATOM     24  C   UNL A   1      46.608  25.854  27.923  1.00  0.00     0.049 A 
ATOM     25  H   UNL A   1      44.803  26.760  28.435  1.00  0.00     0.167 HD
ATOM     26  C   UNL A   1      40.868  28.604  29.071  1.00  0.00     0.037 A 
ATOM     27  C   UNL A   1      47.564  26.799  27.988  1.00  0.00     0.037 A 
ATOM     28  C   UNL A   1      41.830  29.655  29.282  1.00  0.00     0.049 A 
ATOM     29  C   UNL A   1      47.177  28.202  28.349  1.00  0.00     0.074 A 
ATOM     30  C   UNL A   1      41.609  30.958  29.688  1.00  0.00     0.029 A 
ATOM     31  N   UNL A   1      43.199  29.523  29.088  1.00  0.00    -0.354 N 
ATOM     32  N   UNL A   1      45.985  28.686  28.604  1.00  0.00    -0.248 NA
ATOM     33  C   UNL A   1      48.260  29.190  28.434  1.00  0.00     0.031 C 
ATOM     34  C   UNL A   1      42.837  31.629  29.688  1.00  0.00     0.029 A 
ATOM     35  C   UNL A   1      43.831  30.729  29.338  1.00  0.00     0.049 A 
ATOM     36  H   UNL A   1      43.653  28.693  28.813  1.00  0.00     0.167 HD
ATOM     37  C   UNL A   1      46.175  30.027  28.902  1.00  0.00     0.074 A 
ATOM     38  C   UNL A   1      47.598  30.280  28.799  1.00  0.00     0.031 C 
ATOM     39  C   UNL A   1      45.251  30.961  29.238  1.00  0.00     0.037 A 
BRANCH  26  40
ATOM     40  C   UNL A   1      39.407  28.924  29.216  1.00  0.00     0.057 A 
ATOM     41  C   UNL A   1      38.632  29.384  28.143  1.00  0.00     0.134 A 
ATOM     42  C   UNL A   1      38.764  28.764  30.451  1.00  0.00     0.134 A 
ATOM     43  F   UNL A   1      39.187  29.569  26.935  1.00  0.00    -0.206 F 
ATOM     44  C   UNL A   1      37.285  29.713  28.302  1.00  0.00     0.040 A 
ATOM     45  C   UNL A   1      37.409  29.060  30.615  1.00  0.00     0.040 A 
ATOM     46  F   UNL A   1      39.441  28.318  31.520  1.00  0.00    -0.206 F 
ATOM     47  C   UNL A   1      36.668  29.547  29.541  1.00  0.00     0.006 A 
ENDBRANCH  26  40
BRANCH  27  48
ATOM     48  C   UNL A   1      48.968  26.429  27.685  1.00  0.00     0.057 A 
ATOM     49  C   UNL A   1      49.486  26.554  26.392  1.00  0.00     0.134 A 
ATOM     50  C   UNL A   1      49.842  26.007  28.695  1.00  0.00     0.134 A 
ATOM     51  F   UNL A   1      48.695  26.942  25.382  1.00  0.00    -0.206 F 
ATOM     52  C   UNL A   1      50.825  26.273  26.114  1.00  0.00     0.040 A 
ATOM     53  C   UNL A   1      51.187  25.747  28.436  1.00  0.00     0.040 A 
ATOM     54  F   UNL A   1      49.407  25.882  29.958  1.00  0.00    -0.206 F 
ATOM     55  C   UNL A   1      51.683  25.878  27.140  1.00  0.00     0.006 A 
ENDBRANCH  27  48
BRANCH  39  56
ATOM     56  C   UNL A   1      45.750  32.337  29.564  1.00  0.00     0.057 A 
ATOM     57  C   UNL A   1      45.811  33.351  28.600  1.00  0.00     0.134 A 
ATOM     58  C   UNL A   1      46.102  32.667  30.879  1.00  0.00     0.134 A 
ATOM     59  F   UNL A   1      45.502  33.094  27.321  1.00  0.00    -0.206 F 
ATOM     60  C   UNL A   1      46.210  34.647  28.934  1.00  0.00     0.040 A 
ATOM     61  C   UNL A   1      46.478  33.964  31.229  1.00  0.00     0.040 A 
ATOM     62  F   UNL A   1      46.059  31.742  31.849  1.00  0.00    -0.206 F 
ATOM     63  C   UNL A   1      46.535  34.958  30.254  1.00  0.00     0.006 A 
ENDBRANCH  39  56
ENDBRANCH  13  14
ENDBRANCH   6   8
ENDBRANCH   3   4
ENDBRANCH   2   3
ENDBRANCH   1   2
BRANCH   1  64
ATOM     64  N   UNL A   1      36.328  21.783  24.036  1.00  0.00    -0.356 N 
ATOM     65  C   UNL A   1      35.356  22.710  23.852  1.00  0.00     0.223 C 
ATOM     66  H   UNL A   1      37.076  21.848  23.399  1.00  0.00     0.163 HD
ATOM     67  O   UNL A   1      35.410  23.404  22.833  1.00  0.00    -0.275 OA
BRANCH  65  68
ATOM     68  C   UNL A   1      34.252  22.940  24.868  1.00  0.00     0.091 C 
ATOM     69  C   UNL A   1      34.789  23.011  26.302  1.00  0.00     0.014 C 
ATOM     70  C   UNL A   1      33.012  22.062  24.682  1.00  0.00     0.091 C 
ATOM     71  C   UNL A   1      33.665  23.353  27.274  1.00  0.00     0.001 C 
ATOM     72  C   UNL A   1      31.942  22.300  25.760  1.00  0.00     0.014 C 
ATOM     73  C   UNL A   1      32.540  22.332  27.169  1.00  0.00     0.001 C 
BRANCH  70  74
ATOM     74  C   UNL A   1      32.421  22.012  23.259  1.00  0.00     0.228 C 
ATOM     75  O   UNL A   1      32.341  20.913  22.690  1.00  0.00    -0.274 OA
ATOM     76  N   UNL A   1      31.832  23.044  22.597  1.00  0.00    -0.326 N 
ATOM     77  H   UNL A   1      31.439  22.784  21.733  1.00  0.00     0.169 HD
BRANCH  76  78
ATOM     78  C   UNL A   1      31.672  24.394  22.899  1.00  0.00     0.041 A 
ATOM     79  C   UNL A   1      30.513  24.769  23.563  1.00  0.00     0.028 A 
ATOM     80  C   UNL A   1      32.560  25.389  22.520  1.00  0.00     0.028 A 
ATOM     81  C   UNL A   1      30.372  26.074  24.038  1.00  0.00     0.028 A 
ATOM     82  C   UNL A   1      32.458  26.676  23.054  1.00  0.00     0.028 A 
ATOM     83  C   UNL A   1      31.398  27.005  23.898  1.00  0.00     0.041 A 
BRANCH  83  84
ATOM     84  N   UNL A   1      31.455  28.257  24.537  1.00  0.00    -0.319 N 
ATOM     85  C   UNL A   1      30.790  29.450  24.322  1.00  0.00     0.291 C 
ATOM     86  H   UNL A   1      32.096  28.290  25.284  1.00  0.00     0.170 HD
ATOM     87  O   UNL A   1      31.072  30.394  25.061  1.00  0.00    -0.265 OA
BRANCH  85  88
ATOM     88  C   UNL A   1      29.782  29.539  23.298  1.00  0.00     0.191 A 
ATOM     89  C   UNL A   1      29.781  30.110  22.036  1.00  0.00     0.056 A 
ATOM     90  O   UNL A   1      28.536  29.045  23.576  1.00  0.00    -0.459 OA
ATOM     91  C   UNL A   1      28.452  30.012  21.550  1.00  0.00     0.043 A 
ATOM     92  C   UNL A   1      27.739  29.346  22.520  1.00  0.00     0.196 A 
ENDBRANCH  85  88
ENDBRANCH  83  84
ENDBRANCH  76  78
ENDBRANCH  70  74
ENDBRANCH  65  68
ENDBRANCH   1  64
TORSDOF 14
ENDMDL
MODEL 3
REMARK VINA RESULT:     -12.5      4.619      9.990
REMARK SMILES O=C(NCCCNC(=O)[C@@H]1CCCC[C@H]1C(=O)Nc1ccc(NC(=O)c2ccco2)cc1)c1ccc(-c2c3nc(c(-c4c(F)cccc4F)c4ccc([nH]4)c(-c4c(F)cccc4F)c4nc(c(-c5c(F)cccc5F)c5ccc2[nH]5)C=C4)C=C3)cc1
REMARK SMILES IDX 6 1 5 2 4 3 3 4 1 5 2 6 33 8 34 9 86 10 35 11 85 12 36 13
REMARK SMILES IDX 37 14 38 15 79 16 39 17 84 18 78 19 80 20 40 21 83 22 77 23
REMARK SMILES IDX 76 24 41 26 67 27 50 28 66 29 51 30 54 31 65 32 81 33 52 34
REMARK SMILES IDX 53 35 64 37 82 38 55 39 42 40 43 41 48 42 44 43 45 44 47 45
REMARK SMILES IDX 49 46 46 47 68 48 69 49 74 50 70 51 71 52 73 53 75 54 72 55
REMARK SMILES IDX 56 56 57 57 62 58 58 59 59 60 61 61 63 62 60 63 7 64 8 65
REMARK SMILES IDX 9 67 10 68 11 69 15 70 12 71 14 72 13 73 16 74 17 75 18 76
REMARK SMILES IDX 19 78 20 79 32 80 21 81 31 82 22 83 23 84 24 85 25 87 26 88
REMARK SMILES IDX 27 89 30 90 28 91 29 92
REMARK H PARENT 3 7 80 25 54 36 7 66 18 77 23 86
REMARK Flexibility Score: inf
ROOT
ATOM      1  C   UNL A   1      31.587  30.441  25.742  1.00  0.00     0.117 C 
ENDROOT
BRANCH   1   2
ATOM      2  C   UNL A   1      31.372  31.672  26.614  1.00  0.00     0.042 C 
BRANCH   2   3
ATOM      3  C   UNL A   1      32.666  32.253  27.161  1.00  0.00     0.118 C 
BRANCH   3   4
ATOM      4  N   UNL A   1      32.521  33.673  27.435  1.00  0.00    -0.352 N 
ATOM      5  O   UNL A   1      32.578  35.493  28.753  1.00  0.00    -0.269 OA
ATOM      6  C   UNL A   1      33.069  34.413  28.450  1.00  0.00     0.251 C 
ATOM      7  H   UNL A   1      31.951  34.172  26.805  1.00  0.00     0.163 HD
BRANCH   6   8
ATOM      8  C   UNL A   1      34.263  33.914  29.167  1.00  0.00     0.039 A 
ATOM      9  C   UNL A   1      34.136  32.982  30.202  1.00  0.00     0.014 A 
ATOM     10  C   UNL A   1      35.528  34.322  28.737  1.00  0.00     0.014 A 
ATOM     11  C   UNL A   1      35.266  32.521  30.866  1.00  0.00     0.010 A 
ATOM     12  C   UNL A   1      36.665  33.799  29.353  1.00  0.00     0.010 A 
ATOM     13  C   UNL A   1      36.541  32.899  30.424  1.00  0.00    -0.014 A 
BRANCH  13  14
ATOM     14  C   UNL A   1      37.749  32.281  31.018  1.00  0.00     0.031 A 
ATOM     15  C   UNL A   1      38.469  31.176  30.310  1.00  0.00     0.074 A 
ATOM     16  C   UNL A   1      38.153  32.692  32.234  1.00  0.00     0.049 A 
ATOM     17  N   UNL A   1      39.460  30.434  30.733  1.00  0.00    -0.248 NA
ATOM     18  C   UNL A   1      38.005  30.850  28.954  1.00  0.00     0.031 C 
ATOM     19  C   UNL A   1      37.520  33.757  33.016  1.00  0.00     0.029 A 
ATOM     20  N   UNL A   1      39.173  32.251  33.036  1.00  0.00    -0.354 N 
ATOM     21  C   UNL A   1      39.721  29.534  29.708  1.00  0.00     0.074 A 
ATOM     22  C   UNL A   1      38.770  29.811  28.652  1.00  0.00     0.031 C 
ATOM     23  C   UNL A   1      38.165  33.888  34.183  1.00  0.00     0.029 A 
ATOM     24  C   UNL A   1      39.212  32.876  34.259  1.00  0.00     0.049 A 
ATOM     25  H   UNL A   1      39.815  31.557  32.764  1.00  0.00     0.167 HD
ATOM     26  C   UNL A   1      40.669  28.568  29.660  1.00  0.00     0.037 A 
ATOM     27  C   UNL A   1      39.975  32.633  35.340  1.00  0.00     0.037 A 
ATOM     28  C   UNL A   1      41.610  28.311  30.720  1.00  0.00     0.049 A 
ATOM     29  C   UNL A   1      40.994  31.535  35.280  1.00  0.00     0.074 A 
ATOM     30  C   UNL A   1      42.639  27.387  30.754  1.00  0.00     0.029 A 
ATOM     31  N   UNL A   1      41.626  28.972  31.940  1.00  0.00    -0.354 N 
ATOM     32  N   UNL A   1      41.260  30.714  34.292  1.00  0.00    -0.248 NA
ATOM     33  C   UNL A   1      41.820  31.327  36.476  1.00  0.00     0.031 C 
ATOM     34  C   UNL A   1      43.242  27.452  32.015  1.00  0.00     0.029 A 
ATOM     35  C   UNL A   1      42.627  28.457  32.746  1.00  0.00     0.049 A 
ATOM     36  H   UNL A   1      41.014  29.700  32.195  1.00  0.00     0.167 HD
ATOM     37  C   UNL A   1      42.298  29.908  34.736  1.00  0.00     0.074 A 
ATOM     38  C   UNL A   1      42.615  30.341  36.082  1.00  0.00     0.031 C 
ATOM     39  C   UNL A   1      42.934  28.906  34.082  1.00  0.00     0.037 A 
BRANCH  26  40
ATOM     40  C   UNL A   1      40.705  27.698  28.436  1.00  0.00     0.057 A 
ATOM     41  C   UNL A   1      39.995  26.493  28.354  1.00  0.00     0.134 A 
ATOM     42  C   UNL A   1      41.462  28.075  27.318  1.00  0.00     0.134 A 
ATOM     43  F   UNL A   1      39.258  26.067  29.391  1.00  0.00    -0.206 F 
ATOM     44  C   UNL A   1      40.067  25.677  27.223  1.00  0.00     0.040 A 
ATOM     45  C   UNL A   1      41.518  27.282  26.170  1.00  0.00     0.040 A 
ATOM     46  F   UNL A   1      42.160  29.221  27.322  1.00  0.00    -0.206 F 
ATOM     47  C   UNL A   1      40.829  26.073  26.125  1.00  0.00     0.006 A 
ENDBRANCH  26  40
BRANCH  27  48
ATOM     48  C   UNL A   1      39.772  33.445  36.564  1.00  0.00     0.057 A 
ATOM     49  C   UNL A   1      40.475  34.637  36.766  1.00  0.00     0.134 A 
ATOM     50  C   UNL A   1      38.820  33.084  37.526  1.00  0.00     0.134 A 
ATOM     51  F   UNL A   1      41.407  35.029  35.886  1.00  0.00    -0.206 F 
ATOM     52  C   UNL A   1      40.239  35.442  37.882  1.00  0.00     0.040 A 
ATOM     53  C   UNL A   1      38.557  33.891  38.633  1.00  0.00     0.040 A 
ATOM     54  F   UNL A   1      38.103  31.960  37.380  1.00  0.00    -0.206 F 
ATOM     55  C   UNL A   1      39.269  35.075  38.814  1.00  0.00     0.006 A 
ENDBRANCH  27  48
BRANCH  39  56
ATOM     56  C   UNL A   1      44.069  28.231  34.792  1.00  0.00     0.057 A 
ATOM     57  C   UNL A   1      45.374  28.738  34.754  1.00  0.00     0.134 A 
ATOM     58  C   UNL A   1      43.833  27.102  35.587  1.00  0.00     0.134 A 
ATOM     59  F   UNL A   1      45.667  29.808  34.000  1.00  0.00    -0.206 F 
ATOM     60  C   UNL A   1      46.407  28.140  35.479  1.00  0.00     0.040 A 
ATOM     61  C   UNL A   1      44.852  26.511  36.335  1.00  0.00     0.040 A 
ATOM     62  F   UNL A   1      42.604  26.572  35.670  1.00  0.00    -0.206 F 
ATOM     63  C   UNL A   1      46.144  27.030  36.281  1.00  0.00     0.006 A 
ENDBRANCH  39  56
ENDBRANCH  13  14
ENDBRANCH   6   8
ENDBRANCH   3   4
ENDBRANCH   2   3
ENDBRANCH   1   2
BRANCH   1  64
ATOM     64  N   UNL A   1      31.485  29.218  26.517  1.00  0.00    -0.356 N 
ATOM     65  C   UNL A   1      31.644  27.920  26.162  1.00  0.00     0.223 C 
ATOM     66  H   UNL A   1      31.262  29.354  27.466  1.00  0.00     0.163 HD
ATOM     67  O   UNL A   1      31.329  27.056  26.985  1.00  0.00    -0.275 OA
BRANCH  65  68
ATOM     68  C   UNL A   1      32.229  27.512  24.822  1.00  0.00     0.091 C 
ATOM     69  C   UNL A   1      33.524  28.264  24.500  1.00  0.00     0.014 C 
ATOM     70  C   UNL A   1      31.218  27.438  23.673  1.00  0.00     0.091 C 
ATOM     71  C   UNL A   1      34.134  27.744  23.202  1.00  0.00     0.001 C 
ATOM     72  C   UNL A   1      31.865  27.064  22.330  1.00  0.00     0.014 C 
ATOM     73  C   UNL A   1      33.137  27.871  22.057  1.00  0.00     0.001 C 
BRANCH  70  74
ATOM     74  C   UNL A   1      29.927  26.643  23.953  1.00  0.00     0.228 C 
ATOM     75  O   UNL A   1      28.841  27.238  23.889  1.00  0.00    -0.274 OA
ATOM     76  N   UNL A   1      29.834  25.298  24.126  1.00  0.00    -0.326 N 
ATOM     77  H   UNL A   1      28.907  24.975  24.205  1.00  0.00     0.169 HD
BRANCH  76  78
ATOM     78  C   UNL A   1      30.787  24.286  24.214  1.00  0.00     0.041 A 
ATOM     79  C   UNL A   1      31.137  23.844  25.482  1.00  0.00     0.028 A 
ATOM     80  C   UNL A   1      31.453  23.744  23.125  1.00  0.00     0.028 A 
ATOM     81  C   UNL A   1      31.958  22.725  25.630  1.00  0.00     0.028 A 
ATOM     82  C   UNL A   1      32.215  22.582  23.264  1.00  0.00     0.028 A 
ATOM     83  C   UNL A   1      32.402  22.008  24.521  1.00  0.00     0.041 A 
BRANCH  83  84
ATOM     84  N   UNL A   1      33.028  20.750  24.563  1.00  0.00    -0.319 N 
ATOM     85  C   UNL A   1      34.353  20.363  24.643  1.00  0.00     0.291 C 
ATOM     86  H   UNL A   1      32.397  19.994  24.526  1.00  0.00     0.170 HD
ATOM     87  O   UNL A   1      34.589  19.154  24.651  1.00  0.00    -0.265 OA
BRANCH  85  88
ATOM     88  C   UNL A   1      35.388  21.358  24.758  1.00  0.00     0.191 A 
ATOM     89  C   UNL A   1      35.916  22.263  23.853  1.00  0.00     0.056 A 
ATOM     90  O   UNL A   1      36.073  21.441  25.940  1.00  0.00    -0.459 OA
ATOM     91  C   UNL A   1      37.018  22.882  24.499  1.00  0.00     0.043 A 
ATOM     92  C   UNL A   1      37.062  22.355  25.768  1.00  0.00     0.196 A 
ENDBRANCH  85  88
ENDBRANCH  83  84
ENDBRANCH  76  78
ENDBRANCH  70  74
ENDBRANCH  65  68
ENDBRANCH   1  64
TORSDOF 14
ENDMDL
