MODEL 1
REMARK VINA RESULT:     -13.0      0.000      0.000
REMARK SMILES O=C(NCCCNC(=O)C1(Cc2ccccc2Cl)CCN(c2ncnc3[nH]ccc23)CC1)c1ccc(-c2c3nc(c(-c4c(F)cccc4F)c4ccc([nH]4)c(-c4c(F)cccc4F)c4nc(c(-c5c(F)cccc5F)c5ccc2[nH]5)C=C4)C=C3)cc1
REMARK SMILES IDX 5 1 4 2 3 3 1 4 2 5 33 7 34 8 86 9 35 10 85 11 36 12 37 13
REMARK SMILES IDX 38 14 79 15 39 16 84 17 78 18 80 19 40 20 83 21 77 22 76 23
REMARK SMILES IDX 41 25 67 26 50 27 66 28 51 29 54 30 65 31 81 32 52 33 53 34
REMARK SMILES IDX 64 36 82 37 55 38 42 39 43 40 48 41 44 42 45 43 47 44 49 45
REMARK SMILES IDX 46 46 68 47 69 48 74 49 70 50 71 51 73 52 75 53 72 54 56 55
REMARK SMILES IDX 57 56 62 57 58 58 59 59 61 60 63 61 60 62 6 63 7 64 8 65
REMARK SMILES IDX 9 67 10 68 19 69 32 70 20 71 31 72 21 73 11 74 12 75 13 76
REMARK SMILES IDX 17 77 14 78 16 79 18 80 15 81 22 82 23 83 30 84 24 85 26 86
REMARK SMILES IDX 29 87 25 88 27 89 28 90
REMARK H PARENT 3 6 80 24 54 35 7 66 27 91
REMARK Flexibility Score: inf
ROOT
ATOM      1  C   UNL A   1      33.491  28.837  26.376  1.00  0.00     0.042 C 
ENDROOT
BRANCH   1   2
ATOM      2  C   UNL A   1      34.772  28.938  27.182  1.00  0.00     0.118 C 
BRANCH   2   3
ATOM      3  N   UNL A   1      34.751  30.098  28.077  1.00  0.00    -0.352 N 
ATOM      4  O   UNL A   1      35.360  31.371  29.836  1.00  0.00    -0.269 OA
ATOM      5  C   UNL A   1      35.678  30.538  28.991  1.00  0.00     0.251 C 
ATOM      6  H   UNL A   1      33.941  30.654  28.012  1.00  0.00     0.163 HD
BRANCH   5   7
ATOM      7  C   UNL A   1      37.053  30.003  28.962  1.00  0.00     0.039 A 
ATOM      8  C   UNL A   1      37.814  30.125  27.804  1.00  0.00     0.014 A 
ATOM      9  C   UNL A   1      37.607  29.399  30.095  1.00  0.00     0.014 A 
ATOM     10  C   UNL A   1      39.012  29.450  27.694  1.00  0.00     0.010 A 
ATOM     11  C   UNL A   1      38.903  28.869  30.038  1.00  0.00     0.010 A 
ATOM     12  C   UNL A   1      39.605  28.865  28.824  1.00  0.00    -0.014 A 
BRANCH  12  13
ATOM     13  C   UNL A   1      40.997  28.370  28.684  1.00  0.00     0.031 A 
ATOM     14  C   UNL A   1      41.299  26.964  28.257  1.00  0.00     0.074 A 
ATOM     15  C   UNL A   1      41.996  29.263  28.854  1.00  0.00     0.049 A 
ATOM     16  N   UNL A   1      42.464  26.417  28.016  1.00  0.00    -0.248 NA
ATOM     17  C   UNL A   1      40.161  26.048  28.086  1.00  0.00     0.031 C 
ATOM     18  C   UNL A   1      41.813  30.654  29.290  1.00  0.00     0.029 A 
ATOM     19  N   UNL A   1      43.342  29.170  28.625  1.00  0.00    -0.354 N 
ATOM     20  C   UNL A   1      42.205  25.091  27.695  1.00  0.00     0.074 A 
ATOM     21  C   UNL A   1      40.773  24.909  27.785  1.00  0.00     0.031 C 
ATOM     22  C   UNL A   1      42.976  31.308  29.188  1.00  0.00     0.029 A 
ATOM     23  C   UNL A   1      44.007  30.362  28.786  1.00  0.00     0.049 A 
ATOM     24  H   UNL A   1      43.790  28.331  28.370  1.00  0.00     0.167 HD
ATOM     25  C   UNL A   1      43.088  24.122  27.355  1.00  0.00     0.037 A 
ATOM     26  C   UNL A   1      45.310  30.663  28.647  1.00  0.00     0.037 A 
ATOM     27  C   UNL A   1      44.510  24.325  27.247  1.00  0.00     0.049 A 
ATOM     28  C   UNL A   1      46.256  29.569  28.259  1.00  0.00     0.074 A 
ATOM     29  C   UNL A   1      45.490  23.406  26.910  1.00  0.00     0.029 A 
ATOM     30  N   UNL A   1      45.156  25.534  27.466  1.00  0.00    -0.354 N 
ATOM     31  N   UNL A   1      45.993  28.318  27.973  1.00  0.00    -0.248 NA
ATOM     32  C   UNL A   1      47.678  29.922  28.195  1.00  0.00     0.031 C 
ATOM     33  C   UNL A   1      46.731  24.053  26.957  1.00  0.00     0.029 A 
ATOM     34  C   UNL A   1      46.521  25.382  27.282  1.00  0.00     0.049 A 
ATOM     35  H   UNL A   1      44.710  26.375  27.715  1.00  0.00     0.167 HD
ATOM     36  C   UNL A   1      47.218  27.728  27.705  1.00  0.00     0.074 A 
ATOM     37  C   UNL A   1      48.217  28.772  27.817  1.00  0.00     0.031 C 
ATOM     38  C   UNL A   1      47.495  26.435  27.411  1.00  0.00     0.037 A 
BRANCH  25  39
ATOM     39  C   UNL A   1      42.548  22.746  27.091  1.00  0.00     0.057 A 
ATOM     40  C   UNL A   1      42.433  22.233  25.793  1.00  0.00     0.134 A 
ATOM     41  C   UNL A   1      42.200  21.901  28.153  1.00  0.00     0.134 A 
ATOM     42  F   UNL A   1      42.736  22.994  24.731  1.00  0.00    -0.206 F 
ATOM     43  C   UNL A   1      41.985  20.931  25.561  1.00  0.00     0.040 A 
ATOM     44  C   UNL A   1      41.770  20.591  27.935  1.00  0.00     0.040 A 
ATOM     45  F   UNL A   1      42.291  22.329  29.421  1.00  0.00    -0.206 F 
ATOM     46  C   UNL A   1      41.661  20.103  26.635  1.00  0.00     0.006 A 
ENDBRANCH  25  39
BRANCH  26  47
ATOM     47  C   UNL A   1      45.787  32.043  28.915  1.00  0.00     0.057 A 
ATOM     48  C   UNL A   1      45.840  33.008  27.903  1.00  0.00     0.134 A 
ATOM     49  C   UNL A   1      46.194  32.432  30.198  1.00  0.00     0.134 A 
ATOM     50  F   UNL A   1      45.477  32.694  26.651  1.00  0.00    -0.206 F 
ATOM     51  C   UNL A   1      46.291  34.305  28.155  1.00  0.00     0.040 A 
ATOM     52  C   UNL A   1      46.617  33.732  30.470  1.00  0.00     0.040 A 
ATOM     53  F   UNL A   1      46.160  31.557  31.214  1.00  0.00    -0.206 F 
ATOM     54  C   UNL A   1      46.674  34.672  29.444  1.00  0.00     0.006 A 
ENDBRANCH  26  47
BRANCH  38  55
ATOM     55  C   UNL A   1      48.938  26.099  27.189  1.00  0.00     0.057 A 
ATOM     56  C   UNL A   1      49.760  25.675  28.241  1.00  0.00     0.134 A 
ATOM     57  C   UNL A   1      49.511  26.211  25.917  1.00  0.00     0.134 A 
ATOM     58  F   UNL A   1      49.271  25.566  29.485  1.00  0.00    -0.206 F 
ATOM     59  C   UNL A   1      51.114  25.404  28.040  1.00  0.00     0.040 A 
ATOM     60  C   UNL A   1      50.857  25.920  25.700  1.00  0.00     0.040 A 
ATOM     61  F   UNL A   1      48.774  26.609  24.870  1.00  0.00    -0.206 F 
ATOM     62  C   UNL A   1      51.665  25.523  26.766  1.00  0.00     0.006 A 
ENDBRANCH  38  55
ENDBRANCH  12  13
ENDBRANCH   5   7
ENDBRANCH   2   3
ENDBRANCH   1   2
BRANCH   1  63
ATOM     63  C   UNL A   1      32.869  27.474  26.574  1.00  0.00     0.117 C 
BRANCH  63  64
ATOM     64  N   UNL A   1      31.529  27.420  26.037  1.00  0.00    -0.356 N 
ATOM     65  C   UNL A   1      30.945  26.232  25.736  1.00  0.00     0.226 C 
ATOM     66  H   UNL A   1      31.032  28.257  25.888  1.00  0.00     0.163 HD
ATOM     67  O   UNL A   1      30.002  25.890  26.453  1.00  0.00    -0.274 OA
BRANCH  65  68
ATOM     68  C   UNL A   1      31.369  25.420  24.490  1.00  0.00     0.057 C 
ATOM     69  C   UNL A   1      31.435  23.948  24.947  1.00  0.00     0.039 C 
ATOM     70  C   UNL A   1      32.707  25.809  23.785  1.00  0.00     0.039 C 
ATOM     71  C   UNL A   1      32.661  23.731  25.826  1.00  0.00     0.119 C 
ATOM     72  C   UNL A   1      34.022  25.215  24.310  1.00  0.00     0.119 C 
ATOM     73  N   UNL A   1      33.823  23.960  24.995  1.00  0.00    -0.356 N 
BRANCH  68  74
ATOM     74  C   UNL A   1      30.254  25.654  23.406  1.00  0.00     0.054 C 
BRANCH  74  75
ATOM     75  C   UNL A   1      29.818  27.076  23.121  1.00  0.00    -0.028 A 
ATOM     76  C   UNL A   1      30.754  27.963  22.556  1.00  0.00     0.005 A 
ATOM     77  C   UNL A   1      28.523  27.556  23.385  1.00  0.00     0.044 A 
ATOM     78  C   UNL A   1      30.397  29.268  22.217  1.00  0.00     0.000 A 
ATOM     79  C   UNL A   1      28.167  28.863  23.034  1.00  0.00     0.021 A 
ATOM     80  Cl  UNL A   1      27.320  26.593  24.171  1.00  0.00    -0.084 Cl
ATOM     81  C   UNL A   1      29.100  29.713  22.443  1.00  0.00     0.002 A 
ENDBRANCH  74  75
ENDBRANCH  68  74
BRANCH  73  82
ATOM     82  C   UNL A   1      34.968  23.255  25.310  1.00  0.00     0.141 A 
ATOM     83  N   UNL A   1      36.120  23.894  25.622  1.00  0.00    -0.219 NA
ATOM     84  C   UNL A   1      34.995  21.860  25.182  1.00  0.00     0.061 A 
ATOM     85  C   UNL A   1      37.229  23.151  25.820  1.00  0.00     0.226 A 
ATOM     86  C   UNL A   1      36.215  21.235  25.369  1.00  0.00     0.142 A 
ATOM     87  C   UNL A   1      34.056  20.853  24.826  1.00  0.00     0.033 A 
ATOM     88  N   UNL A   1      37.375  21.817  25.702  1.00  0.00    -0.218 NA
ATOM     89  N   UNL A   1      36.041  19.900  25.115  1.00  0.00    -0.346 N 
ATOM     90  C   UNL A   1      34.732  19.654  24.781  1.00  0.00     0.085 A 
ATOM     91  H   UNL A   1      36.750  19.219  25.165  1.00  0.00     0.167 HD
ENDBRANCH  73  82
ENDBRANCH  65  68
ENDBRANCH  63  64
ENDBRANCH   1  63
TORSDOF 13
ENDMDL
MODEL 2
REMARK VINA RESULT:     -12.8      5.067      9.907
REMARK SMILES O=C(NCCCNC(=O)C1(Cc2ccccc2Cl)CCN(c2ncnc3[nH]ccc23)CC1)c1ccc(-c2c3nc(c(-c4c(F)cccc4F)c4ccc([nH]4)c(-c4c(F)cccc4F)c4nc(c(-c5c(F)cccc5F)c5ccc2[nH]5)C=C4)C=C3)cc1
REMARK SMILES IDX 5 1 4 2 3 3 1 4 2 5 33 7 34 8 86 9 35 10 85 11 36 12 37 13
REMARK SMILES IDX 38 14 79 15 39 16 84 17 78 18 80 19 40 20 83 21 77 22 76 23
REMARK SMILES IDX 41 25 67 26 50 27 66 28 51 29 54 30 65 31 81 32 52 33 53 34
REMARK SMILES IDX 64 36 82 37 55 38 42 39 43 40 48 41 44 42 45 43 47 44 49 45
REMARK SMILES IDX 46 46 68 47 69 48 74 49 70 50 71 51 73 52 75 53 72 54 56 55
REMARK SMILES IDX 57 56 62 57 58 58 59 59 61 60 63 61 60 62 6 63 7 64 8 65
REMARK SMILES IDX 9 67 10 68 19 69 32 70 20 71 31 72 21 73 11 74 12 75 13 76
REMARK SMILES IDX 17 77 14 78 16 79 18 80 15 81 22 82 23 83 30 84 24 85 26 86
REMARK SMILES IDX 29 87 25 88 27 89 28 90
REMARK H PARENT 3 6 80 24 54 35 7 66 27 91
REMARK Flexibility Score: inf
ROOT
ATOM      1  C   UNL A   1      36.660  23.136  25.542  1.00  0.00     0.042 C 
ENDROOT
BRANCH   1   2
ATOM      2  C   UNL A   1      37.684  24.085  26.136  1.00  0.00     0.118 C 
BRANCH   2   3
ATOM      3  N   UNL A   1      39.031  23.511  26.100  1.00  0.00    -0.352 N 
ATOM      4  O   UNL A   1      41.285  23.505  26.161  1.00  0.00    -0.269 OA
ATOM      5  C   UNL A   1      40.233  24.023  26.526  1.00  0.00     0.251 C 
ATOM      6  H   UNL A   1      39.084  22.610  25.706  1.00  0.00     0.163 HD
BRANCH   5   7
ATOM      7  C   UNL A   1      40.258  25.200  27.415  1.00  0.00     0.039 A 
ATOM      8  C   UNL A   1      39.532  25.181  28.602  1.00  0.00     0.014 A 
ATOM      9  C   UNL A   1      41.025  26.324  27.089  1.00  0.00     0.014 A 
ATOM     10  C   UNL A   1      39.379  26.341  29.333  1.00  0.00     0.010 A 
ATOM     11  C   UNL A   1      41.011  27.443  27.931  1.00  0.00     0.010 A 
ATOM     12  C   UNL A   1      40.162  27.470  29.047  1.00  0.00    -0.014 A 
BRANCH  12  13
ATOM     13  C   UNL A   1      40.119  28.593  30.018  1.00  0.00     0.031 A 
ATOM     14  C   UNL A   1      39.071  29.663  29.945  1.00  0.00     0.074 A 
ATOM     15  C   UNL A   1      40.999  28.564  31.041  1.00  0.00     0.049 A 
ATOM     16  N   UNL A   1      38.863  30.659  30.770  1.00  0.00    -0.248 NA
ATOM     17  C   UNL A   1      38.143  29.628  28.804  1.00  0.00     0.031 C 
ATOM     18  C   UNL A   1      42.074  27.576  31.197  1.00  0.00     0.029 A 
ATOM     19  N   UNL A   1      41.098  29.332  32.171  1.00  0.00    -0.354 N 
ATOM     20  C   UNL A   1      37.805  31.382  30.236  1.00  0.00     0.074 A 
ATOM     21  C   UNL A   1      37.421  30.723  29.008  1.00  0.00     0.031 C 
ATOM     22  C   UNL A   1      42.646  27.727  32.398  1.00  0.00     0.029 A 
ATOM     23  C   UNL A   1      42.055  28.886  33.052  1.00  0.00     0.049 A 
ATOM     24  H   UNL A   1      40.539  30.125  32.336  1.00  0.00     0.167 HD
ATOM     25  C   UNL A   1      37.213  32.494  30.734  1.00  0.00     0.037 A 
ATOM     26  C   UNL A   1      42.434  29.366  34.249  1.00  0.00     0.037 A 
ATOM     27  C   UNL A   1      37.593  33.127  31.972  1.00  0.00     0.049 A 
ATOM     28  C   UNL A   1      41.751  30.591  34.774  1.00  0.00     0.074 A 
ATOM     29  C   UNL A   1      37.056  34.259  32.563  1.00  0.00     0.029 A 
ATOM     30  N   UNL A   1      38.600  32.678  32.815  1.00  0.00    -0.354 N 
ATOM     31  N   UNL A   1      40.761  31.269  34.247  1.00  0.00    -0.248 NA
ATOM     32  C   UNL A   1      42.248  31.127  36.045  1.00  0.00     0.031 C 
ATOM     33  C   UNL A   1      37.760  34.511  33.747  1.00  0.00     0.029 A 
ATOM     34  C   UNL A   1      38.706  33.515  33.914  1.00  0.00     0.049 A 
ATOM     35  H   UNL A   1      39.156  31.882  32.655  1.00  0.00     0.167 HD
ATOM     36  C   UNL A   1      40.523  32.321  35.117  1.00  0.00     0.074 A 
ATOM     37  C   UNL A   1      41.440  32.162  36.227  1.00  0.00     0.031 C 
ATOM     38  C   UNL A   1      39.637  33.340  34.999  1.00  0.00     0.037 A 
BRANCH  25  39
ATOM     39  C   UNL A   1      36.103  33.114  29.936  1.00  0.00     0.057 A 
ATOM     40  C   UNL A   1      36.351  33.851  28.772  1.00  0.00     0.134 A 
ATOM     41  C   UNL A   1      34.765  32.915  30.302  1.00  0.00     0.134 A 
ATOM     42  F   UNL A   1      37.609  34.091  28.373  1.00  0.00    -0.206 F 
ATOM     43  C   UNL A   1      35.308  34.375  28.005  1.00  0.00     0.040 A 
ATOM     44  C   UNL A   1      33.714  33.415  29.532  1.00  0.00     0.040 A 
ATOM     45  F   UNL A   1      34.458  32.214  31.404  1.00  0.00    -0.206 F 
ATOM     46  C   UNL A   1      33.985  34.149  28.379  1.00  0.00     0.006 A 
ENDBRANCH  25  39
BRANCH  26  47
ATOM     47  C   UNL A   1      43.535  28.709  34.998  1.00  0.00     0.057 A 
ATOM     48  C   UNL A   1      43.276  27.756  35.989  1.00  0.00     0.134 A 
ATOM     49  C   UNL A   1      44.875  29.016  34.733  1.00  0.00     0.134 A 
ATOM     50  F   UNL A   1      42.013  27.430  36.300  1.00  0.00    -0.206 F 
ATOM     51  C   UNL A   1      44.311  27.141  36.697  1.00  0.00     0.040 A 
ATOM     52  C   UNL A   1      45.919  28.386  35.409  1.00  0.00     0.040 A 
ATOM     53  F   UNL A   1      45.191  29.916  33.789  1.00  0.00    -0.206 F 
ATOM     54  C   UNL A   1      45.638  27.450  36.402  1.00  0.00     0.006 A 
ENDBRANCH  26  47
BRANCH  38  55
ATOM     55  C   UNL A   1      39.630  34.345  36.110  1.00  0.00     0.057 A 
ATOM     56  C   UNL A   1      40.360  35.538  36.021  1.00  0.00     0.134 A 
ATOM     57  C   UNL A   1      38.897  34.114  37.280  1.00  0.00     0.134 A 
ATOM     58  F   UNL A   1      41.096  35.805  34.932  1.00  0.00    -0.206 F 
ATOM     59  C   UNL A   1      40.387  36.452  37.074  1.00  0.00     0.040 A 
ATOM     60  C   UNL A   1      38.897  35.033  38.328  1.00  0.00     0.040 A 
ATOM     61  F   UNL A   1      38.176  32.993  37.422  1.00  0.00    -0.206 F 
ATOM     62  C   UNL A   1      39.651  36.202  38.231  1.00  0.00     0.006 A 
ENDBRANCH  38  55
ENDBRANCH  12  13
ENDBRANCH   5   7
ENDBRANCH   2   3
ENDBRANCH   1   2
BRANCH   1  63
ATOM     63  C   UNL A   1      35.875  23.843  24.462  1.00  0.00     0.117 C 
BRANCH  63  64
ATOM     64  N   UNL A   1      35.010  22.930  23.753  1.00  0.00    -0.356 N 
ATOM     65  C   UNL A   1      33.885  23.371  23.134  1.00  0.00     0.226 C 
ATOM     66  H   UNL A   1      35.239  21.973  23.717  1.00  0.00     0.163 HD
ATOM     67  O   UNL A   1      33.892  23.340  21.901  1.00  0.00    -0.274 OA
BRANCH  65  68
ATOM     68  C   UNL A   1      32.630  23.776  23.940  1.00  0.00     0.057 C 
ATOM     69  C   UNL A   1      32.109  25.074  23.290  1.00  0.00     0.039 C 
ATOM     70  C   UNL A   1      32.786  23.988  25.479  1.00  0.00     0.039 C 
ATOM     71  C   UNL A   1      33.029  26.237  23.643  1.00  0.00     0.119 C 
ATOM     72  C   UNL A   1      33.252  25.358  25.995  1.00  0.00     0.119 C 
ATOM     73  N   UNL A   1      32.940  26.426  25.075  1.00  0.00    -0.356 N 
BRANCH  68  74
ATOM     74  C   UNL A   1      31.606  22.590  23.794  1.00  0.00     0.054 C 
BRANCH  74  75
ATOM     75  C   UNL A   1      32.115  21.177  23.987  1.00  0.00    -0.028 A 
ATOM     76  C   UNL A   1      32.542  20.788  25.271  1.00  0.00     0.005 A 
ATOM     77  C   UNL A   1      32.176  20.229  22.951  1.00  0.00     0.044 A 
ATOM     78  C   UNL A   1      32.966  19.484  25.526  1.00  0.00     0.000 A 
ATOM     79  C   UNL A   1      32.593  18.919  23.214  1.00  0.00     0.021 A 
ATOM     80  Cl  UNL A   1      31.778  20.618  21.313  1.00  0.00    -0.084 Cl
ATOM     81  C   UNL A   1      32.978  18.546  24.500  1.00  0.00     0.002 A 
ENDBRANCH  74  75
ENDBRANCH  68  74
BRANCH  73  82
ATOM     82  C   UNL A   1      33.129  27.708  25.551  1.00  0.00     0.141 A 
ATOM     83  N   UNL A   1      34.078  27.978  26.479  1.00  0.00    -0.219 NA
ATOM     84  C   UNL A   1      32.251  28.735  25.182  1.00  0.00     0.061 A 
ATOM     85  C   UNL A   1      34.144  29.229  26.980  1.00  0.00     0.226 A 
ATOM     86  C   UNL A   1      32.408  29.956  25.812  1.00  0.00     0.142 A 
ATOM     87  C   UNL A   1      31.125  28.848  24.320  1.00  0.00     0.033 A 
ATOM     88  N   UNL A   1      33.344  30.280  26.716  1.00  0.00    -0.218 NA
ATOM     89  N   UNL A   1      31.407  30.782  25.376  1.00  0.00    -0.346 N 
ATOM     90  C   UNL A   1      30.616  30.120  24.469  1.00  0.00     0.085 A 
ATOM     91  H   UNL A   1      31.275  31.712  25.669  1.00  0.00     0.167 HD
ENDBRANCH  73  82
ENDBRANCH  65  68
ENDBRANCH  63  64
ENDBRANCH   1  63
TORSDOF 13
ENDMDL
MODEL 3
REMARK VINA RESULT:     -12.5      5.378     10.016
REMARK SMILES O=C(NCCCNC(=O)C1(Cc2ccccc2Cl)CCN(c2ncnc3[nH]ccc23)CC1)c1ccc(-c2c3nc(c(-c4c(F)cccc4F)c4ccc([nH]4)c(-c4c(F)cccc4F)c4nc(c(-c5c(F)cccc5F)c5ccc2[nH]5)C=C4)C=C3)cc1
REMARK SMILES IDX 5 1 4 2 3 3 1 4 2 5 33 7 34 8 86 9 35 10 85 11 36 12 37 13
REMARK SMILES IDX 38 14 79 15 39 16 84 17 78 18 80 19 40 20 83 21 77 22 76 23
REMARK SMILES IDX 41 25 67 26 50 27 66 28 51 29 54 30 65 31 81 32 52 33 53 34
REMARK SMILES IDX 64 36 82 37 55 38 42 39 43 40 48 41 44 42 45 43 47 44 49 45
REMARK SMILES IDX 46 46 68 47 69 48 74 49 70 50 71 51 73 52 75 53 72 54 56 55
REMARK SMILES IDX 57 56 62 57 58 58 59 59 61 60 63 61 60 62 6 63 7 64 8 65
REMARK SMILES IDX 9 67 10 68 19 69 32 70 20 71 31 72 21 73 11 74 12 75 13 76
REMARK SMILES IDX 17 77 14 78 16 79 18 80 15 81 22 82 23 83 30 84 24 85 26 86
REMARK SMILES IDX 29 87 25 88 27 89 28 90
REMARK H PARENT 3 6 80 24 54 35 7 66 27 91
REMARK Flexibility Score: inf
ROOT
ATOM      1  C   UNL A   1      39.354  22.172  26.455  1.00  0.00     0.042 C 
ENDROOT
BRANCH   1   2
ATOM      2  C   UNL A   1      40.330  23.137  27.103  1.00  0.00     0.118 C 
BRANCH   2   3
ATOM      3  N   UNL A   1      40.988  23.984  26.106  1.00  0.00    -0.352 N 
ATOM      4  O   UNL A   1      41.479  25.889  25.004  1.00  0.00    -0.269 OA
ATOM      5  C   UNL A   1      41.137  25.349  26.053  1.00  0.00     0.251 C 
ATOM      6  H   UNL A   1      41.389  23.497  25.351  1.00  0.00     0.163 HD
BRANCH   5   7
ATOM      7  C   UNL A   1      40.880  26.167  27.254  1.00  0.00     0.039 A 
ATOM      8  C   UNL A   1      41.683  27.272  27.518  1.00  0.00     0.014 A 
ATOM      9  C   UNL A   1      39.823  25.855  28.116  1.00  0.00     0.014 A 
ATOM     10  C   UNL A   1      41.589  27.915  28.735  1.00  0.00     0.010 A 
ATOM     11  C   UNL A   1      39.615  26.625  29.268  1.00  0.00     0.010 A 
ATOM     12  C   UNL A   1      40.518  27.645  29.601  1.00  0.00    -0.014 A 
BRANCH  12  13
ATOM     13  C   UNL A   1      40.348  28.539  30.774  1.00  0.00     0.031 A 
ATOM     14  C   UNL A   1      41.282  28.493  31.947  1.00  0.00     0.074 A 
ATOM     15  C   UNL A   1      39.378  29.476  30.707  1.00  0.00     0.049 A 
ATOM     16  N   UNL A   1      41.303  29.267  33.004  1.00  0.00    -0.248 NA
ATOM     17  C   UNL A   1      42.318  27.448  31.950  1.00  0.00     0.031 C 
ATOM     18  C   UNL A   1      38.401  29.596  29.618  1.00  0.00     0.029 A 
ATOM     19  N   UNL A   1      39.089  30.538  31.521  1.00  0.00    -0.354 N 
ATOM     20  C   UNL A   1      42.329  28.787  33.808  1.00  0.00     0.074 A 
ATOM     21  C   UNL A   1      42.899  27.646  33.126  1.00  0.00     0.031 C 
ATOM     22  C   UNL A   1      37.700  30.726  29.773  1.00  0.00     0.029 A 
ATOM     23  C   UNL A   1      38.100  31.354  31.023  1.00  0.00     0.049 A 
ATOM     24  H   UNL A   1      39.544  30.702  32.379  1.00  0.00     0.167 HD
ATOM     25  C   UNL A   1      42.750  29.263  35.004  1.00  0.00     0.037 A 
ATOM     26  C   UNL A   1      37.556  32.476  31.525  1.00  0.00     0.037 A 
ATOM     27  C   UNL A   1      42.186  30.416  35.660  1.00  0.00     0.049 A 
ATOM     28  C   UNL A   1      38.054  32.980  32.845  1.00  0.00     0.074 A 
ATOM     29  C   UNL A   1      42.542  30.978  36.874  1.00  0.00     0.029 A 
ATOM     30  N   UNL A   1      41.152  31.189  35.151  1.00  0.00    -0.354 N 
ATOM     31  N   UNL A   1      39.015  32.504  33.597  1.00  0.00    -0.248 NA
ATOM     32  C   UNL A   1      37.380  34.161  33.394  1.00  0.00     0.031 C 
ATOM     33  C   UNL A   1      41.701  32.072  37.114  1.00  0.00     0.029 A 
ATOM     34  C   UNL A   1      40.851  32.216  36.031  1.00  0.00     0.049 A 
ATOM     35  H   UNL A   1      40.699  31.031  34.291  1.00  0.00     0.167 HD
ATOM     36  C   UNL A   1      39.056  33.321  34.716  1.00  0.00     0.074 A 
ATOM     37  C   UNL A   1      38.054  34.349  34.519  1.00  0.00     0.031 C 
ATOM     38  C   UNL A   1      39.840  33.219  35.816  1.00  0.00     0.037 A 
BRANCH  25  39
ATOM     39  C   UNL A   1      43.864  28.532  35.695  1.00  0.00     0.057 A 
ATOM     40  C   UNL A   1      43.620  27.475  36.579  1.00  0.00     0.134 A 
ATOM     41  C   UNL A   1      45.202  28.850  35.422  1.00  0.00     0.134 A 
ATOM     42  F   UNL A   1      42.362  27.129  36.894  1.00  0.00    -0.206 F 
ATOM     43  C   UNL A   1      44.665  26.764  37.173  1.00  0.00     0.040 A 
ATOM     44  C   UNL A   1      46.255  28.133  35.993  1.00  0.00     0.040 A 
ATOM     45  F   UNL A   1      45.506  29.849  34.581  1.00  0.00    -0.206 F 
ATOM     46  C   UNL A   1      45.987  27.086  36.873  1.00  0.00     0.006 A 
ENDBRANCH  25  39
BRANCH  26  47
ATOM     47  C   UNL A   1      36.460  33.161  30.795  1.00  0.00     0.057 A 
ATOM     48  C   UNL A   1      36.712  33.931  29.655  1.00  0.00     0.134 A 
ATOM     49  C   UNL A   1      35.130  33.055  31.220  1.00  0.00     0.134 A 
ATOM     50  F   UNL A   1      37.967  34.085  29.206  1.00  0.00    -0.206 F 
ATOM     51  C   UNL A   1      35.682  34.579  28.970  1.00  0.00     0.040 A 
ATOM     52  C   UNL A   1      34.087  33.670  30.527  1.00  0.00     0.040 A 
ATOM     53  F   UNL A   1      34.820  32.325  32.302  1.00  0.00    -0.206 F 
ATOM     54  C   UNL A   1      34.364  34.442  29.402  1.00  0.00     0.006 A 
ENDBRANCH  26  47
BRANCH  38  55
ATOM     55  C   UNL A   1      39.632  34.257  36.877  1.00  0.00     0.057 A 
ATOM     56  C   UNL A   1      40.246  35.514  36.800  1.00  0.00     0.134 A 
ATOM     57  C   UNL A   1      38.823  33.992  37.988  1.00  0.00     0.134 A 
ATOM     58  F   UNL A   1      41.048  35.817  35.768  1.00  0.00    -0.206 F 
ATOM     59  C   UNL A   1      40.087  36.462  37.810  1.00  0.00     0.040 A 
ATOM     60  C   UNL A   1      38.637  34.942  38.991  1.00  0.00     0.040 A 
ATOM     61  F   UNL A   1      38.207  32.809  38.116  1.00  0.00    -0.206 F 
ATOM     62  C   UNL A   1      39.277  36.178  38.908  1.00  0.00     0.006 A 
ENDBRANCH  38  55
ENDBRANCH  12  13
ENDBRANCH   5   7
ENDBRANCH   2   3
ENDBRANCH   1   2
BRANCH   1  63
ATOM     63  C   UNL A   1      38.234  22.944  25.797  1.00  0.00     0.117 C 
BRANCH  63  64
ATOM     64  N   UNL A   1      37.583  22.162  24.773  1.00  0.00    -0.356 N 
ATOM     65  C   UNL A   1      36.493  22.638  24.117  1.00  0.00     0.226 C 
ATOM     66  H   UNL A   1      37.934  21.270  24.546  1.00  0.00     0.163 HD
ATOM     67  O   UNL A   1      36.652  22.919  22.927  1.00  0.00    -0.274 OA
BRANCH  65  68
ATOM     68  C   UNL A   1      35.109  22.708  24.802  1.00  0.00     0.057 C 
ATOM     69  C   UNL A   1      34.072  22.730  23.661  1.00  0.00     0.039 C 
ATOM     70  C   UNL A   1      34.836  23.895  25.779  1.00  0.00     0.039 C 
ATOM     71  C   UNL A   1      34.087  24.089  22.971  1.00  0.00     0.119 C 
ATOM     72  C   UNL A   1      34.340  25.230  25.204  1.00  0.00     0.119 C 
ATOM     73  N   UNL A   1      33.650  25.063  23.947  1.00  0.00    -0.356 N 
BRANCH  68  74
ATOM     74  C   UNL A   1      34.986  21.415  25.689  1.00  0.00     0.054 C 
BRANCH  74  75
ATOM     75  C   UNL A   1      34.371  20.177  25.069  1.00  0.00    -0.028 A 
ATOM     76  C   UNL A   1      35.230  19.152  24.629  1.00  0.00     0.005 A 
ATOM     77  C   UNL A   1      32.986  19.994  24.916  1.00  0.00     0.044 A 
ATOM     78  C   UNL A   1      34.724  17.963  24.104  1.00  0.00     0.000 A 
ATOM     79  C   UNL A   1      32.482  18.796  24.398  1.00  0.00     0.021 A 
ATOM     80  Cl  UNL A   1      31.839  21.224  25.323  1.00  0.00    -0.084 Cl
ATOM     81  C   UNL A   1      33.349  17.780  24.000  1.00  0.00     0.002 A 
ENDBRANCH  74  75
ENDBRANCH  68  74
BRANCH  73  82
ATOM     82  C   UNL A   1      32.988  26.177  23.469  1.00  0.00     0.141 A 
ATOM     83  N   UNL A   1      33.670  27.244  22.989  1.00  0.00    -0.219 NA
ATOM     84  C   UNL A   1      31.597  26.280  23.595  1.00  0.00     0.061 A 
ATOM     85  C   UNL A   1      32.970  28.341  22.632  1.00  0.00     0.226 A 
ATOM     86  C   UNL A   1      31.019  27.482  23.233  1.00  0.00     0.142 A 
ATOM     87  C   UNL A   1      30.556  25.444  24.089  1.00  0.00     0.033 A 
ATOM     88  N   UNL A   1      31.644  28.557  22.731  1.00  0.00    -0.218 NA
ATOM     89  N   UNL A   1      29.681  27.403  23.513  1.00  0.00    -0.346 N 
ATOM     90  C   UNL A   1      29.385  26.168  24.038  1.00  0.00     0.085 A 
ATOM     91  H   UNL A   1      29.028  28.123  23.361  1.00  0.00     0.167 HD
ENDBRANCH  73  82
ENDBRANCH  65  68
ENDBRANCH  63  64
ENDBRANCH   1  63
TORSDOF 13
ENDMDL
