MODEL 1
REMARK VINA RESULT:     -11.8      0.000      0.000
REMARK SMILES O=C(C[N@@H+]1C[C@@]2([N+](=O)[O-])CC=C(Cl)[C@@]([N+](=O)[O-])(C1)C2)NCCCNC(=O)c1ccc(-c2c3nc(c(-c4c(F)cccc4F)c4ccc([nH]4)c(-c4c(F)cccc4F)c4nc(c(-c5c(F)cccc5F)c5ccc2[nH]5)C=C4)C=C3)cc1
REMARK SMILES IDX 22 1 21 2 20 3 1 4 2 5 3 7 4 8 5 9 18 10 6 12 14 13 10 14
REMARK SMILES IDX 19 15 12 16 11 17 13 18 7 19 8 20 9 21 15 22 16 23 17 24
REMARK SMILES IDX 23 25 24 26 25 27 26 29 27 30 28 31 80 32 29 33 79 34 30 35
REMARK SMILES IDX 31 36 32 37 73 38 33 39 78 40 72 41 74 42 34 43 77 44 71 45
REMARK SMILES IDX 70 46 35 48 61 49 44 50 60 51 45 52 48 53 59 54 75 55 46 56
REMARK SMILES IDX 47 57 58 59 76 60 49 61 36 62 37 63 42 64 38 65 39 66 41 67
REMARK SMILES IDX 43 68 40 69 62 70 63 71 68 72 64 73 65 74 67 75 69 76 66 77
REMARK SMILES IDX 50 78 51 79 56 80 52 81 53 82 55 83 57 84 54 85
REMARK H PARENT 20 6 4 11 24 28 74 47 48 58
REMARK Flexibility Score: inf
ROOT
ATOM      1  C   UNL A   1      37.513  19.962  24.577  1.00  0.00     0.042 C 
ENDROOT
BRANCH   1   2
ATOM      2  C   UNL A   1      36.406  18.968  24.919  1.00  0.00     0.118 C 
BRANCH   2   3
ATOM      3  N   UNL A   1      35.091  19.574  24.931  1.00  0.00    -0.351 N 
ATOM      4  O   UNL A   1      33.925  17.780  24.067  1.00  0.00    -0.269 OA
ATOM      5  C   UNL A   1      33.945  18.923  24.516  1.00  0.00     0.275 C 
ATOM      6  H   UNL A   1      35.010  20.501  25.252  1.00  0.00     0.163 HD
BRANCH   5   7
ATOM      7  C   UNL A   1      32.688  19.800  24.615  1.00  0.00     0.363 C 
BRANCH   7   8
ATOM      8  N   UNL A   1      33.092  21.218  24.735  1.00  0.00    -0.315 N 
ATOM      9  C   UNL A   1      32.273  21.940  25.734  1.00  0.00     0.350 C 
ATOM     10  C   UNL A   1      33.115  21.920  23.430  1.00  0.00     0.356 C 
ATOM     11  H   UNL A   1      34.055  21.213  25.074  1.00  0.00     0.348 HD
ATOM     12  C   UNL A   1      32.717  23.414  25.909  1.00  0.00     0.280 C 
ATOM     13  C   UNL A   1      33.650  23.367  23.603  1.00  0.00     0.311 C 
ATOM     14  C   UNL A   1      34.138  23.561  26.520  1.00  0.00     0.121 C 
ATOM     15  C   UNL A   1      32.688  24.129  24.545  1.00  0.00     0.191 C 
ATOM     16  C   UNL A   1      35.054  23.338  24.194  1.00  0.00     0.097 C 
ATOM     17  C   UNL A   1      35.264  23.427  25.521  1.00  0.00     0.004 C 
ATOM     18  Cl  UNL A   1      36.400  23.033  23.151  1.00  0.00    -0.081 Cl
BRANCH  12  19
ATOM     19  N   UNL A   1      31.702  24.049  26.848  1.00  0.00     0.032 N 
ATOM     20  O   UNL A   1      31.612  25.282  26.850  1.00  0.00    -0.264 OA
ATOM     21  O   UNL A   1      31.066  23.291  27.590  1.00  0.00    -0.264 OA
ENDBRANCH  12  19
BRANCH  13  22
ATOM     22  N   UNL A   1      33.657  24.093  22.266  1.00  0.00     0.038 N 
ATOM     23  O   UNL A   1      33.442  23.429  21.243  1.00  0.00    -0.263 OA
ATOM     24  O   UNL A   1      33.851  25.318  22.284  1.00  0.00    -0.263 OA
ENDBRANCH  13  22
ENDBRANCH   7   8
ENDBRANCH   5   7
ENDBRANCH   2   3
ENDBRANCH   1   2
BRANCH   1  25
ATOM     25  C   UNL A   1      38.500  20.248  25.708  1.00  0.00     0.118 C 
BRANCH  25  26
ATOM     26  N   UNL A   1      39.678  19.394  25.677  1.00  0.00    -0.352 N 
ATOM     27  C   UNL A   1      40.982  19.642  26.022  1.00  0.00     0.251 C 
ATOM     28  H   UNL A   1      39.510  18.479  25.353  1.00  0.00     0.163 HD
ATOM     29  O   UNL A   1      41.828  18.774  25.791  1.00  0.00    -0.269 OA
BRANCH  27  30
ATOM     30  C   UNL A   1      41.409  20.925  26.634  1.00  0.00     0.039 A 
ATOM     31  C   UNL A   1      41.852  21.945  25.784  1.00  0.00     0.014 A 
ATOM     32  C   UNL A   1      41.435  21.127  28.016  1.00  0.00     0.014 A 
ATOM     33  C   UNL A   1      42.260  23.173  26.310  1.00  0.00     0.010 A 
ATOM     34  C   UNL A   1      41.773  22.382  28.538  1.00  0.00     0.010 A 
ATOM     35  C   UNL A   1      42.191  23.419  27.691  1.00  0.00    -0.014 A 
BRANCH  35  36
ATOM     36  C   UNL A   1      42.531  24.763  28.236  1.00  0.00     0.031 A 
ATOM     37  C   UNL A   1      43.948  25.124  28.595  1.00  0.00     0.074 A 
ATOM     38  C   UNL A   1      41.547  25.663  28.432  1.00  0.00     0.049 A 
ATOM     39  N   UNL A   1      44.422  26.259  29.049  1.00  0.00    -0.248 NA
ATOM     40  C   UNL A   1      44.962  24.069  28.451  1.00  0.00     0.031 C 
ATOM     41  C   UNL A   1      40.124  25.425  28.187  1.00  0.00     0.029 A 
ATOM     42  N   UNL A   1      41.594  26.961  28.877  1.00  0.00    -0.354 N 
ATOM     43  C   UNL A   1      45.782  26.054  29.246  1.00  0.00     0.074 A 
ATOM     44  C   UNL A   1      46.047  24.669  28.918  1.00  0.00     0.031 C 
ATOM     45  C   UNL A   1      39.438  26.550  28.446  1.00  0.00     0.029 A 
ATOM     46  C   UNL A   1      40.366  27.578  28.904  1.00  0.00     0.049 A 
ATOM     47  H   UNL A   1      42.427  27.408  29.151  1.00  0.00     0.167 HD
ATOM     48  C   UNL A   1      46.729  26.941  29.641  1.00  0.00     0.037 A 
ATOM     49  C   UNL A   1      40.023  28.834  29.250  1.00  0.00     0.037 A 
ATOM     50  C   UNL A   1      46.471  28.323  29.956  1.00  0.00     0.049 A 
ATOM     51  C   UNL A   1      41.095  29.803  29.667  1.00  0.00     0.074 A 
ATOM     52  C   UNL A   1      47.373  29.311  30.312  1.00  0.00     0.029 A 
ATOM     53  N   UNL A   1      45.216  28.914  29.956  1.00  0.00    -0.354 N 
ATOM     54  N   UNL A   1      42.387  29.614  29.772  1.00  0.00    -0.248 NA
ATOM     55  C   UNL A   1      40.657  31.166  29.999  1.00  0.00     0.031 C 
ATOM     56  C   UNL A   1      46.660  30.487  30.572  1.00  0.00     0.029 A 
ATOM     57  C   UNL A   1      45.319  30.247  30.324  1.00  0.00     0.049 A 
ATOM     58  H   UNL A   1      44.376  28.454  29.729  1.00  0.00     0.167 HD
ATOM     59  C   UNL A   1      42.920  30.839  30.154  1.00  0.00     0.074 A 
ATOM     60  C   UNL A   1      41.813  31.767  30.239  1.00  0.00     0.031 C 
ATOM     61  C   UNL A   1      44.211  31.165  30.410  1.00  0.00     0.037 A 
BRANCH  48  62
ATOM     62  C   UNL A   1      48.143  26.442  29.749  1.00  0.00     0.057 A 
ATOM     63  C   UNL A   1      48.628  25.846  30.922  1.00  0.00     0.134 A 
ATOM     64  C   UNL A   1      49.018  26.520  28.659  1.00  0.00     0.134 A 
ATOM     65  F   UNL A   1      47.846  25.746  32.007  1.00  0.00    -0.206 F 
ATOM     66  C   UNL A   1      49.938  25.372  31.014  1.00  0.00     0.040 A 
ATOM     67  C   UNL A   1      50.322  26.024  28.729  1.00  0.00     0.040 A 
ATOM     68  F   UNL A   1      48.618  27.070  27.501  1.00  0.00    -0.206 F 
ATOM     69  C   UNL A   1      50.787  25.455  29.913  1.00  0.00     0.006 A 
ENDBRANCH  48  62
BRANCH  49  70
ATOM     70  C   UNL A   1      38.603  29.264  29.176  1.00  0.00     0.057 A 
ATOM     71  C   UNL A   1      37.776  29.221  30.304  1.00  0.00     0.134 A 
ATOM     72  C   UNL A   1      38.038  29.713  27.977  1.00  0.00     0.134 A 
ATOM     73  F   UNL A   1      38.255  28.782  31.477  1.00  0.00    -0.206 F 
ATOM     74  C   UNL A   1      36.431  29.589  30.238  1.00  0.00     0.040 A 
ATOM     75  C   UNL A   1      36.702  30.110  27.903  1.00  0.00     0.040 A 
ATOM     76  F   UNL A   1      38.781  29.785  26.863  1.00  0.00    -0.206 F 
ATOM     77  C   UNL A   1      35.892  30.038  29.035  1.00  0.00     0.006 A 
ENDBRANCH  49  70
BRANCH  61  78
ATOM     78  C   UNL A   1      44.493  32.594  30.771  1.00  0.00     0.057 A 
ATOM     79  C   UNL A   1      44.766  33.568  29.801  1.00  0.00     0.134 A 
ATOM     80  C   UNL A   1      44.495  33.004  32.112  1.00  0.00     0.134 A 
ATOM     81  F   UNL A   1      44.792  33.242  28.500  1.00  0.00    -0.206 F 
ATOM     82  C   UNL A   1      45.071  34.885  30.152  1.00  0.00     0.040 A 
ATOM     83  C   UNL A   1      44.769  34.324  32.472  1.00  0.00     0.040 A 
ATOM     84  F   UNL A   1      44.232  32.127  33.093  1.00  0.00    -0.206 F 
ATOM     85  C   UNL A   1      45.070  35.266  31.491  1.00  0.00     0.006 A 
ENDBRANCH  61  78
ENDBRANCH  35  36
ENDBRANCH  27  30
ENDBRANCH  25  26
ENDBRANCH   1  25
TORSDOF 13
ENDMDL
MODEL 2
REMARK VINA RESULT:     -11.7      4.612      9.418
REMARK SMILES O=C(C[N@@H+]1C[C@@]2([N+](=O)[O-])CC=C(Cl)[C@@]([N+](=O)[O-])(C1)C2)NCCCNC(=O)c1ccc(-c2c3nc(c(-c4c(F)cccc4F)c4ccc([nH]4)c(-c4c(F)cccc4F)c4nc(c(-c5c(F)cccc5F)c5ccc2[nH]5)C=C4)C=C3)cc1
REMARK SMILES IDX 22 1 21 2 20 3 1 4 2 5 3 7 4 8 5 9 18 10 6 12 14 13 10 14
REMARK SMILES IDX 19 15 12 16 11 17 13 18 7 19 8 20 9 21 15 22 16 23 17 24
REMARK SMILES IDX 23 25 24 26 25 27 26 29 27 30 28 31 80 32 29 33 79 34 30 35
REMARK SMILES IDX 31 36 32 37 73 38 33 39 78 40 72 41 74 42 34 43 77 44 71 45
REMARK SMILES IDX 70 46 35 48 61 49 44 50 60 51 45 52 48 53 59 54 75 55 46 56
REMARK SMILES IDX 47 57 58 59 76 60 49 61 36 62 37 63 42 64 38 65 39 66 41 67
REMARK SMILES IDX 43 68 40 69 62 70 63 71 68 72 64 73 65 74 67 75 69 76 66 77
REMARK SMILES IDX 50 78 51 79 56 80 52 81 53 82 55 83 57 84 54 85
REMARK H PARENT 20 6 4 11 24 28 74 47 48 58
REMARK Flexibility Score: inf
ROOT
ATOM      1  C   UNL A   1      31.053  31.520  26.486  1.00  0.00     0.042 C 
ENDROOT
BRANCH   1   2
ATOM      2  C   UNL A   1      30.557  31.710  25.055  1.00  0.00     0.118 C 
BRANCH   2   3
ATOM      3  N   UNL A   1      30.508  30.471  24.309  1.00  0.00    -0.351 N 
ATOM      4  O   UNL A   1      28.412  30.756  23.387  1.00  0.00    -0.269 OA
ATOM      5  C   UNL A   1      29.440  30.096  23.516  1.00  0.00     0.275 C 
ATOM      6  H   UNL A   1      31.279  29.861  24.370  1.00  0.00     0.163 HD
BRANCH   5   7
ATOM      7  C   UNL A   1      29.638  28.726  22.850  1.00  0.00     0.363 C 
BRANCH   7   8
ATOM      8  N   UNL A   1      30.697  27.985  23.569  1.00  0.00    -0.315 N 
ATOM      9  C   UNL A   1      31.651  27.347  22.633  1.00  0.00     0.350 C 
ATOM     10  C   UNL A   1      30.154  27.015  24.549  1.00  0.00     0.356 C 
ATOM     11  H   UNL A   1      31.216  28.678  24.109  1.00  0.00     0.348 HD
ATOM     12  C   UNL A   1      32.797  26.608  23.372  1.00  0.00     0.280 C 
ATOM     13  C   UNL A   1      31.308  26.349  25.347  1.00  0.00     0.311 C 
ATOM     14  C   UNL A   1      33.737  27.561  24.159  1.00  0.00     0.121 C 
ATOM     15  C   UNL A   1      32.203  25.577  24.350  1.00  0.00     0.191 C 
ATOM     16  C   UNL A   1      32.122  27.411  26.074  1.00  0.00     0.097 C 
ATOM     17  C   UNL A   1      33.224  27.955  25.526  1.00  0.00     0.004 C 
ATOM     18  Cl  UNL A   1      31.534  28.043  27.574  1.00  0.00    -0.081 Cl
BRANCH  12  19
ATOM     19  N   UNL A   1      33.599  25.896  22.292  1.00  0.00     0.032 N 
ATOM     20  O   UNL A   1      33.626  26.402  21.165  1.00  0.00    -0.264 OA
ATOM     21  O   UNL A   1      34.133  24.823  22.600  1.00  0.00    -0.264 OA
ENDBRANCH  12  19
BRANCH  13  22
ATOM     22  N   UNL A   1      30.750  25.340  26.341  1.00  0.00     0.038 N 
ATOM     23  O   UNL A   1      31.552  24.611  26.941  1.00  0.00    -0.263 OA
ATOM     24  O   UNL A   1      29.523  25.329  26.512  1.00  0.00    -0.263 OA
ENDBRANCH  13  22
ENDBRANCH   7   8
ENDBRANCH   5   7
ENDBRANCH   2   3
ENDBRANCH   1   2
BRANCH   1  25
ATOM     25  C   UNL A   1      32.394  32.183  26.801  1.00  0.00     0.118 C 
BRANCH  25  26
ATOM     26  N   UNL A   1      32.263  33.547  27.292  1.00  0.00    -0.352 N 
ATOM     27  C   UNL A   1      33.002  34.250  28.209  1.00  0.00     0.251 C 
ATOM     28  H   UNL A   1      31.516  34.053  26.898  1.00  0.00     0.163 HD
ATOM     29  O   UNL A   1      32.612  35.371  28.545  1.00  0.00    -0.269 OA
BRANCH  27  30
ATOM     30  C   UNL A   1      34.231  33.696  28.829  1.00  0.00     0.039 A 
ATOM     31  C   UNL A   1      34.089  32.679  29.781  1.00  0.00     0.014 A 
ATOM     32  C   UNL A   1      35.507  34.184  28.537  1.00  0.00     0.014 A 
ATOM     33  C   UNL A   1      35.216  32.120  30.389  1.00  0.00     0.010 A 
ATOM     34  C   UNL A   1      36.639  33.575  29.091  1.00  0.00     0.010 A 
ATOM     35  C   UNL A   1      36.507  32.537  30.025  1.00  0.00    -0.014 A 
BRANCH  35  36
ATOM     36  C   UNL A   1      37.706  31.868  30.602  1.00  0.00     0.031 A 
ATOM     37  C   UNL A   1      38.201  32.209  31.982  1.00  0.00     0.074 A 
ATOM     38  C   UNL A   1      38.372  30.957  29.864  1.00  0.00     0.049 A 
ATOM     39  N   UNL A   1      39.208  31.698  32.648  1.00  0.00    -0.248 NA
ATOM     40  C   UNL A   1      37.491  33.277  32.701  1.00  0.00     0.031 C 
ATOM     41  C   UNL A   1      38.041  30.578  28.490  1.00  0.00     0.029 A 
ATOM     42  N   UNL A   1      39.464  30.182  30.168  1.00  0.00    -0.354 N 
ATOM     43  C   UNL A   1      39.254  32.383  33.857  1.00  0.00     0.074 A 
ATOM     44  C   UNL A   1      38.210  33.385  33.808  1.00  0.00     0.031 C 
ATOM     45  C   UNL A   1      38.883  29.616  28.083  1.00  0.00     0.029 A 
ATOM     46  C   UNL A   1      39.833  29.331  29.153  1.00  0.00     0.049 A 
ATOM     47  H   UNL A   1      39.938  30.230  31.029  1.00  0.00     0.167 HD
ATOM     48  C   UNL A   1      40.072  32.182  34.919  1.00  0.00     0.037 A 
ATOM     49  C   UNL A   1      40.820  28.417  29.091  1.00  0.00     0.037 A 
ATOM     50  C   UNL A   1      41.104  31.177  34.976  1.00  0.00     0.049 A 
ATOM     51  C   UNL A   1      41.702  28.201  30.289  1.00  0.00     0.074 A 
ATOM     52  C   UNL A   1      41.947  30.863  36.029  1.00  0.00     0.029 A 
ATOM     53  N   UNL A   1      41.437  30.324  33.934  1.00  0.00    -0.354 N 
ATOM     54  N   UNL A   1      41.681  28.804  31.453  1.00  0.00    -0.248 NA
ATOM     55  C   UNL A   1      42.738  27.165  30.167  1.00  0.00     0.031 C 
ATOM     56  C   UNL A   1      42.818  29.852  35.609  1.00  0.00     0.029 A 
ATOM     57  C   UNL A   1      42.483  29.497  34.312  1.00  0.00     0.049 A 
ATOM     58  H   UNL A   1      40.994  30.309  33.055  1.00  0.00     0.167 HD
ATOM     59  C   UNL A   1      42.678  28.201  32.211  1.00  0.00     0.074 A 
ATOM     60  C   UNL A   1      43.268  27.172  31.382  1.00  0.00     0.031 C 
ATOM     61  C   UNL A   1      43.068  28.477  33.480  1.00  0.00     0.037 A 
BRANCH  48  62
ATOM     62  C   UNL A   1      39.881  33.069  36.118  1.00  0.00     0.057 A 
ATOM     63  C   UNL A   1      39.000  32.730  37.155  1.00  0.00     0.134 A 
ATOM     64  C   UNL A   1      40.614  34.254  36.259  1.00  0.00     0.134 A 
ATOM     65  F   UNL A   1      38.261  31.613  37.080  1.00  0.00    -0.206 F 
ATOM     66  C   UNL A   1      38.835  33.550  38.273  1.00  0.00     0.040 A 
ATOM     67  C   UNL A   1      40.479  35.069  37.386  1.00  0.00     0.040 A 
ATOM     68  F   UNL A   1      41.482  34.636  35.309  1.00  0.00    -0.206 F 
ATOM     69  C   UNL A   1      39.581  34.721  38.393  1.00  0.00     0.006 A 
ENDBRANCH  48  62
BRANCH  49  70
ATOM     70  C   UNL A   1      41.002  27.601  27.863  1.00  0.00     0.057 A 
ATOM     71  C   UNL A   1      40.382  26.353  27.726  1.00  0.00     0.134 A 
ATOM     72  C   UNL A   1      41.807  28.042  26.807  1.00  0.00     0.134 A 
ATOM     73  F   UNL A   1      39.614  25.869  28.713  1.00  0.00    -0.206 F 
ATOM     74  C   UNL A   1      40.574  25.562  26.592  1.00  0.00     0.040 A 
ATOM     75  C   UNL A   1      41.986  27.273  25.655  1.00  0.00     0.040 A 
ATOM     76  F   UNL A   1      42.421  29.231  26.873  1.00  0.00    -0.206 F 
ATOM     77  C   UNL A   1      41.376  26.025  25.551  1.00  0.00     0.006 A 
ENDBRANCH  49  70
BRANCH  61  78
ATOM     78  C   UNL A   1      44.163  27.625  34.055  1.00  0.00     0.057 A 
ATOM     79  C   UNL A   1      45.512  27.994  33.975  1.00  0.00     0.134 A 
ATOM     80  C   UNL A   1      43.863  26.416  34.697  1.00  0.00     0.134 A 
ATOM     81  F   UNL A   1      45.870  29.133  33.363  1.00  0.00    -0.206 F 
ATOM     82  C   UNL A   1      46.525  27.172  34.473  1.00  0.00     0.040 A 
ATOM     83  C   UNL A   1      44.865  25.601  35.225  1.00  0.00     0.040 A 
ATOM     84  F   UNL A   1      42.591  26.006  34.819  1.00  0.00    -0.206 F 
ATOM     85  C   UNL A   1      46.202  25.973  35.103  1.00  0.00     0.006 A 
ENDBRANCH  61  78
ENDBRANCH  35  36
ENDBRANCH  27  30
ENDBRANCH  25  26
ENDBRANCH   1  25
TORSDOF 13
ENDMDL
MODEL 3
REMARK VINA RESULT:     -11.6      3.859      9.009
REMARK SMILES O=C(C[N@@H+]1C[C@@]2([N+](=O)[O-])CC=C(Cl)[C@@]([N+](=O)[O-])(C1)C2)NCCCNC(=O)c1ccc(-c2c3nc(c(-c4c(F)cccc4F)c4ccc([nH]4)c(-c4c(F)cccc4F)c4nc(c(-c5c(F)cccc5F)c5ccc2[nH]5)C=C4)C=C3)cc1
REMARK SMILES IDX 22 1 21 2 20 3 1 4 2 5 3 7 4 8 5 9 18 10 6 12 14 13 10 14
REMARK SMILES IDX 19 15 12 16 11 17 13 18 7 19 8 20 9 21 15 22 16 23 17 24
REMARK SMILES IDX 23 25 24 26 25 27 26 29 27 30 28 31 80 32 29 33 79 34 30 35
REMARK SMILES IDX 31 36 32 37 73 38 33 39 78 40 72 41 74 42 34 43 77 44 71 45
REMARK SMILES IDX 70 46 35 48 61 49 44 50 60 51 45 52 48 53 59 54 75 55 46 56
REMARK SMILES IDX 47 57 58 59 76 60 49 61 36 62 37 63 42 64 38 65 39 66 41 67
REMARK SMILES IDX 43 68 40 69 62 70 63 71 68 72 64 73 65 74 67 75 69 76 66 77
REMARK SMILES IDX 50 78 51 79 56 80 52 81 53 82 55 83 57 84 54 85
REMARK H PARENT 20 6 4 11 24 28 74 47 48 58
REMARK Flexibility Score: inf
ROOT
ATOM      1  C   UNL A   1      31.057  31.369  26.459  1.00  0.00     0.042 C 
ENDROOT
BRANCH   1   2
ATOM      2  C   UNL A   1      30.570  31.545  25.022  1.00  0.00     0.118 C 
BRANCH   2   3
ATOM      3  N   UNL A   1      30.504  30.296  24.295  1.00  0.00    -0.351 N 
ATOM      4  O   UNL A   1      28.506  30.684  23.208  1.00  0.00    -0.269 OA
ATOM      5  C   UNL A   1      29.480  29.968  23.428  1.00  0.00     0.275 C 
ATOM      6  H   UNL A   1      31.230  29.643  24.426  1.00  0.00     0.163 HD
BRANCH   5   7
ATOM      7  C   UNL A   1      29.645  28.575  22.802  1.00  0.00     0.363 C 
BRANCH   7   8
ATOM      8  N   UNL A   1      30.699  27.837  23.531  1.00  0.00    -0.315 N 
ATOM      9  C   UNL A   1      31.642  27.169  22.605  1.00  0.00     0.350 C 
ATOM     10  C   UNL A   1      30.149  26.893  24.533  1.00  0.00     0.356 C 
ATOM     11  H   UNL A   1      31.228  28.535  24.055  1.00  0.00     0.348 HD
ATOM     12  C   UNL A   1      32.782  26.433  23.353  1.00  0.00     0.280 C 
ATOM     13  C   UNL A   1      31.299  26.230  25.340  1.00  0.00     0.311 C 
ATOM     14  C   UNL A   1      33.737  27.391  24.117  1.00  0.00     0.121 C 
ATOM     15  C   UNL A   1      32.181  25.428  24.354  1.00  0.00     0.191 C 
ATOM     16  C   UNL A   1      32.128  27.298  26.042  1.00  0.00     0.097 C 
ATOM     17  C   UNL A   1      33.234  27.818  25.477  1.00  0.00     0.004 C 
ATOM     18  Cl  UNL A   1      31.554  27.966  27.531  1.00  0.00    -0.081 Cl
BRANCH  12  19
ATOM     19  N   UNL A   1      33.571  25.689  22.285  1.00  0.00     0.032 N 
ATOM     20  O   UNL A   1      33.341  25.963  21.102  1.00  0.00    -0.264 OA
ATOM     21  O   UNL A   1      34.360  24.817  22.670  1.00  0.00    -0.264 OA
ENDBRANCH  12  19
BRANCH  13  22
ATOM     22  N   UNL A   1      30.735  25.248  26.357  1.00  0.00     0.038 N 
ATOM     23  O   UNL A   1      31.532  24.528  26.974  1.00  0.00    -0.263 OA
ATOM     24  O   UNL A   1      29.507  25.249  26.526  1.00  0.00    -0.263 OA
ENDBRANCH  13  22
ENDBRANCH   7   8
ENDBRANCH   5   7
ENDBRANCH   2   3
ENDBRANCH   1   2
BRANCH   1  25
ATOM     25  C   UNL A   1      32.376  32.068  26.786  1.00  0.00     0.118 C 
BRANCH  25  26
ATOM     26  N   UNL A   1      32.201  33.394  27.360  1.00  0.00    -0.352 N 
ATOM     27  C   UNL A   1      32.991  34.119  28.216  1.00  0.00     0.251 C 
ATOM     28  H   UNL A   1      31.372  33.850  27.087  1.00  0.00     0.163 HD
ATOM     29  O   UNL A   1      32.560  35.187  28.654  1.00  0.00    -0.269 OA
BRANCH  27  30
ATOM     30  C   UNL A   1      34.330  33.646  28.650  1.00  0.00     0.039 A 
ATOM     31  C   UNL A   1      34.406  32.852  29.801  1.00  0.00     0.014 A 
ATOM     32  C   UNL A   1      35.506  34.005  27.989  1.00  0.00     0.014 A 
ATOM     33  C   UNL A   1      35.642  32.378  30.249  1.00  0.00     0.010 A 
ATOM     34  C   UNL A   1      36.734  33.470  28.394  1.00  0.00     0.010 A 
ATOM     35  C   UNL A   1      36.817  32.651  29.530  1.00  0.00    -0.014 A 
BRANCH  35  36
ATOM     36  C   UNL A   1      38.116  32.059  29.955  1.00  0.00     0.031 A 
ATOM     37  C   UNL A   1      39.006  32.760  30.946  1.00  0.00     0.074 A 
ATOM     38  C   UNL A   1      38.511  30.884  29.424  1.00  0.00     0.049 A 
ATOM     39  N   UNL A   1      40.152  32.369  31.449  1.00  0.00    -0.248 NA
ATOM     40  C   UNL A   1      38.568  34.082  31.417  1.00  0.00     0.031 C 
ATOM     41  C   UNL A   1      37.777  30.129  28.406  1.00  0.00     0.029 A 
ATOM     42  N   UNL A   1      39.623  30.118  29.668  1.00  0.00    -0.354 N 
ATOM     43  C   UNL A   1      40.571  33.394  32.289  1.00  0.00     0.074 A 
ATOM     44  C   UNL A   1      39.585  34.449  32.183  1.00  0.00     0.031 C 
ATOM     45  C   UNL A   1      38.437  28.990  28.143  1.00  0.00     0.029 A 
ATOM     46  C   UNL A   1      39.654  28.947  28.947  1.00  0.00     0.049 A 
ATOM     47  H   UNL A   1      40.332  30.381  30.298  1.00  0.00     0.167 HD
ATOM     48  C   UNL A   1      41.662  33.444  33.093  1.00  0.00     0.037 A 
ATOM     49  C   UNL A   1      40.555  27.947  28.939  1.00  0.00     0.037 A 
ATOM     50  C   UNL A   1      42.638  32.390  33.210  1.00  0.00     0.049 A 
ATOM     51  C   UNL A   1      41.746  28.019  29.852  1.00  0.00     0.074 A 
ATOM     52  C   UNL A   1      43.746  32.328  34.037  1.00  0.00     0.029 A 
ATOM     53  N   UNL A   1      42.626  31.214  32.475  1.00  0.00    -0.354 N 
ATOM     54  N   UNL A   1      42.086  28.960  30.698  1.00  0.00    -0.248 NA
ATOM     55  C   UNL A   1      42.673  26.878  29.819  1.00  0.00     0.031 C 
ATOM     56  C   UNL A   1      44.429  31.136  33.771  1.00  0.00     0.029 A 
ATOM     57  C   UNL A   1      43.716  30.429  32.817  1.00  0.00     0.049 A 
ATOM     58  H   UNL A   1      41.942  30.973  31.809  1.00  0.00     0.167 HD
ATOM     59  C   UNL A   1      43.246  28.514  31.318  1.00  0.00     0.074 A 
ATOM     60  C   UNL A   1      43.539  27.208  30.766  1.00  0.00     0.031 C 
ATOM     61  C   UNL A   1      44.002  29.131  32.260  1.00  0.00     0.037 A 
BRANCH  48  62
ATOM     62  C   UNL A   1      41.856  34.685  33.919  1.00  0.00     0.057 A 
ATOM     63  C   UNL A   1      41.373  34.783  35.231  1.00  0.00     0.134 A 
ATOM     64  C   UNL A   1      42.569  35.780  33.413  1.00  0.00     0.134 A 
ATOM     65  F   UNL A   1      40.675  33.775  35.774  1.00  0.00    -0.206 F 
ATOM     66  C   UNL A   1      41.568  35.932  35.999  1.00  0.00     0.040 A 
ATOM     67  C   UNL A   1      42.795  36.924  34.181  1.00  0.00     0.040 A 
ATOM     68  F   UNL A   1      43.068  35.753  32.167  1.00  0.00    -0.206 F 
ATOM     69  C   UNL A   1      42.287  37.005  35.476  1.00  0.00     0.006 A 
ENDBRANCH  48  62
BRANCH  49  70
ATOM     70  C   UNL A   1      40.344  26.764  28.065  1.00  0.00     0.057 A 
ATOM     71  C   UNL A   1      40.953  26.677  26.808  1.00  0.00     0.134 A 
ATOM     72  C   UNL A   1      39.520  25.703  28.458  1.00  0.00     0.134 A 
ATOM     73  F   UNL A   1      41.738  27.671  26.367  1.00  0.00    -0.206 F 
ATOM     74  C   UNL A   1      40.734  25.588  25.963  1.00  0.00     0.040 A 
ATOM     75  C   UNL A   1      39.314  24.595  27.635  1.00  0.00     0.040 A 
ATOM     76  F   UNL A   1      38.914  25.723  29.654  1.00  0.00    -0.206 F 
ATOM     77  C   UNL A   1      39.915  24.541  26.379  1.00  0.00     0.006 A 
ENDBRANCH  49  70
BRANCH  61  78
ATOM     78  C   UNL A   1      45.196  28.380  32.774  1.00  0.00     0.057 A 
ATOM     79  C   UNL A   1      45.111  27.500  33.862  1.00  0.00     0.134 A 
ATOM     80  C   UNL A   1      46.452  28.541  32.174  1.00  0.00     0.134 A 
ATOM     81  F   UNL A   1      43.941  27.308  34.490  1.00  0.00    -0.206 F 
ATOM     82  C   UNL A   1      46.237  26.841  34.359  1.00  0.00     0.040 A 
ATOM     83  C   UNL A   1      47.579  27.864  32.644  1.00  0.00     0.040 A 
ATOM     84  F   UNL A   1      46.605  29.359  31.122  1.00  0.00    -0.206 F 
ATOM     85  C   UNL A   1      47.475  27.021  33.747  1.00  0.00     0.006 A 
ENDBRANCH  61  78
ENDBRANCH  35  36
ENDBRANCH  27  30
ENDBRANCH  25  26
ENDBRANCH   1  25
TORSDOF 13
ENDMDL
