MODEL 1
REMARK VINA RESULT:     -12.9      0.000      0.000
REMARK SMILES Nc1ncccc1C[N@@H+]1CC2(CC[NH2+]CC2)C[C@H]1C(=O)NCCCNC(=O)c1ccc(-c2c3nc(c(-c4c(F)cccc4F)c4ccc([nH]4)c(-c4c(F)cccc4F)c4nc(c(-c5c(F)cccc5F)c5ccc2[nH]5)C=C4)C=C3)cc1
REMARK SMILES IDX 22 1 21 2 19 3 20 4 18 6 9 7 10 8 11 10 17 11 12 12 16 13
REMARK SMILES IDX 13 14 15 15 14 16 8 19 7 20 2 21 3 22 4 23 6 24 5 25 1 26
REMARK SMILES IDX 23 29 24 30 25 31 26 32 27 34 28 35 29 36 81 37 30 38 80 39
REMARK SMILES IDX 31 40 32 41 33 42 74 43 34 44 79 45 73 46 75 47 35 48 78 49
REMARK SMILES IDX 72 50 71 51 36 53 62 54 45 55 61 56 46 57 49 58 60 59 76 60
REMARK SMILES IDX 47 61 48 62 59 64 77 65 50 66 37 67 38 68 43 69 39 70 40 71
REMARK SMILES IDX 42 72 44 73 41 74 63 75 64 76 69 77 65 78 66 79 68 80 70 81
REMARK SMILES IDX 67 82 51 83 52 84 57 85 53 86 54 87 56 88 58 89 55 90
REMARK H PARENT 21 5 9 9 14 17 14 18 1 27 1 28 25 33 75 52 49 63
REMARK Flexibility Score: inf
ROOT
ATOM      1  C   UNL A   1      31.748  30.512  26.555  1.00  0.00     0.118 C 
ENDROOT
BRANCH   1   2
ATOM      2  N   UNL A   1      32.510  30.217  25.386  1.00  0.00    -0.351 N 
ATOM      3  C   UNL A   1      32.258  29.267  24.439  1.00  0.00     0.278 C 
ATOM      4  O   UNL A   1      32.959  29.345  23.419  1.00  0.00    -0.268 OA
ATOM      5  H   UNL A   1      33.317  30.765  25.245  1.00  0.00     0.163 HD
BRANCH   3   6
ATOM      6  C   UNL A   1      31.214  28.101  24.585  1.00  0.00     0.275 C 
ATOM      7  N   UNL A   1      30.704  27.692  23.264  1.00  0.00    -0.320 N 
ATOM      8  C   UNL A   1      31.184  26.328  22.984  1.00  0.00     0.270 C 
ATOM      9  H   UNL A   1      31.086  28.278  22.522  1.00  0.00     0.349 HD
ATOM     10  C   UNL A   1      31.657  25.649  24.311  1.00  0.00     0.036 C 
ATOM     11  C   UNL A   1      31.506  26.794  25.345  1.00  0.00     0.089 C 
ATOM     12  C   UNL A   1      33.096  25.057  24.462  1.00  0.00     0.074 C 
ATOM     13  C   UNL A   1      30.805  24.369  24.516  1.00  0.00     0.074 C 
ATOM     14  C   UNL A   1      33.442  24.035  23.390  1.00  0.00     0.261 C 
ATOM     15  C   UNL A   1      31.139  23.300  23.449  1.00  0.00     0.261 C 
ATOM     16  N   UNL A   1      32.541  22.888  23.473  1.00  0.00    -0.346 N 
ATOM     17  H   UNL A   1      32.724  22.386  24.341  1.00  0.00     0.346 HD
ATOM     18  H   UNL A   1      32.712  22.292  22.663  1.00  0.00     0.346 HD
BRANCH   7  19
ATOM     19  C   UNL A   1      29.248  27.961  23.096  1.00  0.00     0.303 C 
BRANCH  19  20
ATOM     20  C   UNL A   1      28.823  29.405  22.882  1.00  0.00     0.048 A 
ATOM     21  C   UNL A   1      29.606  30.346  22.206  1.00  0.00     0.132 A 
ATOM     22  N   UNL A   1      29.413  31.676  22.320  1.00  0.00    -0.239 NA
ATOM     23  C   UNL A   1      28.359  32.098  23.043  1.00  0.00     0.113 A 
ATOM     24  C   UNL A   1      27.645  29.877  23.467  1.00  0.00     0.015 A 
ATOM     25  C   UNL A   1      27.420  31.245  23.579  1.00  0.00     0.021 A 
BRANCH  21  26
ATOM     26  N   UNL A   1      30.665  29.997  21.394  1.00  0.00    -0.383 N 
ATOM     27  H   UNL A   1      31.588  30.064  21.732  1.00  0.00     0.158 HD
ATOM     28  H   UNL A   1      30.499  29.681  20.477  1.00  0.00     0.158 HD
ENDBRANCH  21  26
ENDBRANCH  19  20
ENDBRANCH   7  19
ENDBRANCH   3   6
ENDBRANCH   1   2
BRANCH   1  29
ATOM     29  C   UNL A   1      31.461  31.970  26.840  1.00  0.00     0.042 C 
BRANCH  29  30
ATOM     30  C   UNL A   1      32.697  32.750  27.245  1.00  0.00     0.118 C 
BRANCH  30  31
ATOM     31  N   UNL A   1      32.409  34.141  27.599  1.00  0.00    -0.352 N 
ATOM     32  C   UNL A   1      32.970  34.971  28.543  1.00  0.00     0.251 C 
ATOM     33  H   UNL A   1      31.688  34.554  27.070  1.00  0.00     0.163 HD
ATOM     34  O   UNL A   1      32.469  36.063  28.764  1.00  0.00    -0.269 OA
BRANCH  32  35
ATOM     35  C   UNL A   1      34.158  34.533  29.309  1.00  0.00     0.039 A 
ATOM     36  C   UNL A   1      33.985  34.004  30.592  1.00  0.00     0.014 A 
ATOM     37  C   UNL A   1      35.437  34.636  28.764  1.00  0.00     0.014 A 
ATOM     38  C   UNL A   1      35.087  33.493  31.282  1.00  0.00     0.010 A 
ATOM     39  C   UNL A   1      36.506  34.018  29.394  1.00  0.00     0.010 A 
ATOM     40  C   UNL A   1      36.347  33.449  30.665  1.00  0.00    -0.014 A 
BRANCH  40  41
ATOM     41  C   UNL A   1      37.522  32.826  31.320  1.00  0.00     0.031 A 
ATOM     42  C   UNL A   1      38.185  31.633  30.688  1.00  0.00     0.074 A 
ATOM     43  C   UNL A   1      37.926  33.270  32.525  1.00  0.00     0.049 A 
ATOM     44  N   UNL A   1      39.150  30.880  31.150  1.00  0.00    -0.248 NA
ATOM     45  C   UNL A   1      37.664  31.205  29.379  1.00  0.00     0.031 C 
ATOM     46  C   UNL A   1      37.326  34.382  33.265  1.00  0.00     0.029 A 
ATOM     47  N   UNL A   1      38.932  32.830  33.346  1.00  0.00    -0.354 N 
ATOM     48  C   UNL A   1      39.331  29.879  30.204  1.00  0.00     0.074 A 
ATOM     49  C   UNL A   1      38.334  30.080  29.177  1.00  0.00     0.031 C 
ATOM     50  C   UNL A   1      37.998  34.561  34.413  1.00  0.00     0.029 A 
ATOM     51  C   UNL A   1      39.043  33.548  34.512  1.00  0.00     0.049 A 
ATOM     52  H   UNL A   1      39.519  32.072  33.122  1.00  0.00     0.167 HD
ATOM     53  C   UNL A   1      40.262  28.897  30.178  1.00  0.00     0.037 A 
ATOM     54  C   UNL A   1      39.890  33.400  35.548  1.00  0.00     0.037 A 
ATOM     55  C   UNL A   1      41.268  28.722  31.192  1.00  0.00     0.049 A 
ATOM     56  C   UNL A   1      40.909  32.297  35.505  1.00  0.00     0.074 A 
ATOM     57  C   UNL A   1      42.308  27.811  31.228  1.00  0.00     0.029 A 
ATOM     58  N   UNL A   1      41.354  29.473  32.356  1.00  0.00    -0.354 N 
ATOM     59  N   UNL A   1      41.123  31.405  34.567  1.00  0.00    -0.248 NA
ATOM     60  C   UNL A   1      41.804  32.179  36.664  1.00  0.00     0.031 C 
ATOM     61  C   UNL A   1      42.989  27.975  32.438  1.00  0.00     0.029 A 
ATOM     62  C   UNL A   1      42.408  29.024  33.133  1.00  0.00     0.049 A 
ATOM     63  H   UNL A   1      40.752  30.216  32.594  1.00  0.00     0.167 HD
ATOM     64  C   UNL A   1      42.189  30.634  35.011  1.00  0.00     0.074 A 
ATOM     65  C   UNL A   1      42.588  31.176  36.295  1.00  0.00     0.031 C 
ATOM     66  C   UNL A   1      42.784  29.572  34.412  1.00  0.00     0.037 A 
BRANCH  53  67
ATOM     67  C   UNL A   1      40.223  27.940  29.021  1.00  0.00     0.057 A 
ATOM     68  C   UNL A   1      39.495  26.743  29.070  1.00  0.00     0.134 A 
ATOM     69  C   UNL A   1      40.926  28.216  27.842  1.00  0.00     0.134 A 
ATOM     70  F   UNL A   1      38.810  26.408  30.174  1.00  0.00    -0.206 F 
ATOM     71  C   UNL A   1      39.504  25.836  28.008  1.00  0.00     0.040 A 
ATOM     72  C   UNL A   1      40.917  27.333  26.760  1.00  0.00     0.040 A 
ATOM     73  F   UNL A   1      41.639  29.346  27.721  1.00  0.00    -0.206 F 
ATOM     74  C   UNL A   1      40.213  26.133  26.847  1.00  0.00     0.006 A 
ENDBRANCH  53  67
BRANCH  54  75
ATOM     75  C   UNL A   1      39.830  34.344  36.692  1.00  0.00     0.057 A 
ATOM     76  C   UNL A   1      40.500  35.572  36.643  1.00  0.00     0.134 A 
ATOM     77  C   UNL A   1      39.092  34.057  37.847  1.00  0.00     0.134 A 
ATOM     78  F   UNL A   1      41.236  35.895  35.571  1.00  0.00    -0.206 F 
ATOM     79  C   UNL A   1      40.447  36.477  37.705  1.00  0.00     0.040 A 
ATOM     80  C   UNL A   1      39.010  34.963  38.906  1.00  0.00     0.040 A 
ATOM     81  F   UNL A   1      38.420  32.901  37.952  1.00  0.00    -0.206 F 
ATOM     82  C   UNL A   1      39.694  36.176  38.838  1.00  0.00     0.006 A 
ENDBRANCH  54  75
BRANCH  66  83
ATOM     83  C   UNL A   1      43.941  28.941  35.132  1.00  0.00     0.057 A 
ATOM     84  C   UNL A   1      43.756  27.912  36.063  1.00  0.00     0.134 A 
ATOM     85  C   UNL A   1      45.255  29.341  34.860  1.00  0.00     0.134 A 
ATOM     86  F   UNL A   1      42.522  27.492  36.380  1.00  0.00    -0.206 F 
ATOM     87  C   UNL A   1      44.838  27.318  36.717  1.00  0.00     0.040 A 
ATOM     88  C   UNL A   1      46.345  28.736  35.484  1.00  0.00     0.040 A 
ATOM     89  F   UNL A   1      45.501  30.315  33.970  1.00  0.00    -0.206 F 
ATOM     90  C   UNL A   1      46.138  27.725  36.421  1.00  0.00     0.006 A 
ENDBRANCH  66  83
ENDBRANCH  40  41
ENDBRANCH  32  35
ENDBRANCH  30  31
ENDBRANCH  29  30
ENDBRANCH   1  29
TORSDOF 13
ENDMDL
MODEL 2
REMARK VINA RESULT:     -12.9      0.471      6.259
REMARK SMILES Nc1ncccc1C[N@@H+]1CC2(CC[NH2+]CC2)C[C@H]1C(=O)NCCCNC(=O)c1ccc(-c2c3nc(c(-c4c(F)cccc4F)c4ccc([nH]4)c(-c4c(F)cccc4F)c4nc(c(-c5c(F)cccc5F)c5ccc2[nH]5)C=C4)C=C3)cc1
REMARK SMILES IDX 22 1 21 2 19 3 20 4 18 6 9 7 10 8 11 10 17 11 12 12 16 13
REMARK SMILES IDX 13 14 15 15 14 16 8 19 7 20 2 21 3 22 4 23 6 24 5 25 1 26
REMARK SMILES IDX 23 29 24 30 25 31 26 32 27 34 28 35 29 36 81 37 30 38 80 39
REMARK SMILES IDX 31 40 32 41 33 42 74 43 34 44 79 45 73 46 75 47 35 48 78 49
REMARK SMILES IDX 72 50 71 51 36 53 62 54 45 55 61 56 46 57 49 58 60 59 76 60
REMARK SMILES IDX 47 61 48 62 59 64 77 65 50 66 37 67 38 68 43 69 39 70 40 71
REMARK SMILES IDX 42 72 44 73 41 74 63 75 64 76 69 77 65 78 66 79 68 80 70 81
REMARK SMILES IDX 67 82 51 83 52 84 57 85 53 86 54 87 56 88 58 89 55 90
REMARK H PARENT 21 5 9 9 14 17 14 18 1 27 1 28 25 33 75 52 49 63
REMARK Flexibility Score: inf
ROOT
ATOM      1  C   UNL A   1      31.505  30.699  26.455  1.00  0.00     0.118 C 
ENDROOT
BRANCH   1   2
ATOM      2  N   UNL A   1      32.360  30.329  25.376  1.00  0.00    -0.351 N 
ATOM      3  C   UNL A   1      32.185  29.316  24.478  1.00  0.00     0.278 C 
ATOM      4  O   UNL A   1      32.968  29.328  23.516  1.00  0.00    -0.268 OA
ATOM      5  H   UNL A   1      33.176  30.870  25.264  1.00  0.00     0.163 HD
BRANCH   3   6
ATOM      6  C   UNL A   1      31.132  28.157  24.617  1.00  0.00     0.275 C 
ATOM      7  N   UNL A   1      30.622  27.758  23.293  1.00  0.00    -0.320 N 
ATOM      8  C   UNL A   1      31.092  26.391  23.009  1.00  0.00     0.270 C 
ATOM      9  H   UNL A   1      31.011  28.343  22.554  1.00  0.00     0.349 HD
ATOM     10  C   UNL A   1      31.556  25.703  24.334  1.00  0.00     0.036 C 
ATOM     11  C   UNL A   1      31.411  26.845  25.372  1.00  0.00     0.089 C 
ATOM     12  C   UNL A   1      32.990  25.099  24.487  1.00  0.00     0.074 C 
ATOM     13  C   UNL A   1      30.694  24.429  24.532  1.00  0.00     0.074 C 
ATOM     14  C   UNL A   1      33.331  24.078  23.412  1.00  0.00     0.261 C 
ATOM     15  C   UNL A   1      31.022  23.362  23.462  1.00  0.00     0.261 C 
ATOM     16  N   UNL A   1      32.421  22.939  23.488  1.00  0.00    -0.346 N 
ATOM     17  H   UNL A   1      32.597  22.432  24.355  1.00  0.00     0.346 HD
ATOM     18  H   UNL A   1      32.589  22.344  22.677  1.00  0.00     0.346 HD
BRANCH   7  19
ATOM     19  C   UNL A   1      29.169  28.038  23.122  1.00  0.00     0.303 C 
BRANCH  19  20
ATOM     20  C   UNL A   1      28.756  29.487  22.918  1.00  0.00     0.048 A 
ATOM     21  C   UNL A   1      29.550  30.428  22.255  1.00  0.00     0.132 A 
ATOM     22  N   UNL A   1      29.365  31.759  22.379  1.00  0.00    -0.239 NA
ATOM     23  C   UNL A   1      28.309  32.182  23.098  1.00  0.00     0.113 A 
ATOM     24  C   UNL A   1      27.577  29.962  23.498  1.00  0.00     0.015 A 
ATOM     25  C   UNL A   1      27.360  31.331  23.620  1.00  0.00     0.021 A 
BRANCH  21  26
ATOM     26  N   UNL A   1      30.612  30.079  21.448  1.00  0.00    -0.383 N 
ATOM     27  H   UNL A   1      30.478  29.449  20.703  1.00  0.00     0.158 HD
ATOM     28  H   UNL A   1      31.504  30.460  21.616  1.00  0.00     0.158 HD
ENDBRANCH  21  26
ENDBRANCH  19  20
ENDBRANCH   7  19
ENDBRANCH   3   6
ENDBRANCH   1   2
BRANCH   1  29
ATOM     29  C   UNL A   1      31.324  32.179  26.714  1.00  0.00     0.042 C 
BRANCH  29  30
ATOM     30  C   UNL A   1      32.598  32.861  27.171  1.00  0.00     0.118 C 
BRANCH  30  31
ATOM     31  N   UNL A   1      32.382  34.236  27.626  1.00  0.00    -0.352 N 
ATOM     32  C   UNL A   1      32.990  34.968  28.622  1.00  0.00     0.251 C 
ATOM     33  H   UNL A   1      31.680  34.722  27.135  1.00  0.00     0.163 HD
ATOM     34  O   UNL A   1      32.546  36.065  28.925  1.00  0.00    -0.269 OA
BRANCH  32  35
ATOM     35  C   UNL A   1      34.159  34.417  29.343  1.00  0.00     0.039 A 
ATOM     36  C   UNL A   1      33.961  33.756  30.559  1.00  0.00     0.014 A 
ATOM     37  C   UNL A   1      35.445  34.544  28.821  1.00  0.00     0.014 A 
ATOM     38  C   UNL A   1      35.042  33.144  31.197  1.00  0.00     0.010 A 
ATOM     39  C   UNL A   1      36.492  33.833  29.387  1.00  0.00     0.010 A 
ATOM     40  C   UNL A   1      36.307  33.134  30.587  1.00  0.00    -0.014 A 
BRANCH  40  41
ATOM     41  C   UNL A   1      37.459  32.412  31.177  1.00  0.00     0.031 A 
ATOM     42  C   UNL A   1      38.070  32.901  32.461  1.00  0.00     0.074 A 
ATOM     43  C   UNL A   1      38.012  31.382  30.511  1.00  0.00     0.049 A 
ATOM     44  N   UNL A   1      39.141  32.481  33.082  1.00  0.00    -0.248 NA
ATOM     45  C   UNL A   1      37.410  34.046  33.112  1.00  0.00     0.031 C 
ATOM     46  C   UNL A   1      37.544  30.851  29.228  1.00  0.00     0.029 A 
ATOM     47  N   UNL A   1      39.099  30.603  30.814  1.00  0.00    -0.354 N 
ATOM     48  C   UNL A   1      39.297  33.324  34.176  1.00  0.00     0.074 A 
ATOM     49  C   UNL A   1      38.252  34.319  34.097  1.00  0.00     0.031 C 
ATOM     50  C   UNL A   1      38.316  29.812  28.874  1.00  0.00     0.029 A 
ATOM     51  C   UNL A   1      39.360  29.634  29.876  1.00  0.00     0.049 A 
ATOM     52  H   UNL A   1      39.641  30.727  31.627  1.00  0.00     0.167 HD
ATOM     53  C   UNL A   1      40.211  33.257  35.172  1.00  0.00     0.037 A 
ATOM     54  C   UNL A   1      40.337  28.709  29.829  1.00  0.00     0.037 A 
ATOM     55  C   UNL A   1      41.231  32.245  35.256  1.00  0.00     0.049 A 
ATOM     56  C   UNL A   1      41.349  28.659  30.940  1.00  0.00     0.074 A 
ATOM     57  C   UNL A   1      42.159  32.036  36.261  1.00  0.00     0.029 A 
ATOM     58  N   UNL A   1      41.460  31.275  34.291  1.00  0.00    -0.354 N 
ATOM     59  N   UNL A   1      41.438  29.411  32.011  1.00  0.00    -0.248 NA
ATOM     60  C   UNL A   1      42.394  27.633  30.834  1.00  0.00     0.031 C 
ATOM     61  C   UNL A   1      42.983  30.974  35.877  1.00  0.00     0.029 A 
ATOM     62  C   UNL A   1      42.536  30.485  34.659  1.00  0.00     0.049 A 
ATOM     63  H   UNL A   1      40.934  31.165  33.466  1.00  0.00     0.167 HD
ATOM     64  C   UNL A   1      42.535  28.937  32.718  1.00  0.00     0.074 A 
ATOM     65  C   UNL A   1      43.067  27.820  31.961  1.00  0.00     0.031 C 
ATOM     66  C   UNL A   1      43.055  29.384  33.888  1.00  0.00     0.037 A 
BRANCH  53  67
ATOM     67  C   UNL A   1      40.146  34.313  36.239  1.00  0.00     0.057 A 
ATOM     68  C   UNL A   1      40.889  35.499  36.158  1.00  0.00     0.134 A 
ATOM     69  C   UNL A   1      39.333  34.141  37.366  1.00  0.00     0.134 A 
ATOM     70  F   UNL A   1      41.700  35.724  35.112  1.00  0.00    -0.206 F 
ATOM     71  C   UNL A   1      40.860  36.454  37.177  1.00  0.00     0.040 A 
ATOM     72  C   UNL A   1      39.270  35.102  38.377  1.00  0.00     0.040 A 
ATOM     73  F   UNL A   1      38.590  33.033  37.508  1.00  0.00    -0.206 F 
ATOM     74  C   UNL A   1      40.045  36.257  38.289  1.00  0.00     0.006 A 
ENDBRANCH  53  67
BRANCH  54  75
ATOM     75  C   UNL A   1      40.380  27.736  28.710  1.00  0.00     0.057 A 
ATOM     76  C   UNL A   1      39.642  26.548  28.765  1.00  0.00     0.134 A 
ATOM     77  C   UNL A   1      41.135  27.972  27.555  1.00  0.00     0.134 A 
ATOM     78  F   UNL A   1      38.912  26.257  29.852  1.00  0.00    -0.206 F 
ATOM     79  C   UNL A   1      39.661  25.624  27.718  1.00  0.00     0.040 A 
ATOM     80  C   UNL A   1      41.145  27.070  26.490  1.00  0.00     0.040 A 
ATOM     81  F   UNL A   1      41.857  29.097  27.436  1.00  0.00    -0.206 F 
ATOM     82  C   UNL A   1      40.409  25.889  26.572  1.00  0.00     0.006 A 
ENDBRANCH  54  75
BRANCH  66  83
ATOM     83  C   UNL A   1      44.251  28.653  34.427  1.00  0.00     0.057 A 
ATOM     84  C   UNL A   1      44.117  27.522  35.243  1.00  0.00     0.134 A 
ATOM     85  C   UNL A   1      45.548  29.061  34.094  1.00  0.00     0.134 A 
ATOM     86  F   UNL A   1      42.902  27.088  35.611  1.00  0.00    -0.206 F 
ATOM     87  C   UNL A   1      45.233  26.838  35.728  1.00  0.00     0.040 A 
ATOM     88  C   UNL A   1      46.670  28.368  34.547  1.00  0.00     0.040 A 
ATOM     89  F   UNL A   1      45.745  30.131  33.308  1.00  0.00    -0.206 F 
ATOM     90  C   UNL A   1      46.514  27.257  35.372  1.00  0.00     0.006 A 
ENDBRANCH  66  83
ENDBRANCH  40  41
ENDBRANCH  32  35
ENDBRANCH  30  31
ENDBRANCH  29  30
ENDBRANCH   1  29
TORSDOF 13
ENDMDL
MODEL 3
REMARK VINA RESULT:     -12.8      5.697     10.453
REMARK SMILES Nc1ncccc1C[N@@H+]1CC2(CC[NH2+]CC2)C[C@H]1C(=O)NCCCNC(=O)c1ccc(-c2c3nc(c(-c4c(F)cccc4F)c4ccc([nH]4)c(-c4c(F)cccc4F)c4nc(c(-c5c(F)cccc5F)c5ccc2[nH]5)C=C4)C=C3)cc1
REMARK SMILES IDX 22 1 21 2 19 3 20 4 18 6 9 7 10 8 11 10 17 11 12 12 16 13
REMARK SMILES IDX 13 14 15 15 14 16 8 19 7 20 2 21 3 22 4 23 6 24 5 25 1 26
REMARK SMILES IDX 23 29 24 30 25 31 26 32 27 34 28 35 29 36 81 37 30 38 80 39
REMARK SMILES IDX 31 40 32 41 33 42 74 43 34 44 79 45 73 46 75 47 35 48 78 49
REMARK SMILES IDX 72 50 71 51 36 53 62 54 45 55 61 56 46 57 49 58 60 59 76 60
REMARK SMILES IDX 47 61 48 62 59 64 77 65 50 66 37 67 38 68 43 69 39 70 40 71
REMARK SMILES IDX 42 72 44 73 41 74 63 75 64 76 69 77 65 78 66 79 68 80 70 81
REMARK SMILES IDX 67 82 51 83 52 84 57 85 53 86 54 87 56 88 58 89 55 90
REMARK H PARENT 21 5 9 9 14 17 14 18 1 27 1 28 25 33 75 52 49 63
REMARK Flexibility Score: inf
ROOT
ATOM      1  C   UNL A   1      37.044  20.602  24.625  1.00  0.00     0.118 C 
ENDROOT
BRANCH   1   2
ATOM      2  N   UNL A   1      36.231  20.852  25.770  1.00  0.00    -0.351 N 
ATOM      3  C   UNL A   1      34.887  21.088  25.807  1.00  0.00     0.278 C 
ATOM      4  O   UNL A   1      34.385  21.076  26.941  1.00  0.00    -0.268 OA
ATOM      5  H   UNL A   1      36.695  20.854  26.639  1.00  0.00     0.163 HD
BRANCH   3   6
ATOM      6  C   UNL A   1      33.991  21.413  24.557  1.00  0.00     0.275 C 
ATOM      7  N   UNL A   1      32.609  20.953  24.775  1.00  0.00    -0.320 N 
ATOM      8  C   UNL A   1      31.736  22.137  24.868  1.00  0.00     0.270 C 
ATOM      9  H   UNL A   1      32.515  20.470  25.668  1.00  0.00     0.349 HD
ATOM     10  C   UNL A   1      32.469  23.384  24.274  1.00  0.00     0.036 C 
ATOM     11  C   UNL A   1      33.874  22.820  23.942  1.00  0.00     0.089 C 
ATOM     12  C   UNL A   1      32.665  24.693  25.106  1.00  0.00     0.074 C 
ATOM     13  C   UNL A   1      31.608  23.924  23.102  1.00  0.00     0.074 C 
ATOM     14  C   UNL A   1      31.363  25.263  25.647  1.00  0.00     0.261 C 
ATOM     15  C   UNL A   1      30.278  24.523  23.616  1.00  0.00     0.261 C 
ATOM     16  N   UNL A   1      30.475  25.632  24.547  1.00  0.00    -0.346 N 
ATOM     17  H   UNL A   1      30.882  26.420  24.043  1.00  0.00     0.346 HD
ATOM     18  H   UNL A   1      29.568  25.881  24.942  1.00  0.00     0.346 HD
BRANCH   7  19
ATOM     19  C   UNL A   1      32.203  19.868  23.838  1.00  0.00     0.303 C 
BRANCH  19  20
ATOM     20  C   UNL A   1      32.789  18.485  24.074  1.00  0.00     0.048 A 
ATOM     21  C   UNL A   1      33.057  17.969  25.346  1.00  0.00     0.132 A 
ATOM     22  N   UNL A   1      33.885  16.925  25.552  1.00  0.00    -0.239 NA
ATOM     23  C   UNL A   1      34.393  16.302  24.472  1.00  0.00     0.113 A 
ATOM     24  C   UNL A   1      33.188  17.705  22.986  1.00  0.00     0.015 A 
ATOM     25  C   UNL A   1      34.029  16.613  23.181  1.00  0.00     0.021 A 
BRANCH  21  26
ATOM     26  N   UNL A   1      32.528  18.506  26.501  1.00  0.00    -0.383 N 
ATOM     27  H   UNL A   1      31.560  18.450  26.671  1.00  0.00     0.158 HD
ATOM     28  H   UNL A   1      33.118  18.944  27.155  1.00  0.00     0.158 HD
ENDBRANCH  21  26
ENDBRANCH  19  20
ENDBRANCH   7  19
ENDBRANCH   3   6
ENDBRANCH   1   2
BRANCH   1  29
ATOM     29  C   UNL A   1      38.148  19.579  24.775  1.00  0.00     0.042 C 
BRANCH  29  30
ATOM     30  C   UNL A   1      39.198  19.983  25.792  1.00  0.00     0.118 C 
BRANCH  30  31
ATOM     31  N   UNL A   1      40.288  19.013  25.910  1.00  0.00    -0.352 N 
ATOM     32  C   UNL A   1      41.636  19.186  26.126  1.00  0.00     0.251 C 
ATOM     33  H   UNL A   1      40.008  18.073  25.818  1.00  0.00     0.163 HD
ATOM     34  O   UNL A   1      42.391  18.229  26.045  1.00  0.00    -0.269 OA
BRANCH  32  35
ATOM     35  C   UNL A   1      42.177  20.531  26.427  1.00  0.00     0.039 A 
ATOM     36  C   UNL A   1      42.591  21.351  25.374  1.00  0.00     0.014 A 
ATOM     37  C   UNL A   1      42.267  20.986  27.742  1.00  0.00     0.014 A 
ATOM     38  C   UNL A   1      43.006  22.658  25.638  1.00  0.00     0.010 A 
ATOM     39  C   UNL A   1      42.558  22.318  27.991  1.00  0.00     0.010 A 
ATOM     40  C   UNL A   1      42.941  23.167  26.945  1.00  0.00    -0.014 A 
BRANCH  40  41
ATOM     41  C   UNL A   1      43.275  24.578  27.256  1.00  0.00     0.031 A 
ATOM     42  C   UNL A   1      44.708  25.034  27.216  1.00  0.00     0.074 A 
ATOM     43  C   UNL A   1      42.306  25.416  27.667  1.00  0.00     0.049 A 
ATOM     44  N   UNL A   1      45.220  26.188  27.557  1.00  0.00    -0.248 NA
ATOM     45  C   UNL A   1      45.704  24.043  26.773  1.00  0.00     0.031 C 
ATOM     46  C   UNL A   1      40.888  25.075  27.802  1.00  0.00     0.029 A 
ATOM     47  N   UNL A   1      42.369  26.728  28.062  1.00  0.00    -0.354 N 
ATOM     48  C   UNL A   1      46.593  26.052  27.395  1.00  0.00     0.074 A 
ATOM     49  C   UNL A   1      46.840  24.687  26.991  1.00  0.00     0.031 C 
ATOM     50  C   UNL A   1      40.211  26.159  28.212  1.00  0.00     0.029 A 
ATOM     51  C   UNL A   1      41.151  27.256  28.415  1.00  0.00     0.049 A 
ATOM     52  H   UNL A   1      43.208  27.244  28.089  1.00  0.00     0.167 HD
ATOM     53  C   UNL A   1      47.559  26.989  27.543  1.00  0.00     0.037 A 
ATOM     54  C   UNL A   1      40.830  28.485  28.859  1.00  0.00     0.037 A 
ATOM     55  C   UNL A   1      47.300  28.354  27.919  1.00  0.00     0.049 A 
ATOM     56  C   UNL A   1      41.919  29.508  29.026  1.00  0.00     0.074 A 
ATOM     57  C   UNL A   1      48.193  29.405  28.021  1.00  0.00     0.029 A 
ATOM     58  N   UNL A   1      46.051  28.853  28.262  1.00  0.00    -0.354 N 
ATOM     59  N   UNL A   1      43.205  29.391  28.793  1.00  0.00    -0.248 NA
ATOM     60  C   UNL A   1      41.513  30.830  29.518  1.00  0.00     0.031 C 
ATOM     61  C   UNL A   1      47.494  30.527  28.478  1.00  0.00     0.029 A 
ATOM     62  C   UNL A   1      46.155  30.189  28.609  1.00  0.00     0.049 A 
ATOM     63  H   UNL A   1      45.215  28.333  28.259  1.00  0.00     0.167 HD
ATOM     64  C   UNL A   1      43.759  30.630  29.088  1.00  0.00     0.074 A 
ATOM     65  C   UNL A   1      42.665  31.487  29.500  1.00  0.00     0.031 C 
ATOM     66  C   UNL A   1      45.055  31.023  29.025  1.00  0.00     0.037 A 
BRANCH  53  67
ATOM     67  C   UNL A   1      48.978  26.558  27.302  1.00  0.00     0.057 A 
ATOM     68  C   UNL A   1      49.554  26.575  26.023  1.00  0.00     0.134 A 
ATOM     69  C   UNL A   1      49.780  26.115  28.361  1.00  0.00     0.134 A 
ATOM     70  F   UNL A   1      48.838  26.973  24.960  1.00  0.00    -0.206 F 
ATOM     71  C   UNL A   1      50.857  26.126  25.800  1.00  0.00     0.040 A 
ATOM     72  C   UNL A   1      51.096  25.696  28.157  1.00  0.00     0.040 A 
ATOM     73  F   UNL A   1      49.299  26.079  29.612  1.00  0.00    -0.206 F 
ATOM     74  C   UNL A   1      51.633  25.689  26.871  1.00  0.00     0.006 A 
ENDBRANCH  53  67
BRANCH  54  75
ATOM     75  C   UNL A   1      39.413  28.823  29.140  1.00  0.00     0.057 A 
ATOM     76  C   UNL A   1      38.871  28.632  30.416  1.00  0.00     0.134 A 
ATOM     77  C   UNL A   1      38.574  29.361  28.157  1.00  0.00     0.134 A 
ATOM     78  F   UNL A   1      39.620  28.104  31.395  1.00  0.00    -0.206 F 
ATOM     79  C   UNL A   1      37.542  28.952  30.703  1.00  0.00     0.040 A 
ATOM     80  C   UNL A   1      37.251  29.709  28.436  1.00  0.00     0.040 A 
ATOM     81  F   UNL A   1      39.036  29.578  26.916  1.00  0.00    -0.206 F 
ATOM     82  C   UNL A   1      36.731  29.500  29.712  1.00  0.00     0.006 A 
ENDBRANCH  54  75
BRANCH  66  83
ATOM     83  C   UNL A   1      45.356  32.447  29.394  1.00  0.00     0.057 A 
ATOM     84  C   UNL A   1      45.722  32.810  30.696  1.00  0.00     0.134 A 
ATOM     85  C   UNL A   1      45.318  33.458  28.426  1.00  0.00     0.134 A 
ATOM     86  F   UNL A   1      45.763  31.892  31.673  1.00  0.00    -0.206 F 
ATOM     87  C   UNL A   1      46.016  34.134  31.028  1.00  0.00     0.040 A 
ATOM     88  C   UNL A   1      45.638  34.779  28.739  1.00  0.00     0.040 A 
ATOM     89  F   UNL A   1      44.984  33.175  27.157  1.00  0.00    -0.206 F 
ATOM     90  C   UNL A   1      45.982  35.121  30.044  1.00  0.00     0.006 A 
ENDBRANCH  66  83
ENDBRANCH  40  41
ENDBRANCH  32  35
ENDBRANCH  30  31
ENDBRANCH  29  30
ENDBRANCH   1  29
TORSDOF 13
ENDMDL
