MODEL 1
REMARK VINA RESULT:     -11.8      0.000      0.000
REMARK SMILES CC(C)c1ccc(C(=O)N2CCC[C@@H](C(=O)NCCCNC(=O)c3ccc(-c4c5nc(c(-c6c(F)cccc6F)c6ccc([nH]6)c(-c6c(F)cccc6F)c6nc(c(-c7c(F)cccc7F)c7ccc4[nH]7)C=C6)C=C5)cc3)C2)cc1
REMARK SMILES IDX 18 1 17 2 15 3 16 4 14 6 10 7 11 8 78 9 12 10 13 11 8 12
REMARK SMILES IDX 9 13 7 14 4 15 5 16 80 17 6 18 79 19 2 20 1 21 3 22 19 23
REMARK SMILES IDX 20 24 21 25 22 26 23 28 24 29 25 30 77 31 26 32 76 33 27 34
REMARK SMILES IDX 28 35 29 36 70 37 30 38 75 39 69 40 71 41 31 42 74 43 68 44
REMARK SMILES IDX 67 45 32 47 58 48 41 49 57 50 42 51 45 52 56 53 72 54 43 55
REMARK SMILES IDX 44 56 55 58 73 59 46 60 33 61 34 62 39 63 35 64 36 65 38 66
REMARK SMILES IDX 40 67 37 68 59 69 60 70 65 71 61 72 62 73 64 74 66 75 63 76
REMARK SMILES IDX 47 77 48 78 53 79 49 80 50 81 52 82 54 83 51 84
REMARK H PARENT 17 5 21 27 71 46 45 57
REMARK Flexibility Score: inf
ROOT
ATOM      1  C   UNL A   1      31.507  30.883  26.375  1.00  0.00     0.117 C 
ENDROOT
BRANCH   1   2
ATOM      2  N   UNL A   1      32.674  30.286  27.001  1.00  0.00    -0.356 N 
ATOM      3  C   UNL A   1      33.278  29.077  26.930  1.00  0.00     0.224 C 
ATOM      4  O   UNL A   1      34.244  28.938  27.693  1.00  0.00    -0.275 OA
ATOM      5  H   UNL A   1      33.129  30.902  27.618  1.00  0.00     0.163 HD
BRANCH   3   6
ATOM      6  C   UNL A   1      32.893  27.924  25.994  1.00  0.00     0.098 C 
ATOM      7  N   UNL A   1      33.669  26.949  23.806  1.00  0.00    -0.338 N 
ATOM      8  C   UNL A   1      33.726  25.611  24.352  1.00  0.00     0.120 C 
ATOM      9  C   UNL A   1      33.787  28.066  24.739  1.00  0.00     0.133 C 
ATOM     10  C   UNL A   1      32.699  25.442  25.451  1.00  0.00     0.022 C 
ATOM     11  C   UNL A   1      32.916  26.493  26.536  1.00  0.00     0.017 C 
BRANCH   7  12
ATOM     12  C   UNL A   1      33.122  27.112  22.544  1.00  0.00     0.253 C 
ATOM     13  O   UNL A   1      33.798  27.025  21.522  1.00  0.00    -0.269 OA
BRANCH  12  14
ATOM     14  C   UNL A   1      31.729  27.655  22.497  1.00  0.00     0.040 A 
ATOM     15  C   UNL A   1      29.183  28.900  22.683  1.00  0.00    -0.045 A 
ATOM     16  C   UNL A   1      30.289  29.583  22.151  1.00  0.00     0.005 A 
ATOM     17  C   UNL A   1      29.371  27.559  23.057  1.00  0.00     0.005 A 
ATOM     18  C   UNL A   1      31.545  28.968  22.057  1.00  0.00     0.014 A 
ATOM     19  C   UNL A   1      30.628  26.950  22.985  1.00  0.00     0.014 A 
BRANCH  15  20
ATOM     20  C   UNL A   1      27.805  29.546  22.825  1.00  0.00     0.013 C 
ATOM     21  C   UNL A   1      26.777  28.600  23.472  1.00  0.00     0.012 C 
ATOM     22  C   UNL A   1      27.790  30.863  23.615  1.00  0.00     0.012 C 
ENDBRANCH  15  20
ENDBRANCH  12  14
ENDBRANCH   7  12
ENDBRANCH   3   6
ENDBRANCH   1   2
BRANCH   1  23
ATOM     23  C   UNL A   1      31.379  32.369  26.706  1.00  0.00     0.042 C 
BRANCH  23  24
ATOM     24  C   UNL A   1      32.726  33.048  26.944  1.00  0.00     0.118 C 
BRANCH  24  25
ATOM     25  N   UNL A   1      32.583  34.294  27.690  1.00  0.00    -0.352 N 
ATOM     26  C   UNL A   1      33.168  34.706  28.859  1.00  0.00     0.251 C 
ATOM     27  H   UNL A   1      31.966  34.946  27.287  1.00  0.00     0.163 HD
ATOM     28  O   UNL A   1      32.715  35.690  29.445  1.00  0.00    -0.269 OA
BRANCH  26  29
ATOM     29  C   UNL A   1      34.331  33.992  29.422  1.00  0.00     0.039 A 
ATOM     30  C   UNL A   1      34.116  32.998  30.382  1.00  0.00     0.014 A 
ATOM     31  C   UNL A   1      35.635  34.338  29.056  1.00  0.00     0.014 A 
ATOM     32  C   UNL A   1      35.202  32.317  30.933  1.00  0.00     0.010 A 
ATOM     33  C   UNL A   1      36.711  33.607  29.548  1.00  0.00     0.010 A 
ATOM     34  C   UNL A   1      36.507  32.596  30.498  1.00  0.00    -0.014 A 
BRANCH  34  35
ATOM     35  C   UNL A   1      37.675  31.854  31.031  1.00  0.00     0.031 A 
ATOM     36  C   UNL A   1      38.234  32.195  32.384  1.00  0.00     0.074 A 
ATOM     37  C   UNL A   1      38.274  30.922  30.266  1.00  0.00     0.049 A 
ATOM     38  N   UNL A   1      39.292  31.715  32.987  1.00  0.00    -0.248 NA
ATOM     39  C   UNL A   1      37.526  33.234  33.146  1.00  0.00     0.031 C 
ATOM     40  C   UNL A   1      37.848  30.530  28.922  1.00  0.00     0.029 A 
ATOM     41  N   UNL A   1      39.375  30.142  30.507  1.00  0.00    -0.354 N 
ATOM     42  C   UNL A   1      39.385  32.405  34.189  1.00  0.00     0.074 A 
ATOM     43  C   UNL A   1      38.311  33.375  34.203  1.00  0.00     0.031 C 
ATOM     44  C   UNL A   1      38.656  29.558  28.471  1.00  0.00     0.029 A 
ATOM     45  C   UNL A   1      39.681  29.290  29.475  1.00  0.00     0.049 A 
ATOM     46  H   UNL A   1      39.896  30.187  31.342  1.00  0.00     0.167 HD
ATOM     47  C   UNL A   1      40.269  32.229  35.201  1.00  0.00     0.037 A 
ATOM     48  C   UNL A   1      40.678  28.394  29.352  1.00  0.00     0.037 A 
ATOM     49  C   UNL A   1      41.324  31.250  35.189  1.00  0.00     0.049 A 
ATOM     50  C   UNL A   1      41.661  28.232  30.475  1.00  0.00     0.074 A 
ATOM     51  C   UNL A   1      42.241  30.954  36.183  1.00  0.00     0.029 A 
ATOM     52  N   UNL A   1      41.606  30.409  34.122  1.00  0.00    -0.354 N 
ATOM     53  N   UNL A   1      41.706  28.851  31.630  1.00  0.00    -0.248 NA
ATOM     54  C   UNL A   1      42.735  27.249  30.277  1.00  0.00     0.031 C 
ATOM     55  C   UNL A   1      43.103  29.963  35.701  1.00  0.00     0.029 A 
ATOM     56  C   UNL A   1      42.696  29.610  34.424  1.00  0.00     0.049 A 
ATOM     57  H   UNL A   1      41.104  30.384  33.276  1.00  0.00     0.167 HD
ATOM     58  C   UNL A   1      42.791  28.312  32.309  1.00  0.00     0.074 A 
ATOM     59  C   UNL A   1      43.372  27.311  31.437  1.00  0.00     0.031 C 
ATOM     60  C   UNL A   1      43.260  28.616  33.544  1.00  0.00     0.037 A 
BRANCH  47  61
ATOM     61  C   UNL A   1      40.125  33.125  36.399  1.00  0.00     0.057 A 
ATOM     62  C   UNL A   1      39.211  32.847  37.426  1.00  0.00     0.134 A 
ATOM     63  C   UNL A   1      40.900  34.286  36.524  1.00  0.00     0.134 A 
ATOM     64  F   UNL A   1      38.429  31.759  37.363  1.00  0.00    -0.206 F 
ATOM     65  C   UNL A   1      39.045  33.710  38.510  1.00  0.00     0.040 A 
ATOM     66  C   UNL A   1      40.764  35.140  37.619  1.00  0.00     0.040 A 
ATOM     67  F   UNL A   1      41.799  34.610  35.582  1.00  0.00    -0.206 F 
ATOM     68  C   UNL A   1      39.825  34.859  38.610  1.00  0.00     0.006 A 
ENDBRANCH  47  61
BRANCH  48  69
ATOM     69  C   UNL A   1      40.763  27.549  28.135  1.00  0.00     0.057 A 
ATOM     70  C   UNL A   1      41.518  27.964  27.032  1.00  0.00     0.134 A 
ATOM     71  C   UNL A   1      40.118  26.310  28.051  1.00  0.00     0.134 A 
ATOM     72  F   UNL A   1      42.145  29.149  27.050  1.00  0.00    -0.206 F 
ATOM     73  C   UNL A   1      41.622  27.179  25.882  1.00  0.00     0.040 A 
ATOM     74  C   UNL A   1      40.232  25.506  26.915  1.00  0.00     0.040 A 
ATOM     75  F   UNL A   1      39.388  25.855  29.078  1.00  0.00    -0.206 F 
ATOM     76  C   UNL A   1      40.983  25.943  25.825  1.00  0.00     0.006 A 
ENDBRANCH  48  69
BRANCH  60  77
ATOM     77  C   UNL A   1      44.443  27.834  34.036  1.00  0.00     0.057 A 
ATOM     78  C   UNL A   1      45.754  28.301  33.884  1.00  0.00     0.134 A 
ATOM     79  C   UNL A   1      44.262  26.615  34.702  1.00  0.00     0.134 A 
ATOM     80  F   UNL A   1      45.995  29.455  33.244  1.00  0.00    -0.206 F 
ATOM     81  C   UNL A   1      46.846  27.572  34.359  1.00  0.00     0.040 A 
ATOM     82  C   UNL A   1      45.343  25.890  35.202  1.00  0.00     0.040 A 
ATOM     83  F   UNL A   1      43.031  26.115  34.886  1.00  0.00    -0.206 F 
ATOM     84  C   UNL A   1      46.641  26.366  35.026  1.00  0.00     0.006 A 
ENDBRANCH  60  77
ENDBRANCH  34  35
ENDBRANCH  26  29
ENDBRANCH  24  25
ENDBRANCH  23  24
ENDBRANCH   1  23
TORSDOF 13
ENDMDL
MODEL 2
REMARK VINA RESULT:     -11.8      1.033      6.358
REMARK SMILES CC(C)c1ccc(C(=O)N2CCC[C@@H](C(=O)NCCCNC(=O)c3ccc(-c4c5nc(c(-c6c(F)cccc6F)c6ccc([nH]6)c(-c6c(F)cccc6F)c6nc(c(-c7c(F)cccc7F)c7ccc4[nH]7)C=C6)C=C5)cc3)C2)cc1
REMARK SMILES IDX 18 1 17 2 15 3 16 4 14 6 10 7 11 8 78 9 12 10 13 11 8 12
REMARK SMILES IDX 9 13 7 14 4 15 5 16 80 17 6 18 79 19 2 20 1 21 3 22 19 23
REMARK SMILES IDX 20 24 21 25 22 26 23 28 24 29 25 30 77 31 26 32 76 33 27 34
REMARK SMILES IDX 28 35 29 36 70 37 30 38 75 39 69 40 71 41 31 42 74 43 68 44
REMARK SMILES IDX 67 45 32 47 58 48 41 49 57 50 42 51 45 52 56 53 72 54 43 55
REMARK SMILES IDX 44 56 55 58 73 59 46 60 33 61 34 62 39 63 35 64 36 65 38 66
REMARK SMILES IDX 40 67 37 68 59 69 60 70 65 71 61 72 62 73 64 74 66 75 63 76
REMARK SMILES IDX 47 77 48 78 53 79 49 80 50 81 52 82 54 83 51 84
REMARK H PARENT 17 5 21 27 71 46 45 57
REMARK Flexibility Score: inf
ROOT
ATOM      1  C   UNL A   1      31.462  30.889  26.362  1.00  0.00     0.117 C 
ENDROOT
BRANCH   1   2
ATOM      2  N   UNL A   1      32.620  30.298  27.009  1.00  0.00    -0.356 N 
ATOM      3  C   UNL A   1      33.227  29.090  26.955  1.00  0.00     0.224 C 
ATOM      4  O   UNL A   1      34.182  28.957  27.734  1.00  0.00    -0.275 OA
ATOM      5  H   UNL A   1      33.065  30.919  27.629  1.00  0.00     0.163 HD
BRANCH   3   6
ATOM      6  C   UNL A   1      32.857  27.929  26.022  1.00  0.00     0.098 C 
ATOM      7  N   UNL A   1      33.653  26.955  23.841  1.00  0.00    -0.338 N 
ATOM      8  C   UNL A   1      33.721  25.619  24.393  1.00  0.00     0.120 C 
ATOM      9  C   UNL A   1      33.755  28.076  24.771  1.00  0.00     0.133 C 
ATOM     10  C   UNL A   1      32.691  25.443  25.487  1.00  0.00     0.022 C 
ATOM     11  C   UNL A   1      32.892  26.501  26.569  1.00  0.00     0.017 C 
BRANCH   7  12
ATOM     12  C   UNL A   1      33.111  27.107  22.576  1.00  0.00     0.253 C 
ATOM     13  O   UNL A   1      33.790  27.013  21.557  1.00  0.00    -0.269 OA
BRANCH  12  14
ATOM     14  C   UNL A   1      31.717  27.649  22.520  1.00  0.00     0.040 A 
ATOM     15  C   UNL A   1      29.168  28.889  22.692  1.00  0.00    -0.045 A 
ATOM     16  C   UNL A   1      30.278  29.577  22.176  1.00  0.00     0.005 A 
ATOM     17  C   UNL A   1      29.354  27.546  23.057  1.00  0.00     0.005 A 
ATOM     18  C   UNL A   1      31.535  28.965  22.088  1.00  0.00     0.014 A 
ATOM     19  C   UNL A   1      30.613  26.938  22.992  1.00  0.00     0.014 A 
BRANCH  15  20
ATOM     20  C   UNL A   1      27.788  29.532  22.826  1.00  0.00     0.013 C 
ATOM     21  C   UNL A   1      26.763  28.592  23.487  1.00  0.00     0.012 C 
ATOM     22  C   UNL A   1      27.769  30.859  23.598  1.00  0.00     0.012 C 
ENDBRANCH  15  20
ENDBRANCH  12  14
ENDBRANCH   7  12
ENDBRANCH   3   6
ENDBRANCH   1   2
BRANCH   1  23
ATOM     23  C   UNL A   1      31.394  32.399  26.581  1.00  0.00     0.042 C 
BRANCH  23  24
ATOM     24  C   UNL A   1      32.690  32.983  27.139  1.00  0.00     0.118 C 
BRANCH  24  25
ATOM     25  N   UNL A   1      32.506  34.344  27.633  1.00  0.00    -0.352 N 
ATOM     26  C   UNL A   1      33.058  34.983  28.711  1.00  0.00     0.251 C 
ATOM     27  H   UNL A   1      31.884  34.892  27.103  1.00  0.00     0.163 HD
ATOM     28  O   UNL A   1      32.573  36.050  29.092  1.00  0.00    -0.269 OA
BRANCH  26  29
ATOM     29  C   UNL A   1      34.224  34.417  29.418  1.00  0.00     0.039 A 
ATOM     30  C   UNL A   1      34.034  33.828  30.672  1.00  0.00     0.014 A 
ATOM     31  C   UNL A   1      35.510  34.519  28.882  1.00  0.00     0.014 A 
ATOM     32  C   UNL A   1      35.124  33.295  31.362  1.00  0.00     0.010 A 
ATOM     33  C   UNL A   1      36.583  33.919  29.533  1.00  0.00     0.010 A 
ATOM     34  C   UNL A   1      36.403  33.310  30.784  1.00  0.00    -0.014 A 
BRANCH  34  35
ATOM     35  C   UNL A   1      37.569  32.707  31.472  1.00  0.00     0.031 A 
ATOM     36  C   UNL A   1      38.256  31.506  30.884  1.00  0.00     0.074 A 
ATOM     37  C   UNL A   1      37.966  33.198  32.661  1.00  0.00     0.049 A 
ATOM     38  N   UNL A   1      39.239  30.792  31.372  1.00  0.00    -0.248 NA
ATOM     39  C   UNL A   1      37.750  31.027  29.589  1.00  0.00     0.031 C 
ATOM     40  C   UNL A   1      37.356  34.336  33.351  1.00  0.00     0.029 A 
ATOM     41  N   UNL A   1      38.970  32.798  33.503  1.00  0.00    -0.354 N 
ATOM     42  C   UNL A   1      39.456  29.773  30.455  1.00  0.00     0.074 A 
ATOM     43  C   UNL A   1      38.466  29.927  29.410  1.00  0.00     0.031 C 
ATOM     44  C   UNL A   1      38.021  34.564  34.494  1.00  0.00     0.029 A 
ATOM     45  C   UNL A   1      39.074  33.564  34.637  1.00  0.00     0.049 A 
ATOM     46  H   UNL A   1      39.562  32.034  33.312  1.00  0.00     0.167 HD
ATOM     47  C   UNL A   1      40.410  28.810  30.467  1.00  0.00     0.037 A 
ATOM     48  C   UNL A   1      39.924  33.468  35.677  1.00  0.00     0.037 A 
ATOM     49  C   UNL A   1      41.403  28.672  31.499  1.00  0.00     0.049 A 
ATOM     50  C   UNL A   1      40.958  32.379  35.682  1.00  0.00     0.074 A 
ATOM     51  C   UNL A   1      42.446  27.766  31.581  1.00  0.00     0.029 A 
ATOM     52  N   UNL A   1      41.473  29.465  32.636  1.00  0.00    -0.354 N 
ATOM     53  N   UNL A   1      41.190  31.455  34.782  1.00  0.00    -0.248 NA
ATOM     54  C   UNL A   1      41.847  32.319  36.850  1.00  0.00     0.031 C 
ATOM     55  C   UNL A   1      43.120  27.984  32.788  1.00  0.00     0.029 A 
ATOM     56  C   UNL A   1      42.525  29.054  33.436  1.00  0.00     0.049 A 
ATOM     57  H   UNL A   1      40.863  30.210  32.843  1.00  0.00     0.167 HD
ATOM     58  C   UNL A   1      42.269  30.723  35.257  1.00  0.00     0.074 A 
ATOM     59  C   UNL A   1      42.650  31.316  36.523  1.00  0.00     0.031 C 
ATOM     60  C   UNL A   1      42.891  29.658  34.694  1.00  0.00     0.037 A 
BRANCH  47  61
ATOM     61  C   UNL A   1      40.410  27.833  29.325  1.00  0.00     0.057 A 
ATOM     62  C   UNL A   1      41.245  27.996  28.211  1.00  0.00     0.134 A 
ATOM     63  C   UNL A   1      39.558  26.721  29.333  1.00  0.00     0.134 A 
ATOM     64  F   UNL A   1      42.076  29.047  28.133  1.00  0.00    -0.206 F 
ATOM     65  C   UNL A   1      41.204  27.113  27.130  1.00  0.00     0.040 A 
ATOM     66  C   UNL A   1      39.530  25.815  28.271  1.00  0.00     0.040 A 
ATOM     67  F   UNL A   1      38.736  26.499  30.370  1.00  0.00    -0.206 F 
ATOM     68  C   UNL A   1      40.346  26.017  27.161  1.00  0.00     0.006 A 
ENDBRANCH  47  61
BRANCH  48  69
ATOM     69  C   UNL A   1      39.859  34.465  36.775  1.00  0.00     0.057 A 
ATOM     70  C   UNL A   1      39.143  34.189  37.945  1.00  0.00     0.134 A 
ATOM     71  C   UNL A   1      40.520  35.695  36.695  1.00  0.00     0.134 A 
ATOM     72  F   UNL A   1      38.476  33.033  38.072  1.00  0.00    -0.206 F 
ATOM     73  C   UNL A   1      39.078  35.106  38.995  1.00  0.00     0.040 A 
ATOM     74  C   UNL A   1      40.482  36.613  37.747  1.00  0.00     0.040 A 
ATOM     75  F   UNL A   1      41.230  36.013  35.603  1.00  0.00    -0.206 F 
ATOM     76  C   UNL A   1      39.756  36.320  38.900  1.00  0.00     0.006 A 
ENDBRANCH  48  69
BRANCH  60  77
ATOM     77  C   UNL A   1      44.067  29.086  35.430  1.00  0.00     0.057 A 
ATOM     78  C   UNL A   1      45.375  29.527  35.192  1.00  0.00     0.134 A 
ATOM     79  C   UNL A   1      43.883  28.106  36.413  1.00  0.00     0.134 A 
ATOM     80  F   UNL A   1      45.620  30.453  34.254  1.00  0.00    -0.206 F 
ATOM     81  C   UNL A   1      46.460  28.998  35.893  1.00  0.00     0.040 A 
ATOM     82  C   UNL A   1      44.956  27.587  37.137  1.00  0.00     0.040 A 
ATOM     83  F   UNL A   1      42.654  27.644  36.694  1.00  0.00    -0.206 F 
ATOM     84  C   UNL A   1      46.251  28.030  36.873  1.00  0.00     0.006 A 
ENDBRANCH  60  77
ENDBRANCH  34  35
ENDBRANCH  26  29
ENDBRANCH  24  25
ENDBRANCH  23  24
ENDBRANCH   1  23
TORSDOF 13
ENDMDL
MODEL 3
REMARK VINA RESULT:     -11.8      4.521      8.718
REMARK SMILES CC(C)c1ccc(C(=O)N2CCC[C@@H](C(=O)NCCCNC(=O)c3ccc(-c4c5nc(c(-c6c(F)cccc6F)c6ccc([nH]6)c(-c6c(F)cccc6F)c6nc(c(-c7c(F)cccc7F)c7ccc4[nH]7)C=C6)C=C5)cc3)C2)cc1
REMARK SMILES IDX 18 1 17 2 15 3 16 4 14 6 10 7 11 8 78 9 12 10 13 11 8 12
REMARK SMILES IDX 9 13 7 14 4 15 5 16 80 17 6 18 79 19 2 20 1 21 3 22 19 23
REMARK SMILES IDX 20 24 21 25 22 26 23 28 24 29 25 30 77 31 26 32 76 33 27 34
REMARK SMILES IDX 28 35 29 36 70 37 30 38 75 39 69 40 71 41 31 42 74 43 68 44
REMARK SMILES IDX 67 45 32 47 58 48 41 49 57 50 42 51 45 52 56 53 72 54 43 55
REMARK SMILES IDX 44 56 55 58 73 59 46 60 33 61 34 62 39 63 35 64 36 65 38 66
REMARK SMILES IDX 40 67 37 68 59 69 60 70 65 71 61 72 62 73 64 74 66 75 63 76
REMARK SMILES IDX 47 77 48 78 53 79 49 80 50 81 52 82 54 83 51 84
REMARK H PARENT 17 5 21 27 71 46 45 57
REMARK Flexibility Score: inf
ROOT
ATOM      1  C   UNL A   1      36.231  20.383  25.008  1.00  0.00     0.117 C 
ENDROOT
BRANCH   1   2
ATOM      2  N   UNL A   1      36.432  21.677  25.635  1.00  0.00    -0.356 N 
ATOM      3  C   UNL A   1      35.790  22.868  25.586  1.00  0.00     0.224 C 
ATOM      4  O   UNL A   1      36.331  23.772  26.239  1.00  0.00    -0.275 OA
ATOM      5  H   UNL A   1      37.214  21.692  26.232  1.00  0.00     0.163 HD
BRANCH   3   6
ATOM      6  C   UNL A   1      34.483  23.165  24.839  1.00  0.00     0.098 C 
ATOM      7  N   UNL A   1      33.770  24.062  22.597  1.00  0.00    -0.338 N 
ATOM      8  C   UNL A   1      32.874  22.949  22.369  1.00  0.00     0.120 C 
ATOM      9  C   UNL A   1      34.888  23.853  23.514  1.00  0.00     0.133 C 
ATOM     10  C   UNL A   1      32.339  22.420  23.682  1.00  0.00     0.022 C 
ATOM     11  C   UNL A   1      33.495  22.023  24.595  1.00  0.00     0.017 C 
BRANCH   7  12
ATOM     12  C   UNL A   1      33.321  25.333  22.276  1.00  0.00     0.253 C 
ATOM     13  O   UNL A   1      33.356  25.768  21.129  1.00  0.00    -0.269 OA
BRANCH  12  14
ATOM     14  C   UNL A   1      33.037  26.240  23.432  1.00  0.00     0.040 A 
ATOM     15  C   UNL A   1      32.802  27.830  25.773  1.00  0.00    -0.045 A 
ATOM     16  C   UNL A   1      33.764  28.119  24.792  1.00  0.00     0.005 A 
ATOM     17  C   UNL A   1      31.921  26.766  25.520  1.00  0.00     0.005 A 
ATOM     18  C   UNL A   1      33.879  27.337  23.635  1.00  0.00     0.014 A 
ATOM     19  C   UNL A   1      32.048  25.969  24.377  1.00  0.00     0.014 A 
BRANCH  15  20
ATOM     20  C   UNL A   1      32.664  28.646  27.058  1.00  0.00     0.013 C 
ATOM     21  C   UNL A   1      32.646  30.162  26.793  1.00  0.00     0.012 C 
ATOM     22  C   UNL A   1      31.430  28.305  27.907  1.00  0.00     0.012 C 
ENDBRANCH  15  20
ENDBRANCH  12  14
ENDBRANCH   7  12
ENDBRANCH   3   6
ENDBRANCH   1   2
BRANCH   1  23
ATOM     23  C   UNL A   1      37.549  19.641  24.795  1.00  0.00     0.042 C 
BRANCH  23  24
ATOM     24  C   UNL A   1      38.733  20.311  25.488  1.00  0.00     0.118 C 
BRANCH  24  25
ATOM     25  N   UNL A   1      39.831  19.376  25.715  1.00  0.00    -0.352 N 
ATOM     26  C   UNL A   1      41.128  19.600  26.095  1.00  0.00     0.251 C 
ATOM     27  H   UNL A   1      39.601  18.430  25.572  1.00  0.00     0.163 HD
ATOM     28  O   UNL A   1      41.954  18.693  25.981  1.00  0.00    -0.269 OA
BRANCH  26  29
ATOM     29  C   UNL A   1      41.548  20.907  26.639  1.00  0.00     0.039 A 
ATOM     30  C   UNL A   1      41.926  21.920  25.752  1.00  0.00     0.014 A 
ATOM     31  C   UNL A   1      41.631  21.119  28.018  1.00  0.00     0.014 A 
ATOM     32  C   UNL A   1      42.335  23.160  26.246  1.00  0.00     0.010 A 
ATOM     33  C   UNL A   1      41.964  22.378  28.507  1.00  0.00     0.010 A 
ATOM     34  C   UNL A   1      42.329  23.408  27.627  1.00  0.00    -0.014 A 
BRANCH  34  35
ATOM     35  C   UNL A   1      42.711  24.731  28.177  1.00  0.00     0.031 A 
ATOM     36  C   UNL A   1      41.669  25.795  28.378  1.00  0.00     0.074 A 
ATOM     37  C   UNL A   1      44.006  24.996  28.428  1.00  0.00     0.049 A 
ATOM     38  N   UNL A   1      41.816  27.035  28.773  1.00  0.00    -0.248 NA
ATOM     39  C   UNL A   1      40.280  25.424  28.067  1.00  0.00     0.031 C 
ATOM     40  C   UNL A   1      45.114  24.058  28.237  1.00  0.00     0.029 A 
ATOM     41  N   UNL A   1      44.611  26.136  28.890  1.00  0.00    -0.354 N 
ATOM     42  C   UNL A   1      40.546  27.594  28.740  1.00  0.00     0.074 A 
ATOM     43  C   UNL A   1      39.650  26.577  28.233  1.00  0.00     0.031 C 
ATOM     44  C   UNL A   1      46.259  24.649  28.612  1.00  0.00     0.029 A 
ATOM     45  C   UNL A   1      45.972  26.018  29.028  1.00  0.00     0.049 A 
ATOM     46  H   UNL A   1      44.117  26.961  29.103  1.00  0.00     0.167 HD
ATOM     47  C   UNL A   1      40.155  28.835  29.122  1.00  0.00     0.037 A 
ATOM     48  C   UNL A   1      46.886  26.916  29.442  1.00  0.00     0.037 A 
ATOM     49  C   UNL A   1      41.049  29.836  29.642  1.00  0.00     0.049 A 
ATOM     50  C   UNL A   1      46.435  28.292  29.838  1.00  0.00     0.074 A 
ATOM     51  C   UNL A   1      40.748  31.104  30.107  1.00  0.00     0.029 A 
ATOM     52  N   UNL A   1      42.422  29.681  29.762  1.00  0.00    -0.354 N 
ATOM     53  N   UNL A   1      45.224  28.792  29.856  1.00  0.00    -0.248 NA
ATOM     54  C   UNL A   1      47.480  29.231  30.269  1.00  0.00     0.031 C 
ATOM     55  C   UNL A   1      41.947  31.731  30.469  1.00  0.00     0.029 A 
ATOM     56  C   UNL A   1      42.987  30.838  30.272  1.00  0.00     0.049 A 
ATOM     57  H   UNL A   1      42.921  28.867  29.521  1.00  0.00     0.167 HD
ATOM     58  C   UNL A   1      45.355  30.091  30.328  1.00  0.00     0.074 A 
ATOM     59  C   UNL A   1      46.765  30.298  30.591  1.00  0.00     0.031 C 
ATOM     60  C   UNL A   1      44.394  31.026  30.529  1.00  0.00     0.037 A 
BRANCH  47  61
ATOM     61  C   UNL A   1      38.697  29.166  28.980  1.00  0.00     0.057 A 
ATOM     62  C   UNL A   1      37.807  29.072  30.060  1.00  0.00     0.134 A 
ATOM     63  C   UNL A   1      38.171  29.576  27.748  1.00  0.00     0.134 A 
ATOM     64  F   UNL A   1      38.243  28.674  31.265  1.00  0.00    -0.206 F 
ATOM     65  C   UNL A   1      36.444  29.332  29.910  1.00  0.00     0.040 A 
ATOM     66  C   UNL A   1      36.815  29.867  27.593  1.00  0.00     0.040 A 
ATOM     67  F   UNL A   1      38.966  29.695  26.673  1.00  0.00    -0.206 F 
ATOM     68  C   UNL A   1      35.945  29.734  28.674  1.00  0.00     0.006 A 
ENDBRANCH  47  61
BRANCH  48  69
ATOM     69  C   UNL A   1      48.312  26.519  29.548  1.00  0.00     0.057 A 
ATOM     70  C   UNL A   1      49.205  26.783  28.503  1.00  0.00     0.134 A 
ATOM     71  C   UNL A   1      48.821  25.892  30.692  1.00  0.00     0.134 A 
ATOM     72  F   UNL A   1      48.770  27.367  27.377  1.00  0.00    -0.206 F 
ATOM     73  C   UNL A   1      50.552  26.430  28.587  1.00  0.00     0.040 A 
ATOM     74  C   UNL A   1      50.171  25.554  30.797  1.00  0.00     0.040 A 
ATOM     75  F   UNL A   1      48.017  25.621  31.730  1.00  0.00    -0.206 F 
ATOM     76  C   UNL A   1      51.040  25.819  29.740  1.00  0.00     0.006 A 
ENDBRANCH  48  69
BRANCH  60  77
ATOM     77  C   UNL A   1      44.833  32.347  31.088  1.00  0.00     0.057 A 
ATOM     78  C   UNL A   1      44.919  32.576  32.467  1.00  0.00     0.134 A 
ATOM     79  C   UNL A   1      45.208  33.392  30.234  1.00  0.00     0.134 A 
ATOM     80  F   UNL A   1      44.560  31.621  33.338  1.00  0.00    -0.206 F 
ATOM     81  C   UNL A   1      45.342  33.805  32.976  1.00  0.00     0.040 A 
ATOM     82  C   UNL A   1      45.655  34.616  30.731  1.00  0.00     0.040 A 
ATOM     83  F   UNL A   1      45.155  33.236  28.902  1.00  0.00    -0.206 F 
ATOM     84  C   UNL A   1      45.718  34.827  32.107  1.00  0.00     0.006 A 
ENDBRANCH  60  77
ENDBRANCH  34  35
ENDBRANCH  26  29
ENDBRANCH  24  25
ENDBRANCH  23  24
ENDBRANCH   1  23
TORSDOF 13
ENDMDL
