MODEL 1
REMARK VINA RESULT:     -11.1      0.000      0.000
REMARK SMILES CC(C)[C@@H](CCNC(=O)N1C[C@@H](C)[C@H](C)C1)CCC(=O)NCCCNC(=O)c1ccc(-c2c3nc(c(-c4c(F)cccc4F)c4ccc([nH]4)c(-c4c(F)cccc4F)c4nc(c(-c5c(F)cccc5F)c5ccc2[nH]5)C=C4)C=C3)cc1
REMARK SMILES IDX 19 1 20 2 21 3 18 5 17 6 4 7 2 8 1 9 3 10 5 11 6 12 7 13
REMARK SMILES IDX 8 14 9 16 10 17 11 18 16 19 12 20 14 21 13 22 15 23 22 24
REMARK SMILES IDX 23 25 24 26 25 27 26 28 27 30 28 31 29 32 81 33 30 34 80 35
REMARK SMILES IDX 31 36 32 37 33 38 74 39 34 40 79 41 73 42 75 43 35 44 78 45
REMARK SMILES IDX 72 46 71 47 36 49 62 50 45 51 61 52 46 53 49 54 60 55 76 56
REMARK SMILES IDX 47 57 48 58 59 60 77 61 50 62 37 63 38 64 43 65 39 66 40 67
REMARK SMILES IDX 42 68 44 69 41 70 63 71 64 72 69 73 65 74 66 75 68 76 70 77
REMARK SMILES IDX 67 78 51 79 52 80 57 81 53 82 54 83 56 84 58 85 55 86
REMARK H PARENT 21 4 7 15 25 29 75 48 49 59
REMARK Flexibility Score: inf
ROOT
ATOM      1  C   UNL A   1      36.816  23.071  25.412  1.00  0.00     0.220 C 
ATOM      2  O   UNL A   1      37.322  23.924  26.145  1.00  0.00    -0.275 OA
ATOM      3  N   UNL A   1      37.040  21.766  25.731  1.00  0.00    -0.356 N 
ATOM      4  H   UNL A   1      37.520  21.630  26.580  1.00  0.00     0.163 HD
ENDROOT
BRANCH   1   5
ATOM      5  C   UNL A   1      35.911  23.476  24.256  1.00  0.00     0.100 C 
BRANCH   5   6
ATOM      6  C   UNL A   1      34.388  23.385  24.474  1.00  0.00     0.014 C 
BRANCH   6   7
ATOM      7  C   UNL A   1      33.627  22.370  23.594  1.00  0.00    -0.006 C 
BRANCH   7   8
ATOM      8  C   UNL A   1      32.449  21.572  24.242  1.00  0.00    -0.014 C 
ATOM      9  C   UNL A   1      32.936  20.192  24.723  1.00  0.00     0.007 C 
ATOM     10  C   UNL A   1      31.717  22.245  25.402  1.00  0.00     0.007 C 
ENDBRANCH   7   8
BRANCH   7  11
ATOM     11  C   UNL A   1      33.253  22.970  22.211  1.00  0.00     0.025 C 
BRANCH  11  12
ATOM     12  C   UNL A   1      33.121  24.488  22.119  1.00  0.00     0.118 C 
BRANCH  12  13
ATOM     13  N   UNL A   1      31.748  24.917  22.257  1.00  0.00    -0.338 N 
ATOM     14  C   UNL A   1      31.117  25.309  23.392  1.00  0.00     0.317 C 
ATOM     15  H   UNL A   1      31.209  24.925  21.433  1.00  0.00     0.165 HD
ATOM     16  O   UNL A   1      29.921  25.045  23.501  1.00  0.00    -0.249 OA
ATOM     17  N   UNL A   1      31.826  25.976  24.349  1.00  0.00    -0.324 N 
ATOM     18  C   UNL A   1      31.281  26.190  25.669  1.00  0.00     0.125 C 
ATOM     19  C   UNL A   1      32.980  26.833  24.135  1.00  0.00     0.125 C 
ATOM     20  C   UNL A   1      31.578  27.658  25.956  1.00  0.00     0.010 C 
ATOM     21  C   UNL A   1      32.879  27.947  25.182  1.00  0.00     0.010 C 
ATOM     22  C   UNL A   1      31.719  27.930  27.446  1.00  0.00     0.010 C 
ATOM     23  C   UNL A   1      32.874  29.327  24.535  1.00  0.00     0.010 C 
ENDBRANCH  12  13
ENDBRANCH  11  12
ENDBRANCH   7  11
ENDBRANCH   6   7
ENDBRANCH   5   6
ENDBRANCH   1   5
BRANCH   3  24
ATOM     24  C   UNL A   1      36.695  20.542  25.035  1.00  0.00     0.117 C 
BRANCH  24  25
ATOM     25  C   UNL A   1      37.893  19.591  24.995  1.00  0.00     0.042 C 
BRANCH  25  26
ATOM     26  C   UNL A   1      39.095  20.110  25.751  1.00  0.00     0.118 C 
BRANCH  26  27
ATOM     27  N   UNL A   1      40.122  19.085  25.898  1.00  0.00    -0.352 N 
ATOM     28  C   UNL A   1      41.479  19.201  26.093  1.00  0.00     0.251 C 
ATOM     29  H   UNL A   1      39.790  18.159  25.849  1.00  0.00     0.163 HD
ATOM     30  O   UNL A   1      42.191  18.213  25.974  1.00  0.00    -0.269 OA
BRANCH  28  31
ATOM     31  C   UNL A   1      42.082  20.514  26.418  1.00  0.00     0.039 A 
ATOM     32  C   UNL A   1      42.467  21.363  25.376  1.00  0.00     0.014 A 
ATOM     33  C   UNL A   1      42.276  20.911  27.741  1.00  0.00     0.014 A 
ATOM     34  C   UNL A   1      42.975  22.632  25.667  1.00  0.00     0.010 A 
ATOM     35  C   UNL A   1      42.651  22.216  28.027  1.00  0.00     0.010 A 
ATOM     36  C   UNL A   1      43.028  23.084  26.994  1.00  0.00    -0.014 A 
BRANCH  36  37
ATOM     37  C   UNL A   1      43.505  24.446  27.342  1.00  0.00     0.031 A 
ATOM     38  C   UNL A   1      42.520  25.489  27.798  1.00  0.00     0.074 A 
ATOM     39  C   UNL A   1      44.802  24.764  27.172  1.00  0.00     0.049 A 
ATOM     40  N   UNL A   1      42.716  26.756  28.061  1.00  0.00    -0.248 NA
ATOM     41  C   UNL A   1      41.118  25.059  27.934  1.00  0.00     0.031 C 
ATOM     42  C   UNL A   1      45.843  23.854  26.692  1.00  0.00     0.029 A 
ATOM     43  N   UNL A   1      45.466  25.946  27.382  1.00  0.00    -0.354 N 
ATOM     44  C   UNL A   1      41.463  27.271  28.372  1.00  0.00     0.074 A 
ATOM     45  C   UNL A   1      40.506  26.206  28.183  1.00  0.00     0.031 C 
ATOM     46  C   UNL A   1      47.022  24.496  26.692  1.00  0.00     0.029 A 
ATOM     47  C   UNL A   1      46.812  25.874  27.122  1.00  0.00     0.049 A 
ATOM     48  H   UNL A   1      45.019  26.767  27.691  1.00  0.00     0.167 HD
ATOM     49  C   UNL A   1      41.141  28.513  28.808  1.00  0.00     0.037 A 
ATOM     50  C   UNL A   1      47.768  26.817  27.220  1.00  0.00     0.037 A 
ATOM     51  C   UNL A   1      42.103  29.562  29.013  1.00  0.00     0.049 A 
ATOM     52  C   UNL A   1      47.385  28.198  27.674  1.00  0.00     0.074 A 
ATOM     53  C   UNL A   1      41.899  30.839  29.503  1.00  0.00     0.029 A 
ATOM     54  N   UNL A   1      43.457  29.453  28.729  1.00  0.00    -0.354 N 
ATOM     55  N   UNL A   1      46.209  28.656  28.031  1.00  0.00    -0.248 NA
ATOM     56  C   UNL A   1      48.463  29.193  27.738  1.00  0.00     0.031 C 
ATOM     57  C   UNL A   1      43.120  31.520  29.464  1.00  0.00     0.029 A 
ATOM     58  C   UNL A   1      44.097  30.650  29.005  1.00  0.00     0.049 A 
ATOM     59  H   UNL A   1      43.899  28.645  28.381  1.00  0.00     0.167 HD
ATOM     60  C   UNL A   1      46.410  29.982  28.393  1.00  0.00     0.074 A 
ATOM     61  C   UNL A   1      47.824  30.250  28.221  1.00  0.00     0.031 C 
ATOM     62  C   UNL A   1      45.507  30.894  28.830  1.00  0.00     0.037 A 
BRANCH  49  63
ATOM     63  C   UNL A   1      39.689  28.787  29.083  1.00  0.00     0.057 A 
ATOM     64  C   UNL A   1      38.826  29.281  28.093  1.00  0.00     0.134 A 
ATOM     65  C   UNL A   1      39.146  28.573  30.356  1.00  0.00     0.134 A 
ATOM     66  F   UNL A   1      39.280  29.521  26.853  1.00  0.00    -0.206 F 
ATOM     67  C   UNL A   1      37.497  29.602  28.372  1.00  0.00     0.040 A 
ATOM     68  C   UNL A   1      37.808  28.856  30.638  1.00  0.00     0.040 A 
ATOM     69  F   UNL A   1      39.908  28.095  31.351  1.00  0.00    -0.206 F 
ATOM     70  C   UNL A   1      36.982  29.387  29.648  1.00  0.00     0.006 A 
ENDBRANCH  49  63
BRANCH  50  71
ATOM     71  C   UNL A   1      49.183  26.472  26.932  1.00  0.00     0.057 A 
ATOM     72  C   UNL A   1      50.038  26.053  27.959  1.00  0.00     0.134 A 
ATOM     73  C   UNL A   1      49.713  26.535  25.638  1.00  0.00     0.134 A 
ATOM     74  F   UNL A   1      49.592  25.986  29.222  1.00  0.00    -0.206 F 
ATOM     75  C   UNL A   1      51.371  25.723  27.713  1.00  0.00     0.040 A 
ATOM     76  C   UNL A   1      51.038  26.184  25.373  1.00  0.00     0.040 A 
ATOM     77  F   UNL A   1      48.944  26.918  24.608  1.00  0.00    -0.206 F 
ATOM     78  C   UNL A   1      51.872  25.782  26.415  1.00  0.00     0.006 A 
ENDBRANCH  50  71
BRANCH  62  79
ATOM     79  C   UNL A   1      46.028  32.256  29.188  1.00  0.00     0.057 A 
ATOM     80  C   UNL A   1      46.056  33.307  28.262  1.00  0.00     0.134 A 
ATOM     81  C   UNL A   1      46.465  32.529  30.490  1.00  0.00     0.134 A 
ATOM     82  F   UNL A   1      45.664  33.107  26.995  1.00  0.00    -0.206 F 
ATOM     83  C   UNL A   1      46.522  34.575  28.614  1.00  0.00     0.040 A 
ATOM     84  C   UNL A   1      46.904  33.800  30.862  1.00  0.00     0.040 A 
ATOM     85  F   UNL A   1      46.456  31.569  31.428  1.00  0.00    -0.206 F 
ATOM     86  C   UNL A   1      46.940  34.826  29.921  1.00  0.00     0.006 A 
ENDBRANCH  62  79
ENDBRANCH  36  37
ENDBRANCH  28  31
ENDBRANCH  26  27
ENDBRANCH  25  26
ENDBRANCH  24  25
ENDBRANCH   3  24
TORSDOF 16
ENDMDL
MODEL 2
REMARK VINA RESULT:     -11.1      1.474      6.306
REMARK SMILES CC(C)[C@@H](CCNC(=O)N1C[C@@H](C)[C@H](C)C1)CCC(=O)NCCCNC(=O)c1ccc(-c2c3nc(c(-c4c(F)cccc4F)c4ccc([nH]4)c(-c4c(F)cccc4F)c4nc(c(-c5c(F)cccc5F)c5ccc2[nH]5)C=C4)C=C3)cc1
REMARK SMILES IDX 19 1 20 2 21 3 18 5 17 6 4 7 2 8 1 9 3 10 5 11 6 12 7 13
REMARK SMILES IDX 8 14 9 16 10 17 11 18 16 19 12 20 14 21 13 22 15 23 22 24
REMARK SMILES IDX 23 25 24 26 25 27 26 28 27 30 28 31 29 32 81 33 30 34 80 35
REMARK SMILES IDX 31 36 32 37 33 38 74 39 34 40 79 41 73 42 75 43 35 44 78 45
REMARK SMILES IDX 72 46 71 47 36 49 62 50 45 51 61 52 46 53 49 54 60 55 76 56
REMARK SMILES IDX 47 57 48 58 59 60 77 61 50 62 37 63 38 64 43 65 39 66 40 67
REMARK SMILES IDX 42 68 44 69 41 70 63 71 64 72 69 73 65 74 66 75 68 76 70 77
REMARK SMILES IDX 67 78 51 79 52 80 57 81 53 82 54 83 56 84 58 85 55 86
REMARK H PARENT 21 4 7 15 25 29 75 48 49 59
REMARK Flexibility Score: inf
ROOT
ATOM      1  C   UNL A   1      37.223  23.257  25.607  1.00  0.00     0.220 C 
ATOM      2  O   UNL A   1      37.935  24.186  25.997  1.00  0.00    -0.275 OA
ATOM      3  N   UNL A   1      37.855  22.140  25.150  1.00  0.00    -0.356 N 
ATOM      4  H   UNL A   1      38.833  22.151  25.259  1.00  0.00     0.163 HD
ENDROOT
BRANCH   1   5
ATOM      5  C   UNL A   1      35.707  23.338  25.719  1.00  0.00     0.100 C 
BRANCH   5   6
ATOM      6  C   UNL A   1      34.905  23.570  24.423  1.00  0.00     0.014 C 
BRANCH   6   7
ATOM      7  C   UNL A   1      34.085  22.372  23.897  1.00  0.00    -0.006 C 
BRANCH   7   8
ATOM      8  C   UNL A   1      33.484  21.376  24.941  1.00  0.00    -0.014 C 
ATOM      9  C   UNL A   1      31.985  21.659  25.150  1.00  0.00     0.007 C 
ATOM     10  C   UNL A   1      33.646  19.886  24.643  1.00  0.00     0.007 C 
ENDBRANCH   7   8
BRANCH   7  11
ATOM     11  C   UNL A   1      33.053  22.807  22.821  1.00  0.00     0.025 C 
BRANCH  11  12
ATOM     12  C   UNL A   1      33.032  24.281  22.426  1.00  0.00     0.118 C 
BRANCH  12  13
ATOM     13  N   UNL A   1      31.698  24.833  22.477  1.00  0.00    -0.338 N 
ATOM     14  C   UNL A   1      31.055  25.336  23.561  1.00  0.00     0.317 C 
ATOM     15  H   UNL A   1      31.198  24.845  21.629  1.00  0.00     0.165 HD
ATOM     16  O   UNL A   1      29.837  25.181  23.626  1.00  0.00    -0.249 OA
ATOM     17  N   UNL A   1      31.779  25.987  24.518  1.00  0.00    -0.324 N 
ATOM     18  C   UNL A   1      31.197  26.315  25.800  1.00  0.00     0.125 C 
ATOM     19  C   UNL A   1      33.011  26.730  24.319  1.00  0.00     0.125 C 
ATOM     20  C   UNL A   1      31.610  27.764  26.031  1.00  0.00     0.010 C 
ATOM     21  C   UNL A   1      32.964  27.900  25.307  1.00  0.00     0.010 C 
ATOM     22  C   UNL A   1      31.710  28.100  27.511  1.00  0.00     0.010 C 
ATOM     23  C   UNL A   1      33.109  29.241  24.596  1.00  0.00     0.010 C 
ENDBRANCH  12  13
ENDBRANCH  11  12
ENDBRANCH   7  11
ENDBRANCH   6   7
ENDBRANCH   5   6
ENDBRANCH   1   5
BRANCH   3  24
ATOM     24  C   UNL A   1      37.335  20.938  24.529  1.00  0.00     0.117 C 
BRANCH  24  25
ATOM     25  C   UNL A   1      38.228  19.738  24.849  1.00  0.00     0.042 C 
BRANCH  25  26
ATOM     26  C   UNL A   1      39.180  19.989  25.997  1.00  0.00     0.118 C 
BRANCH  26  27
ATOM     27  N   UNL A   1      40.383  19.173  25.887  1.00  0.00    -0.352 N 
ATOM     28  C   UNL A   1      41.710  19.516  26.008  1.00  0.00     0.251 C 
ATOM     29  H   UNL A   1      40.219  18.220  25.696  1.00  0.00     0.163 HD
ATOM     30  O   UNL A   1      42.572  18.717  25.665  1.00  0.00    -0.269 OA
BRANCH  28  31
ATOM     31  C   UNL A   1      42.098  20.850  26.522  1.00  0.00     0.039 A 
ATOM     32  C   UNL A   1      42.473  21.846  25.616  1.00  0.00     0.014 A 
ATOM     33  C   UNL A   1      42.100  21.122  27.890  1.00  0.00     0.014 A 
ATOM     34  C   UNL A   1      42.776  23.128  26.081  1.00  0.00     0.010 A 
ATOM     35  C   UNL A   1      42.268  22.424  28.338  1.00  0.00     0.010 A 
ATOM     36  C   UNL A   1      42.632  23.438  27.442  1.00  0.00    -0.014 A 
BRANCH  36  37
ATOM     37  C   UNL A   1      42.886  24.802  27.969  1.00  0.00     0.031 A 
ATOM     38  C   UNL A   1      44.284  25.208  28.351  1.00  0.00     0.074 A 
ATOM     39  C   UNL A   1      41.854  25.642  28.177  1.00  0.00     0.049 A 
ATOM     40  N   UNL A   1      44.703  26.314  28.911  1.00  0.00    -0.248 NA
ATOM     41  C   UNL A   1      45.348  24.219  28.111  1.00  0.00     0.031 C 
ATOM     42  C   UNL A   1      40.449  25.346  27.890  1.00  0.00     0.029 A 
ATOM     43  N   UNL A   1      41.829  26.916  28.682  1.00  0.00    -0.354 N 
ATOM     44  C   UNL A   1      46.068  26.141  29.105  1.00  0.00     0.074 A 
ATOM     45  C   UNL A   1      46.391  24.798  28.683  1.00  0.00     0.031 C 
ATOM     46  C   UNL A   1      39.705  26.427  28.177  1.00  0.00     0.029 A 
ATOM     47  C   UNL A   1      40.572  27.470  28.714  1.00  0.00     0.049 A 
ATOM     48  H   UNL A   1      42.635  27.390  28.991  1.00  0.00     0.167 HD
ATOM     49  C   UNL A   1      46.979  27.033  29.563  1.00  0.00     0.037 A 
ATOM     50  C   UNL A   1      40.168  28.684  29.132  1.00  0.00     0.037 A 
ATOM     51  C   UNL A   1      46.653  28.375  29.963  1.00  0.00     0.049 A 
ATOM     52  C   UNL A   1      41.189  29.647  29.668  1.00  0.00     0.074 A 
ATOM     53  C   UNL A   1      47.500  29.381  30.390  1.00  0.00     0.029 A 
ATOM     54  N   UNL A   1      45.366  28.896  29.991  1.00  0.00    -0.354 N 
ATOM     55  N   UNL A   1      42.488  29.499  29.783  1.00  0.00    -0.248 NA
ATOM     56  C   UNL A   1      40.689  30.947  30.133  1.00  0.00     0.031 C 
ATOM     57  C   UNL A   1      46.721  30.492  30.727  1.00  0.00     0.029 A 
ATOM     58  C   UNL A   1      45.393  30.200  30.455  1.00  0.00     0.049 A 
ATOM     59  H   UNL A   1      44.553  28.410  29.719  1.00  0.00     0.167 HD
ATOM     60  C   UNL A   1      42.963  30.696  30.303  1.00  0.00     0.074 A 
ATOM     61  C   UNL A   1      41.814  31.563  30.470  1.00  0.00     0.031 C 
ATOM     62  C   UNL A   1      44.237  31.047  30.611  1.00  0.00     0.037 A 
BRANCH  49  63
ATOM     63  C   UNL A   1      48.406  26.568  29.655  1.00  0.00     0.057 A 
ATOM     64  C   UNL A   1      48.914  25.953  30.809  1.00  0.00     0.134 A 
ATOM     65  C   UNL A   1      49.292  26.753  28.585  1.00  0.00     0.134 A 
ATOM     66  F   UNL A   1      48.126  25.754  31.877  1.00  0.00    -0.206 F 
ATOM     67  C   UNL A   1      50.258  25.589  30.915  1.00  0.00     0.040 A 
ATOM     68  C   UNL A   1      50.629  26.360  28.666  1.00  0.00     0.040 A 
ATOM     69  F   UNL A   1      48.876  27.328  27.447  1.00  0.00    -0.206 F 
ATOM     70  C   UNL A   1      51.120  25.790  29.840  1.00  0.00     0.006 A 
ENDBRANCH  49  63
BRANCH  50  71
ATOM     71  C   UNL A   1      38.740  29.073  29.010  1.00  0.00     0.057 A 
ATOM     72  C   UNL A   1      37.877  28.976  30.108  1.00  0.00     0.134 A 
ATOM     73  C   UNL A   1      38.205  29.563  27.812  1.00  0.00     0.134 A 
ATOM     74  F   UNL A   1      38.328  28.501  31.279  1.00  0.00    -0.206 F 
ATOM     75  C   UNL A   1      36.533  29.337  30.018  1.00  0.00     0.040 A 
ATOM     76  C   UNL A   1      36.868  29.951  27.714  1.00  0.00     0.040 A 
ATOM     77  F   UNL A   1      38.982  29.692  26.726  1.00  0.00    -0.206 F 
ATOM     78  C   UNL A   1      36.026  29.833  28.818  1.00  0.00     0.006 A 
ENDBRANCH  50  71
BRANCH  62  79
ATOM     79  C   UNL A   1      44.457  32.440  31.126  1.00  0.00     0.057 A 
ATOM     80  C   UNL A   1      44.653  33.527  30.264  1.00  0.00     0.134 A 
ATOM     81  C   UNL A   1      44.428  32.701  32.501  1.00  0.00     0.134 A 
ATOM     82  F   UNL A   1      44.706  33.342  28.937  1.00  0.00    -0.206 F 
ATOM     83  C   UNL A   1      44.835  34.821  30.755  1.00  0.00     0.040 A 
ATOM     84  C   UNL A   1      44.578  33.994  33.002  1.00  0.00     0.040 A 
ATOM     85  F   UNL A   1      44.235  31.706  33.381  1.00  0.00    -0.206 F 
ATOM     86  C   UNL A   1      44.788  35.058  32.129  1.00  0.00     0.006 A 
ENDBRANCH  62  79
ENDBRANCH  36  37
ENDBRANCH  28  31
ENDBRANCH  26  27
ENDBRANCH  25  26
ENDBRANCH  24  25
ENDBRANCH   3  24
TORSDOF 16
ENDMDL
MODEL 3
REMARK VINA RESULT:     -11.0      4.836      9.157
REMARK SMILES CC(C)[C@@H](CCNC(=O)N1C[C@@H](C)[C@H](C)C1)CCC(=O)NCCCNC(=O)c1ccc(-c2c3nc(c(-c4c(F)cccc4F)c4ccc([nH]4)c(-c4c(F)cccc4F)c4nc(c(-c5c(F)cccc5F)c5ccc2[nH]5)C=C4)C=C3)cc1
REMARK SMILES IDX 19 1 20 2 21 3 18 5 17 6 4 7 2 8 1 9 3 10 5 11 6 12 7 13
REMARK SMILES IDX 8 14 9 16 10 17 11 18 16 19 12 20 14 21 13 22 15 23 22 24
REMARK SMILES IDX 23 25 24 26 25 27 26 28 27 30 28 31 29 32 81 33 30 34 80 35
REMARK SMILES IDX 31 36 32 37 33 38 74 39 34 40 79 41 73 42 75 43 35 44 78 45
REMARK SMILES IDX 72 46 71 47 36 49 62 50 45 51 61 52 46 53 49 54 60 55 76 56
REMARK SMILES IDX 47 57 48 58 59 60 77 61 50 62 37 63 38 64 43 65 39 66 40 67
REMARK SMILES IDX 42 68 44 69 41 70 63 71 64 72 69 73 65 74 66 75 68 76 70 77
REMARK SMILES IDX 67 78 51 79 52 80 57 81 53 82 54 83 56 84 58 85 55 86
REMARK H PARENT 21 4 7 15 25 29 75 48 49 59
REMARK Flexibility Score: inf
ROOT
ATOM      1  C   UNL A   1      33.986  29.434  27.106  1.00  0.00     0.220 C 
ATOM      2  O   UNL A   1      34.891  29.275  27.929  1.00  0.00    -0.275 OA
ATOM      3  N   UNL A   1      32.986  30.297  27.441  1.00  0.00    -0.356 N 
ATOM      4  H   UNL A   1      33.133  30.783  28.284  1.00  0.00     0.163 HD
ENDROOT
BRANCH   1   5
ATOM      5  C   UNL A   1      34.043  28.754  25.745  1.00  0.00     0.100 C 
BRANCH   5   6
ATOM      6  C   UNL A   1      33.485  27.321  25.637  1.00  0.00     0.014 C 
BRANCH   6   7
ATOM      7  C   UNL A   1      32.137  27.162  24.901  1.00  0.00    -0.006 C 
BRANCH   7   8
ATOM      8  C   UNL A   1      32.156  26.592  23.445  1.00  0.00    -0.014 C 
ATOM      9  C   UNL A   1      31.059  27.259  22.594  1.00  0.00     0.007 C 
ATOM     10  C   UNL A   1      33.475  26.697  22.682  1.00  0.00     0.007 C 
ENDBRANCH   7   8
BRANCH   7  11
ATOM     11  C   UNL A   1      31.066  26.480  25.796  1.00  0.00     0.025 C 
BRANCH  11  12
ATOM     12  C   UNL A   1      31.011  24.955  25.784  1.00  0.00     0.118 C 
BRANCH  12  13
ATOM     13  N   UNL A   1      31.564  24.387  26.992  1.00  0.00    -0.338 N 
ATOM     14  C   UNL A   1      32.260  23.229  27.115  1.00  0.00     0.317 C 
ATOM     15  H   UNL A   1      31.418  24.898  27.821  1.00  0.00     0.165 HD
ATOM     16  O   UNL A   1      32.121  22.586  28.154  1.00  0.00    -0.249 OA
ATOM     17  N   UNL A   1      33.078  22.836  26.095  1.00  0.00    -0.324 N 
ATOM     18  C   UNL A   1      33.639  21.505  26.059  1.00  0.00     0.125 C 
ATOM     19  C   UNL A   1      33.770  23.700  25.155  1.00  0.00     0.125 C 
ATOM     20  C   UNL A   1      35.106  21.734  25.713  1.00  0.00     0.010 C 
ATOM     21  C   UNL A   1      35.104  23.011  24.850  1.00  0.00     0.010 C 
ATOM     22  C   UNL A   1      35.712  20.544  24.982  1.00  0.00     0.010 C 
ATOM     23  C   UNL A   1      36.289  23.920  25.158  1.00  0.00     0.010 C 
ENDBRANCH  12  13
ENDBRANCH  11  12
ENDBRANCH   7  11
ENDBRANCH   6   7
ENDBRANCH   5   6
ENDBRANCH   1   5
BRANCH   3  24
ATOM     24  C   UNL A   1      31.743  30.621  26.770  1.00  0.00     0.117 C 
BRANCH  24  25
ATOM     25  C   UNL A   1      31.409  32.104  26.946  1.00  0.00     0.042 C 
BRANCH  25  26
ATOM     26  C   UNL A   1      32.605  33.013  26.769  1.00  0.00     0.118 C 
BRANCH  26  27
ATOM     27  N   UNL A   1      32.511  34.197  27.615  1.00  0.00    -0.352 N 
ATOM     28  C   UNL A   1      33.191  34.531  28.763  1.00  0.00     0.251 C 
ATOM     29  H   UNL A   1      31.853  34.866  27.315  1.00  0.00     0.163 HD
ATOM     30  O   UNL A   1      32.805  35.477  29.437  1.00  0.00    -0.269 OA
BRANCH  28  31
ATOM     31  C   UNL A   1      34.364  33.739  29.200  1.00  0.00     0.039 A 
ATOM     32  C   UNL A   1      35.648  34.215  28.920  1.00  0.00     0.014 A 
ATOM     33  C   UNL A   1      34.207  32.530  29.876  1.00  0.00     0.014 A 
ATOM     34  C   UNL A   1      36.765  33.514  29.385  1.00  0.00     0.010 A 
ATOM     35  C   UNL A   1      35.305  31.908  30.452  1.00  0.00     0.010 A 
ATOM     36  C   UNL A   1      36.599  32.379  30.193  1.00  0.00    -0.014 A 
BRANCH  36  37
ATOM     37  C   UNL A   1      37.756  31.640  30.756  1.00  0.00     0.031 A 
ATOM     38  C   UNL A   1      38.235  31.949  32.149  1.00  0.00     0.074 A 
ATOM     39  C   UNL A   1      38.420  30.753  29.990  1.00  0.00     0.049 A 
ATOM     40  N   UNL A   1      39.276  31.484  32.791  1.00  0.00    -0.248 NA
ATOM     41  C   UNL A   1      37.462  32.948  32.907  1.00  0.00     0.031 C 
ATOM     42  C   UNL A   1      38.082  30.403  28.610  1.00  0.00     0.029 A 
ATOM     43  N   UNL A   1      39.524  29.987  30.266  1.00  0.00    -0.354 N 
ATOM     44  C   UNL A   1      39.291  32.149  34.011  1.00  0.00     0.074 A 
ATOM     45  C   UNL A   1      38.209  33.105  33.987  1.00  0.00     0.031 C 
ATOM     46  C   UNL A   1      38.928  29.455  28.177  1.00  0.00     0.029 A 
ATOM     47  C   UNL A   1      39.898  29.169  29.228  1.00  0.00     0.049 A 
ATOM     48  H   UNL A   1      40.002  30.020  31.126  1.00  0.00     0.167 HD
ATOM     49  C   UNL A   1      40.112  31.957  35.071  1.00  0.00     0.037 A 
ATOM     50  C   UNL A   1      40.911  28.288  29.138  1.00  0.00     0.037 A 
ATOM     51  C   UNL A   1      41.175  30.989  35.094  1.00  0.00     0.049 A 
ATOM     52  C   UNL A   1      41.832  28.113  30.314  1.00  0.00     0.074 A 
ATOM     53  C   UNL A   1      42.032  30.669  36.131  1.00  0.00     0.029 A 
ATOM     54  N   UNL A   1      41.529  30.185  34.019  1.00  0.00    -0.354 N 
ATOM     55  N   UNL A   1      41.795  28.696  31.488  1.00  0.00    -0.248 NA
ATOM     56  C   UNL A   1      42.935  27.157  30.151  1.00  0.00     0.031 C 
ATOM     57  C   UNL A   1      42.940  29.712  35.666  1.00  0.00     0.029 A 
ATOM     58  C   UNL A   1      42.611  29.390  34.358  1.00  0.00     0.049 A 
ATOM     59  H   UNL A   1      41.077  30.179  33.144  1.00  0.00     0.167 HD
ATOM     60  C   UNL A   1      42.848  28.157  32.215  1.00  0.00     0.074 A 
ATOM     61  C   UNL A   1      43.497  27.191  31.351  1.00  0.00     0.031 C 
ATOM     62  C   UNL A   1      43.240  28.432  33.484  1.00  0.00     0.037 A 
BRANCH  49  63
ATOM     63  C   UNL A   1      39.883  32.821  36.280  1.00  0.00     0.057 A 
ATOM     64  C   UNL A   1      38.923  32.501  37.252  1.00  0.00     0.134 A 
ATOM     65  C   UNL A   1      40.616  34.000  36.469  1.00  0.00     0.134 A 
ATOM     66  F   UNL A   1      38.176  31.392  37.130  1.00  0.00    -0.206 F 
ATOM     67  C   UNL A   1      38.664  33.344  38.334  1.00  0.00     0.040 A 
ATOM     68  C   UNL A   1      40.391  34.834  37.567  1.00  0.00     0.040 A 
ATOM     69  F   UNL A   1      41.555  34.368  35.586  1.00  0.00    -0.206 F 
ATOM     70  C   UNL A   1      39.402  34.514  38.495  1.00  0.00     0.006 A 
ENDBRANCH  49  63
BRANCH  50  71
ATOM     71  C   UNL A   1      41.075  27.468  27.911  1.00  0.00     0.057 A 
ATOM     72  C   UNL A   1      41.857  27.927  26.845  1.00  0.00     0.134 A 
ATOM     73  C   UNL A   1      40.476  26.209  27.776  1.00  0.00     0.134 A 
ATOM     74  F   UNL A   1      42.445  29.131  26.910  1.00  0.00    -0.206 F 
ATOM     75  C   UNL A   1      42.026  27.174  25.682  1.00  0.00     0.040 A 
ATOM     76  C   UNL A   1      40.656  25.434  26.629  1.00  0.00     0.040 A 
ATOM     77  F   UNL A   1      39.724  25.706  28.766  1.00  0.00    -0.206 F 
ATOM     78  C   UNL A   1      41.429  25.920  25.575  1.00  0.00     0.006 A 
ENDBRANCH  50  71
BRANCH  62  79
ATOM     79  C   UNL A   1      44.404  27.653  34.025  1.00  0.00     0.057 A 
ATOM     80  C   UNL A   1      45.716  28.141  33.966  1.00  0.00     0.134 A 
ATOM     81  C   UNL A   1      44.201  26.418  34.654  1.00  0.00     0.134 A 
ATOM     82  F   UNL A   1      45.980  29.310  33.364  1.00  0.00    -0.206 F 
ATOM     83  C   UNL A   1      46.786  27.417  34.493  1.00  0.00     0.040 A 
ATOM     84  C   UNL A   1      45.258  25.700  35.212  1.00  0.00     0.040 A 
ATOM     85  F   UNL A   1      42.967  25.898  34.753  1.00  0.00    -0.206 F 
ATOM     86  C   UNL A   1      46.557  26.196  35.127  1.00  0.00     0.006 A 
ENDBRANCH  62  79
ENDBRANCH  36  37
ENDBRANCH  28  31
ENDBRANCH  26  27
ENDBRANCH  25  26
ENDBRANCH  24  25
ENDBRANCH   3  24
TORSDOF 16
ENDMDL
