MODEL 1
REMARK VINA RESULT:     -14.0      0.000      0.000
REMARK SMILES O=C(COc1ccccc1/C=C1/SC(=O)N(c2ccc(F)cc2)C1=O)NCCCNC(=O)c1ccc(-c2c3nc(c(-c4c(F)cccc4F)c4ccc([nH]4)c(-c4c(F)cccc4F)c4nc(c(-c5c(F)cccc5F)c5ccc2[nH]5)C=C4)C=C3)cc1
REMARK SMILES IDX 27 1 26 2 1 3 2 4 3 6 4 7 5 8 6 9 10 10 7 11 9 12 8 13 11 14
REMARK SMILES IDX 12 15 13 16 24 17 14 18 16 19 25 20 15 21 17 22 18 23 23 24
REMARK SMILES IDX 19 25 22 26 20 27 21 28 28 29 29 30 30 31 31 32 32 34 33 35
REMARK SMILES IDX 34 36 86 37 35 38 85 39 36 40 37 41 38 42 79 43 39 44 84 45
REMARK SMILES IDX 78 46 80 47 40 48 83 49 77 50 76 51 41 53 67 54 50 55 66 56
REMARK SMILES IDX 51 57 54 58 65 59 81 60 52 61 53 62 64 64 82 65 55 66 42 67
REMARK SMILES IDX 43 68 48 69 44 70 45 71 47 72 49 73 46 74 68 75 69 76 74 77
REMARK SMILES IDX 70 78 71 79 73 80 75 81 72 82 56 83 57 84 62 85 58 86 59 87
REMARK SMILES IDX 61 88 63 89 60 90
REMARK H PARENT 26 5 30 33 80 52 54 63
REMARK Flexibility Score: inf
ROOT
ATOM      1  C   UNL A   1      31.827  29.867  26.528  1.00  0.00     0.117 C 
ENDROOT
BRANCH   1   2
ATOM      2  N   UNL A   1      31.041  28.469  25.171  1.00  0.00    -0.353 N 
ATOM      3  O   UNL A   1      30.417  28.770  22.786  1.00  0.00    -0.271 OA
ATOM      4  C   UNL A   1      30.633  28.078  23.776  1.00  0.00     0.257 C 
ATOM      5  H   UNL A   1      30.840  27.676  25.719  1.00  0.00     0.163 HD
BRANCH   4   6
ATOM      6  C   UNL A   1      30.510  26.570  23.636  1.00  0.00     0.329 C 
BRANCH   6   7
ATOM      7  O   UNL A   1      31.766  25.956  23.830  1.00  0.00    -0.483 OA
BRANCH   7   8
ATOM      8  C   UNL A   1      31.786  24.907  24.722  1.00  0.00     0.127 A 
ATOM      9  C   UNL A   1      30.548  24.748  25.353  1.00  0.00     0.047 A 
ATOM     10  C   UNL A   1      32.944  24.230  25.197  1.00  0.00     0.018 A 
ATOM     11  C   UNL A   1      30.444  23.981  26.504  1.00  0.00     0.004 A 
ATOM     12  C   UNL A   1      32.817  23.494  26.383  1.00  0.00     0.012 A 
ATOM     13  C   UNL A   1      31.584  23.388  27.038  1.00  0.00     0.001 A 
BRANCH  10  14
ATOM     14  C   UNL A   1      34.298  24.285  24.590  1.00  0.00     0.033 C 
ATOM     15  C   UNL A   1      34.801  23.214  23.939  1.00  0.00     0.084 C 
ATOM     16  S   UNL A   1      37.002  22.740  24.292  1.00  0.00    -0.022 SA
ATOM     17  C   UNL A   1      33.723  21.584  23.970  1.00  0.00     0.272 C 
ATOM     18  C   UNL A   1      36.506  20.499  24.829  1.00  0.00     0.298 C 
ATOM     19  N   UNL A   1      34.749  20.180  24.480  1.00  0.00    -0.236 N 
ATOM     20  O   UNL A   1      32.558  21.557  23.595  1.00  0.00    -0.268 OA
ATOM     21  O   UNL A   1      37.354  19.805  25.376  1.00  0.00    -0.260 OA
BRANCH  19  22
ATOM     22  C   UNL A   1      34.118  18.899  24.629  1.00  0.00     0.053 A 
ATOM     23  C   UNL A   1      34.520  17.815  23.823  1.00  0.00     0.030 A 
ATOM     24  C   UNL A   1      33.111  18.673  25.569  1.00  0.00     0.030 A 
ATOM     25  C   UNL A   1      33.945  16.547  23.944  1.00  0.00     0.041 A 
ATOM     26  C   UNL A   1      32.528  17.400  25.689  1.00  0.00     0.041 A 
ATOM     27  C   UNL A   1      32.951  16.350  24.879  1.00  0.00     0.123 A 
ATOM     28  F   UNL A   1      32.390  15.141  25.002  1.00  0.00    -0.207 F 
ENDBRANCH  19  22
ENDBRANCH  10  14
ENDBRANCH   7   8
ENDBRANCH   6   7
ENDBRANCH   4   6
ENDBRANCH   1   2
BRANCH   1  29
ATOM     29  C   UNL A   1      31.670  31.587  26.584  1.00  0.00     0.042 C 
BRANCH  29  30
ATOM     30  C   UNL A   1      32.835  32.475  27.012  1.00  0.00     0.118 C 
BRANCH  30  31
ATOM     31  N   UNL A   1      32.459  33.760  27.553  1.00  0.00    -0.352 N 
ATOM     32  C   UNL A   1      33.067  34.410  28.598  1.00  0.00     0.251 C 
ATOM     33  H   UNL A   1      31.694  34.214  27.131  1.00  0.00     0.163 HD
ATOM     34  O   UNL A   1      32.583  35.430  29.070  1.00  0.00    -0.269 OA
BRANCH  32  35
ATOM     35  C   UNL A   1      34.294  33.826  29.172  1.00  0.00     0.039 A 
ATOM     36  C   UNL A   1      34.171  32.756  30.056  1.00  0.00     0.014 A 
ATOM     37  C   UNL A   1      35.552  34.317  28.806  1.00  0.00     0.014 A 
ATOM     38  C   UNL A   1      35.322  32.168  30.572  1.00  0.00     0.010 A 
ATOM     39  C   UNL A   1      36.699  33.675  29.257  1.00  0.00     0.010 A 
ATOM     40  C   UNL A   1      36.593  32.616  30.166  1.00  0.00    -0.014 A 
BRANCH  40  41
ATOM     41  C   UNL A   1      37.806  31.984  30.728  1.00  0.00     0.031 A 
ATOM     42  C   UNL A   1      38.269  32.346  32.110  1.00  0.00     0.074 A 
ATOM     43  C   UNL A   1      38.463  31.072  29.988  1.00  0.00     0.049 A 
ATOM     44  N   UNL A   1      39.232  31.822  32.822  1.00  0.00    -0.248 NA
ATOM     45  C   UNL A   1      37.571  33.460  32.775  1.00  0.00     0.031 C 
ATOM     46  C   UNL A   1      38.128  30.710  28.608  1.00  0.00     0.029 A 
ATOM     47  N   UNL A   1      39.527  30.267  30.293  1.00  0.00    -0.354 N 
ATOM     48  C   UNL A   1      39.253  32.538  34.013  1.00  0.00     0.074 A 
ATOM     49  C   UNL A   1      38.259  33.581  33.900  1.00  0.00     0.031 C 
ATOM     50  C   UNL A   1      38.930  29.711  28.208  1.00  0.00     0.029 A 
ATOM     51  C   UNL A   1      39.851  29.384  29.290  1.00  0.00     0.049 A 
ATOM     52  H   UNL A   1      40.013  30.315  31.148  1.00  0.00     0.167 HD
ATOM     53  C   UNL A   1      40.014  32.321  35.111  1.00  0.00     0.037 A 
ATOM     54  C   UNL A   1      40.776  28.408  29.264  1.00  0.00     0.037 A 
ATOM     55  C   UNL A   1      40.993  31.270  35.198  1.00  0.00     0.049 A 
ATOM     56  C   UNL A   1      41.593  28.173  30.504  1.00  0.00     0.074 A 
ATOM     57  C   UNL A   1      41.801  30.922  36.264  1.00  0.00     0.029 A 
ATOM     58  N   UNL A   1      41.298  30.396  34.161  1.00  0.00    -0.354 N 
ATOM     59  N   UNL A   1      41.552  28.805  31.655  1.00  0.00    -0.248 NA
ATOM     60  C   UNL A   1      42.570  27.082  30.451  1.00  0.00     0.031 C 
ATOM     61  C   UNL A   1      42.632  29.873  35.855  1.00  0.00     0.029 A 
ATOM     62  C   UNL A   1      42.297  29.523  34.556  1.00  0.00     0.049 A 
ATOM     63  H   UNL A   1      40.868  30.398  33.276  1.00  0.00     0.167 HD
ATOM     64  C   UNL A   1      42.479  28.173  32.470  1.00  0.00     0.074 A 
ATOM     65  C   UNL A   1      43.043  27.090  31.688  1.00  0.00     0.031 C 
ATOM     66  C   UNL A   1      42.841  28.461  33.746  1.00  0.00     0.037 A 
BRANCH  53  67
ATOM     67  C   UNL A   1      39.814  33.236  36.288  1.00  0.00     0.057 A 
ATOM     68  C   UNL A   1      40.601  34.381  36.483  1.00  0.00     0.134 A 
ATOM     69  C   UNL A   1      38.818  32.976  37.238  1.00  0.00     0.134 A 
ATOM     70  F   UNL A   1      41.584  34.685  35.621  1.00  0.00    -0.206 F 
ATOM     71  C   UNL A   1      40.428  35.211  37.593  1.00  0.00     0.040 A 
ATOM     72  C   UNL A   1      38.615  33.817  38.336  1.00  0.00     0.040 A 
ATOM     73  F   UNL A   1      38.025  31.902  37.119  1.00  0.00    -0.206 F 
ATOM     74  C   UNL A   1      39.427  34.933  38.520  1.00  0.00     0.006 A 
ENDBRANCH  53  67
BRANCH  54  75
ATOM     75  C   UNL A   1      40.939  27.562  28.053  1.00  0.00     0.057 A 
ATOM     76  C   UNL A   1      40.230  26.364  27.897  1.00  0.00     0.134 A 
ATOM     77  C   UNL A   1      41.802  27.934  27.014  1.00  0.00     0.134 A 
ATOM     78  F   UNL A   1      39.394  25.946  28.858  1.00  0.00    -0.206 F 
ATOM     79  C   UNL A   1      40.393  25.556  26.770  1.00  0.00     0.040 A 
ATOM     80  C   UNL A   1      41.951  27.151  25.867  1.00  0.00     0.040 A 
ATOM     81  F   UNL A   1      42.500  29.077  27.090  1.00  0.00    -0.206 F 
ATOM     82  C   UNL A   1      41.252  25.953  25.748  1.00  0.00     0.006 A 
ENDBRANCH  54  75
BRANCH  66  83
ATOM     83  C   UNL A   1      43.874  27.565  34.367  1.00  0.00     0.057 A 
ATOM     84  C   UNL A   1      45.234  27.901  34.384  1.00  0.00     0.134 A 
ATOM     85  C   UNL A   1      43.499  26.351  34.957  1.00  0.00     0.134 A 
ATOM     86  F   UNL A   1      45.659  29.045  33.828  1.00  0.00    -0.206 F 
ATOM     87  C   UNL A   1      46.190  27.038  34.923  1.00  0.00     0.040 A 
ATOM     88  C   UNL A   1      44.440  25.499  35.531  1.00  0.00     0.040 A 
ATOM     89  F   UNL A   1      42.211  25.977  34.988  1.00  0.00    -0.206 F 
ATOM     90  C   UNL A   1      45.792  25.835  35.501  1.00  0.00     0.006 A 
ENDBRANCH  66  83
ENDBRANCH  40  41
ENDBRANCH  32  35
ENDBRANCH  30  31
ENDBRANCH  29  30
ENDBRANCH   1  29
TORSDOF 14
ENDMDL
MODEL 2
REMARK VINA RESULT:     -13.4      1.032      6.032
REMARK SMILES O=C(COc1ccccc1/C=C1/SC(=O)N(c2ccc(F)cc2)C1=O)NCCCNC(=O)c1ccc(-c2c3nc(c(-c4c(F)cccc4F)c4ccc([nH]4)c(-c4c(F)cccc4F)c4nc(c(-c5c(F)cccc5F)c5ccc2[nH]5)C=C4)C=C3)cc1
REMARK SMILES IDX 27 1 26 2 1 3 2 4 3 6 4 7 5 8 6 9 10 10 7 11 9 12 8 13 11 14
REMARK SMILES IDX 12 15 13 16 24 17 14 18 16 19 25 20 15 21 17 22 18 23 23 24
REMARK SMILES IDX 19 25 22 26 20 27 21 28 28 29 29 30 30 31 31 32 32 34 33 35
REMARK SMILES IDX 34 36 86 37 35 38 85 39 36 40 37 41 38 42 79 43 39 44 84 45
REMARK SMILES IDX 78 46 80 47 40 48 83 49 77 50 76 51 41 53 67 54 50 55 66 56
REMARK SMILES IDX 51 57 54 58 65 59 81 60 52 61 53 62 64 64 82 65 55 66 42 67
REMARK SMILES IDX 43 68 48 69 44 70 45 71 47 72 49 73 46 74 68 75 69 76 74 77
REMARK SMILES IDX 70 78 71 79 73 80 75 81 72 82 56 83 57 84 62 85 58 86 59 87
REMARK SMILES IDX 61 88 63 89 60 90
REMARK H PARENT 26 5 30 33 80 52 54 63
REMARK Flexibility Score: inf
ROOT
ATOM      1  C   UNL A   1      31.385  30.453  26.697  1.00  0.00     0.117 C 
ENDROOT
BRANCH   1   2
ATOM      2  N   UNL A   1      31.551  28.917  25.273  1.00  0.00    -0.353 N 
ATOM      3  O   UNL A   1      30.090  28.407  23.330  1.00  0.00    -0.271 OA
ATOM      4  C   UNL A   1      31.114  28.261  23.991  1.00  0.00     0.257 C 
ATOM      5  H   UNL A   1      32.274  28.340  25.612  1.00  0.00     0.163 HD
BRANCH   4   6
ATOM      6  C   UNL A   1      32.166  27.293  23.476  1.00  0.00     0.329 C 
BRANCH   6   7
ATOM      7  O   UNL A   1      31.595  26.019  23.260  1.00  0.00    -0.483 OA
BRANCH   7   8
ATOM      8  C   UNL A   1      31.681  25.140  24.317  1.00  0.00     0.127 A 
ATOM      9  C   UNL A   1      30.458  25.020  24.984  1.00  0.00     0.047 A 
ATOM     10  C   UNL A   1      32.880  24.622  24.883  1.00  0.00     0.018 A 
ATOM     11  C   UNL A   1      30.404  24.455  26.250  1.00  0.00     0.004 A 
ATOM     12  C   UNL A   1      32.802  24.093  26.178  1.00  0.00     0.012 A 
ATOM     13  C   UNL A   1      31.580  24.029  26.860  1.00  0.00     0.001 A 
BRANCH  10  14
ATOM     14  C   UNL A   1      34.225  24.651  24.255  1.00  0.00     0.033 C 
ATOM     15  C   UNL A   1      34.742  23.539  23.690  1.00  0.00     0.084 C 
ATOM     16  S   UNL A   1      36.956  23.137  24.053  1.00  0.00    -0.022 SA
ATOM     17  C   UNL A   1      33.696  21.897  23.873  1.00  0.00     0.272 C 
ATOM     18  C   UNL A   1      36.510  20.941  24.784  1.00  0.00     0.298 C 
ATOM     19  N   UNL A   1      34.756  20.561  24.487  1.00  0.00    -0.236 N 
ATOM     20  O   UNL A   1      32.528  21.817  23.517  1.00  0.00    -0.268 OA
ATOM     21  O   UNL A   1      37.378  20.312  25.376  1.00  0.00    -0.260 OA
BRANCH  19  22
ATOM     22  C   UNL A   1      34.152  19.285  24.751  1.00  0.00     0.053 A 
ATOM     23  C   UNL A   1      34.736  18.108  24.242  1.00  0.00     0.030 A 
ATOM     24  C   UNL A   1      32.995  19.158  25.522  1.00  0.00     0.030 A 
ATOM     25  C   UNL A   1      34.192  16.844  24.488  1.00  0.00     0.041 A 
ATOM     26  C   UNL A   1      32.444  17.889  25.765  1.00  0.00     0.041 A 
ATOM     27  C   UNL A   1      33.046  16.746  25.249  1.00  0.00     0.123 A 
ATOM     28  F   UNL A   1      32.514  15.541  25.489  1.00  0.00    -0.207 F 
ENDBRANCH  19  22
ENDBRANCH  10  14
ENDBRANCH   7   8
ENDBRANCH   6   7
ENDBRANCH   4   6
ENDBRANCH   1   2
BRANCH   1  29
ATOM     29  C   UNL A   1      31.588  32.161  26.534  1.00  0.00     0.042 C 
BRANCH  29  30
ATOM     30  C   UNL A   1      32.736  32.891  27.226  1.00  0.00     0.118 C 
BRANCH  30  31
ATOM     31  N   UNL A   1      32.438  34.241  27.645  1.00  0.00    -0.352 N 
ATOM     32  C   UNL A   1      33.064  34.934  28.652  1.00  0.00     0.251 C 
ATOM     33  H   UNL A   1      31.719  34.708  27.163  1.00  0.00     0.163 HD
ATOM     34  O   UNL A   1      32.642  36.022  29.021  1.00  0.00    -0.269 OA
BRANCH  32  35
ATOM     35  C   UNL A   1      34.231  34.318  29.312  1.00  0.00     0.039 A 
ATOM     36  C   UNL A   1      34.015  33.516  30.432  1.00  0.00     0.014 A 
ATOM     37  C   UNL A   1      35.518  34.509  28.800  1.00  0.00     0.014 A 
ATOM     38  C   UNL A   1      35.102  32.895  31.038  1.00  0.00     0.010 A 
ATOM     39  C   UNL A   1      36.589  33.821  29.357  1.00  0.00     0.010 A 
ATOM     40  C   UNL A   1      36.394  33.033  30.497  1.00  0.00    -0.014 A 
BRANCH  40  41
ATOM     41  C   UNL A   1      37.540  32.371  31.158  1.00  0.00     0.031 A 
ATOM     42  C   UNL A   1      38.199  31.188  30.509  1.00  0.00     0.074 A 
ATOM     43  C   UNL A   1      37.986  32.864  32.328  1.00  0.00     0.049 A 
ATOM     44  N   UNL A   1      39.281  30.547  30.866  1.00  0.00    -0.248 NA
ATOM     45  C   UNL A   1      37.544  30.636  29.311  1.00  0.00     0.031 C 
ATOM     46  C   UNL A   1      37.364  33.966  33.068  1.00  0.00     0.029 A 
ATOM     47  N   UNL A   1      39.072  32.527  33.088  1.00  0.00    -0.354 N 
ATOM     48  C   UNL A   1      39.435  29.523  29.939  1.00  0.00     0.074 A 
ATOM     49  C   UNL A   1      38.299  29.580  29.049  1.00  0.00     0.031 C 
ATOM     50  C   UNL A   1      38.114  34.254  34.142  1.00  0.00     0.029 A 
ATOM     51  C   UNL A   1      39.250  33.341  34.182  1.00  0.00     0.049 A 
ATOM     52  H   UNL A   1      39.670  31.774  32.873  1.00  0.00     0.167 HD
ATOM     53  C   UNL A   1      40.453  28.637  29.826  1.00  0.00     0.037 A 
ATOM     54  C   UNL A   1      40.236  33.354  35.097  1.00  0.00     0.037 A 
ATOM     55  C   UNL A   1      41.576  28.607  30.725  1.00  0.00     0.049 A 
ATOM     56  C   UNL A   1      41.365  32.375  34.937  1.00  0.00     0.074 A 
ATOM     57  C   UNL A   1      42.688  27.786  30.697  1.00  0.00     0.029 A 
ATOM     58  N   UNL A   1      41.722  29.444  31.824  1.00  0.00    -0.354 N 
ATOM     59  N   UNL A   1      41.543  31.461  34.010  1.00  0.00    -0.248 NA
ATOM     60  C   UNL A   1      42.437  32.439  35.934  1.00  0.00     0.031 C 
ATOM     61  C   UNL A   1      43.479  28.090  31.810  1.00  0.00     0.029 A 
ATOM     62  C   UNL A   1      42.896  29.145  32.495  1.00  0.00     0.049 A 
ATOM     63  H   UNL A   1      41.085  30.147  32.088  1.00  0.00     0.167 HD
ATOM     64  C   UNL A   1      42.758  30.857  34.300  1.00  0.00     0.074 A 
ATOM     65  C   UNL A   1      43.285  31.533  35.470  1.00  0.00     0.031 C 
ATOM     66  C   UNL A   1      43.384  29.834  33.664  1.00  0.00     0.037 A 
BRANCH  53  67
ATOM     67  C   UNL A   1      40.386  27.641  28.701  1.00  0.00     0.057 A 
ATOM     68  C   UNL A   1      41.083  27.828  27.499  1.00  0.00     0.134 A 
ATOM     69  C   UNL A   1      39.618  26.475  28.820  1.00  0.00     0.134 A 
ATOM     70  F   UNL A   1      41.827  28.929  27.308  1.00  0.00    -0.206 F 
ATOM     71  C   UNL A   1      40.994  26.912  26.447  1.00  0.00     0.040 A 
ATOM     72  C   UNL A   1      39.547  25.536  27.787  1.00  0.00     0.040 A 
ATOM     73  F   UNL A   1      38.924  26.226  29.940  1.00  0.00    -0.206 F 
ATOM     74  C   UNL A   1      40.229  25.758  26.593  1.00  0.00     0.006 A 
ENDBRANCH  53  67
BRANCH  54  75
ATOM     75  C   UNL A   1      40.219  34.350  36.200  1.00  0.00     0.057 A 
ATOM     76  C   UNL A   1      39.596  34.075  37.425  1.00  0.00     0.134 A 
ATOM     77  C   UNL A   1      40.834  35.601  36.063  1.00  0.00     0.134 A 
ATOM     78  F   UNL A   1      38.983  32.899  37.619  1.00  0.00    -0.206 F 
ATOM     79  C   UNL A   1      39.562  35.013  38.458  1.00  0.00     0.040 A 
ATOM     80  C   UNL A   1      40.833  36.538  37.099  1.00  0.00     0.040 A 
ATOM     81  F   UNL A   1      41.463  35.926  34.924  1.00  0.00    -0.206 F 
ATOM     82  C   UNL A   1      40.187  36.247  38.298  1.00  0.00     0.006 A 
ENDBRANCH  54  75
BRANCH  66  83
ATOM     83  C   UNL A   1      44.716  29.417  34.218  1.00  0.00     0.057 A 
ATOM     84  C   UNL A   1      45.910  30.035  33.824  1.00  0.00     0.134 A 
ATOM     85  C   UNL A   1      44.801  28.384  35.159  1.00  0.00     0.134 A 
ATOM     86  F   UNL A   1      45.898  31.026  32.919  1.00  0.00    -0.206 F 
ATOM     87  C   UNL A   1      47.146  29.607  34.310  1.00  0.00     0.040 A 
ATOM     88  C   UNL A   1      46.027  27.972  35.680  1.00  0.00     0.040 A 
ATOM     89  F   UNL A   1      43.694  27.761  35.590  1.00  0.00    -0.206 F 
ATOM     90  C   UNL A   1      47.205  28.575  35.244  1.00  0.00     0.006 A 
ENDBRANCH  66  83
ENDBRANCH  40  41
ENDBRANCH  32  35
ENDBRANCH  30  31
ENDBRANCH  29  30
ENDBRANCH   1  29
TORSDOF 14
ENDMDL
MODEL 3
REMARK VINA RESULT:     -13.4      2.206      2.973
REMARK SMILES O=C(COc1ccccc1/C=C1/SC(=O)N(c2ccc(F)cc2)C1=O)NCCCNC(=O)c1ccc(-c2c3nc(c(-c4c(F)cccc4F)c4ccc([nH]4)c(-c4c(F)cccc4F)c4nc(c(-c5c(F)cccc5F)c5ccc2[nH]5)C=C4)C=C3)cc1
REMARK SMILES IDX 27 1 26 2 1 3 2 4 3 6 4 7 5 8 6 9 10 10 7 11 9 12 8 13 11 14
REMARK SMILES IDX 12 15 13 16 24 17 14 18 16 19 25 20 15 21 17 22 18 23 23 24
REMARK SMILES IDX 19 25 22 26 20 27 21 28 28 29 29 30 30 31 31 32 32 34 33 35
REMARK SMILES IDX 34 36 86 37 35 38 85 39 36 40 37 41 38 42 79 43 39 44 84 45
REMARK SMILES IDX 78 46 80 47 40 48 83 49 77 50 76 51 41 53 67 54 50 55 66 56
REMARK SMILES IDX 51 57 54 58 65 59 81 60 52 61 53 62 64 64 82 65 55 66 42 67
REMARK SMILES IDX 43 68 48 69 44 70 45 71 47 72 49 73 46 74 68 75 69 76 74 77
REMARK SMILES IDX 70 78 71 79 73 80 75 81 72 82 56 83 57 84 62 85 58 86 59 87
REMARK SMILES IDX 61 88 63 89 60 90
REMARK H PARENT 26 5 30 33 80 52 54 63
REMARK Flexibility Score: inf
ROOT
ATOM      1  C   UNL A   1      31.748  30.348  26.569  1.00  0.00     0.117 C 
ENDROOT
BRANCH   1   2
ATOM      2  N   UNL A   1      31.572  29.187  24.827  1.00  0.00    -0.353 N 
ATOM      3  O   UNL A   1      29.534  28.552  23.558  1.00  0.00    -0.271 OA
ATOM      4  C   UNL A   1      30.751  28.635  23.693  1.00  0.00     0.257 C 
ATOM      5  H   UNL A   1      32.475  28.823  24.679  1.00  0.00     0.163 HD
BRANCH   4   6
ATOM      6  C   UNL A   1      31.632  28.143  22.558  1.00  0.00     0.329 C 
BRANCH   6   7
ATOM      7  O   UNL A   1      31.047  27.018  21.936  1.00  0.00    -0.483 OA
BRANCH   7   8
ATOM      8  C   UNL A   1      31.833  25.888  21.886  1.00  0.00     0.127 A 
ATOM      9  C   UNL A   1      32.487  25.773  20.656  1.00  0.00     0.047 A 
ATOM     10  C   UNL A   1      31.801  24.801  22.805  1.00  0.00     0.018 A 
ATOM     11  C   UNL A   1      33.056  24.566  20.276  1.00  0.00     0.004 A 
ATOM     12  C   UNL A   1      32.348  23.584  22.379  1.00  0.00     0.012 A 
ATOM     13  C   UNL A   1      32.952  23.464  21.121  1.00  0.00     0.001 A 
BRANCH  10  14
ATOM     14  C   UNL A   1      31.178  24.816  24.152  1.00  0.00     0.033 C 
ATOM     15  C   UNL A   1      31.945  24.775  25.263  1.00  0.00     0.084 C 
ATOM     16  S   UNL A   1      31.209  23.455  26.970  1.00  0.00    -0.022 SA
ATOM     17  C   UNL A   1      33.868  24.555  24.991  1.00  0.00     0.272 C 
ATOM     18  C   UNL A   1      33.290  22.358  27.112  1.00  0.00     0.298 C 
ATOM     19  N   UNL A   1      34.484  23.208  26.034  1.00  0.00    -0.236 N 
ATOM     20  O   UNL A   1      34.523  25.309  24.284  1.00  0.00    -0.268 OA
ATOM     21  O   UNL A   1      33.382  21.312  27.743  1.00  0.00    -0.260 OA
BRANCH  19  22
ATOM     22  C   UNL A   1      35.870  22.848  25.925  1.00  0.00     0.053 A 
ATOM     23  C   UNL A   1      36.234  21.585  25.416  1.00  0.00     0.030 A 
ATOM     24  C   UNL A   1      36.895  23.720  26.296  1.00  0.00     0.030 A 
ATOM     25  C   UNL A   1      37.570  21.198  25.278  1.00  0.00     0.041 A 
ATOM     26  C   UNL A   1      38.238  23.330  26.164  1.00  0.00     0.041 A 
ATOM     27  C   UNL A   1      38.563  22.077  25.655  1.00  0.00     0.123 A 
ATOM     28  F   UNL A   1      39.847  21.716  25.530  1.00  0.00    -0.207 F 
ENDBRANCH  19  22
ENDBRANCH  10  14
ENDBRANCH   7   8
ENDBRANCH   6   7
ENDBRANCH   4   6
ENDBRANCH   1   2
BRANCH   1  29
ATOM     29  C   UNL A   1      31.549  32.048  26.810  1.00  0.00     0.042 C 
BRANCH  29  30
ATOM     30  C   UNL A   1      32.719  32.929  27.239  1.00  0.00     0.118 C 
BRANCH  30  31
ATOM     31  N   UNL A   1      32.352  34.236  27.732  1.00  0.00    -0.352 N 
ATOM     32  C   UNL A   1      32.986  34.933  28.731  1.00  0.00     0.251 C 
ATOM     33  H   UNL A   1      31.574  34.668  27.312  1.00  0.00     0.163 HD
ATOM     34  O   UNL A   1      32.510  35.972  29.170  1.00  0.00    -0.269 OA
BRANCH  32  35
ATOM     35  C   UNL A   1      34.230  34.379  29.296  1.00  0.00     0.039 A 
ATOM     36  C   UNL A   1      34.143  33.559  30.420  1.00  0.00     0.014 A 
ATOM     37  C   UNL A   1      35.464  34.647  28.695  1.00  0.00     0.014 A 
ATOM     38  C   UNL A   1      35.304  32.995  30.939  1.00  0.00     0.010 A 
ATOM     39  C   UNL A   1      36.610  34.016  29.164  1.00  0.00     0.010 A 
ATOM     40  C   UNL A   1      36.543  33.210  30.306  1.00  0.00    -0.014 A 
BRANCH  40  41
ATOM     41  C   UNL A   1      37.769  32.608  30.874  1.00  0.00     0.031 A 
ATOM     42  C   UNL A   1      38.294  33.083  32.198  1.00  0.00     0.074 A 
ATOM     43  C   UNL A   1      38.381  31.622  30.193  1.00  0.00     0.049 A 
ATOM     44  N   UNL A   1      39.278  32.606  32.915  1.00  0.00    -0.248 NA
ATOM     45  C   UNL A   1      37.642  34.265  32.788  1.00  0.00     0.031 C 
ATOM     46  C   UNL A   1      37.983  31.145  28.865  1.00  0.00     0.029 A 
ATOM     47  N   UNL A   1      39.445  30.827  30.525  1.00  0.00    -0.354 N 
ATOM     48  C   UNL A   1      39.360  33.426  34.035  1.00  0.00     0.074 A 
ATOM     49  C   UNL A   1      38.378  34.472  33.869  1.00  0.00     0.031 C 
ATOM     50  C   UNL A   1      38.753  30.100  28.525  1.00  0.00     0.029 A 
ATOM     51  C   UNL A   1      39.713  29.853  29.594  1.00  0.00     0.049 A 
ATOM     52  H   UNL A   1      39.967  30.942  31.352  1.00  0.00     0.167 HD
ATOM     53  C   UNL A   1      40.163  33.293  35.117  1.00  0.00     0.037 A 
ATOM     54  C   UNL A   1      40.622  28.862  29.618  1.00  0.00     0.037 A 
ATOM     55  C   UNL A   1      41.129  32.236  35.258  1.00  0.00     0.049 A 
ATOM     56  C   UNL A   1      41.486  28.723  30.840  1.00  0.00     0.074 A 
ATOM     57  C   UNL A   1      41.975  31.969  36.318  1.00  0.00     0.029 A 
ATOM     58  N   UNL A   1      41.377  31.268  34.293  1.00  0.00    -0.354 N 
ATOM     59  N   UNL A   1      41.502  29.455  31.931  1.00  0.00    -0.248 NA
ATOM     60  C   UNL A   1      42.444  27.613  30.846  1.00  0.00     0.031 C 
ATOM     61  C   UNL A   1      42.772  30.873  35.972  1.00  0.00     0.029 A 
ATOM     62  C   UNL A   1      42.378  30.414  34.724  1.00  0.00     0.049 A 
ATOM     63  H   UNL A   1      40.911  31.198  33.429  1.00  0.00     0.167 HD
ATOM     64  C   UNL A   1      42.453  28.881  32.761  1.00  0.00     0.074 A 
ATOM     65  C   UNL A   1      42.968  27.722  32.058  1.00  0.00     0.031 C 
ATOM     66  C   UNL A   1      42.872  29.274  33.991  1.00  0.00     0.037 A 
BRANCH  53  67
ATOM     67  C   UNL A   1      40.025  34.313  36.214  1.00  0.00     0.057 A 
ATOM     68  C   UNL A   1      40.705  35.539  36.179  1.00  0.00     0.134 A 
ATOM     69  C   UNL A   1      39.199  34.072  37.319  1.00  0.00     0.134 A 
ATOM     70  F   UNL A   1      41.526  35.833  35.158  1.00  0.00    -0.206 F 
ATOM     71  C   UNL A   1      40.595  36.470  37.215  1.00  0.00     0.040 A 
ATOM     72  C   UNL A   1      39.056  35.009  38.346  1.00  0.00     0.040 A 
ATOM     73  F   UNL A   1      38.516  32.922  37.422  1.00  0.00    -0.206 F 
ATOM     74  C   UNL A   1      39.763  36.208  38.300  1.00  0.00     0.006 A 
ENDBRANCH  53  67
BRANCH  54  75
ATOM     75  C   UNL A   1      40.721  27.908  28.482  1.00  0.00     0.057 A 
ATOM     76  C   UNL A   1      41.542  28.170  27.378  1.00  0.00     0.134 A 
ATOM     77  C   UNL A   1      40.004  26.706  28.475  1.00  0.00     0.134 A 
ATOM     78  F   UNL A   1      42.251  29.307  27.318  1.00  0.00    -0.206 F 
ATOM     79  C   UNL A   1      41.626  27.287  26.300  1.00  0.00     0.040 A 
ATOM     80  C   UNL A   1      40.100  25.799  27.417  1.00  0.00     0.040 A 
ATOM     81  F   UNL A   1      39.210  26.384  29.507  1.00  0.00    -0.206 F 
ATOM     82  C   UNL A   1      40.907  26.094  26.320  1.00  0.00     0.006 A 
ENDBRANCH  54  75
BRANCH  66  83
ATOM     83  C   UNL A   1      43.916  28.418  34.648  1.00  0.00     0.057 A 
ATOM     84  C   UNL A   1      45.286  28.668  34.492  1.00  0.00     0.134 A 
ATOM     85  C   UNL A   1      43.543  27.331  35.448  1.00  0.00     0.134 A 
ATOM     86  F   UNL A   1      45.710  29.688  33.731  1.00  0.00    -0.206 F 
ATOM     87  C   UNL A   1      46.247  27.837  35.069  1.00  0.00     0.040 A 
ATOM     88  C   UNL A   1      44.494  26.516  36.060  1.00  0.00     0.040 A 
ATOM     89  F   UNL A   1      42.248  27.047  35.651  1.00  0.00    -0.206 F 
ATOM     90  C   UNL A   1      45.851  26.760  35.859  1.00  0.00     0.006 A 
ENDBRANCH  66  83
ENDBRANCH  40  41
ENDBRANCH  32  35
ENDBRANCH  30  31
ENDBRANCH  29  30
ENDBRANCH   1  29
TORSDOF 14
ENDMDL
