MODEL 1
REMARK VINA RESULT:     -11.9      0.000      0.000
REMARK SMILES O=C(C[C@H](C(=O)NCCCNC(=O)c1ccc(-c2c3nc(c(-c4c(F)cccc4F)c4ccc([nH]4)c(-c4c(F)cccc4F)c4nc(c(-c5c(F)cccc5F)c5ccc2[nH]5)C=C4)C=C3)cc1)c1ccccc1)Nc1ccc(Cl)cc1Cl
REMARK SMILES IDX 8 1 7 2 5 3 6 4 4 6 3 7 2 8 1 9 74 10 75 12 76 13 81 14
REMARK SMILES IDX 77 15 80 16 82 17 78 18 79 19 68 20 69 21 73 22 70 23 72 24
REMARK SMILES IDX 71 25 9 26 10 27 11 28 12 29 13 31 14 32 15 33 67 34 16 35
REMARK SMILES IDX 66 36 17 37 18 38 19 39 60 40 20 41 65 42 59 43 61 44 21 45
REMARK SMILES IDX 64 46 58 47 57 48 22 50 48 51 31 52 47 53 32 54 35 55 46 56
REMARK SMILES IDX 62 57 33 58 34 59 45 61 63 62 36 63 23 64 24 65 29 66 25 67
REMARK SMILES IDX 26 68 28 69 30 70 27 71 49 72 50 73 55 74 51 75 52 76 54 77
REMARK SMILES IDX 56 78 53 79 37 80 38 81 43 82 39 83 40 84 42 85 44 86 41 87
REMARK H PARENT 7 5 74 11 11 30 61 49 35 60
REMARK Flexibility Score: inf
ROOT
ATOM      1  C   UNL A   1      37.044  21.281  24.457  1.00  0.00     0.117 C 
ENDROOT
BRANCH   1   2
ATOM      2  N   UNL A   1      36.212  21.482  25.630  1.00  0.00    -0.355 N 
ATOM      3  C   UNL A   1      34.885  21.289  25.861  1.00  0.00     0.228 C 
ATOM      4  O   UNL A   1      34.529  21.423  27.039  1.00  0.00    -0.274 OA
ATOM      5  H   UNL A   1      36.703  21.825  26.412  1.00  0.00     0.163 HD
BRANCH   3   6
ATOM      6  C   UNL A   1      33.828  21.033  24.774  1.00  0.00     0.118 C 
BRANCH   6   7
ATOM      7  C   UNL A   1      33.807  22.230  23.782  1.00  0.00     0.118 C 
BRANCH   7   8
ATOM      8  C   UNL A   1      33.290  23.572  24.279  1.00  0.00     0.225 C 
ATOM      9  O   UNL A   1      32.110  23.735  24.597  1.00  0.00    -0.275 OA
ATOM     10  N   UNL A   1      34.245  24.555  24.310  1.00  0.00    -0.325 N 
ATOM     11  H   UNL A   1      35.182  24.295  24.151  1.00  0.00     0.169 HD
BRANCH  10  12
ATOM     12  C   UNL A   1      33.970  25.913  24.555  1.00  0.00     0.060 A 
ATOM     13  C   UNL A   1      33.992  26.344  25.888  1.00  0.00     0.029 A 
ATOM     14  C   UNL A   1      33.546  26.796  23.552  1.00  0.00     0.066 A 
ATOM     15  C   UNL A   1      33.584  27.635  26.224  1.00  0.00     0.023 A 
ATOM     16  C   UNL A   1      33.126  28.087  23.891  1.00  0.00     0.043 A 
ATOM     17  Cl  UNL A   1      33.383  26.302  21.905  1.00  0.00    -0.082 Cl
ATOM     18  C   UNL A   1      33.144  28.497  25.224  1.00  0.00     0.042 A 
ATOM     19  Cl  UNL A   1      32.596  30.072  25.648  1.00  0.00    -0.084 Cl
ENDBRANCH  10  12
ENDBRANCH   7   8
ENDBRANCH   6   7
BRANCH   6  20
ATOM     20  C   UNL A   1      33.669  19.613  24.242  1.00  0.00    -0.035 A 
ATOM     21  C   UNL A   1      32.582  19.290  23.412  1.00  0.00     0.004 A 
ATOM     22  C   UNL A   1      34.518  18.560  24.623  1.00  0.00     0.004 A 
ATOM     23  C   UNL A   1      32.437  18.013  22.867  1.00  0.00     0.000 A 
ATOM     24  C   UNL A   1      34.387  17.284  24.065  1.00  0.00     0.000 A 
ATOM     25  C   UNL A   1      33.357  17.016  23.171  1.00  0.00     0.000 A 
ENDBRANCH   6  20
ENDBRANCH   3   6
ENDBRANCH   1   2
BRANCH   1  26
ATOM     26  C   UNL A   1      37.875  20.003  24.580  1.00  0.00     0.042 C 
BRANCH  26  27
ATOM     27  C   UNL A   1      38.590  19.900  25.919  1.00  0.00     0.118 C 
BRANCH  27  28
ATOM     28  N   UNL A   1      39.878  19.227  25.795  1.00  0.00    -0.352 N 
ATOM     29  C   UNL A   1      41.177  19.638  25.970  1.00  0.00     0.251 C 
ATOM     30  H   UNL A   1      39.799  18.282  25.533  1.00  0.00     0.163 HD
ATOM     31  O   UNL A   1      42.066  18.889  25.558  1.00  0.00    -0.269 OA
BRANCH  29  32
ATOM     32  C   UNL A   1      41.560  20.932  26.593  1.00  0.00     0.039 A 
ATOM     33  C   UNL A   1      41.789  22.033  25.751  1.00  0.00     0.014 A 
ATOM     34  C   UNL A   1      41.796  21.085  27.957  1.00  0.00     0.014 A 
ATOM     35  C   UNL A   1      42.196  23.267  26.277  1.00  0.00     0.010 A 
ATOM     36  C   UNL A   1      42.095  22.339  28.494  1.00  0.00     0.010 A 
ATOM     37  C   UNL A   1      42.315  23.444  27.662  1.00  0.00    -0.014 A 
BRANCH  37  38
ATOM     38  C   UNL A   1      42.695  24.750  28.271  1.00  0.00     0.031 A 
ATOM     39  C   UNL A   1      41.648  25.809  28.515  1.00  0.00     0.074 A 
ATOM     40  C   UNL A   1      43.989  25.029  28.522  1.00  0.00     0.049 A 
ATOM     41  N   UNL A   1      41.798  27.065  28.853  1.00  0.00    -0.248 NA
ATOM     42  C   UNL A   1      40.245  25.411  28.314  1.00  0.00     0.031 C 
ATOM     43  C   UNL A   1      45.110  24.114  28.305  1.00  0.00     0.029 A 
ATOM     44  N   UNL A   1      44.584  26.170  29.002  1.00  0.00    -0.354 N 
ATOM     45  C   UNL A   1      40.521  27.614  28.857  1.00  0.00     0.074 A 
ATOM     46  C   UNL A   1      39.611  26.566  28.450  1.00  0.00     0.031 C 
ATOM     47  C   UNL A   1      46.251  24.717  28.676  1.00  0.00     0.029 A 
ATOM     48  C   UNL A   1      45.951  26.079  29.103  1.00  0.00     0.049 A 
ATOM     49  H   UNL A   1      44.078  26.978  29.250  1.00  0.00     0.167 HD
ATOM     50  C   UNL A   1      40.137  28.871  29.187  1.00  0.00     0.037 A 
ATOM     51  C   UNL A   1      46.865  26.994  29.480  1.00  0.00     0.037 A 
ATOM     52  C   UNL A   1      41.032  29.896  29.655  1.00  0.00     0.049 A 
ATOM     53  C   UNL A   1      46.412  28.375  29.861  1.00  0.00     0.074 A 
ATOM     54  C   UNL A   1      40.730  31.177  30.083  1.00  0.00     0.029 A 
ATOM     55  N   UNL A   1      42.405  29.749  29.773  1.00  0.00    -0.354 N 
ATOM     56  N   UNL A   1      45.199  28.869  29.885  1.00  0.00    -0.248 NA
ATOM     57  C   UNL A   1      47.457  29.328  30.262  1.00  0.00     0.031 C 
ATOM     58  C   UNL A   1      41.924  31.816  30.433  1.00  0.00     0.029 A 
ATOM     59  C   UNL A   1      42.966  30.920  30.255  1.00  0.00     0.049 A 
ATOM     60  H   UNL A   1      42.909  28.933  29.547  1.00  0.00     0.167 HD
ATOM     61  C   UNL A   1      45.331  30.181  30.323  1.00  0.00     0.074 A 
ATOM     62  C   UNL A   1      46.741  30.402  30.565  1.00  0.00     0.031 C 
ATOM     63  C   UNL A   1      44.370  31.119  30.503  1.00  0.00     0.037 A 
BRANCH  50  64
ATOM     64  C   UNL A   1      38.678  29.207  29.063  1.00  0.00     0.057 A 
ATOM     65  C   UNL A   1      37.817  29.179  30.167  1.00  0.00     0.134 A 
ATOM     66  C   UNL A   1      38.135  29.590  27.830  1.00  0.00     0.134 A 
ATOM     67  F   UNL A   1      38.270  28.810  31.374  1.00  0.00    -0.206 F 
ATOM     68  C   UNL A   1      36.462  29.493  30.045  1.00  0.00     0.040 A 
ATOM     69  C   UNL A   1      36.787  29.931  27.700  1.00  0.00     0.040 A 
ATOM     70  F   UNL A   1      38.906  29.646  26.733  1.00  0.00    -0.206 F 
ATOM     71  C   UNL A   1      35.945  29.877  28.808  1.00  0.00     0.006 A 
ENDBRANCH  50  64
BRANCH  51  72
ATOM     72  C   UNL A   1      48.303  26.630  29.528  1.00  0.00     0.057 A 
ATOM     73  C   UNL A   1      49.139  26.865  28.430  1.00  0.00     0.134 A 
ATOM     74  C   UNL A   1      48.876  26.042  30.661  1.00  0.00     0.134 A 
ATOM     75  F   UNL A   1      48.641  27.407  27.309  1.00  0.00    -0.206 F 
ATOM     76  C   UNL A   1      50.488  26.513  28.450  1.00  0.00     0.040 A 
ATOM     77  C   UNL A   1      50.230  25.707  30.704  1.00  0.00     0.040 A 
ATOM     78  F   UNL A   1      48.130  25.798  31.749  1.00  0.00    -0.206 F 
ATOM     79  C   UNL A   1      51.039  25.938  29.592  1.00  0.00     0.006 A 
ENDBRANCH  51  72
BRANCH  63  80
ATOM     80  C   UNL A   1      44.806  32.458  31.017  1.00  0.00     0.057 A 
ATOM     81  C   UNL A   1      44.907  32.722  32.387  1.00  0.00     0.134 A 
ATOM     82  C   UNL A   1      45.174  33.476  30.129  1.00  0.00     0.134 A 
ATOM     83  F   UNL A   1      44.556  31.790  33.288  1.00  0.00    -0.206 F 
ATOM     84  C   UNL A   1      45.347  33.960  32.860  1.00  0.00     0.040 A 
ATOM     85  C   UNL A   1      45.636  34.710  30.588  1.00  0.00     0.040 A 
ATOM     86  F   UNL A   1      45.106  33.282  28.804  1.00  0.00    -0.206 F 
ATOM     87  C   UNL A   1      45.720  34.956  31.958  1.00  0.00     0.006 A 
ENDBRANCH  63  80
ENDBRANCH  37  38
ENDBRANCH  29  32
ENDBRANCH  27  28
ENDBRANCH  26  27
ENDBRANCH   1  26
TORSDOF 14
ENDMDL
MODEL 2
REMARK VINA RESULT:     -11.6      4.077      7.879
REMARK SMILES O=C(C[C@H](C(=O)NCCCNC(=O)c1ccc(-c2c3nc(c(-c4c(F)cccc4F)c4ccc([nH]4)c(-c4c(F)cccc4F)c4nc(c(-c5c(F)cccc5F)c5ccc2[nH]5)C=C4)C=C3)cc1)c1ccccc1)Nc1ccc(Cl)cc1Cl
REMARK SMILES IDX 8 1 7 2 5 3 6 4 4 6 3 7 2 8 1 9 74 10 75 12 76 13 81 14
REMARK SMILES IDX 77 15 80 16 82 17 78 18 79 19 68 20 69 21 73 22 70 23 72 24
REMARK SMILES IDX 71 25 9 26 10 27 11 28 12 29 13 31 14 32 15 33 67 34 16 35
REMARK SMILES IDX 66 36 17 37 18 38 19 39 60 40 20 41 65 42 59 43 61 44 21 45
REMARK SMILES IDX 64 46 58 47 57 48 22 50 48 51 31 52 47 53 32 54 35 55 46 56
REMARK SMILES IDX 62 57 33 58 34 59 45 61 63 62 36 63 23 64 24 65 29 66 25 67
REMARK SMILES IDX 26 68 28 69 30 70 27 71 49 72 50 73 55 74 51 75 52 76 54 77
REMARK SMILES IDX 56 78 53 79 37 80 38 81 43 82 39 83 40 84 42 85 44 86 41 87
REMARK H PARENT 7 5 74 11 11 30 61 49 35 60
REMARK Flexibility Score: inf
ROOT
ATOM      1  C   UNL A   1      36.729  21.678  25.368  1.00  0.00     0.117 C 
ENDROOT
BRANCH   1   2
ATOM      2  N   UNL A   1      35.599  21.711  26.281  1.00  0.00    -0.355 N 
ATOM      3  C   UNL A   1      34.291  21.363  26.139  1.00  0.00     0.228 C 
ATOM      4  O   UNL A   1      33.625  21.379  27.181  1.00  0.00    -0.274 OA
ATOM      5  H   UNL A   1      35.823  22.051  27.178  1.00  0.00     0.163 HD
BRANCH   3   6
ATOM      6  C   UNL A   1      33.597  21.070  24.798  1.00  0.00     0.118 C 
BRANCH   6   7
ATOM      7  C   UNL A   1      33.867  22.240  23.810  1.00  0.00     0.118 C 
BRANCH   7   8
ATOM      8  C   UNL A   1      33.119  23.549  24.016  1.00  0.00     0.225 C 
ATOM      9  O   UNL A   1      32.441  24.055  23.119  1.00  0.00    -0.275 OA
ATOM     10  N   UNL A   1      33.296  24.096  25.260  1.00  0.00    -0.325 N 
ATOM     11  H   UNL A   1      33.757  23.556  25.942  1.00  0.00     0.169 HD
BRANCH  10  12
ATOM     12  C   UNL A   1      32.859  25.384  25.622  1.00  0.00     0.060 A 
ATOM     13  C   UNL A   1      33.791  26.427  25.541  1.00  0.00     0.029 A 
ATOM     14  C   UNL A   1      31.597  25.630  26.182  1.00  0.00     0.066 A 
ATOM     15  C   UNL A   1      33.479  27.698  26.024  1.00  0.00     0.023 A 
ATOM     16  C   UNL A   1      31.289  26.902  26.676  1.00  0.00     0.043 A 
ATOM     17  Cl  UNL A   1      30.439  24.370  26.420  1.00  0.00    -0.082 Cl
ATOM     18  C   UNL A   1      32.233  27.926  26.598  1.00  0.00     0.042 A 
ATOM     19  Cl  UNL A   1      31.869  29.482  27.235  1.00  0.00    -0.084 Cl
ENDBRANCH  10  12
ENDBRANCH   7   8
ENDBRANCH   6   7
BRANCH   6  20
ATOM     20  C   UNL A   1      33.598  19.636  24.283  1.00  0.00    -0.035 A 
ATOM     21  C   UNL A   1      32.538  19.174  23.485  1.00  0.00     0.004 A 
ATOM     22  C   UNL A   1      34.578  18.697  24.651  1.00  0.00     0.004 A 
ATOM     23  C   UNL A   1      32.536  17.882  22.954  1.00  0.00     0.000 A 
ATOM     24  C   UNL A   1      34.588  17.409  24.108  1.00  0.00     0.000 A 
ATOM     25  C   UNL A   1      33.577  17.008  23.243  1.00  0.00     0.000 A 
ENDBRANCH   6  20
ENDBRANCH   3   6
ENDBRANCH   1   2
BRANCH   1  26
ATOM     26  C   UNL A   1      37.187  23.092  25.005  1.00  0.00     0.042 C 
BRANCH  26  27
ATOM     27  C   UNL A   1      37.967  23.758  26.129  1.00  0.00     0.118 C 
BRANCH  27  28
ATOM     28  N   UNL A   1      39.396  23.482  26.034  1.00  0.00    -0.352 N 
ATOM     29  C   UNL A   1      40.513  24.123  26.511  1.00  0.00     0.251 C 
ATOM     30  H   UNL A   1      39.602  22.667  25.521  1.00  0.00     0.163 HD
ATOM     31  O   UNL A   1      41.604  23.768  26.060  1.00  0.00    -0.269 OA
BRANCH  29  32
ATOM     32  C   UNL A   1      40.473  25.227  27.507  1.00  0.00     0.039 A 
ATOM     33  C   UNL A   1      41.475  26.210  27.449  1.00  0.00     0.014 A 
ATOM     34  C   UNL A   1      39.552  25.284  28.549  1.00  0.00     0.014 A 
ATOM     35  C   UNL A   1      41.516  27.250  28.388  1.00  0.00     0.010 A 
ATOM     36  C   UNL A   1      39.525  26.377  29.418  1.00  0.00     0.010 A 
ATOM     37  C   UNL A   1      40.515  27.367  29.362  1.00  0.00    -0.014 A 
BRANCH  37  38
ATOM     38  C   UNL A   1      40.486  28.483  30.349  1.00  0.00     0.031 A 
ATOM     39  C   UNL A   1      41.425  28.477  31.531  1.00  0.00     0.074 A 
ATOM     40  C   UNL A   1      39.560  29.456  30.244  1.00  0.00     0.049 A 
ATOM     41  N   UNL A   1      41.429  29.243  32.593  1.00  0.00    -0.248 NA
ATOM     42  C   UNL A   1      42.474  27.445  31.538  1.00  0.00     0.031 C 
ATOM     43  C   UNL A   1      38.570  29.571  29.174  1.00  0.00     0.029 A 
ATOM     44  N   UNL A   1      39.291  30.529  31.058  1.00  0.00    -0.354 N 
ATOM     45  C   UNL A   1      42.443  28.756  33.409  1.00  0.00     0.074 A 
ATOM     46  C   UNL A   1      43.007  27.605  32.739  1.00  0.00     0.031 C 
ATOM     47  C   UNL A   1      37.821  30.665  29.379  1.00  0.00     0.029 A 
ATOM     48  C   UNL A   1      38.239  31.299  30.624  1.00  0.00     0.049 A 
ATOM     49  H   UNL A   1      39.803  30.727  31.875  1.00  0.00     0.167 HD
ATOM     50  C   UNL A   1      42.881  29.235  34.599  1.00  0.00     0.037 A 
ATOM     51  C   UNL A   1      37.662  32.384  31.176  1.00  0.00     0.037 A 
ATOM     52  C   UNL A   1      42.365  30.418  35.236  1.00  0.00     0.049 A 
ATOM     53  C   UNL A   1      38.177  32.908  32.487  1.00  0.00     0.074 A 
ATOM     54  C   UNL A   1      42.790  31.024  36.407  1.00  0.00     0.029 A 
ATOM     55  N   UNL A   1      41.321  31.186  34.745  1.00  0.00    -0.354 N 
ATOM     56  N   UNL A   1      39.154  32.452  33.232  1.00  0.00    -0.248 NA
ATOM     57  C   UNL A   1      37.504  34.094  33.037  1.00  0.00     0.031 C 
ATOM     58  C   UNL A   1      41.983  32.143  36.639  1.00  0.00     0.029 A 
ATOM     59  C   UNL A   1      41.079  32.253  35.595  1.00  0.00     0.049 A 
ATOM     60  H   UNL A   1      40.823  31.000  33.915  1.00  0.00     0.167 HD
ATOM     61  C   UNL A   1      39.229  33.306  34.325  1.00  0.00     0.074 A 
ATOM     62  C   UNL A   1      38.206  34.314  34.141  1.00  0.00     0.031 C 
ATOM     63  C   UNL A   1      40.066  33.255  35.389  1.00  0.00     0.037 A 
BRANCH  50  64
ATOM     64  C   UNL A   1      43.981  28.481  35.290  1.00  0.00     0.057 A 
ATOM     65  C   UNL A   1      45.332  28.746  35.035  1.00  0.00     0.134 A 
ATOM     66  C   UNL A   1      43.686  27.497  36.242  1.00  0.00     0.134 A 
ATOM     67  F   UNL A   1      45.684  29.669  34.126  1.00  0.00    -0.206 F 
ATOM     68  C   UNL A   1      46.350  28.042  35.681  1.00  0.00     0.040 A 
ATOM     69  C   UNL A   1      44.694  26.803  36.914  1.00  0.00     0.040 A 
ATOM     70  F   UNL A   1      42.412  27.198  36.541  1.00  0.00    -0.206 F 
ATOM     71  C   UNL A   1      46.031  27.070  36.629  1.00  0.00     0.006 A 
ENDBRANCH  50  64
BRANCH  51  72
ATOM     72  C   UNL A   1      36.536  33.059  30.482  1.00  0.00     0.057 A 
ATOM     73  C   UNL A   1      35.213  32.835  30.881  1.00  0.00     0.134 A 
ATOM     74  C   UNL A   1      36.749  33.936  29.414  1.00  0.00     0.134 A 
ATOM     75  F   UNL A   1      34.945  31.990  31.886  1.00  0.00    -0.206 F 
ATOM     76  C   UNL A   1      34.141  33.447  30.230  1.00  0.00     0.040 A 
ATOM     77  C   UNL A   1      35.688  34.572  28.769  1.00  0.00     0.040 A 
ATOM     78  F   UNL A   1      37.994  34.197  28.990  1.00  0.00    -0.206 F 
ATOM     79  C   UNL A   1      34.377  34.323  29.174  1.00  0.00     0.006 A 
ENDBRANCH  51  72
BRANCH  63  80
ATOM     80  C   UNL A   1      39.935  34.337  36.418  1.00  0.00     0.057 A 
ATOM     81  C   UNL A   1      40.531  35.591  36.245  1.00  0.00     0.134 A 
ATOM     82  C   UNL A   1      39.163  34.136  37.569  1.00  0.00     0.134 A 
ATOM     83  F   UNL A   1      41.294  35.839  35.169  1.00  0.00    -0.206 F 
ATOM     84  C   UNL A   1      40.377  36.606  37.191  1.00  0.00     0.040 A 
ATOM     85  C   UNL A   1      38.983  35.150  38.510  1.00  0.00     0.040 A 
ATOM     86  F   UNL A   1      38.560  32.959  37.788  1.00  0.00    -0.206 F 
ATOM     87  C   UNL A   1      39.594  36.389  38.324  1.00  0.00     0.006 A 
ENDBRANCH  63  80
ENDBRANCH  37  38
ENDBRANCH  29  32
ENDBRANCH  27  28
ENDBRANCH  26  27
ENDBRANCH   1  26
TORSDOF 14
ENDMDL
MODEL 3
REMARK VINA RESULT:     -11.6      2.359      2.969
REMARK SMILES O=C(C[C@H](C(=O)NCCCNC(=O)c1ccc(-c2c3nc(c(-c4c(F)cccc4F)c4ccc([nH]4)c(-c4c(F)cccc4F)c4nc(c(-c5c(F)cccc5F)c5ccc2[nH]5)C=C4)C=C3)cc1)c1ccccc1)Nc1ccc(Cl)cc1Cl
REMARK SMILES IDX 8 1 7 2 5 3 6 4 4 6 3 7 2 8 1 9 74 10 75 12 76 13 81 14
REMARK SMILES IDX 77 15 80 16 82 17 78 18 79 19 68 20 69 21 73 22 70 23 72 24
REMARK SMILES IDX 71 25 9 26 10 27 11 28 12 29 13 31 14 32 15 33 67 34 16 35
REMARK SMILES IDX 66 36 17 37 18 38 19 39 60 40 20 41 65 42 59 43 61 44 21 45
REMARK SMILES IDX 64 46 58 47 57 48 22 50 48 51 31 52 47 53 32 54 35 55 46 56
REMARK SMILES IDX 62 57 33 58 34 59 45 61 63 62 36 63 23 64 24 65 29 66 25 67
REMARK SMILES IDX 26 68 28 69 30 70 27 71 49 72 50 73 55 74 51 75 52 76 54 77
REMARK SMILES IDX 56 78 53 79 37 80 38 81 43 82 39 83 40 84 42 85 44 86 41 87
REMARK H PARENT 7 5 74 11 11 30 61 49 35 60
REMARK Flexibility Score: inf
ROOT
ATOM      1  C   UNL A   1      34.225  21.366  26.773  1.00  0.00     0.117 C 
ENDROOT
BRANCH   1   2
ATOM      2  N   UNL A   1      32.854  21.815  26.600  1.00  0.00    -0.355 N 
ATOM      3  C   UNL A   1      31.912  21.551  25.654  1.00  0.00     0.228 C 
ATOM      4  O   UNL A   1      30.782  21.992  25.898  1.00  0.00    -0.274 OA
ATOM      5  H   UNL A   1      32.546  22.430  27.304  1.00  0.00     0.163 HD
BRANCH   3   6
ATOM      6  C   UNL A   1      32.183  20.862  24.307  1.00  0.00     0.118 C 
BRANCH   6   7
ATOM      7  C   UNL A   1      32.975  21.829  23.382  1.00  0.00     0.118 C 
BRANCH   7   8
ATOM      8  C   UNL A   1      32.734  23.325  23.523  1.00  0.00     0.225 C 
ATOM      9  O   UNL A   1      33.476  24.040  24.201  1.00  0.00    -0.275 OA
ATOM     10  N   UNL A   1      31.624  23.771  22.855  1.00  0.00    -0.325 N 
ATOM     11  H   UNL A   1      31.167  23.145  22.247  1.00  0.00     0.169 HD
BRANCH  10  12
ATOM     12  C   UNL A   1      31.095  25.069  22.985  1.00  0.00     0.060 A 
ATOM     13  C   UNL A   1      29.976  25.229  23.813  1.00  0.00     0.029 A 
ATOM     14  C   UNL A   1      31.551  26.156  22.225  1.00  0.00     0.066 A 
ATOM     15  C   UNL A   1      29.307  26.450  23.875  1.00  0.00     0.023 A 
ATOM     16  C   UNL A   1      30.872  27.378  22.279  1.00  0.00     0.043 A 
ATOM     17  Cl  UNL A   1      32.851  26.004  21.098  1.00  0.00    -0.082 Cl
ATOM     18  C   UNL A   1      29.753  27.517  23.100  1.00  0.00     0.042 A 
ATOM     19  Cl  UNL A   1      28.896  29.008  23.142  1.00  0.00    -0.084 Cl
ENDBRANCH  10  12
ENDBRANCH   7   8
ENDBRANCH   6   7
BRANCH   6  20
ATOM     20  C   UNL A   1      32.526  19.377  24.311  1.00  0.00    -0.035 A 
ATOM     21  C   UNL A   1      32.738  18.699  23.099  1.00  0.00     0.004 A 
ATOM     22  C   UNL A   1      32.549  18.607  25.487  1.00  0.00     0.004 A 
ATOM     23  C   UNL A   1      33.105  17.352  23.072  1.00  0.00     0.000 A 
ATOM     24  C   UNL A   1      32.934  17.263  25.466  1.00  0.00     0.000 A 
ATOM     25  C   UNL A   1      33.232  16.640  24.260  1.00  0.00     0.000 A 
ENDBRANCH   6  20
ENDBRANCH   3   6
ENDBRANCH   1   2
BRANCH   1  26
ATOM     26  C   UNL A   1      35.218  22.474  26.420  1.00  0.00     0.042 C 
BRANCH  26  27
ATOM     27  C   UNL A   1      36.024  22.158  25.170  1.00  0.00     0.118 C 
BRANCH  27  28
ATOM     28  N   UNL A   1      36.980  21.081  25.399  1.00  0.00    -0.352 N 
ATOM     29  C   UNL A   1      38.313  21.059  25.732  1.00  0.00     0.251 C 
ATOM     30  H   UNL A   1      36.588  20.184  25.295  1.00  0.00     0.163 HD
ATOM     31  O   UNL A   1      38.904  19.983  25.623  1.00  0.00    -0.269 OA
BRANCH  29  32
ATOM     32  C   UNL A   1      39.075  22.255  26.179  1.00  0.00     0.039 A 
ATOM     33  C   UNL A   1      40.160  22.063  27.050  1.00  0.00     0.014 A 
ATOM     34  C   UNL A   1      38.712  23.560  25.856  1.00  0.00     0.014 A 
ATOM     35  C   UNL A   1      40.889  23.155  27.542  1.00  0.00     0.010 A 
ATOM     36  C   UNL A   1      39.501  24.640  26.255  1.00  0.00     0.010 A 
ATOM     37  C   UNL A   1      40.590  24.457  27.117  1.00  0.00    -0.014 A 
BRANCH  37  38
ATOM     38  C   UNL A   1      41.368  25.645  27.571  1.00  0.00     0.031 A 
ATOM     39  C   UNL A   1      40.717  26.692  28.441  1.00  0.00     0.074 A 
ATOM     40  C   UNL A   1      42.627  25.837  27.132  1.00  0.00     0.049 A 
ATOM     41  N   UNL A   1      41.155  27.879  28.781  1.00  0.00    -0.248 NA
ATOM     42  C   UNL A   1      39.379  26.378  28.966  1.00  0.00     0.031 C 
ATOM     43  C   UNL A   1      43.369  24.925  26.261  1.00  0.00     0.029 A 
ATOM     44  N   UNL A   1      43.503  26.874  27.346  1.00  0.00    -0.354 N 
ATOM     45  C   UNL A   1      40.130  28.466  29.514  1.00  0.00     0.074 A 
ATOM     46  C   UNL A   1      39.034  27.522  29.537  1.00  0.00     0.031 C 
ATOM     47  C   UNL A   1      44.594  25.426  26.038  1.00  0.00     0.029 A 
ATOM     48  C   UNL A   1      44.707  26.720  26.702  1.00  0.00     0.049 A 
ATOM     49  H   UNL A   1      43.287  27.653  27.908  1.00  0.00     0.167 HD
ATOM     50  C   UNL A   1      40.109  29.673  30.130  1.00  0.00     0.037 A 
ATOM     51  C   UNL A   1      45.776  27.536  26.638  1.00  0.00     0.037 A 
ATOM     52  C   UNL A   1      41.222  30.586  30.164  1.00  0.00     0.049 A 
ATOM     53  C   UNL A   1      45.737  28.861  27.345  1.00  0.00     0.074 A 
ATOM     54  C   UNL A   1      41.323  31.800  30.820  1.00  0.00     0.029 A 
ATOM     55  N   UNL A   1      42.433  30.374  29.525  1.00  0.00    -0.354 N 
ATOM     56  N   UNL A   1      44.771  29.389  28.057  1.00  0.00    -0.248 NA
ATOM     57  C   UNL A   1      46.934  29.708  27.236  1.00  0.00     0.031 C 
ATOM     58  C   UNL A   1      42.587  32.337  30.556  1.00  0.00     0.029 A 
ATOM     59  C   UNL A   1      43.285  31.441  29.762  1.00  0.00     0.049 A 
ATOM     60  H   UNL A   1      42.657  29.583  28.982  1.00  0.00     0.167 HD
ATOM     61  C   UNL A   1      45.250  30.617  28.497  1.00  0.00     0.074 A 
ATOM     62  C   UNL A   1      46.597  30.750  27.983  1.00  0.00     0.031 C 
ATOM     63  C   UNL A   1      44.627  31.552  29.254  1.00  0.00     0.037 A 
BRANCH  50  64
ATOM     64  C   UNL A   1      38.841  30.075  30.828  1.00  0.00     0.057 A 
ATOM     65  C   UNL A   1      37.842  30.811  30.180  1.00  0.00     0.134 A 
ATOM     66  C   UNL A   1      38.605  29.697  32.156  1.00  0.00     0.134 A 
ATOM     67  F   UNL A   1      38.009  31.215  28.911  1.00  0.00    -0.206 F 
ATOM     68  C   UNL A   1      36.666  31.182  30.835  1.00  0.00     0.040 A 
ATOM     69  C   UNL A   1      37.422  30.038  32.814  1.00  0.00     0.040 A 
ATOM     70  F   UNL A   1      39.517  28.983  32.834  1.00  0.00    -0.206 F 
ATOM     71  C   UNL A   1      36.451  30.789  32.155  1.00  0.00     0.006 A 
ENDBRANCH  50  64
BRANCH  51  72
ATOM     72  C   UNL A   1      46.984  27.118  25.883  1.00  0.00     0.057 A 
ATOM     73  C   UNL A   1      47.129  27.439  24.528  1.00  0.00     0.134 A 
ATOM     74  C   UNL A   1      48.016  26.393  26.489  1.00  0.00     0.134 A 
ATOM     75  F   UNL A   1      46.163  28.115  23.889  1.00  0.00    -0.206 F 
ATOM     76  C   UNL A   1      48.248  27.040  23.798  1.00  0.00     0.040 A 
ATOM     77  C   UNL A   1      49.152  26.008  25.777  1.00  0.00     0.040 A 
ATOM     78  F   UNL A   1      47.940  26.062  27.786  1.00  0.00    -0.206 F 
ATOM     79  C   UNL A   1      49.268  26.327  24.424  1.00  0.00     0.006 A 
ENDBRANCH  51  72
BRANCH  63  80
ATOM     80  C   UNL A   1      45.406  32.784  29.601  1.00  0.00     0.057 A 
ATOM     81  C   UNL A   1      46.237  32.835  30.726  1.00  0.00     0.134 A 
ATOM     82  C   UNL A   1      45.361  33.912  28.774  1.00  0.00     0.134 A 
ATOM     83  F   UNL A   1      46.312  31.790  31.565  1.00  0.00    -0.206 F 
ATOM     84  C   UNL A   1      46.987  33.974  31.026  1.00  0.00     0.040 A 
ATOM     85  C   UNL A   1      46.123  35.048  29.050  1.00  0.00     0.040 A 
ATOM     86  F   UNL A   1      44.590  33.922  27.677  1.00  0.00    -0.206 F 
ATOM     87  C   UNL A   1      46.937  35.082  30.182  1.00  0.00     0.006 A 
ENDBRANCH  63  80
ENDBRANCH  37  38
ENDBRANCH  29  32
ENDBRANCH  27  28
ENDBRANCH  26  27
ENDBRANCH   1  26
TORSDOF 14
ENDMDL
