MODEL 1
REMARK VINA RESULT:     -12.0      0.000      0.000
REMARK SMILES O=C(COc1ccc(/C=N/NC(=O)c2cc3cc([N+](=O)[O-])ccc3o2)cc1)NCCCNC(=O)c1ccc(-c2c3nc(c(-c4c(F)cccc4F)c4ccc([nH]4)c(-c4c(F)cccc4F)c4nc(c(-c5c(F)cccc5F)c5ccc2[nH]5)C=C4)C=C3)cc1
REMARK SMILES IDX 1 1 2 2 28 3 3 5 4 6 5 7 6 8 27 9 7 10 26 11 8 12 9 13 10 14
REMARK SMILES IDX 11 15 12 16 13 18 14 19 15 20 25 21 16 22 24 23 17 24 23 25
REMARK SMILES IDX 18 26 22 27 19 28 20 29 21 30 29 31 30 32 31 33 32 34 33 35
REMARK SMILES IDX 34 37 35 38 36 39 88 40 37 41 87 42 38 43 39 44 40 45 81 46
REMARK SMILES IDX 41 47 86 48 80 49 82 50 42 51 85 52 79 53 78 54 43 56 69 57
REMARK SMILES IDX 52 58 68 59 53 60 56 61 67 62 83 63 54 64 55 65 66 67 84 68
REMARK SMILES IDX 57 69 44 70 45 71 50 72 46 73 47 74 49 75 51 76 48 77 70 78
REMARK SMILES IDX 71 79 76 80 72 81 73 82 75 83 77 84 74 85 58 86 59 87 64 88
REMARK SMILES IDX 60 89 61 90 63 91 65 92 62 93
REMARK H PARENT 28 4 11 17 32 36 82 55 56 66
REMARK Flexibility Score: inf
ROOT
ATOM      1  O   UNL A   1      36.312  33.172  28.090  1.00  0.00    -0.271 OA
ATOM      2  C   UNL A   1      35.099  32.988  28.080  1.00  0.00     0.257 C 
ATOM      3  N   UNL A   1      34.173  34.004  27.932  1.00  0.00    -0.353 N 
ATOM      4  H   UNL A   1      33.245  33.773  27.703  1.00  0.00     0.163 HD
ENDROOT
BRANCH   2   5
ATOM      5  C   UNL A   1      34.469  31.608  28.286  1.00  0.00     0.329 C 
BRANCH   5   6
ATOM      6  O   UNL A   1      33.347  31.322  27.448  1.00  0.00    -0.484 OA
BRANCH   6   7
ATOM      7  C   UNL A   1      33.150  29.989  27.200  1.00  0.00     0.120 A 
ATOM      8  C   UNL A   1      34.258  29.248  26.794  1.00  0.00     0.047 A 
ATOM      9  C   UNL A   1      31.886  29.389  27.209  1.00  0.00     0.047 A 
ATOM     10  C   UNL A   1      34.104  27.908  26.422  1.00  0.00     0.013 A 
ATOM     11  C   UNL A   1      31.722  28.062  26.821  1.00  0.00     0.013 A 
ATOM     12  C   UNL A   1      32.832  27.322  26.428  1.00  0.00    -0.005 A 
BRANCH  12  13
ATOM     13  C   UNL A   1      32.607  25.957  25.913  1.00  0.00     0.141 C 
ATOM     14  N   UNL A   1      33.553  25.085  25.962  1.00  0.00    -0.180 NA
BRANCH  14  15
ATOM     15  N   UNL A   1      33.447  23.894  25.327  1.00  0.00    -0.240 N 
ATOM     16  C   UNL A   1      33.566  23.467  24.026  1.00  0.00     0.307 C 
ATOM     17  H   UNL A   1      33.235  23.158  25.945  1.00  0.00     0.194 HD
ATOM     18  O   UNL A   1      33.867  22.278  23.869  1.00  0.00    -0.264 OA
BRANCH  16  19
ATOM     19  C   UNL A   1      33.242  24.281  22.871  1.00  0.00     0.194 A 
ATOM     20  C   UNL A   1      31.990  24.627  22.374  1.00  0.00     0.065 A 
ATOM     21  O   UNL A   1      34.104  25.334  22.654  1.00  0.00    -0.451 OA
ATOM     22  C   UNL A   1      32.004  26.053  22.280  1.00  0.00     0.028 A 
ATOM     23  C   UNL A   1      33.327  26.432  22.462  1.00  0.00     0.135 A 
ATOM     24  C   UNL A   1      31.015  27.053  22.221  1.00  0.00     0.097 A 
ATOM     25  C   UNL A   1      33.767  27.747  22.585  1.00  0.00     0.055 A 
ATOM     26  C   UNL A   1      31.418  28.382  22.473  1.00  0.00     0.270 A 
ATOM     27  C   UNL A   1      32.769  28.727  22.640  1.00  0.00     0.089 A 
BRANCH  26  28
ATOM     28  N   UNL A   1      30.385  29.410  22.672  1.00  0.00     0.062 N 
ATOM     29  O   UNL A   1      29.779  29.818  21.672  1.00  0.00    -0.258 OA
ATOM     30  O   UNL A   1      30.170  29.793  23.831  1.00  0.00    -0.258 OA
ENDBRANCH  26  28
ENDBRANCH  16  19
ENDBRANCH  14  15
ENDBRANCH  12  13
ENDBRANCH   6   7
ENDBRANCH   5   6
ENDBRANCH   2   5
BRANCH   3  31
ATOM     31  C   UNL A   1      34.531  35.396  28.104  1.00  0.00     0.117 C 
BRANCH  31  32
ATOM     32  C   UNL A   1      33.533  36.173  28.941  1.00  0.00     0.042 C 
BRANCH  32  33
ATOM     33  C   UNL A   1      32.734  35.310  29.907  1.00  0.00     0.118 C 
BRANCH  33  34
ATOM     34  N   UNL A   1      32.354  36.010  31.128  1.00  0.00    -0.352 N 
ATOM     35  C   UNL A   1      32.875  35.933  32.393  1.00  0.00     0.251 C 
ATOM     36  H   UNL A   1      31.604  36.639  31.026  1.00  0.00     0.163 HD
ATOM     37  O   UNL A   1      32.304  36.523  33.312  1.00  0.00    -0.269 OA
BRANCH  35  38
ATOM     38  C   UNL A   1      34.092  35.141  32.677  1.00  0.00     0.039 A 
ATOM     39  C   UNL A   1      35.336  35.687  32.345  1.00  0.00     0.014 A 
ATOM     40  C   UNL A   1      34.026  33.858  33.227  1.00  0.00     0.014 A 
ATOM     41  C   UNL A   1      36.505  34.968  32.601  1.00  0.00     0.010 A 
ATOM     42  C   UNL A   1      35.196  33.183  33.571  1.00  0.00     0.010 A 
ATOM     43  C   UNL A   1      36.448  33.718  33.240  1.00  0.00    -0.014 A 
BRANCH  43  44
ATOM     44  C   UNL A   1      37.689  32.954  33.528  1.00  0.00     0.031 A 
ATOM     45  C   UNL A   1      38.470  33.216  34.789  1.00  0.00     0.074 A 
ATOM     46  C   UNL A   1      38.129  32.036  32.645  1.00  0.00     0.049 A 
ATOM     47  N   UNL A   1      39.566  32.640  35.218  1.00  0.00    -0.248 NA
ATOM     48  C   UNL A   1      37.971  34.281  35.673  1.00  0.00     0.031 C 
ATOM     49  C   UNL A   1      37.497  31.724  31.361  1.00  0.00     0.029 A 
ATOM     50  N   UNL A   1      39.210  31.192  32.696  1.00  0.00    -0.354 N 
ATOM     51  C   UNL A   1      39.887  33.277  36.411  1.00  0.00     0.074 A 
ATOM     52  C   UNL A   1      38.911  34.327  36.604  1.00  0.00     0.031 C 
ATOM     53  C   UNL A   1      38.180  30.733  30.765  1.00  0.00     0.029 A 
ATOM     54  C   UNL A   1      39.313  30.362  31.606  1.00  0.00     0.049 A 
ATOM     55  H   UNL A   1      39.851  31.181  33.443  1.00  0.00     0.167 HD
ATOM     56  C   UNL A   1      40.884  32.997  37.284  1.00  0.00     0.037 A 
ATOM     57  C   UNL A   1      40.216  29.405  31.320  1.00  0.00     0.037 A 
ATOM     58  C   UNL A   1      41.845  31.941  37.102  1.00  0.00     0.049 A 
ATOM     59  C   UNL A   1      41.310  29.107  32.308  1.00  0.00     0.074 A 
ATOM     60  C   UNL A   1      42.866  31.547  37.950  1.00  0.00     0.029 A 
ATOM     61  N   UNL A   1      41.906  31.111  35.992  1.00  0.00    -0.354 N 
ATOM     62  N   UNL A   1      41.558  29.671  33.465  1.00  0.00    -0.248 NA
ATOM     63  C   UNL A   1      42.241  28.027  31.955  1.00  0.00     0.031 C 
ATOM     64  C   UNL A   1      43.573  30.511  37.331  1.00  0.00     0.029 A 
ATOM     65  C   UNL A   1      42.955  30.217  36.126  1.00  0.00     0.049 A 
ATOM     66  H   UNL A   1      41.293  31.151  35.223  1.00  0.00     0.167 HD
ATOM     67  C   UNL A   1      42.645  28.988  33.996  1.00  0.00     0.074 A 
ATOM     68  C   UNL A   1      42.999  27.960  33.040  1.00  0.00     0.031 C 
ATOM     69  C   UNL A   1      43.291  29.191  35.171  1.00  0.00     0.037 A 
BRANCH  56  70
ATOM     70  C   UNL A   1      40.981  33.848  38.520  1.00  0.00     0.057 A 
ATOM     71  C   UNL A   1      41.817  34.972  38.581  1.00  0.00     0.134 A 
ATOM     72  C   UNL A   1      40.213  33.556  39.654  1.00  0.00     0.134 A 
ATOM     73  F   UNL A   1      42.592  35.302  37.536  1.00  0.00    -0.206 F 
ATOM     74  C   UNL A   1      41.907  35.756  39.734  1.00  0.00     0.040 A 
ATOM     75  C   UNL A   1      40.271  34.350  40.800  1.00  0.00     0.040 A 
ATOM     76  F   UNL A   1      39.387  32.499  39.664  1.00  0.00    -0.206 F 
ATOM     77  C   UNL A   1      41.127  35.448  40.845  1.00  0.00     0.006 A 
ENDBRANCH  56  70
BRANCH  57  78
ATOM     78  C   UNL A   1      40.102  28.625  30.059  1.00  0.00     0.057 A 
ATOM     79  C   UNL A   1      40.755  29.038  28.892  1.00  0.00     0.134 A 
ATOM     80  C   UNL A   1      39.324  27.464  29.987  1.00  0.00     0.134 A 
ATOM     81  F   UNL A   1      41.502  30.152  28.894  1.00  0.00    -0.206 F 
ATOM     82  C   UNL A   1      40.617  28.341  27.690  1.00  0.00     0.040 A 
ATOM     83  C   UNL A   1      39.200  26.741  28.799  1.00  0.00     0.040 A 
ATOM     84  F   UNL A   1      38.680  27.011  31.072  1.00  0.00    -0.206 F 
ATOM     85  C   UNL A   1      39.840  27.186  27.644  1.00  0.00     0.006 A 
ENDBRANCH  57  78
BRANCH  69  86
ATOM     86  C   UNL A   1      44.408  28.245  35.511  1.00  0.00     0.057 A 
ATOM     87  C   UNL A   1      44.193  27.060  36.229  1.00  0.00     0.134 A 
ATOM     88  C   UNL A   1      45.720  28.525  35.106  1.00  0.00     0.134 A 
ATOM     89  F   UNL A   1      42.963  26.737  36.656  1.00  0.00    -0.206 F 
ATOM     90  C   UNL A   1      45.249  26.210  36.566  1.00  0.00     0.040 A 
ATOM     91  C   UNL A   1      46.778  27.665  35.409  1.00  0.00     0.040 A 
ATOM     92  F   UNL A   1      45.996  29.634  34.405  1.00  0.00    -0.206 F 
ATOM     93  C   UNL A   1      46.545  26.511  36.153  1.00  0.00     0.006 A 
ENDBRANCH  69  86
ENDBRANCH  43  44
ENDBRANCH  35  38
ENDBRANCH  33  34
ENDBRANCH  32  33
ENDBRANCH  31  32
ENDBRANCH   3  31
TORSDOF 16
ENDMDL
MODEL 2
REMARK VINA RESULT:     -11.8      1.942      3.817
REMARK SMILES O=C(COc1ccc(/C=N/NC(=O)c2cc3cc([N+](=O)[O-])ccc3o2)cc1)NCCCNC(=O)c1ccc(-c2c3nc(c(-c4c(F)cccc4F)c4ccc([nH]4)c(-c4c(F)cccc4F)c4nc(c(-c5c(F)cccc5F)c5ccc2[nH]5)C=C4)C=C3)cc1
REMARK SMILES IDX 1 1 2 2 28 3 3 5 4 6 5 7 6 8 27 9 7 10 26 11 8 12 9 13 10 14
REMARK SMILES IDX 11 15 12 16 13 18 14 19 15 20 25 21 16 22 24 23 17 24 23 25
REMARK SMILES IDX 18 26 22 27 19 28 20 29 21 30 29 31 30 32 31 33 32 34 33 35
REMARK SMILES IDX 34 37 35 38 36 39 88 40 37 41 87 42 38 43 39 44 40 45 81 46
REMARK SMILES IDX 41 47 86 48 80 49 82 50 42 51 85 52 79 53 78 54 43 56 69 57
REMARK SMILES IDX 52 58 68 59 53 60 56 61 67 62 83 63 54 64 55 65 66 67 84 68
REMARK SMILES IDX 57 69 44 70 45 71 50 72 46 73 47 74 49 75 51 76 48 77 70 78
REMARK SMILES IDX 71 79 76 80 72 81 73 82 75 83 77 84 74 85 58 86 59 87 64 88
REMARK SMILES IDX 60 89 61 90 63 91 65 92 62 93
REMARK H PARENT 28 4 11 17 32 36 82 55 56 66
REMARK Flexibility Score: inf
ROOT
ATOM      1  O   UNL A   1      36.433  32.637  28.120  1.00  0.00    -0.271 OA
ATOM      2  C   UNL A   1      35.251  32.332  28.004  1.00  0.00     0.257 C 
ATOM      3  N   UNL A   1      34.209  33.209  28.238  1.00  0.00    -0.353 N 
ATOM      4  H   UNL A   1      33.310  32.980  27.911  1.00  0.00     0.163 HD
ENDROOT
BRANCH   2   5
ATOM      5  C   UNL A   1      34.793  30.918  27.636  1.00  0.00     0.329 C 
BRANCH   5   6
ATOM      6  O   UNL A   1      33.654  30.854  26.775  1.00  0.00    -0.484 OA
BRANCH   6   7
ATOM      7  C   UNL A   1      33.155  29.591  26.588  1.00  0.00     0.120 A 
ATOM      8  C   UNL A   1      31.924  29.302  27.174  1.00  0.00     0.047 A 
ATOM      9  C   UNL A   1      33.876  28.570  25.962  1.00  0.00     0.047 A 
ATOM     10  C   UNL A   1      31.409  28.003  27.112  1.00  0.00     0.013 A 
ATOM     11  C   UNL A   1      33.380  27.269  25.915  1.00  0.00     0.013 A 
ATOM     12  C   UNL A   1      32.146  26.987  26.489  1.00  0.00    -0.005 A 
BRANCH  12  13
ATOM     13  C   UNL A   1      31.703  25.579  26.524  1.00  0.00     0.141 C 
ATOM     14  N   UNL A   1      30.842  25.153  25.667  1.00  0.00    -0.180 NA
BRANCH  14  15
ATOM     15  N   UNL A   1      30.273  23.930  25.789  1.00  0.00    -0.240 N 
ATOM     16  C   UNL A   1      30.739  22.640  25.873  1.00  0.00     0.307 C 
ATOM     17  H   UNL A   1      29.290  23.977  25.827  1.00  0.00     0.194 HD
ATOM     18  O   UNL A   1      29.996  21.828  26.437  1.00  0.00    -0.264 OA
BRANCH  16  19
ATOM     19  C   UNL A   1      31.960  22.174  25.245  1.00  0.00     0.194 A 
ATOM     20  C   UNL A   1      32.915  21.296  25.745  1.00  0.00     0.065 A 
ATOM     21  O   UNL A   1      31.867  21.989  23.883  1.00  0.00    -0.451 OA
ATOM     22  C   UNL A   1      33.051  20.281  24.748  1.00  0.00     0.028 A 
ATOM     23  C   UNL A   1      32.386  20.760  23.627  1.00  0.00     0.135 A 
ATOM     24  C   UNL A   1      33.526  18.956  24.738  1.00  0.00     0.097 A 
ATOM     25  C   UNL A   1      32.153  20.025  22.467  1.00  0.00     0.055 A 
ATOM     26  C   UNL A   1      33.189  18.151  23.629  1.00  0.00     0.270 A 
ATOM     27  C   UNL A   1      32.526  18.677  22.508  1.00  0.00     0.089 A 
BRANCH  26  28
ATOM     28  N   UNL A   1      33.444  16.704  23.698  1.00  0.00     0.062 N 
ATOM     29  O   UNL A   1      34.165  16.205  22.824  1.00  0.00    -0.258 OA
ATOM     30  O   UNL A   1      32.938  16.075  24.638  1.00  0.00    -0.258 OA
ENDBRANCH  26  28
ENDBRANCH  16  19
ENDBRANCH  14  15
ENDBRANCH  12  13
ENDBRANCH   6   7
ENDBRANCH   5   6
ENDBRANCH   2   5
BRANCH   3  31
ATOM     31  C   UNL A   1      34.402  34.454  28.951  1.00  0.00     0.117 C 
BRANCH  31  32
ATOM     32  C   UNL A   1      33.183  35.356  28.926  1.00  0.00     0.042 C 
BRANCH  32  33
ATOM     33  C   UNL A   1      33.277  36.545  29.871  1.00  0.00     0.118 C 
BRANCH  33  34
ATOM     34  N   UNL A   1      32.387  36.440  31.021  1.00  0.00    -0.352 N 
ATOM     35  C   UNL A   1      32.511  35.711  32.174  1.00  0.00     0.251 C 
ATOM     36  H   UNL A   1      31.567  36.981  30.959  1.00  0.00     0.163 HD
ATOM     37  O   UNL A   1      31.562  35.669  32.961  1.00  0.00    -0.269 OA
BRANCH  35  38
ATOM     38  C   UNL A   1      33.749  34.960  32.480  1.00  0.00     0.039 A 
ATOM     39  C   UNL A   1      34.975  35.624  32.377  1.00  0.00     0.014 A 
ATOM     40  C   UNL A   1      33.724  33.606  32.828  1.00  0.00     0.014 A 
ATOM     41  C   UNL A   1      36.162  34.946  32.661  1.00  0.00     0.010 A 
ATOM     42  C   UNL A   1      34.899  32.959  33.204  1.00  0.00     0.010 A 
ATOM     43  C   UNL A   1      36.134  33.613  33.102  1.00  0.00    -0.014 A 
BRANCH  43  44
ATOM     44  C   UNL A   1      37.393  32.890  33.419  1.00  0.00     0.031 A 
ATOM     45  C   UNL A   1      38.132  33.171  34.701  1.00  0.00     0.074 A 
ATOM     46  C   UNL A   1      37.887  31.992  32.543  1.00  0.00     0.049 A 
ATOM     47  N   UNL A   1      39.234  32.631  35.156  1.00  0.00    -0.248 NA
ATOM     48  C   UNL A   1      37.573  34.214  35.576  1.00  0.00     0.031 C 
ATOM     49  C   UNL A   1      37.300  31.667  31.241  1.00  0.00     0.029 A 
ATOM     50  N   UNL A   1      38.995  31.186  32.618  1.00  0.00    -0.354 N 
ATOM     51  C   UNL A   1      39.502  33.272  36.360  1.00  0.00     0.074 A 
ATOM     52  C   UNL A   1      38.486  34.286  36.532  1.00  0.00     0.031 C 
ATOM     53  C   UNL A   1      38.032  30.704  30.658  1.00  0.00     0.029 A 
ATOM     54  C   UNL A   1      39.155  30.366  31.527  1.00  0.00     0.049 A 
ATOM     55  H   UNL A   1      39.617  31.193  33.381  1.00  0.00     0.167 HD
ATOM     56  C   UNL A   1      40.485  33.021  37.257  1.00  0.00     0.037 A 
ATOM     57  C   UNL A   1      40.097  29.442  31.260  1.00  0.00     0.037 A 
ATOM     58  C   UNL A   1      41.487  31.999  37.095  1.00  0.00     0.049 A 
ATOM     59  C   UNL A   1      41.175  29.177  32.275  1.00  0.00     0.074 A 
ATOM     60  C   UNL A   1      42.498  31.636  37.968  1.00  0.00     0.029 A 
ATOM     61  N   UNL A   1      41.605  31.178  35.983  1.00  0.00    -0.354 N 
ATOM     62  N   UNL A   1      41.373  29.742  33.441  1.00  0.00    -0.248 NA
ATOM     63  C   UNL A   1      42.151  28.131  31.941  1.00  0.00     0.031 C 
ATOM     64  C   UNL A   1      43.256  30.628  37.363  1.00  0.00     0.029 A 
ATOM     65  C   UNL A   1      42.681  30.320  36.140  1.00  0.00     0.049 A 
ATOM     66  H   UNL A   1      41.011  31.202  35.198  1.00  0.00     0.167 HD
ATOM     67  C   UNL A   1      42.469  29.094  33.997  1.00  0.00     0.074 A 
ATOM     68  C   UNL A   1      42.882  28.084  33.045  1.00  0.00     0.031 C 
ATOM     69  C   UNL A   1      43.077  29.312  35.189  1.00  0.00     0.037 A 
BRANCH  56  70
ATOM     70  C   UNL A   1      40.521  33.867  38.500  1.00  0.00     0.057 A 
ATOM     71  C   UNL A   1      39.767  33.544  39.637  1.00  0.00     0.134 A 
ATOM     72  C   UNL A   1      41.337  35.002  38.571  1.00  0.00     0.134 A 
ATOM     73  F   UNL A   1      38.952  32.478  39.633  1.00  0.00    -0.206 F 
ATOM     74  C   UNL A   1      39.800  34.337  40.786  1.00  0.00     0.040 A 
ATOM     75  C   UNL A   1      41.403  35.784  39.725  1.00  0.00     0.040 A 
ATOM     76  F   UNL A   1      42.091  35.367  37.522  1.00  0.00    -0.206 F 
ATOM     77  C   UNL A   1      40.626  35.457  40.834  1.00  0.00     0.006 A 
ENDBRANCH  56  70
BRANCH  57  78
ATOM     78  C   UNL A   1      40.043  28.667  29.993  1.00  0.00     0.057 A 
ATOM     79  C   UNL A   1      39.296  27.488  29.896  1.00  0.00     0.134 A 
ATOM     80  C   UNL A   1      40.753  29.075  28.857  1.00  0.00     0.134 A 
ATOM     81  F   UNL A   1      38.607  27.037  30.956  1.00  0.00    -0.206 F 
ATOM     82  C   UNL A   1      39.276  26.726  28.727  1.00  0.00     0.040 A 
ATOM     83  C   UNL A   1      40.720  28.338  27.672  1.00  0.00     0.040 A 
ATOM     84  F   UNL A   1      41.482  30.200  28.881  1.00  0.00    -0.206 F 
ATOM     85  C   UNL A   1      39.987  27.154  27.609  1.00  0.00     0.006 A 
ENDBRANCH  57  78
BRANCH  69  86
ATOM     86  C   UNL A   1      44.216  28.403  35.554  1.00  0.00     0.057 A 
ATOM     87  C   UNL A   1      44.026  27.215  36.273  1.00  0.00     0.134 A 
ATOM     88  C   UNL A   1      45.526  28.722  35.171  1.00  0.00     0.134 A 
ATOM     89  F   UNL A   1      42.799  26.855  36.680  1.00  0.00    -0.206 F 
ATOM     90  C   UNL A   1      45.101  26.400  36.634  1.00  0.00     0.040 A 
ATOM     91  C   UNL A   1      46.604  27.897  35.497  1.00  0.00     0.040 A 
ATOM     92  F   UNL A   1      45.780  29.836  34.470  1.00  0.00    -0.206 F 
ATOM     93  C   UNL A   1      46.394  26.740  36.242  1.00  0.00     0.006 A 
ENDBRANCH  69  86
ENDBRANCH  43  44
ENDBRANCH  35  38
ENDBRANCH  33  34
ENDBRANCH  32  33
ENDBRANCH  31  32
ENDBRANCH   3  31
TORSDOF 16
ENDMDL
MODEL 3
REMARK VINA RESULT:     -11.8      6.644     12.086
REMARK SMILES O=C(COc1ccc(/C=N/NC(=O)c2cc3cc([N+](=O)[O-])ccc3o2)cc1)NCCCNC(=O)c1ccc(-c2c3nc(c(-c4c(F)cccc4F)c4ccc([nH]4)c(-c4c(F)cccc4F)c4nc(c(-c5c(F)cccc5F)c5ccc2[nH]5)C=C4)C=C3)cc1
REMARK SMILES IDX 1 1 2 2 28 3 3 5 4 6 5 7 6 8 27 9 7 10 26 11 8 12 9 13 10 14
REMARK SMILES IDX 11 15 12 16 13 18 14 19 15 20 25 21 16 22 24 23 17 24 23 25
REMARK SMILES IDX 18 26 22 27 19 28 20 29 21 30 29 31 30 32 31 33 32 34 33 35
REMARK SMILES IDX 34 37 35 38 36 39 88 40 37 41 87 42 38 43 39 44 40 45 81 46
REMARK SMILES IDX 41 47 86 48 80 49 82 50 42 51 85 52 79 53 78 54 43 56 69 57
REMARK SMILES IDX 52 58 68 59 53 60 56 61 67 62 83 63 54 64 55 65 66 67 84 68
REMARK SMILES IDX 57 69 44 70 45 71 50 72 46 73 47 74 49 75 51 76 48 77 70 78
REMARK SMILES IDX 71 79 76 80 72 81 73 82 75 83 77 84 74 85 58 86 59 87 64 88
REMARK SMILES IDX 60 89 61 90 63 91 65 92 62 93
REMARK H PARENT 28 4 11 17 32 36 82 55 56 66
REMARK Flexibility Score: inf
ROOT
ATOM      1  O   UNL A   1      41.322  22.152  28.355  1.00  0.00    -0.271 OA
ATOM      2  C   UNL A   1      40.722  21.720  27.375  1.00  0.00     0.257 C 
ATOM      3  N   UNL A   1      40.874  20.434  26.893  1.00  0.00    -0.353 N 
ATOM      4  H   UNL A   1      40.208  20.080  26.261  1.00  0.00     0.163 HD
ENDROOT
BRANCH   2   5
ATOM      5  C   UNL A   1      39.770  22.582  26.541  1.00  0.00     0.329 C 
BRANCH   5   6
ATOM      6  O   UNL A   1      38.828  21.854  25.751  1.00  0.00    -0.484 OA
BRANCH   6   7
ATOM      7  C   UNL A   1      37.762  22.596  25.313  1.00  0.00     0.120 A 
ATOM      8  C   UNL A   1      37.312  23.615  26.150  1.00  0.00     0.047 A 
ATOM      9  C   UNL A   1      37.045  22.291  24.152  1.00  0.00     0.047 A 
ATOM     10  C   UNL A   1      36.164  24.339  25.812  1.00  0.00     0.013 A 
ATOM     11  C   UNL A   1      35.889  22.994  23.820  1.00  0.00     0.013 A 
ATOM     12  C   UNL A   1      35.450  24.018  24.650  1.00  0.00    -0.005 A 
BRANCH  12  13
ATOM     13  C   UNL A   1      34.161  24.664  24.332  1.00  0.00     0.141 C 
ATOM     14  N   UNL A   1      33.876  25.816  24.831  1.00  0.00    -0.180 NA
BRANCH  14  15
ATOM     15  N   UNL A   1      32.635  26.345  24.718  1.00  0.00    -0.240 N 
ATOM     16  C   UNL A   1      31.415  26.107  25.307  1.00  0.00     0.307 C 
ATOM     17  H   UNL A   1      32.597  27.074  24.058  1.00  0.00     0.194 HD
ATOM     18  O   UNL A   1      30.623  27.057  25.320  1.00  0.00    -0.264 OA
BRANCH  16  19
ATOM     19  C   UNL A   1      30.982  24.808  25.783  1.00  0.00     0.194 A 
ATOM     20  C   UNL A   1      30.651  23.678  25.043  1.00  0.00     0.065 A 
ATOM     21  O   UNL A   1      31.575  24.403  26.958  1.00  0.00    -0.451 OA
ATOM     22  C   UNL A   1      31.461  22.629  25.578  1.00  0.00     0.028 A 
ATOM     23  C   UNL A   1      32.006  23.131  26.752  1.00  0.00     0.135 A 
ATOM     24  C   UNL A   1      31.909  21.381  25.104  1.00  0.00     0.097 A 
ATOM     25  C   UNL A   1      32.971  22.486  27.520  1.00  0.00     0.055 A 
ATOM     26  C   UNL A   1      32.977  20.768  25.792  1.00  0.00     0.270 A 
ATOM     27  C   UNL A   1      33.492  21.302  26.985  1.00  0.00     0.089 A 
BRANCH  26  28
ATOM     28  N   UNL A   1      33.636  19.601  25.185  1.00  0.00     0.062 N 
ATOM     29  O   UNL A   1      32.960  18.574  25.033  1.00  0.00    -0.258 OA
ATOM     30  O   UNL A   1      34.821  19.722  24.845  1.00  0.00    -0.258 OA
ENDBRANCH  26  28
ENDBRANCH  16  19
ENDBRANCH  14  15
ENDBRANCH  12  13
ENDBRANCH   6   7
ENDBRANCH   5   6
ENDBRANCH   2   5
BRANCH   3  31
ATOM     31  C   UNL A   1      41.983  19.594  27.290  1.00  0.00     0.117 C 
BRANCH  31  32
ATOM     32  C   UNL A   1      42.414  18.619  26.211  1.00  0.00     0.042 C 
BRANCH  32  33
ATOM     33  C   UNL A   1      43.923  18.524  26.033  1.00  0.00     0.118 C 
BRANCH  33  34
ATOM     34  N   UNL A   1      44.342  18.556  24.637  1.00  0.00    -0.352 N 
ATOM     35  C   UNL A   1      44.740  19.608  23.854  1.00  0.00     0.251 C 
ATOM     36  H   UNL A   1      44.340  17.682  24.186  1.00  0.00     0.163 HD
ATOM     37  O   UNL A   1      44.924  19.422  22.649  1.00  0.00    -0.269 OA
BRANCH  35  38
ATOM     38  C   UNL A   1      44.932  20.961  24.423  1.00  0.00     0.039 A 
ATOM     39  C   UNL A   1      44.515  22.065  23.673  1.00  0.00     0.014 A 
ATOM     40  C   UNL A   1      45.549  21.159  25.661  1.00  0.00     0.014 A 
ATOM     41  C   UNL A   1      44.680  23.355  24.182  1.00  0.00     0.010 A 
ATOM     42  C   UNL A   1      45.624  22.439  26.208  1.00  0.00     0.010 A 
ATOM     43  C   UNL A   1      45.213  23.554  25.465  1.00  0.00    -0.014 A 
BRANCH  43  44
ATOM     44  C   UNL A   1      45.377  24.923  26.018  1.00  0.00     0.031 A 
ATOM     45  C   UNL A   1      46.725  25.596  26.001  1.00  0.00     0.074 A 
ATOM     46  C   UNL A   1      44.317  25.559  26.555  1.00  0.00     0.049 A 
ATOM     47  N   UNL A   1      47.059  26.790  26.423  1.00  0.00    -0.248 NA
ATOM     48  C   UNL A   1      47.851  24.816  25.464  1.00  0.00     0.031 C 
ATOM     49  C   UNL A   1      42.969  24.999  26.684  1.00  0.00     0.029 A 
ATOM     50  N   UNL A   1      44.206  26.818  27.091  1.00  0.00    -0.354 N 
ATOM     51  C   UNL A   1      48.428  26.898  26.209  1.00  0.00     0.074 A 
ATOM     52  C   UNL A   1      48.874  25.626  25.685  1.00  0.00     0.031 C 
ATOM     53  C   UNL A   1      42.160  25.924  27.226  1.00  0.00     0.029 A 
ATOM     54  C   UNL A   1      42.935  27.127  27.513  1.00  0.00     0.049 A 
ATOM     55  H   UNL A   1      44.964  27.441  27.166  1.00  0.00     0.167 HD
ATOM     56  C   UNL A   1      49.237  27.967  26.403  1.00  0.00     0.037 A 
ATOM     57  C   UNL A   1      42.448  28.255  28.062  1.00  0.00     0.037 A 
ATOM     58  C   UNL A   1      48.791  29.239  26.908  1.00  0.00     0.049 A 
ATOM     59  C   UNL A   1      43.365  29.431  28.261  1.00  0.00     0.074 A 
ATOM     60  C   UNL A   1      49.523  30.398  27.097  1.00  0.00     0.029 A 
ATOM     61  N   UNL A   1      47.492  29.518  27.308  1.00  0.00    -0.354 N 
ATOM     62  N   UNL A   1      44.642  29.542  27.987  1.00  0.00    -0.248 NA
ATOM     63  C   UNL A   1      42.766  30.646  28.830  1.00  0.00     0.031 C 
ATOM     64  C   UNL A   1      48.678  31.363  27.657  1.00  0.00     0.029 A 
ATOM     65  C   UNL A   1      47.405  30.825  27.757  1.00  0.00     0.049 A 
ATOM     66  H   UNL A   1      46.742  28.880  27.277  1.00  0.00     0.167 HD
ATOM     67  C   UNL A   1      44.989  30.848  28.312  1.00  0.00     0.074 A 
ATOM     68  C   UNL A   1      43.784  31.492  28.790  1.00  0.00     0.031 C 
ATOM     69  C   UNL A   1      46.196  31.459  28.221  1.00  0.00     0.037 A 
BRANCH  56  70
ATOM     70  C   UNL A   1      50.692  27.804  26.061  1.00  0.00     0.057 A 
ATOM     71  C   UNL A   1      51.647  27.464  27.030  1.00  0.00     0.134 A 
ATOM     72  C   UNL A   1      51.142  27.964  24.745  1.00  0.00     0.134 A 
ATOM     73  F   UNL A   1      51.288  27.310  28.314  1.00  0.00    -0.206 F 
ATOM     74  C   UNL A   1      52.998  27.319  26.708  1.00  0.00     0.040 A 
ATOM     75  C   UNL A   1      52.484  27.791  24.404  1.00  0.00     0.040 A 
ATOM     76  F   UNL A   1      50.282  28.283  23.765  1.00  0.00    -0.206 F 
ATOM     77  C   UNL A   1      53.418  27.476  25.389  1.00  0.00     0.006 A 
ENDBRANCH  56  70
BRANCH  57  78
ATOM     78  C   UNL A   1      41.011  28.347  28.428  1.00  0.00     0.057 A 
ATOM     79  C   UNL A   1      40.065  28.850  27.527  1.00  0.00     0.134 A 
ATOM     80  C   UNL A   1      40.552  27.953  29.690  1.00  0.00     0.134 A 
ATOM     81  F   UNL A   1      40.445  29.260  26.308  1.00  0.00    -0.206 F 
ATOM     82  C   UNL A   1      38.720  28.986  27.877  1.00  0.00     0.040 A 
ATOM     83  C   UNL A   1      39.206  28.056  30.043  1.00  0.00     0.040 A 
ATOM     84  F   UNL A   1      41.406  27.453  30.596  1.00  0.00    -0.206 F 
ATOM     85  C   UNL A   1      38.287  28.583  29.137  1.00  0.00     0.006 A 
ENDBRANCH  57  78
BRANCH  69  86
ATOM     86  C   UNL A   1      46.257  32.914  28.591  1.00  0.00     0.057 A 
ATOM     87  C   UNL A   1      46.554  33.344  29.892  1.00  0.00     0.134 A 
ATOM     88  C   UNL A   1      46.019  33.901  27.625  1.00  0.00     0.134 A 
ATOM     89  F   UNL A   1      46.782  32.452  30.868  1.00  0.00    -0.206 F 
ATOM     90  C   UNL A   1      46.571  34.700  30.226  1.00  0.00     0.040 A 
ATOM     91  C   UNL A   1      46.067  35.260  27.940  1.00  0.00     0.040 A 
ATOM     92  F   UNL A   1      45.743  33.561  26.358  1.00  0.00    -0.206 F 
ATOM     93  C   UNL A   1      46.330  35.662  29.247  1.00  0.00     0.006 A 
ENDBRANCH  69  86
ENDBRANCH  43  44
ENDBRANCH  35  38
ENDBRANCH  33  34
ENDBRANCH  32  33
ENDBRANCH  31  32
ENDBRANCH   3  31
TORSDOF 16
ENDMDL
