MODEL 1
REMARK VINA RESULT:      -9.1      0.000      0.000
REMARK SMILES CC1=C(CCC(=O)NCCCNC(=O)c2ccc(-c3c4nc(c(-c5c(F)cccc5F)c5ccc([nH]5)c(-c5c(F)cccc5F)c5nc(c(-c6c(F)cccc6F)c6ccc3[nH]6)C=C5)C=C4)cc2)N=N[C@H]1C
REMARK SMILES IDX 10 1 9 2 8 3 6 4 7 5 5 7 4 8 3 9 1 10 2 11 71 12 69 13 70 14
REMARK SMILES IDX 72 15 11 16 12 17 13 18 14 20 15 21 16 22 68 23 17 24 67 25
REMARK SMILES IDX 18 26 19 27 20 28 61 29 21 30 66 31 60 32 62 33 22 34 65 35
REMARK SMILES IDX 59 36 58 37 23 39 49 40 32 41 48 42 33 43 36 44 47 45 63 46
REMARK SMILES IDX 34 47 35 48 46 50 64 51 37 52 24 53 25 54 30 55 26 56 27 57
REMARK SMILES IDX 29 58 31 59 28 60 50 61 51 62 56 63 52 64 53 65 55 66 57 67
REMARK SMILES IDX 54 68 38 69 39 70 44 71 40 72 41 73 43 74 45 75 42 76
REMARK H PARENT 8 6 12 19 62 38 36 49
REMARK Flexibility Score: inf
ROOT
ATOM      1  C   UNL A   1      34.890  34.052  32.061  1.00  0.00     0.042 C 
ENDROOT
BRANCH   1   2
ATOM      2  C   UNL A   1      36.301  34.474  32.450  1.00  0.00     0.117 C 
BRANCH   2   3
ATOM      3  N   UNL A   1      37.146  34.556  31.267  1.00  0.00    -0.356 N 
ATOM      4  C   UNL A   1      38.506  34.628  31.182  1.00  0.00     0.220 C 
ATOM      5  O   UNL A   1      39.008  34.944  30.103  1.00  0.00    -0.275 OA
ATOM      6  H   UNL A   1      36.668  34.559  30.406  1.00  0.00     0.163 HD
BRANCH   4   7
ATOM      7  C   UNL A   1      39.376  34.259  32.370  1.00  0.00     0.106 C 
BRANCH   7   8
ATOM      8  C   UNL A   1      39.989  32.855  32.298  1.00  0.00     0.068 C 
BRANCH   8   9
ATOM      9  C   UNL A   1      39.810  32.054  33.552  1.00  0.00     0.064 C 
ATOM     10  C   UNL A   1      37.518  30.940  33.242  1.00  0.00     0.044 C 
ATOM     11  C   UNL A   1      38.763  31.318  33.942  1.00  0.00    -0.024 C 
ATOM     12  C   UNL A   1      39.076  30.871  35.329  1.00  0.00     0.153 C 
ATOM     13  N   UNL A   1      40.830  31.999  34.467  1.00  0.00    -0.160 NA
ATOM     14  N   UNL A   1      40.467  31.367  35.500  1.00  0.00    -0.181 NA
ATOM     15  C   UNL A   1      38.160  31.515  36.367  1.00  0.00     0.040 C 
ENDBRANCH   8   9
ENDBRANCH   7   8
ENDBRANCH   4   7
ENDBRANCH   2   3
ENDBRANCH   1   2
BRANCH   1  16
ATOM     16  C   UNL A   1      34.786  32.643  31.554  1.00  0.00     0.118 C 
BRANCH  16  17
ATOM     17  N   UNL A   1      34.459  32.513  30.134  1.00  0.00    -0.352 N 
ATOM     18  C   UNL A   1      35.212  31.878  29.146  1.00  0.00     0.251 C 
ATOM     19  H   UNL A   1      33.609  32.918  29.843  1.00  0.00     0.163 HD
ATOM     20  O   UNL A   1      34.949  32.011  27.969  1.00  0.00    -0.269 OA
BRANCH  18  21
ATOM     21  C   UNL A   1      36.372  31.058  29.577  1.00  0.00     0.039 A 
ATOM     22  C   UNL A   1      36.260  29.711  29.933  1.00  0.00     0.014 A 
ATOM     23  C   UNL A   1      37.623  31.648  29.507  1.00  0.00     0.014 A 
ATOM     24  C   UNL A   1      37.432  28.974  30.123  1.00  0.00     0.010 A 
ATOM     25  C   UNL A   1      38.722  30.862  29.352  1.00  0.00     0.010 A 
ATOM     26  C   UNL A   1      38.667  29.560  29.804  1.00  0.00    -0.014 A 
BRANCH  26  27
ATOM     27  C   UNL A   1      39.940  28.860  29.896  1.00  0.00     0.031 A 
ATOM     28  C   UNL A   1      40.488  28.737  31.265  1.00  0.00     0.074 A 
ATOM     29  C   UNL A   1      40.474  28.167  28.863  1.00  0.00     0.049 A 
ATOM     30  N   UNL A   1      41.500  29.362  31.760  1.00  0.00    -0.248 NA
ATOM     31  C   UNL A   1      39.743  27.929  32.240  1.00  0.00     0.031 C 
ATOM     32  C   UNL A   1      39.897  27.884  27.537  1.00  0.00     0.029 A 
ATOM     33  N   UNL A   1      41.641  27.470  28.823  1.00  0.00    -0.354 N 
ATOM     34  C   UNL A   1      41.663  28.859  33.047  1.00  0.00     0.074 A 
ATOM     35  C   UNL A   1      40.448  28.150  33.353  1.00  0.00     0.031 C 
ATOM     36  C   UNL A   1      40.596  26.903  26.930  1.00  0.00     0.029 A 
ATOM     37  C   UNL A   1      41.780  26.638  27.718  1.00  0.00     0.049 A 
ATOM     38  H   UNL A   1      42.330  27.548  29.520  1.00  0.00     0.167 HD
ATOM     39  C   UNL A   1      42.890  28.853  33.640  1.00  0.00     0.037 A 
ATOM     40  C   UNL A   1      42.806  25.793  27.463  1.00  0.00     0.037 A 
ATOM     41  C   UNL A   1      43.809  29.706  32.923  1.00  0.00     0.049 A 
ATOM     42  C   UNL A   1      43.952  26.243  28.286  1.00  0.00     0.074 A 
ATOM     43  C   UNL A   1      43.841  31.048  32.590  1.00  0.00     0.029 A 
ATOM     44  N   UNL A   1      44.715  29.096  32.090  1.00  0.00    -0.354 N 
ATOM     45  N   UNL A   1      44.595  27.361  28.094  1.00  0.00    -0.248 NA
ATOM     46  C   UNL A   1      44.112  25.652  29.605  1.00  0.00     0.031 C 
ATOM     47  C   UNL A   1      44.400  31.091  31.277  1.00  0.00     0.029 A 
ATOM     48  C   UNL A   1      44.738  29.788  30.908  1.00  0.00     0.049 A 
ATOM     49  H   UNL A   1      45.253  28.300  32.305  1.00  0.00     0.167 HD
ATOM     50  C   UNL A   1      44.869  27.834  29.368  1.00  0.00     0.074 A 
ATOM     51  C   UNL A   1      44.657  26.686  30.249  1.00  0.00     0.031 C 
ATOM     52  C   UNL A   1      44.957  29.174  29.616  1.00  0.00     0.037 A 
BRANCH  39  53
ATOM     53  C   UNL A   1      43.378  27.795  34.606  1.00  0.00     0.057 A 
ATOM     54  C   UNL A   1      43.767  28.190  35.901  1.00  0.00     0.134 A 
ATOM     55  C   UNL A   1      43.754  26.485  34.249  1.00  0.00     0.134 A 
ATOM     56  F   UNL A   1      43.472  29.413  36.368  1.00  0.00    -0.206 F 
ATOM     57  C   UNL A   1      44.549  27.381  36.734  1.00  0.00     0.040 A 
ATOM     58  C   UNL A   1      44.489  25.648  35.095  1.00  0.00     0.040 A 
ATOM     59  F   UNL A   1      43.526  25.969  33.037  1.00  0.00    -0.206 F 
ATOM     60  C   UNL A   1      44.922  26.107  36.327  1.00  0.00     0.006 A 
ENDBRANCH  39  53
BRANCH  40  61
ATOM     61  C   UNL A   1      42.800  24.499  26.748  1.00  0.00     0.057 A 
ATOM     62  C   UNL A   1      43.377  24.376  25.478  1.00  0.00     0.134 A 
ATOM     63  C   UNL A   1      42.491  23.299  27.409  1.00  0.00     0.134 A 
ATOM     64  F   UNL A   1      43.731  25.466  24.782  1.00  0.00    -0.206 F 
ATOM     65  C   UNL A   1      43.672  23.129  24.913  1.00  0.00     0.040 A 
ATOM     66  C   UNL A   1      42.775  22.046  26.854  1.00  0.00     0.040 A 
ATOM     67  F   UNL A   1      41.988  23.302  28.653  1.00  0.00    -0.206 F 
ATOM     68  C   UNL A   1      43.386  21.959  25.609  1.00  0.00     0.006 A 
ENDBRANCH  40  61
BRANCH  52  69
ATOM     69  C   UNL A   1      45.054  30.101  28.433  1.00  0.00     0.057 A 
ATOM     70  C   UNL A   1      43.957  30.720  27.815  1.00  0.00     0.134 A 
ATOM     71  C   UNL A   1      46.324  30.490  27.991  1.00  0.00     0.134 A 
ATOM     72  F   UNL A   1      42.705  30.488  28.225  1.00  0.00    -0.206 F 
ATOM     73  C   UNL A   1      44.116  31.648  26.779  1.00  0.00     0.040 A 
ATOM     74  C   UNL A   1      46.498  31.441  26.982  1.00  0.00     0.040 A 
ATOM     75  F   UNL A   1      47.425  29.981  28.568  1.00  0.00    -0.206 F 
ATOM     76  C   UNL A   1      45.391  32.017  26.365  1.00  0.00     0.006 A 
ENDBRANCH  52  69
ENDBRANCH  26  27
ENDBRANCH  18  21
ENDBRANCH  16  17
ENDBRANCH   1  16
TORSDOF 12
ENDMDL
MODEL 2
REMARK VINA RESULT:      -9.0      1.226      1.875
REMARK SMILES CC1=C(CCC(=O)NCCCNC(=O)c2ccc(-c3c4nc(c(-c5c(F)cccc5F)c5ccc([nH]5)c(-c5c(F)cccc5F)c5nc(c(-c6c(F)cccc6F)c6ccc3[nH]6)C=C5)C=C4)cc2)N=N[C@H]1C
REMARK SMILES IDX 10 1 9 2 8 3 6 4 7 5 5 7 4 8 3 9 1 10 2 11 71 12 69 13 70 14
REMARK SMILES IDX 72 15 11 16 12 17 13 18 14 20 15 21 16 22 68 23 17 24 67 25
REMARK SMILES IDX 18 26 19 27 20 28 61 29 21 30 66 31 60 32 62 33 22 34 65 35
REMARK SMILES IDX 59 36 58 37 23 39 49 40 32 41 48 42 33 43 36 44 47 45 63 46
REMARK SMILES IDX 34 47 35 48 46 50 64 51 37 52 24 53 25 54 30 55 26 56 27 57
REMARK SMILES IDX 29 58 31 59 28 60 50 61 51 62 56 63 52 64 53 65 55 66 57 67
REMARK SMILES IDX 54 68 38 69 39 70 44 71 40 72 41 73 43 74 45 75 42 76
REMARK H PARENT 8 6 12 19 62 38 36 49
REMARK Flexibility Score: inf
ROOT
ATOM      1  C   UNL A   1      35.357  33.796  31.978  1.00  0.00     0.042 C 
ENDROOT
BRANCH   1   2
ATOM      2  C   UNL A   1      36.156  33.337  33.190  1.00  0.00     0.117 C 
BRANCH   2   3
ATOM      3  N   UNL A   1      36.239  31.884  33.220  1.00  0.00    -0.356 N 
ATOM      4  C   UNL A   1      37.340  31.081  33.162  1.00  0.00     0.220 C 
ATOM      5  O   UNL A   1      37.176  29.879  32.947  1.00  0.00    -0.275 OA
ATOM      6  H   UNL A   1      35.376  31.413  33.294  1.00  0.00     0.163 HD
BRANCH   4   7
ATOM      7  C   UNL A   1      38.724  31.645  33.424  1.00  0.00     0.106 C 
BRANCH   7   8
ATOM      8  C   UNL A   1      39.367  31.168  34.733  1.00  0.00     0.068 C 
BRANCH   8   9
ATOM      9  C   UNL A   1      38.557  31.484  35.954  1.00  0.00     0.064 C 
ATOM     10  C   UNL A   1      38.486  34.050  35.991  1.00  0.00     0.044 C 
ATOM     11  C   UNL A   1      38.254  32.675  36.481  1.00  0.00    -0.024 C 
ATOM     12  C   UNL A   1      37.558  32.384  37.766  1.00  0.00     0.153 C 
ATOM     13  N   UNL A   1      37.995  30.460  36.672  1.00  0.00    -0.160 NA
ATOM     14  N   UNL A   1      37.439  30.903  37.717  1.00  0.00    -0.181 NA
ATOM     15  C   UNL A   1      38.381  32.803  38.982  1.00  0.00     0.040 C 
ENDBRANCH   8   9
ENDBRANCH   7   8
ENDBRANCH   4   7
ENDBRANCH   2   3
ENDBRANCH   1   2
BRANCH   1  16
ATOM     16  C   UNL A   1      34.696  32.683  31.218  1.00  0.00     0.118 C 
BRANCH  16  17
ATOM     17  N   UNL A   1      34.610  32.879  29.772  1.00  0.00    -0.352 N 
ATOM     18  C   UNL A   1      35.507  32.429  28.801  1.00  0.00     0.251 C 
ATOM     19  H   UNL A   1      33.830  33.384  29.444  1.00  0.00     0.163 HD
ATOM     20  O   UNL A   1      35.449  32.826  27.656  1.00  0.00    -0.269 OA
BRANCH  18  21
ATOM     21  C   UNL A   1      36.561  31.471  29.221  1.00  0.00     0.039 A 
ATOM     22  C   UNL A   1      36.375  30.087  29.219  1.00  0.00     0.014 A 
ATOM     23  C   UNL A   1      37.809  31.996  29.516  1.00  0.00     0.014 A 
ATOM     24  C   UNL A   1      37.486  29.266  29.430  1.00  0.00     0.010 A 
ATOM     25  C   UNL A   1      38.910  31.212  29.373  1.00  0.00     0.010 A 
ATOM     26  C   UNL A   1      38.763  29.845  29.484  1.00  0.00    -0.014 A 
BRANCH  26  27
ATOM     27  C   UNL A   1      39.991  29.078  29.628  1.00  0.00     0.031 A 
ATOM     28  C   UNL A   1      40.456  28.898  31.021  1.00  0.00     0.074 A 
ATOM     29  C   UNL A   1      40.547  28.380  28.609  1.00  0.00     0.049 A 
ATOM     30  N   UNL A   1      41.469  29.459  31.586  1.00  0.00    -0.248 NA
ATOM     31  C   UNL A   1      39.618  28.109  31.935  1.00  0.00     0.031 C 
ATOM     32  C   UNL A   1      40.030  28.156  27.248  1.00  0.00     0.029 A 
ATOM     33  N   UNL A   1      41.677  27.624  28.616  1.00  0.00    -0.354 N 
ATOM     34  C   UNL A   1      41.535  28.920  32.867  1.00  0.00     0.074 A 
ATOM     35  C   UNL A   1      40.270  28.270  33.089  1.00  0.00     0.031 C 
ATOM     36  C   UNL A   1      40.711  27.152  26.656  1.00  0.00     0.029 A 
ATOM     37  C   UNL A   1      41.835  26.810  27.501  1.00  0.00     0.049 A 
ATOM     38  H   UNL A   1      42.329  27.651  29.352  1.00  0.00     0.167 HD
ATOM     39  C   UNL A   1      42.725  28.838  33.526  1.00  0.00     0.037 A 
ATOM     40  C   UNL A   1      42.829  25.918  27.282  1.00  0.00     0.037 A 
ATOM     41  C   UNL A   1      43.724  29.658  32.880  1.00  0.00     0.049 A 
ATOM     42  C   UNL A   1      43.949  26.290  28.177  1.00  0.00     0.074 A 
ATOM     43  C   UNL A   1      43.843  31.002  32.582  1.00  0.00     0.029 A 
ATOM     44  N   UNL A   1      44.643  29.018  32.084  1.00  0.00    -0.354 N 
ATOM     45  N   UNL A   1      44.657  27.376  28.046  1.00  0.00    -0.248 NA
ATOM     46  C   UNL A   1      44.004  25.663  29.487  1.00  0.00     0.031 C 
ATOM     47  C   UNL A   1      44.476  31.044  31.303  1.00  0.00     0.029 A 
ATOM     48  C   UNL A   1      44.767  29.733  30.922  1.00  0.00     0.049 A 
ATOM     49  H   UNL A   1      45.127  28.191  32.309  1.00  0.00     0.167 HD
ATOM     50  C   UNL A   1      44.884  27.808  29.345  1.00  0.00     0.074 A 
ATOM     51  C   UNL A   1      44.565  26.654  30.185  1.00  0.00     0.031 C 
ATOM     52  C   UNL A   1      45.026  29.136  29.629  1.00  0.00     0.037 A 
BRANCH  39  53
ATOM     53  C   UNL A   1      43.103  27.737  34.491  1.00  0.00     0.057 A 
ATOM     54  C   UNL A   1      43.307  26.437  33.990  1.00  0.00     0.134 A 
ATOM     55  C   UNL A   1      42.996  27.819  35.894  1.00  0.00     0.134 A 
ATOM     56  F   UNL A   1      43.427  26.217  32.671  1.00  0.00    -0.206 F 
ATOM     57  C   UNL A   1      43.307  25.302  34.810  1.00  0.00     0.040 A 
ATOM     58  C   UNL A   1      43.048  26.697  36.728  1.00  0.00     0.040 A 
ATOM     59  F   UNL A   1      42.735  28.962  36.536  1.00  0.00    -0.206 F 
ATOM     60  C   UNL A   1      43.166  25.429  36.185  1.00  0.00     0.006 A 
ENDBRANCH  39  53
BRANCH  40  61
ATOM     61  C   UNL A   1      42.797  24.641  26.537  1.00  0.00     0.057 A 
ATOM     62  C   UNL A   1      43.525  24.481  25.352  1.00  0.00     0.134 A 
ATOM     63  C   UNL A   1      42.289  23.467  27.118  1.00  0.00     0.134 A 
ATOM     64  F   UNL A   1      44.071  25.542  24.740  1.00  0.00    -0.206 F 
ATOM     65  C   UNL A   1      43.774  23.220  24.797  1.00  0.00     0.040 A 
ATOM     66  C   UNL A   1      42.526  22.201  26.571  1.00  0.00     0.040 A 
ATOM     67  F   UNL A   1      41.625  23.501  28.284  1.00  0.00    -0.206 F 
ATOM     68  C   UNL A   1      43.287  22.073  25.416  1.00  0.00     0.006 A 
ENDBRANCH  40  61
BRANCH  52  69
ATOM     69  C   UNL A   1      45.236  30.081  28.475  1.00  0.00     0.057 A 
ATOM     70  C   UNL A   1      44.204  30.740  27.788  1.00  0.00     0.134 A 
ATOM     71  C   UNL A   1      46.544  30.445  28.138  1.00  0.00     0.134 A 
ATOM     72  F   UNL A   1      42.920  30.533  28.099  1.00  0.00    -0.206 F 
ATOM     73  C   UNL A   1      44.464  31.682  26.787  1.00  0.00     0.040 A 
ATOM     74  C   UNL A   1      46.818  31.409  27.165  1.00  0.00     0.040 A 
ATOM     75  F   UNL A   1      47.586  29.897  28.787  1.00  0.00    -0.206 F 
ATOM     76  C   UNL A   1      45.776  32.025  26.478  1.00  0.00     0.006 A 
ENDBRANCH  52  69
ENDBRANCH  26  27
ENDBRANCH  18  21
ENDBRANCH  16  17
ENDBRANCH   1  16
TORSDOF 12
ENDMDL
MODEL 3
REMARK VINA RESULT:      -9.0      4.228      9.930
REMARK SMILES CC1=C(CCC(=O)NCCCNC(=O)c2ccc(-c3c4nc(c(-c5c(F)cccc5F)c5ccc([nH]5)c(-c5c(F)cccc5F)c5nc(c(-c6c(F)cccc6F)c6ccc3[nH]6)C=C5)C=C4)cc2)N=N[C@H]1C
REMARK SMILES IDX 10 1 9 2 8 3 6 4 7 5 5 7 4 8 3 9 1 10 2 11 71 12 69 13 70 14
REMARK SMILES IDX 72 15 11 16 12 17 13 18 14 20 15 21 16 22 68 23 17 24 67 25
REMARK SMILES IDX 18 26 19 27 20 28 61 29 21 30 66 31 60 32 62 33 22 34 65 35
REMARK SMILES IDX 59 36 58 37 23 39 49 40 32 41 48 42 33 43 36 44 47 45 63 46
REMARK SMILES IDX 34 47 35 48 46 50 64 51 37 52 24 53 25 54 30 55 26 56 27 57
REMARK SMILES IDX 29 58 31 59 28 60 50 61 51 62 56 63 52 64 53 65 55 66 57 67
REMARK SMILES IDX 54 68 38 69 39 70 44 71 40 72 41 73 43 74 45 75 42 76
REMARK H PARENT 8 6 12 19 62 38 36 49
REMARK Flexibility Score: inf
ROOT
ATOM      1  C   UNL A   1      41.682  20.573  26.032  1.00  0.00     0.042 C 
ENDROOT
BRANCH   1   2
ATOM      2  C   UNL A   1      40.434  20.525  26.903  1.00  0.00     0.117 C 
BRANCH   2   3
ATOM      3  N   UNL A   1      39.753  21.811  26.880  1.00  0.00    -0.356 N 
ATOM      4  C   UNL A   1      38.776  22.255  26.037  1.00  0.00     0.220 C 
ATOM      5  O   UNL A   1      38.515  23.459  26.028  1.00  0.00    -0.275 OA
ATOM      6  H   UNL A   1      40.037  22.452  27.572  1.00  0.00     0.163 HD
BRANCH   4   7
ATOM      7  C   UNL A   1      37.986  21.279  25.186  1.00  0.00     0.106 C 
BRANCH   7   8
ATOM      8  C   UNL A   1      36.911  21.928  24.305  1.00  0.00     0.068 C 
BRANCH   8   9
ATOM      9  C   UNL A   1      35.538  21.897  24.908  1.00  0.00     0.064 C 
ATOM     10  C   UNL A   1      35.082  24.352  25.506  1.00  0.00     0.044 C 
ATOM     11  C   UNL A   1      34.829  22.897  25.443  1.00  0.00    -0.024 C 
ATOM     12  C   UNL A   1      33.607  22.265  26.015  1.00  0.00     0.153 C 
ATOM     13  N   UNL A   1      34.837  20.719  24.927  1.00  0.00    -0.160 NA
ATOM     14  N   UNL A   1      33.752  20.858  25.559  1.00  0.00    -0.181 NA
ATOM     15  C   UNL A   1      33.583  22.321  27.541  1.00  0.00     0.040 C 
ENDBRANCH   8   9
ENDBRANCH   7   8
ENDBRANCH   4   7
ENDBRANCH   2   3
ENDBRANCH   1   2
BRANCH   1  16
ATOM     16  C   UNL A   1      42.853  19.817  26.589  1.00  0.00     0.118 C 
BRANCH  16  17
ATOM     17  N   UNL A   1      43.926  19.537  25.635  1.00  0.00    -0.352 N 
ATOM     18  C   UNL A   1      44.675  20.464  24.908  1.00  0.00     0.251 C 
ATOM     19  H   UNL A   1      44.146  18.588  25.491  1.00  0.00     0.163 HD
ATOM     20  O   UNL A   1      45.394  20.115  23.995  1.00  0.00    -0.269 OA
BRANCH  18  21
ATOM     21  C   UNL A   1      44.541  21.899  25.265  1.00  0.00     0.039 A 
ATOM     22  C   UNL A   1      43.745  22.790  24.543  1.00  0.00     0.014 A 
ATOM     23  C   UNL A   1      45.156  22.318  26.433  1.00  0.00     0.014 A 
ATOM     24  C   UNL A   1      43.521  24.063  25.075  1.00  0.00     0.010 A 
ATOM     25  C   UNL A   1      44.661  23.398  27.094  1.00  0.00     0.010 A 
ATOM     26  C   UNL A   1      43.969  24.349  26.374  1.00  0.00    -0.014 A 
BRANCH  26  27
ATOM     27  C   UNL A   1      43.727  25.614  27.051  1.00  0.00     0.031 A 
ATOM     28  C   UNL A   1      44.682  26.694  26.716  1.00  0.00     0.074 A 
ATOM     29  C   UNL A   1      42.595  25.872  27.746  1.00  0.00     0.049 A 
ATOM     30  N   UNL A   1      45.610  27.178  27.468  1.00  0.00    -0.248 NA
ATOM     31  C   UNL A   1      44.698  27.203  25.338  1.00  0.00     0.031 C 
ATOM     32  C   UNL A   1      41.384  25.045  27.887  1.00  0.00     0.029 A 
ATOM     33  N   UNL A   1      42.247  27.006  28.411  1.00  0.00    -0.354 N 
ATOM     34  C   UNL A   1      46.187  28.214  26.739  1.00  0.00     0.074 A 
ATOM     35  C   UNL A   1      45.734  28.044  25.383  1.00  0.00     0.031 C 
ATOM     36  C   UNL A   1      40.372  25.788  28.382  1.00  0.00     0.029 A 
ATOM     37  C   UNL A   1      40.911  27.069  28.788  1.00  0.00     0.049 A 
ATOM     38  H   UNL A   1      42.890  27.724  28.608  1.00  0.00     0.167 HD
ATOM     39  C   UNL A   1      46.774  29.266  27.374  1.00  0.00     0.037 A 
ATOM     40  C   UNL A   1      40.288  28.102  29.402  1.00  0.00     0.037 A 
ATOM     41  C   UNL A   1      46.996  28.962  28.769  1.00  0.00     0.049 A 
ATOM     42  C   UNL A   1      41.344  28.936  30.022  1.00  0.00     0.074 A 
ATOM     43  C   UNL A   1      47.702  27.995  29.459  1.00  0.00     0.029 A 
ATOM     44  N   UNL A   1      46.115  29.497  29.677  1.00  0.00    -0.354 N 
ATOM     45  N   UNL A   1      42.080  28.553  31.027  1.00  0.00    -0.248 NA
ATOM     46  C   UNL A   1      41.881  30.039  29.242  1.00  0.00     0.031 C 
ATOM     47  C   UNL A   1      46.889  27.678  30.590  1.00  0.00     0.029 A 
ATOM     48  C   UNL A   1      45.770  28.512  30.564  1.00  0.00     0.049 A 
ATOM     49  H   UNL A   1      45.788  30.426  29.688  1.00  0.00     0.167 HD
ATOM     50  C   UNL A   1      43.344  29.050  30.749  1.00  0.00     0.074 A 
ATOM     51  C   UNL A   1      43.132  30.052  29.707  1.00  0.00     0.031 C 
ATOM     52  C   UNL A   1      44.465  28.399  31.180  1.00  0.00     0.037 A 
BRANCH  39  53
ATOM     53  C   UNL A   1      46.785  30.689  26.859  1.00  0.00     0.057 A 
ATOM     54  C   UNL A   1      47.995  31.409  26.888  1.00  0.00     0.134 A 
ATOM     55  C   UNL A   1      45.638  31.470  26.615  1.00  0.00     0.134 A 
ATOM     56  F   UNL A   1      49.163  30.787  27.112  1.00  0.00    -0.206 F 
ATOM     57  C   UNL A   1      48.047  32.804  26.778  1.00  0.00     0.040 A 
ATOM     58  C   UNL A   1      45.685  32.859  26.449  1.00  0.00     0.040 A 
ATOM     59  F   UNL A   1      44.401  30.964  26.619  1.00  0.00    -0.206 F 
ATOM     60  C   UNL A   1      46.886  33.535  26.568  1.00  0.00     0.006 A 
ENDBRANCH  39  53
BRANCH  40  61
ATOM     61  C   UNL A   1      38.884  28.549  29.294  1.00  0.00     0.057 A 
ATOM     62  C   UNL A   1      38.043  28.555  30.414  1.00  0.00     0.134 A 
ATOM     63  C   UNL A   1      38.422  29.248  28.167  1.00  0.00     0.134 A 
ATOM     64  F   UNL A   1      38.411  27.937  31.546  1.00  0.00    -0.206 F 
ATOM     65  C   UNL A   1      36.829  29.253  30.430  1.00  0.00     0.040 A 
ATOM     66  C   UNL A   1      37.209  29.946  28.166  1.00  0.00     0.040 A 
ATOM     67  F   UNL A   1      39.173  29.353  27.060  1.00  0.00    -0.206 F 
ATOM     68  C   UNL A   1      36.417  29.966  29.307  1.00  0.00     0.006 A 
ENDBRANCH  40  61
BRANCH  52  69
ATOM     69  C   UNL A   1      44.293  27.314  32.211  1.00  0.00     0.057 A 
ATOM     70  C   UNL A   1      44.220  25.943  31.919  1.00  0.00     0.134 A 
ATOM     71  C   UNL A   1      44.344  27.664  33.565  1.00  0.00     0.134 A 
ATOM     72  F   UNL A   1      44.259  25.498  30.659  1.00  0.00    -0.206 F 
ATOM     73  C   UNL A   1      44.158  24.973  32.926  1.00  0.00     0.040 A 
ATOM     74  C   UNL A   1      44.318  26.705  34.580  1.00  0.00     0.040 A 
ATOM     75  F   UNL A   1      44.467  28.953  33.925  1.00  0.00    -0.206 F 
ATOM     76  C   UNL A   1      44.215  25.353  34.262  1.00  0.00     0.006 A 
ENDBRANCH  52  69
ENDBRANCH  26  27
ENDBRANCH  18  21
ENDBRANCH  16  17
ENDBRANCH   1  16
TORSDOF 12
ENDMDL
