MODEL 1
REMARK VINA RESULT:     -11.9      0.000      0.000
REMARK SMILES O=C(NCCCNC(=O)c1cccnc1Sc1cccc(C(F)(F)F)c1)c1ccc(-c2c3nc(c(-c4c(F)cccc4F)c4ccc([nH]4)c(-c4c(F)cccc4F)c4nc(c(-c5c(F)cccc5F)c5ccc2[nH]5)C=C4)C=C3)cc1
REMARK SMILES IDX 5 1 4 2 3 3 1 4 2 5 27 7 28 8 80 9 29 10 79 11 30 12 31 13
REMARK SMILES IDX 32 14 73 15 33 16 78 17 72 18 74 19 34 20 77 21 71 22 70 23
REMARK SMILES IDX 35 25 61 26 44 27 60 28 45 29 48 30 59 31 75 32 46 33 47 34
REMARK SMILES IDX 58 36 76 37 49 38 36 39 37 40 42 41 38 42 39 43 41 44 43 45
REMARK SMILES IDX 40 46 62 47 63 48 68 49 64 50 65 51 67 52 69 53 66 54 50 55
REMARK SMILES IDX 51 56 56 57 52 58 53 59 55 60 57 61 54 62 6 63 7 64 8 65
REMARK SMILES IDX 9 67 10 68 11 69 15 70 12 71 14 72 13 73 16 74 17 75 18 76
REMARK SMILES IDX 26 77 19 78 21 79 20 80 22 81 23 82 24 83 25 84
REMARK H PARENT 3 6 74 24 48 35 7 66
REMARK Flexibility Score: inf
ROOT
ATOM      1  C   UNL A   1      37.136  19.972  24.989  1.00  0.00     0.042 C 
ENDROOT
BRANCH   1   2
ATOM      2  C   UNL A   1      38.445  20.515  25.546  1.00  0.00     0.118 C 
BRANCH   2   3
ATOM      3  N   UNL A   1      39.546  19.565  25.524  1.00  0.00    -0.352 N 
ATOM      4  O   UNL A   1      41.617  18.733  25.759  1.00  0.00    -0.269 OA
ATOM      5  C   UNL A   1      40.849  19.674  25.951  1.00  0.00     0.251 C 
ATOM      6  H   UNL A   1      39.320  18.690  25.134  1.00  0.00     0.163 HD
BRANCH   5   7
ATOM      7  C   UNL A   1      41.362  20.913  26.585  1.00  0.00     0.039 A 
ATOM      8  C   UNL A   1      41.343  21.109  27.965  1.00  0.00     0.014 A 
ATOM      9  C   UNL A   1      41.903  21.906  25.758  1.00  0.00     0.014 A 
ATOM     10  C   UNL A   1      41.676  22.355  28.496  1.00  0.00     0.010 A 
ATOM     11  C   UNL A   1      42.325  23.125  26.302  1.00  0.00     0.010 A 
ATOM     12  C   UNL A   1      42.159  23.383  27.670  1.00  0.00    -0.014 A 
BRANCH  12  13
ATOM     13  C   UNL A   1      42.476  24.714  28.254  1.00  0.00     0.031 A 
ATOM     14  C   UNL A   1      43.894  25.083  28.610  1.00  0.00     0.074 A 
ATOM     15  C   UNL A   1      41.491  25.613  28.435  1.00  0.00     0.049 A 
ATOM     16  N   UNL A   1      44.358  26.208  29.095  1.00  0.00    -0.248 NA
ATOM     17  C   UNL A   1      44.925  24.054  28.404  1.00  0.00     0.031 C 
ATOM     18  C   UNL A   1      40.074  25.382  28.150  1.00  0.00     0.029 A 
ATOM     19  N   UNL A   1      41.533  26.911  28.879  1.00  0.00    -0.354 N 
ATOM     20  C   UNL A   1      45.722  26.013  29.279  1.00  0.00     0.074 A 
ATOM     21  C   UNL A   1      46.010  24.654  28.874  1.00  0.00     0.031 C 
ATOM     22  C   UNL A   1      39.390  26.513  28.376  1.00  0.00     0.029 A 
ATOM     23  C   UNL A   1      40.310  27.536  28.863  1.00  0.00     0.049 A 
ATOM     24  H   UNL A   1      42.360  27.353  29.180  1.00  0.00     0.167 HD
ATOM     25  C   UNL A   1      46.652  26.887  29.735  1.00  0.00     0.037 A 
ATOM     26  C   UNL A   1      39.964  28.793  29.200  1.00  0.00     0.037 A 
ATOM     27  C   UNL A   1      46.382  28.253  30.100  1.00  0.00     0.049 A 
ATOM     28  C   UNL A   1      41.019  29.747  29.678  1.00  0.00     0.074 A 
ATOM     29  C   UNL A   1      47.271  29.225  30.525  1.00  0.00     0.029 A 
ATOM     30  N   UNL A   1      45.128  28.842  30.075  1.00  0.00    -0.354 N 
ATOM     31  N   UNL A   1      42.307  29.553  29.817  1.00  0.00    -0.248 NA
ATOM     32  C   UNL A   1      40.568  31.096  30.050  1.00  0.00     0.031 C 
ATOM     33  C   UNL A   1      46.551  30.396  30.785  1.00  0.00     0.029 A 
ATOM     34  C   UNL A   1      45.218  30.160  30.491  1.00  0.00     0.049 A 
ATOM     35  H   UNL A   1      44.295  28.391  29.805  1.00  0.00     0.167 HD
ATOM     36  C   UNL A   1      42.824  30.758  30.272  1.00  0.00     0.074 A 
ATOM     37  C   UNL A   1      41.713  31.682  30.374  1.00  0.00     0.031 C 
ATOM     38  C   UNL A   1      44.106  31.070  30.581  1.00  0.00     0.037 A 
BRANCH  25  39
ATOM     39  C   UNL A   1      48.060  26.388  29.874  1.00  0.00     0.057 A 
ATOM     40  C   UNL A   1      48.521  25.792  31.055  1.00  0.00     0.134 A 
ATOM     41  C   UNL A   1      48.952  26.465  28.796  1.00  0.00     0.134 A 
ATOM     42  F   UNL A   1      47.721  25.700  32.126  1.00  0.00    -0.206 F 
ATOM     43  C   UNL A   1      49.826  25.305  31.164  1.00  0.00     0.040 A 
ATOM     44  C   UNL A   1      50.252  25.964  28.887  1.00  0.00     0.040 A 
ATOM     45  F   UNL A   1      48.571  27.019  27.635  1.00  0.00    -0.206 F 
ATOM     46  C   UNL A   1      50.693  25.385  30.075  1.00  0.00     0.006 A 
ENDBRANCH  25  39
BRANCH  26  47
ATOM     47  C   UNL A   1      38.553  29.226  29.070  1.00  0.00     0.057 A 
ATOM     48  C   UNL A   1      37.690  29.208  30.171  1.00  0.00     0.134 A 
ATOM     49  C   UNL A   1      38.038  29.676  27.849  1.00  0.00     0.134 A 
ATOM     50  F   UNL A   1      38.125  28.770  31.362  1.00  0.00    -0.206 F 
ATOM     51  C   UNL A   1      36.360  29.614  30.061  1.00  0.00     0.040 A 
ATOM     52  C   UNL A   1      36.716  30.104  27.729  1.00  0.00     0.040 A 
ATOM     53  F   UNL A   1      38.819  29.719  26.759  1.00  0.00    -0.206 F 
ATOM     54  C   UNL A   1      35.871  30.070  28.838  1.00  0.00     0.006 A 
ENDBRANCH  26  47
BRANCH  38  55
ATOM     55  C   UNL A   1      44.376  32.474  31.029  1.00  0.00     0.057 A 
ATOM     56  C   UNL A   1      44.353  32.831  32.383  1.00  0.00     0.134 A 
ATOM     57  C   UNL A   1      44.678  33.475  30.097  1.00  0.00     0.134 A 
ATOM     58  F   UNL A   1      44.057  31.920  33.321  1.00  0.00    -0.206 F 
ATOM     59  C   UNL A   1      44.602  34.142  32.793  1.00  0.00     0.040 A 
ATOM     60  C   UNL A   1      44.946  34.784  30.497  1.00  0.00     0.040 A 
ATOM     61  F   UNL A   1      44.719  33.195  28.786  1.00  0.00    -0.206 F 
ATOM     62  C   UNL A   1      44.903  35.121  31.849  1.00  0.00     0.006 A 
ENDBRANCH  38  55
ENDBRANCH  12  13
ENDBRANCH   5   7
ENDBRANCH   2   3
ENDBRANCH   1   2
BRANCH   1  63
ATOM     63  C   UNL A   1      35.978  20.960  24.994  1.00  0.00     0.118 C 
BRANCH  63  64
ATOM     64  N   UNL A   1      35.643  21.466  26.320  1.00  0.00    -0.352 N 
ATOM     65  C   UNL A   1      34.790  22.473  26.701  1.00  0.00     0.254 C 
ATOM     66  H   UNL A   1      36.102  21.011  27.062  1.00  0.00     0.163 HD
ATOM     67  O   UNL A   1      34.524  22.631  27.891  1.00  0.00    -0.269 OA
BRANCH  65  68
ATOM     68  C   UNL A   1      34.109  23.290  25.693  1.00  0.00     0.072 A 
ATOM     69  C   UNL A   1      34.824  24.415  25.234  1.00  0.00     0.018 A 
ATOM     70  C   UNL A   1      32.878  22.987  25.112  1.00  0.00     0.113 A 
ATOM     71  C   UNL A   1      34.277  25.251  24.274  1.00  0.00     0.021 A 
ATOM     72  N   UNL A   1      32.346  23.830  24.173  1.00  0.00    -0.249 NA
ATOM     73  C   UNL A   1      33.036  24.922  23.780  1.00  0.00     0.112 A 
BRANCH  70  74
ATOM     74  S   UNL A   1      31.778  21.612  25.338  1.00  0.00    -0.069 SA
BRANCH  74  75
ATOM     75  C   UNL A   1      32.318  20.216  24.402  1.00  0.00     0.014 A 
ATOM     76  C   UNL A   1      32.090  20.179  23.022  1.00  0.00     0.015 A 
ATOM     77  C   UNL A   1      32.823  19.078  25.038  1.00  0.00     0.028 A 
ATOM     78  C   UNL A   1      32.405  19.042  22.277  1.00  0.00     0.002 A 
ATOM     79  C   UNL A   1      33.138  17.923  24.301  1.00  0.00     0.057 A 
ATOM     80  C   UNL A   1      32.929  17.918  22.913  1.00  0.00     0.013 A 
BRANCH  79  81
ATOM     81  C   UNL A   1      33.666  16.687  24.982  1.00  0.00     0.416 C 
ATOM     82  F   UNL A   1      35.023  16.642  25.024  1.00  0.00    -0.166 F 
ATOM     83  F   UNL A   1      33.245  16.584  26.275  1.00  0.00    -0.166 F 
ATOM     84  F   UNL A   1      33.268  15.528  24.383  1.00  0.00    -0.166 F 
ENDBRANCH  79  81
ENDBRANCH  74  75
ENDBRANCH  70  74
ENDBRANCH  65  68
ENDBRANCH  63  64
ENDBRANCH   1  63
TORSDOF 13
ENDMDL
MODEL 2
REMARK VINA RESULT:     -11.9      5.163     10.027
REMARK SMILES O=C(NCCCNC(=O)c1cccnc1Sc1cccc(C(F)(F)F)c1)c1ccc(-c2c3nc(c(-c4c(F)cccc4F)c4ccc([nH]4)c(-c4c(F)cccc4F)c4nc(c(-c5c(F)cccc5F)c5ccc2[nH]5)C=C4)C=C3)cc1
REMARK SMILES IDX 5 1 4 2 3 3 1 4 2 5 27 7 28 8 80 9 29 10 79 11 30 12 31 13
REMARK SMILES IDX 32 14 73 15 33 16 78 17 72 18 74 19 34 20 77 21 71 22 70 23
REMARK SMILES IDX 35 25 61 26 44 27 60 28 45 29 48 30 59 31 75 32 46 33 47 34
REMARK SMILES IDX 58 36 76 37 49 38 36 39 37 40 42 41 38 42 39 43 41 44 43 45
REMARK SMILES IDX 40 46 62 47 63 48 68 49 64 50 65 51 67 52 69 53 66 54 50 55
REMARK SMILES IDX 51 56 56 57 52 58 53 59 55 60 57 61 54 62 6 63 7 64 8 65
REMARK SMILES IDX 9 67 10 68 11 69 15 70 12 71 14 72 13 73 16 74 17 75 18 76
REMARK SMILES IDX 26 77 19 78 21 79 20 80 22 81 23 82 24 83 25 84
REMARK H PARENT 3 6 74 24 48 35 7 66
REMARK Flexibility Score: inf
ROOT
ATOM      1  C   UNL A   1      31.471  31.405  26.519  1.00  0.00     0.042 C 
ENDROOT
BRANCH   1   2
ATOM      2  C   UNL A   1      32.717  32.194  26.896  1.00  0.00     0.118 C 
BRANCH   2   3
ATOM      3  N   UNL A   1      32.449  33.522  27.428  1.00  0.00    -0.352 N 
ATOM      4  O   UNL A   1      32.639  35.360  28.700  1.00  0.00    -0.269 OA
ATOM      5  C   UNL A   1      33.110  34.273  28.371  1.00  0.00     0.251 C 
ATOM      6  H   UNL A   1      31.655  33.959  27.045  1.00  0.00     0.163 HD
BRANCH   5   7
ATOM      7  C   UNL A   1      34.341  33.782  29.038  1.00  0.00     0.039 A 
ATOM      8  C   UNL A   1      35.611  34.245  28.695  1.00  0.00     0.014 A 
ATOM      9  C   UNL A   1      34.209  32.836  30.062  1.00  0.00     0.014 A 
ATOM     10  C   UNL A   1      36.744  33.630  29.228  1.00  0.00     0.010 A 
ATOM     11  C   UNL A   1      35.346  32.285  30.664  1.00  0.00     0.010 A 
ATOM     12  C   UNL A   1      36.626  32.633  30.210  1.00  0.00    -0.014 A 
BRANCH  12  13
ATOM     13  C   UNL A   1      37.847  31.968  30.740  1.00  0.00     0.031 A 
ATOM     14  C   UNL A   1      38.378  32.308  32.109  1.00  0.00     0.074 A 
ATOM     15  C   UNL A   1      38.464  31.026  30.003  1.00  0.00     0.049 A 
ATOM     16  N   UNL A   1      39.407  31.804  32.745  1.00  0.00    -0.248 NA
ATOM     17  C   UNL A   1      37.670  33.356  32.862  1.00  0.00     0.031 C 
ATOM     18  C   UNL A   1      38.067  30.613  28.657  1.00  0.00     0.029 A 
ATOM     19  N   UNL A   1      39.543  30.229  30.291  1.00  0.00    -0.354 N 
ATOM     20  C   UNL A   1      39.488  32.491  33.951  1.00  0.00     0.074 A 
ATOM     21  C   UNL A   1      38.415  33.463  33.952  1.00  0.00     0.031 C 
ATOM     22  C   UNL A   1      38.856  29.605  28.255  1.00  0.00     0.029 A 
ATOM     23  C   UNL A   1      39.841  29.330  29.296  1.00  0.00     0.049 A 
ATOM     24  H   UNL A   1      40.055  30.293  31.129  1.00  0.00     0.167 HD
ATOM     25  C   UNL A   1      40.366  32.322  34.968  1.00  0.00     0.037 A 
ATOM     26  C   UNL A   1      40.799  28.387  29.226  1.00  0.00     0.037 A 
ATOM     27  C   UNL A   1      41.409  31.330  34.993  1.00  0.00     0.049 A 
ATOM     28  C   UNL A   1      41.744  28.205  30.378  1.00  0.00     0.074 A 
ATOM     29  C   UNL A   1      42.314  31.054  36.003  1.00  0.00     0.029 A 
ATOM     30  N   UNL A   1      41.680  30.445  33.961  1.00  0.00    -0.354 N 
ATOM     31  N   UNL A   1      41.784  28.842  31.522  1.00  0.00    -0.248 NA
ATOM     32  C   UNL A   1      42.779  27.172  30.226  1.00  0.00     0.031 C 
ATOM     33  C   UNL A   1      43.153  30.019  35.571  1.00  0.00     0.029 A 
ATOM     34  C   UNL A   1      42.747  29.632  34.305  1.00  0.00     0.049 A 
ATOM     35  H   UNL A   1      41.189  30.402  33.109  1.00  0.00     0.167 HD
ATOM     36  C   UNL A   1      42.833  28.277  32.233  1.00  0.00     0.074 A 
ATOM     37  C   UNL A   1      43.395  27.235  31.398  1.00  0.00     0.031 C 
ATOM     38  C   UNL A   1      43.292  28.595  33.468  1.00  0.00     0.037 A 
BRANCH  25  39
ATOM     39  C   UNL A   1      40.244  33.242  36.147  1.00  0.00     0.057 A 
ATOM     40  C   UNL A   1      40.970  34.437  36.232  1.00  0.00     0.134 A 
ATOM     41  C   UNL A   1      39.355  32.948  37.190  1.00  0.00     0.134 A 
ATOM     42  F   UNL A   1      41.846  34.769  35.273  1.00  0.00    -0.206 F 
ATOM     43  C   UNL A   1      40.827  35.301  37.320  1.00  0.00     0.040 A 
ATOM     44  C   UNL A   1      39.190  33.813  38.273  1.00  0.00     0.040 A 
ATOM     45  F   UNL A   1      38.627  31.823  37.167  1.00  0.00    -0.206 F 
ATOM     46  C   UNL A   1      39.930  34.992  38.341  1.00  0.00     0.006 A 
ENDBRANCH  25  39
BRANCH  26  47
ATOM     47  C   UNL A   1      40.893  27.522  28.026  1.00  0.00     0.057 A 
ATOM     48  C   UNL A   1      41.639  27.918  26.910  1.00  0.00     0.134 A 
ATOM     49  C   UNL A   1      40.250  26.280  27.970  1.00  0.00     0.134 A 
ATOM     50  F   UNL A   1      42.260  29.107  26.902  1.00  0.00    -0.206 F 
ATOM     51  C   UNL A   1      41.735  27.114  25.775  1.00  0.00     0.040 A 
ATOM     52  C   UNL A   1      40.355  25.457  26.849  1.00  0.00     0.040 A 
ATOM     53  F   UNL A   1      39.524  25.846  29.011  1.00  0.00    -0.206 F 
ATOM     54  C   UNL A   1      41.096  25.875  25.745  1.00  0.00     0.006 A 
ENDBRANCH  26  47
BRANCH  38  55
ATOM     55  C   UNL A   1      44.437  27.787  33.998  1.00  0.00     0.057 A 
ATOM     56  C   UNL A   1      45.765  28.206  33.847  1.00  0.00     0.134 A 
ATOM     57  C   UNL A   1      44.207  26.587  34.681  1.00  0.00     0.134 A 
ATOM     58  F   UNL A   1      46.048  29.340  33.189  1.00  0.00    -0.206 F 
ATOM     59  C   UNL A   1      46.827  27.447  34.339  1.00  0.00     0.040 A 
ATOM     60  C   UNL A   1      45.260  25.829  35.194  1.00  0.00     0.040 A 
ATOM     61  F   UNL A   1      42.958  26.134  34.863  1.00  0.00    -0.206 F 
ATOM     62  C   UNL A   1      46.576  26.257  35.019  1.00  0.00     0.006 A 
ENDBRANCH  38  55
ENDBRANCH  12  13
ENDBRANCH   5   7
ENDBRANCH   2   3
ENDBRANCH   1   2
BRANCH   1  63
ATOM     63  C   UNL A   1      31.737  30.022  25.943  1.00  0.00     0.118 C 
BRANCH  63  64
ATOM     64  N   UNL A   1      32.776  30.002  24.921  1.00  0.00    -0.352 N 
ATOM     65  C   UNL A   1      33.335  28.949  24.236  1.00  0.00     0.254 C 
ATOM     66  H   UNL A   1      33.137  30.886  24.683  1.00  0.00     0.163 HD
ATOM     67  O   UNL A   1      34.088  29.166  23.289  1.00  0.00    -0.269 OA
BRANCH  65  68
ATOM     68  C   UNL A   1      32.952  27.570  24.556  1.00  0.00     0.072 A 
ATOM     69  C   UNL A   1      33.529  27.032  25.724  1.00  0.00     0.018 A 
ATOM     70  C   UNL A   1      32.016  26.813  23.852  1.00  0.00     0.113 A 
ATOM     71  C   UNL A   1      33.229  25.740  26.124  1.00  0.00     0.021 A 
ATOM     72  N   UNL A   1      31.740  25.534  24.253  1.00  0.00    -0.249 NA
ATOM     73  C   UNL A   1      32.337  25.029  25.354  1.00  0.00     0.112 A 
BRANCH  70  74
ATOM     74  S   UNL A   1      31.011  27.203  22.442  1.00  0.00    -0.069 SA
BRANCH  74  75
ATOM     75  C   UNL A   1      29.641  28.214  22.908  1.00  0.00     0.014 A 
ATOM     76  C   UNL A   1      28.389  27.626  23.123  1.00  0.00     0.015 A 
ATOM     77  C   UNL A   1      29.746  29.609  22.907  1.00  0.00     0.028 A 
ATOM     78  C   UNL A   1      27.268  28.414  23.383  1.00  0.00     0.002 A 
ATOM     79  C   UNL A   1      28.622  30.414  23.159  1.00  0.00     0.057 A 
ATOM     80  C   UNL A   1      27.383  29.802  23.402  1.00  0.00     0.013 A 
BRANCH  79  81
ATOM     81  C   UNL A   1      28.725  31.917  23.142  1.00  0.00     0.416 C 
ATOM     82  F   UNL A   1      29.276  32.400  21.998  1.00  0.00    -0.166 F 
ATOM     83  F   UNL A   1      27.510  32.524  23.261  1.00  0.00    -0.166 F 
ATOM     84  F   UNL A   1      29.477  32.419  24.164  1.00  0.00    -0.166 F 
ENDBRANCH  79  81
ENDBRANCH  74  75
ENDBRANCH  70  74
ENDBRANCH  65  68
ENDBRANCH  63  64
ENDBRANCH   1  63
TORSDOF 13
ENDMDL
MODEL 3
REMARK VINA RESULT:     -11.9      0.388      1.433
REMARK SMILES O=C(NCCCNC(=O)c1cccnc1Sc1cccc(C(F)(F)F)c1)c1ccc(-c2c3nc(c(-c4c(F)cccc4F)c4ccc([nH]4)c(-c4c(F)cccc4F)c4nc(c(-c5c(F)cccc5F)c5ccc2[nH]5)C=C4)C=C3)cc1
REMARK SMILES IDX 5 1 4 2 3 3 1 4 2 5 27 7 28 8 80 9 29 10 79 11 30 12 31 13
REMARK SMILES IDX 32 14 73 15 33 16 78 17 72 18 74 19 34 20 77 21 71 22 70 23
REMARK SMILES IDX 35 25 61 26 44 27 60 28 45 29 48 30 59 31 75 32 46 33 47 34
REMARK SMILES IDX 58 36 76 37 49 38 36 39 37 40 42 41 38 42 39 43 41 44 43 45
REMARK SMILES IDX 40 46 62 47 63 48 68 49 64 50 65 51 67 52 69 53 66 54 50 55
REMARK SMILES IDX 51 56 56 57 52 58 53 59 55 60 57 61 54 62 6 63 7 64 8 65
REMARK SMILES IDX 9 67 10 68 11 69 15 70 12 71 14 72 13 73 16 74 17 75 18 76
REMARK SMILES IDX 26 77 19 78 21 79 20 80 22 81 23 82 24 83 25 84
REMARK H PARENT 3 6 74 24 48 35 7 66
REMARK Flexibility Score: inf
ROOT
ATOM      1  C   UNL A   1      37.468  19.869  24.994  1.00  0.00     0.042 C 
ENDROOT
BRANCH   1   2
ATOM      2  C   UNL A   1      38.721  20.374  25.698  1.00  0.00     0.118 C 
BRANCH   2   3
ATOM      3  N   UNL A   1      39.841  19.446  25.668  1.00  0.00    -0.352 N 
ATOM      4  O   UNL A   1      41.934  18.662  25.867  1.00  0.00    -0.269 OA
ATOM      5  C   UNL A   1      41.152  19.592  26.057  1.00  0.00     0.251 C 
ATOM      6  H   UNL A   1      39.622  18.557  25.306  1.00  0.00     0.163 HD
BRANCH   5   7
ATOM      7  C   UNL A   1      41.656  20.857  26.646  1.00  0.00     0.039 A 
ATOM      8  C   UNL A   1      41.729  21.062  28.023  1.00  0.00     0.014 A 
ATOM      9  C   UNL A   1      42.091  21.866  25.778  1.00  0.00     0.014 A 
ATOM     10  C   UNL A   1      42.046  22.325  28.523  1.00  0.00     0.010 A 
ATOM     11  C   UNL A   1      42.498  23.105  26.284  1.00  0.00     0.010 A 
ATOM     12  C   UNL A   1      42.422  23.366  27.660  1.00  0.00    -0.014 A 
BRANCH  12  13
ATOM     13  C   UNL A   1      42.724  24.714  28.214  1.00  0.00     0.031 A 
ATOM     14  C   UNL A   1      44.141  25.122  28.522  1.00  0.00     0.074 A 
ATOM     15  C   UNL A   1      41.722  25.592  28.408  1.00  0.00     0.049 A 
ATOM     16  N   UNL A   1      44.592  26.266  28.976  1.00  0.00    -0.248 NA
ATOM     17  C   UNL A   1      45.191  24.115  28.302  1.00  0.00     0.031 C 
ATOM     18  C   UNL A   1      40.304  25.322  28.169  1.00  0.00     0.029 A 
ATOM     19  N   UNL A   1      41.745  26.898  28.831  1.00  0.00    -0.354 N 
ATOM     20  C   UNL A   1      45.965  26.106  29.124  1.00  0.00     0.074 A 
ATOM     21  C   UNL A   1      46.274  24.748  28.732  1.00  0.00     0.031 C 
ATOM     22  C   UNL A   1      39.599  26.440  28.397  1.00  0.00     0.029 A 
ATOM     23  C   UNL A   1      40.507  27.493  28.841  1.00  0.00     0.049 A 
ATOM     24  H   UNL A   1      42.569  27.364  29.101  1.00  0.00     0.167 HD
ATOM     25  C   UNL A   1      46.886  27.010  29.538  1.00  0.00     0.037 A 
ATOM     26  C   UNL A   1      40.141  28.746  29.168  1.00  0.00     0.037 A 
ATOM     27  C   UNL A   1      46.593  28.375  29.889  1.00  0.00     0.049 A 
ATOM     28  C   UNL A   1      41.185  29.733  29.601  1.00  0.00     0.074 A 
ATOM     29  C   UNL A   1      47.470  29.374  30.273  1.00  0.00     0.029 A 
ATOM     30  N   UNL A   1      45.324  28.933  29.892  1.00  0.00    -0.354 N 
ATOM     31  N   UNL A   1      42.481  29.573  29.705  1.00  0.00    -0.248 NA
ATOM     32  C   UNL A   1      40.712  31.077  29.965  1.00  0.00     0.031 C 
ATOM     33  C   UNL A   1      46.729  30.533  30.536  1.00  0.00     0.029 A 
ATOM     34  C   UNL A   1      45.394  30.260  30.284  1.00  0.00     0.049 A 
ATOM     35  H   UNL A   1      44.496  28.458  29.654  1.00  0.00     0.167 HD
ATOM     36  C   UNL A   1      42.981  30.796  30.126  1.00  0.00     0.074 A 
ATOM     37  C   UNL A   1      41.851  31.695  30.246  1.00  0.00     0.031 C 
ATOM     38  C   UNL A   1      44.263  31.144  30.393  1.00  0.00     0.037 A 
BRANCH  25  39
ATOM     39  C   UNL A   1      48.309  26.548  29.644  1.00  0.00     0.057 A 
ATOM     40  C   UNL A   1      48.797  25.911  30.792  1.00  0.00     0.134 A 
ATOM     41  C   UNL A   1      49.190  26.702  28.565  1.00  0.00     0.134 A 
ATOM     42  F   UNL A   1      48.008  25.743  31.863  1.00  0.00    -0.206 F 
ATOM     43  C   UNL A   1      50.116  25.458  30.869  1.00  0.00     0.040 A 
ATOM     44  C   UNL A   1      50.504  26.236  28.623  1.00  0.00     0.040 A 
ATOM     45  F   UNL A   1      48.783  27.299  27.435  1.00  0.00    -0.206 F 
ATOM     46  C   UNL A   1      50.972  25.615  29.780  1.00  0.00     0.006 A 
ENDBRANCH  25  39
BRANCH  26  47
ATOM     47  C   UNL A   1      38.716  29.143  29.072  1.00  0.00     0.057 A 
ATOM     48  C   UNL A   1      38.174  29.596  27.864  1.00  0.00     0.134 A 
ATOM     49  C   UNL A   1      37.864  29.072  30.180  1.00  0.00     0.134 A 
ATOM     50  F   UNL A   1      38.950  29.702  26.775  1.00  0.00    -0.206 F 
ATOM     51  C   UNL A   1      36.836  29.972  27.762  1.00  0.00     0.040 A 
ATOM     52  C   UNL A   1      36.518  29.426  30.087  1.00  0.00     0.040 A 
ATOM     53  F   UNL A   1      38.325  28.642  31.364  1.00  0.00    -0.206 F 
ATOM     54  C   UNL A   1      36.001  29.882  28.875  1.00  0.00     0.006 A 
ENDBRANCH  26  47
BRANCH  38  55
ATOM     55  C   UNL A   1      44.511  32.561  30.810  1.00  0.00     0.057 A 
ATOM     56  C   UNL A   1      44.740  33.575  29.871  1.00  0.00     0.134 A 
ATOM     57  C   UNL A   1      44.503  32.919  32.164  1.00  0.00     0.134 A 
ATOM     58  F   UNL A   1      44.773  33.293  28.560  1.00  0.00    -0.206 F 
ATOM     59  C   UNL A   1      44.974  34.893  30.267  1.00  0.00     0.040 A 
ATOM     60  C   UNL A   1      44.717  34.236  32.570  1.00  0.00     0.040 A 
ATOM     61  F   UNL A   1      44.286  31.994  33.111  1.00  0.00    -0.206 F 
ATOM     62  C   UNL A   1      44.959  35.227  31.619  1.00  0.00     0.006 A 
ENDBRANCH  38  55
ENDBRANCH  12  13
ENDBRANCH   5   7
ENDBRANCH   2   3
ENDBRANCH   1   2
BRANCH   1  63
ATOM     63  C   UNL A   1      36.327  20.874  24.916  1.00  0.00     0.118 C 
BRANCH  63  64
ATOM     64  N   UNL A   1      35.831  21.302  26.219  1.00  0.00    -0.352 N 
ATOM     65  C   UNL A   1      34.859  22.216  26.547  1.00  0.00     0.254 C 
ATOM     66  H   UNL A   1      36.262  20.864  26.987  1.00  0.00     0.163 HD
ATOM     67  O   UNL A   1      34.475  22.309  27.712  1.00  0.00    -0.269 OA
BRANCH  65  68
ATOM     68  C   UNL A   1      34.199  23.004  25.503  1.00  0.00     0.072 A 
ATOM     69  C   UNL A   1      34.908  24.134  25.050  1.00  0.00     0.018 A 
ATOM     70  C   UNL A   1      32.994  22.668  24.884  1.00  0.00     0.113 A 
ATOM     71  C   UNL A   1      34.379  24.945  24.058  1.00  0.00     0.021 A 
ATOM     72  N   UNL A   1      32.480  23.486  23.914  1.00  0.00    -0.249 NA
ATOM     73  C   UNL A   1      33.163  24.584  23.527  1.00  0.00     0.112 A 
BRANCH  70  74
ATOM     74  S   UNL A   1      31.914  21.276  25.095  1.00  0.00    -0.069 SA
BRANCH  74  75
ATOM     75  C   UNL A   1      32.517  19.873  24.210  1.00  0.00     0.014 A 
ATOM     76  C   UNL A   1      32.090  19.649  22.896  1.00  0.00     0.015 A 
ATOM     77  C   UNL A   1      33.284  18.895  24.852  1.00  0.00     0.028 A 
ATOM     78  C   UNL A   1      32.464  18.491  22.213  1.00  0.00     0.002 A 
ATOM     79  C   UNL A   1      33.660  17.720  24.178  1.00  0.00     0.057 A 
ATOM     80  C   UNL A   1      33.246  17.530  22.850  1.00  0.00     0.013 A 
BRANCH  79  81
ATOM     81  C   UNL A   1      34.472  16.656  24.868  1.00  0.00     0.416 C 
ATOM     82  F   UNL A   1      33.967  16.305  26.080  1.00  0.00    -0.166 F 
ATOM     83  F   UNL A   1      34.547  15.504  24.143  1.00  0.00    -0.166 F 
ATOM     84  F   UNL A   1      35.767  17.023  25.091  1.00  0.00    -0.166 F 
ENDBRANCH  79  81
ENDBRANCH  74  75
ENDBRANCH  70  74
ENDBRANCH  65  68
ENDBRANCH  63  64
ENDBRANCH   1  63
TORSDOF 13
ENDMDL
