MODEL 1
REMARK VINA RESULT:     -12.9      0.000      0.000
REMARK SMILES NS(=O)(=O)c1ccc(-n2nc(NC(=O)NCCCC(=O)NCCCNC(=O)c3ccc(-c4c5nc(c(-c6c(F)cccc6F)c6ccc([nH]6)c(-c6c(F)cccc6F)c6nc(c(-c7c(F)cccc7F)c7ccc4[nH]7)C=C6)C=C5)cc3)cc2-c2ccccc2)cc1
REMARK SMILES IDX 19 1 20 2 21 3 18 5 17 6 16 7 15 8 12 9 13 10 14 12 11 14
REMARK SMILES IDX 9 15 10 16 83 17 82 18 8 19 5 20 6 21 91 22 7 23 90 24 2 25
REMARK SMILES IDX 3 26 4 27 1 28 84 31 85 32 89 33 86 34 88 35 87 36 22 37
REMARK SMILES IDX 23 38 24 39 25 40 26 41 27 43 28 44 29 45 81 46 30 47 80 48
REMARK SMILES IDX 31 49 32 50 33 51 74 52 34 53 79 54 73 55 75 56 35 57 78 58
REMARK SMILES IDX 72 59 71 60 36 62 62 63 45 64 61 65 46 66 49 67 60 68 76 69
REMARK SMILES IDX 47 70 48 71 59 73 77 74 50 75 37 76 38 77 43 78 39 79 40 80
REMARK SMILES IDX 42 81 44 82 41 83 63 84 64 85 69 86 65 87 66 88 68 89 70 90
REMARK SMILES IDX 67 91 51 92 52 93 57 94 53 95 54 96 56 97 58 98 55 99
REMARK H PARENT 21 4 12 11 15 13 1 29 1 30 25 42 75 61 49 72
REMARK Flexibility Score: inf
ROOT
ATOM      1  C   UNL A   1      35.326  22.057  25.209  1.00  0.00     0.220 C 
ATOM      2  O   UNL A   1      34.207  21.682  25.567  1.00  0.00    -0.275 OA
ATOM      3  N   UNL A   1      36.345  21.151  25.236  1.00  0.00    -0.356 N 
ATOM      4  H   UNL A   1      36.069  20.231  25.449  1.00  0.00     0.163 HD
ENDROOT
BRANCH   1   5
ATOM      5  C   UNL A   1      35.549  23.477  24.723  1.00  0.00     0.102 C 
BRANCH   5   6
ATOM      6  C   UNL A   1      35.366  23.665  23.216  1.00  0.00     0.031 C 
BRANCH   6   7
ATOM      7  C   UNL A   1      33.920  23.757  22.752  1.00  0.00     0.118 C 
BRANCH   7   8
ATOM      8  N   UNL A   1      33.290  22.487  22.431  1.00  0.00    -0.338 N 
ATOM      9  N   UNL A   1      31.465  22.378  23.964  1.00  0.00    -0.291 N 
ATOM     10  C   UNL A   1      32.208  21.867  22.957  1.00  0.00     0.320 C 
ATOM     11  H   UNL A   1      30.947  21.710  24.469  1.00  0.00     0.173 HD
ATOM     12  O   UNL A   1      31.964  20.724  22.559  1.00  0.00    -0.248 OA
ATOM     13  H   UNL A   1      33.726  21.990  21.702  1.00  0.00     0.165 HD
BRANCH   9  14
ATOM     14  C   UNL A   1      31.313  23.669  24.398  1.00  0.00     0.157 A 
ATOM     15  N   UNL A   1      30.717  25.701  24.391  1.00  0.00    -0.231 N 
ATOM     16  N   UNL A   1      30.302  24.464  24.068  1.00  0.00    -0.149 NA
ATOM     17  C   UNL A   1      31.772  25.652  25.292  1.00  0.00     0.076 A 
ATOM     18  C   UNL A   1      32.161  24.322  25.315  1.00  0.00     0.078 A 
BRANCH  15  19
ATOM     19  C   UNL A   1      30.127  26.821  23.748  1.00  0.00     0.065 A 
ATOM     20  C   UNL A   1      28.964  29.076  22.604  1.00  0.00     0.082 A 
ATOM     21  C   UNL A   1      30.349  28.901  22.530  1.00  0.00     0.024 A 
ATOM     22  C   UNL A   1      28.150  28.103  23.195  1.00  0.00     0.024 A 
ATOM     23  C   UNL A   1      30.933  27.776  23.114  1.00  0.00     0.030 A 
ATOM     24  C   UNL A   1      28.731  26.958  23.744  1.00  0.00     0.030 A 
BRANCH  20  25
ATOM     25  S   UNL A   1      28.242  30.575  22.004  1.00  0.00     0.238 S 
ATOM     26  O   UNL A   1      27.287  31.065  22.963  1.00  0.00    -0.207 OA
ATOM     27  O   UNL A   1      27.910  30.385  20.606  1.00  0.00    -0.207 OA
BRANCH  25  28
ATOM     28  N   UNL A   1      29.520  31.657  22.043  1.00  0.00    -0.225 NA
ATOM     29  H   UNL A   1      30.006  31.575  22.936  1.00  0.00     0.137 HD
ATOM     30  H   UNL A   1      29.165  32.607  21.935  1.00  0.00     0.137 HD
ENDBRANCH  25  28
ENDBRANCH  20  25
ENDBRANCH  15  19
BRANCH  17  31
ATOM     31  C   UNL A   1      32.279  26.803  26.030  1.00  0.00     0.000 A 
ATOM     32  C   UNL A   1      31.445  27.484  26.932  1.00  0.00     0.010 A 
ATOM     33  C   UNL A   1      33.584  27.262  25.829  1.00  0.00     0.010 A 
ATOM     34  C   UNL A   1      31.894  28.628  27.587  1.00  0.00     0.001 A 
ATOM     35  C   UNL A   1      34.035  28.403  26.494  1.00  0.00     0.001 A 
ATOM     36  C   UNL A   1      33.189  29.089  27.364  1.00  0.00     0.000 A 
ENDBRANCH  17  31
ENDBRANCH   9  14
ENDBRANCH   7   8
ENDBRANCH   6   7
ENDBRANCH   5   6
ENDBRANCH   1   5
BRANCH   3  37
ATOM     37  C   UNL A   1      37.777  21.317  25.001  1.00  0.00     0.117 C 
BRANCH  37  38
ATOM     38  C   UNL A   1      38.536  19.996  25.136  1.00  0.00     0.042 C 
BRANCH  38  39
ATOM     39  C   UNL A   1      39.551  19.948  26.256  1.00  0.00     0.118 C 
BRANCH  39  40
ATOM     40  N   UNL A   1      40.770  19.235  25.899  1.00  0.00    -0.352 N 
ATOM     41  C   UNL A   1      42.038  19.766  25.760  1.00  0.00     0.251 C 
ATOM     42  H   UNL A   1      40.682  18.267  25.738  1.00  0.00     0.163 HD
ATOM     43  O   UNL A   1      42.878  19.208  25.065  1.00  0.00    -0.269 OA
BRANCH  41  44
ATOM     44  C   UNL A   1      42.365  21.028  26.454  1.00  0.00     0.039 A 
ATOM     45  C   UNL A   1      42.690  22.180  25.736  1.00  0.00     0.014 A 
ATOM     46  C   UNL A   1      42.327  21.054  27.847  1.00  0.00     0.014 A 
ATOM     47  C   UNL A   1      42.902  23.366  26.435  1.00  0.00     0.010 A 
ATOM     48  C   UNL A   1      42.355  22.251  28.518  1.00  0.00     0.010 A 
ATOM     49  C   UNL A   1      42.702  23.402  27.828  1.00  0.00    -0.014 A 
BRANCH  49  50
ATOM     50  C   UNL A   1      42.674  24.678  28.539  1.00  0.00     0.031 A 
ATOM     51  C   UNL A   1      41.485  25.490  28.171  1.00  0.00     0.074 A 
ATOM     52  C   UNL A   1      43.507  25.005  29.556  1.00  0.00     0.049 A 
ATOM     53  N   UNL A   1      41.468  26.530  27.407  1.00  0.00    -0.248 NA
ATOM     54  C   UNL A   1      40.141  24.974  28.492  1.00  0.00     0.031 C 
ATOM     55  C   UNL A   1      44.507  24.142  30.193  1.00  0.00     0.029 A 
ATOM     56  N   UNL A   1      43.573  26.141  30.316  1.00  0.00    -0.354 N 
ATOM     57  C   UNL A   1      40.150  26.975  27.427  1.00  0.00     0.074 A 
ATOM     58  C   UNL A   1      39.360  25.860  27.867  1.00  0.00     0.031 C 
ATOM     59  C   UNL A   1      44.890  24.673  31.374  1.00  0.00     0.029 A 
ATOM     60  C   UNL A   1      44.304  25.994  31.499  1.00  0.00     0.049 A 
ATOM     61  H   UNL A   1      43.145  26.987  30.054  1.00  0.00     0.167 HD
ATOM     62  C   UNL A   1      39.907  28.314  27.483  1.00  0.00     0.037 A 
ATOM     63  C   UNL A   1      44.418  26.892  32.512  1.00  0.00     0.037 A 
ATOM     64  C   UNL A   1      41.111  29.046  27.157  1.00  0.00     0.049 A 
ATOM     65  C   UNL A   1      44.095  28.223  31.957  1.00  0.00     0.074 A 
ATOM     66  C   UNL A   1      41.883  29.289  26.042  1.00  0.00     0.029 A 
ATOM     67  N   UNL A   1      41.895  29.277  28.252  1.00  0.00    -0.354 N 
ATOM     68  N   UNL A   1      44.856  28.847  31.104  1.00  0.00    -0.248 NA
ATOM     69  C   UNL A   1      42.732  28.729  32.071  1.00  0.00     0.031 C 
ATOM     70  C   UNL A   1      43.198  29.576  26.522  1.00  0.00     0.029 A 
ATOM     71  C   UNL A   1      43.185  29.565  27.915  1.00  0.00     0.049 A 
ATOM     72  H   UNL A   1      41.567  29.240  29.179  1.00  0.00     0.167 HD
ATOM     73  C   UNL A   1      43.964  29.480  30.263  1.00  0.00     0.074 A 
ATOM     74  C   UNL A   1      42.710  29.537  31.008  1.00  0.00     0.031 C 
ATOM     75  C   UNL A   1      44.217  29.563  28.926  1.00  0.00     0.037 A 
BRANCH  62  76
ATOM     76  C   UNL A   1      38.863  28.961  28.385  1.00  0.00     0.057 A 
ATOM     77  C   UNL A   1      38.861  28.622  29.754  1.00  0.00     0.134 A 
ATOM     78  C   UNL A   1      37.686  29.598  27.938  1.00  0.00     0.134 A 
ATOM     79  F   UNL A   1      39.914  28.001  30.309  1.00  0.00    -0.206 F 
ATOM     80  C   UNL A   1      37.747  28.819  30.581  1.00  0.00     0.040 A 
ATOM     81  C   UNL A   1      36.584  29.837  28.766  1.00  0.00     0.040 A 
ATOM     82  F   UNL A   1      37.484  29.941  26.663  1.00  0.00    -0.206 F 
ATOM     83  C   UNL A   1      36.598  29.419  30.085  1.00  0.00     0.006 A 
ENDBRANCH  62  76
BRANCH  63  84
ATOM     84  C   UNL A   1      44.598  26.687  33.970  1.00  0.00     0.057 A 
ATOM     85  C   UNL A   1      43.523  26.292  34.786  1.00  0.00     0.134 A 
ATOM     86  C   UNL A   1      45.876  26.572  34.542  1.00  0.00     0.134 A 
ATOM     87  F   UNL A   1      42.264  26.340  34.327  1.00  0.00    -0.206 F 
ATOM     88  C   UNL A   1      43.712  25.763  36.070  1.00  0.00     0.040 A 
ATOM     89  C   UNL A   1      46.077  26.052  35.827  1.00  0.00     0.040 A 
ATOM     90  F   UNL A   1      46.979  26.868  33.839  1.00  0.00    -0.206 F 
ATOM     91  C   UNL A   1      44.995  25.625  36.588  1.00  0.00     0.006 A 
ENDBRANCH  63  84
BRANCH  75  92
ATOM     92  C   UNL A   1      45.648  29.517  28.487  1.00  0.00     0.057 A 
ATOM     93  C   UNL A   1      46.543  30.595  28.532  1.00  0.00     0.134 A 
ATOM     94  C   UNL A   1      46.150  28.289  28.041  1.00  0.00     0.134 A 
ATOM     95  F   UNL A   1      46.175  31.787  29.019  1.00  0.00    -0.206 F 
ATOM     96  C   UNL A   1      47.868  30.460  28.102  1.00  0.00     0.040 A 
ATOM     97  C   UNL A   1      47.477  28.133  27.645  1.00  0.00     0.040 A 
ATOM     98  F   UNL A   1      45.357  27.206  28.007  1.00  0.00    -0.206 F 
ATOM     99  C   UNL A   1      48.338  29.226  27.661  1.00  0.00     0.006 A 
ENDBRANCH  75  92
ENDBRANCH  49  50
ENDBRANCH  41  44
ENDBRANCH  39  40
ENDBRANCH  38  39
ENDBRANCH  37  38
ENDBRANCH   3  37
TORSDOF 18
ENDMDL
MODEL 2
REMARK VINA RESULT:     -12.4      2.293      5.831
REMARK SMILES NS(=O)(=O)c1ccc(-n2nc(NC(=O)NCCCC(=O)NCCCNC(=O)c3ccc(-c4c5nc(c(-c6c(F)cccc6F)c6ccc([nH]6)c(-c6c(F)cccc6F)c6nc(c(-c7c(F)cccc7F)c7ccc4[nH]7)C=C6)C=C5)cc3)cc2-c2ccccc2)cc1
REMARK SMILES IDX 19 1 20 2 21 3 18 5 17 6 16 7 15 8 12 9 13 10 14 12 11 14
REMARK SMILES IDX 9 15 10 16 83 17 82 18 8 19 5 20 6 21 91 22 7 23 90 24 2 25
REMARK SMILES IDX 3 26 4 27 1 28 84 31 85 32 89 33 86 34 88 35 87 36 22 37
REMARK SMILES IDX 23 38 24 39 25 40 26 41 27 43 28 44 29 45 81 46 30 47 80 48
REMARK SMILES IDX 31 49 32 50 33 51 74 52 34 53 79 54 73 55 75 56 35 57 78 58
REMARK SMILES IDX 72 59 71 60 36 62 62 63 45 64 61 65 46 66 49 67 60 68 76 69
REMARK SMILES IDX 47 70 48 71 59 73 77 74 50 75 37 76 38 77 43 78 39 79 40 80
REMARK SMILES IDX 42 81 44 82 41 83 63 84 64 85 69 86 65 87 66 88 68 89 70 90
REMARK SMILES IDX 67 91 51 92 52 93 57 94 53 95 54 96 56 97 58 98 55 99
REMARK H PARENT 21 4 12 11 15 13 1 29 1 30 25 42 75 61 49 72
REMARK Flexibility Score: inf
ROOT
ATOM      1  C   UNL A   1      35.572  22.331  25.180  1.00  0.00     0.220 C 
ATOM      2  O   UNL A   1      34.658  21.503  25.184  1.00  0.00    -0.275 OA
ATOM      3  N   UNL A   1      36.774  21.963  25.704  1.00  0.00    -0.356 N 
ATOM      4  H   UNL A   1      36.837  21.013  25.955  1.00  0.00     0.163 HD
ENDROOT
BRANCH   1   5
ATOM      5  C   UNL A   1      35.365  23.709  24.577  1.00  0.00     0.102 C 
BRANCH   5   6
ATOM      6  C   UNL A   1      35.210  23.716  23.055  1.00  0.00     0.031 C 
BRANCH   6   7
ATOM      7  C   UNL A   1      33.772  23.708  22.557  1.00  0.00     0.118 C 
BRANCH   7   8
ATOM      8  N   UNL A   1      33.187  22.390  22.371  1.00  0.00    -0.338 N 
ATOM      9  N   UNL A   1      31.605  22.236  24.150  1.00  0.00    -0.291 N 
ATOM     10  C   UNL A   1      32.232  21.730  23.065  1.00  0.00     0.320 C 
ATOM     11  H   UNL A   1      31.207  21.560  24.746  1.00  0.00     0.173 HD
ATOM     12  O   UNL A   1      32.010  20.559  22.745  1.00  0.00    -0.248 OA
ATOM     13  H   UNL A   1      33.550  21.891  21.605  1.00  0.00     0.165 HD
BRANCH   9  14
ATOM     14  C   UNL A   1      31.432  23.533  24.559  1.00  0.00     0.157 A 
ATOM     15  N   UNL A   1      30.802  25.555  24.511  1.00  0.00    -0.231 N 
ATOM     16  N   UNL A   1      30.407  24.304  24.213  1.00  0.00    -0.149 NA
ATOM     17  C   UNL A   1      31.856  25.542  25.413  1.00  0.00     0.076 A 
ATOM     18  C   UNL A   1      32.268  24.219  25.463  1.00  0.00     0.078 A 
BRANCH  15  19
ATOM     19  C   UNL A   1      30.193  26.652  23.845  1.00  0.00     0.065 A 
ATOM     20  C   UNL A   1      29.004  28.868  22.654  1.00  0.00     0.082 A 
ATOM     21  C   UNL A   1      30.377  28.654  22.498  1.00  0.00     0.024 A 
ATOM     22  C   UNL A   1      28.211  27.952  23.353  1.00  0.00     0.024 A 
ATOM     23  C   UNL A   1      30.975  27.549  23.105  1.00  0.00     0.030 A 
ATOM     24  C   UNL A   1      28.804  26.824  23.927  1.00  0.00     0.030 A 
BRANCH  20  25
ATOM     25  S   UNL A   1      28.276  30.350  22.019  1.00  0.00     0.238 S 
ATOM     26  O   UNL A   1      27.296  30.840  22.952  1.00  0.00    -0.207 OA
ATOM     27  O   UNL A   1      27.974  30.135  20.617  1.00  0.00    -0.207 OA
BRANCH  25  28
ATOM     28  N   UNL A   1      29.539  31.448  22.068  1.00  0.00    -0.225 NA
ATOM     29  H   UNL A   1      30.426  30.944  22.085  1.00  0.00     0.137 HD
ATOM     30  H   UNL A   1      29.458  32.022  22.906  1.00  0.00     0.137 HD
ENDBRANCH  25  28
ENDBRANCH  20  25
ENDBRANCH  15  19
BRANCH  17  31
ATOM     31  C   UNL A   1      32.344  26.715  26.129  1.00  0.00     0.000 A 
ATOM     32  C   UNL A   1      31.481  27.435  26.970  1.00  0.00     0.010 A 
ATOM     33  C   UNL A   1      33.660  27.156  25.964  1.00  0.00     0.010 A 
ATOM     34  C   UNL A   1      31.913  28.599  27.600  1.00  0.00     0.001 A 
ATOM     35  C   UNL A   1      34.094  28.317  26.604  1.00  0.00     0.001 A 
ATOM     36  C   UNL A   1      33.220  29.041  27.414  1.00  0.00     0.000 A 
ENDBRANCH  17  31
ENDBRANCH   9  14
ENDBRANCH   7   8
ENDBRANCH   6   7
ENDBRANCH   5   6
ENDBRANCH   1   5
BRANCH   3  37
ATOM     37  C   UNL A   1      37.985  22.740  25.957  1.00  0.00     0.117 C 
BRANCH  37  38
ATOM     38  C   UNL A   1      39.202  21.843  26.189  1.00  0.00     0.042 C 
BRANCH  38  39
ATOM     39  C   UNL A   1      40.403  22.532  26.798  1.00  0.00     0.118 C 
BRANCH  39  40
ATOM     40  N   UNL A   1      41.626  22.348  26.027  1.00  0.00    -0.352 N 
ATOM     41  C   UNL A   1      42.447  23.335  25.518  1.00  0.00     0.251 C 
ATOM     42  H   UNL A   1      41.897  21.418  25.849  1.00  0.00     0.163 HD
ATOM     43  O   UNL A   1      43.175  23.110  24.559  1.00  0.00    -0.269 OA
BRANCH  41  44
ATOM     44  C   UNL A   1      42.428  24.674  26.140  1.00  0.00     0.039 A 
ATOM     45  C   UNL A   1      41.592  25.681  25.654  1.00  0.00     0.014 A 
ATOM     46  C   UNL A   1      43.251  24.912  27.239  1.00  0.00     0.014 A 
ATOM     47  C   UNL A   1      41.545  26.896  26.332  1.00  0.00     0.010 A 
ATOM     48  C   UNL A   1      43.070  26.034  28.008  1.00  0.00     0.010 A 
ATOM     49  C   UNL A   1      42.266  27.057  27.530  1.00  0.00    -0.014 A 
BRANCH  49  50
ATOM     50  C   UNL A   1      42.037  28.222  28.381  1.00  0.00     0.031 A 
ATOM     51  C   UNL A   1      43.088  29.257  28.198  1.00  0.00     0.074 A 
ATOM     52  C   UNL A   1      40.908  28.436  29.098  1.00  0.00     0.049 A 
ATOM     53  N   UNL A   1      44.054  29.526  29.010  1.00  0.00    -0.248 NA
ATOM     54  C   UNL A   1      43.227  29.908  26.881  1.00  0.00     0.031 C 
ATOM     55  C   UNL A   1      39.688  27.619  29.093  1.00  0.00     0.029 A 
ATOM     56  N   UNL A   1      40.555  29.482  29.907  1.00  0.00    -0.354 N 
ATOM     57  C   UNL A   1      44.720  30.606  28.439  1.00  0.00     0.074 A 
ATOM     58  C   UNL A   1      44.350  30.612  27.051  1.00  0.00     0.031 C 
ATOM     59  C   UNL A   1      38.667  28.313  29.639  1.00  0.00     0.029 A 
ATOM     60  C   UNL A   1      39.189  29.547  30.195  1.00  0.00     0.049 A 
ATOM     61  H   UNL A   1      41.207  30.132  30.255  1.00  0.00     0.167 HD
ATOM     62  C   UNL A   1      45.163  31.609  29.246  1.00  0.00     0.037 A 
ATOM     63  C   UNL A   1      38.531  30.544  30.840  1.00  0.00     0.037 A 
ATOM     64  C   UNL A   1      45.150  31.173  30.624  1.00  0.00     0.049 A 
ATOM     65  C   UNL A   1      39.530  31.284  31.639  1.00  0.00     0.074 A 
ATOM     66  C   UNL A   1      45.854  30.297  31.421  1.00  0.00     0.029 A 
ATOM     67  N   UNL A   1      43.946  31.395  31.232  1.00  0.00    -0.354 N 
ATOM     68  N   UNL A   1      40.125  30.783  32.684  1.00  0.00    -0.248 NA
ATOM     69  C   UNL A   1      40.152  32.475  31.074  1.00  0.00     0.031 C 
ATOM     70  C   UNL A   1      44.973  29.925  32.482  1.00  0.00     0.029 A 
ATOM     71  C   UNL A   1      43.777  30.627  32.346  1.00  0.00     0.049 A 
ATOM     72  H   UNL A   1      43.276  32.038  30.902  1.00  0.00     0.167 HD
ATOM     73  C   UNL A   1      41.407  31.288  32.612  1.00  0.00     0.074 A 
ATOM     74  C   UNL A   1      41.310  32.454  31.739  1.00  0.00     0.031 C 
ATOM     75  C   UNL A   1      42.474  30.513  32.959  1.00  0.00     0.037 A 
BRANCH  62  76
ATOM     76  C   UNL A   1      45.015  33.093  28.932  1.00  0.00     0.057 A 
ATOM     77  C   UNL A   1      46.157  33.915  29.036  1.00  0.00     0.134 A 
ATOM     78  C   UNL A   1      43.791  33.795  28.880  1.00  0.00     0.134 A 
ATOM     79  F   UNL A   1      47.384  33.377  29.105  1.00  0.00    -0.206 F 
ATOM     80  C   UNL A   1      46.078  35.307  29.169  1.00  0.00     0.040 A 
ATOM     81  C   UNL A   1      43.705  35.188  28.970  1.00  0.00     0.040 A 
ATOM     82  F   UNL A   1      42.604  33.184  28.837  1.00  0.00    -0.206 F 
ATOM     83  C   UNL A   1      44.847  35.949  29.147  1.00  0.00     0.006 A 
ENDBRANCH  62  76
BRANCH  63  84
ATOM     84  C   UNL A   1      37.143  31.043  30.689  1.00  0.00     0.057 A 
ATOM     85  C   UNL A   1      36.322  31.259  31.810  1.00  0.00     0.134 A 
ATOM     86  C   UNL A   1      36.695  31.610  29.484  1.00  0.00     0.134 A 
ATOM     87  F   UNL A   1      36.671  30.781  33.013  1.00  0.00    -0.206 F 
ATOM     88  C   UNL A   1      35.158  32.037  31.749  1.00  0.00     0.040 A 
ATOM     89  C   UNL A   1      35.528  32.382  29.408  1.00  0.00     0.040 A 
ATOM     90  F   UNL A   1      37.422  31.516  28.361  1.00  0.00    -0.206 F 
ATOM     91  C   UNL A   1      34.767  32.617  30.546  1.00  0.00     0.006 A 
ENDBRANCH  63  84
BRANCH  75  92
ATOM     92  C   UNL A   1      42.237  29.403  33.933  1.00  0.00     0.057 A 
ATOM     93  C   UNL A   1      41.894  28.086  33.594  1.00  0.00     0.134 A 
ATOM     94  C   UNL A   1      42.419  29.683  35.293  1.00  0.00     0.134 A 
ATOM     95  F   UNL A   1      41.776  27.704  32.316  1.00  0.00    -0.206 F 
ATOM     96  C   UNL A   1      41.693  27.110  34.576  1.00  0.00     0.040 A 
ATOM     97  C   UNL A   1      42.259  28.709  36.277  1.00  0.00     0.040 A 
ATOM     98  F   UNL A   1      42.785  30.914  35.686  1.00  0.00    -0.206 F 
ATOM     99  C   UNL A   1      41.880  27.419  35.920  1.00  0.00     0.006 A 
ENDBRANCH  75  92
ENDBRANCH  49  50
ENDBRANCH  41  44
ENDBRANCH  39  40
ENDBRANCH  38  39
ENDBRANCH  37  38
ENDBRANCH   3  37
TORSDOF 18
ENDMDL
MODEL 3
REMARK VINA RESULT:     -12.0      1.903      2.904
REMARK SMILES NS(=O)(=O)c1ccc(-n2nc(NC(=O)NCCCC(=O)NCCCNC(=O)c3ccc(-c4c5nc(c(-c6c(F)cccc6F)c6ccc([nH]6)c(-c6c(F)cccc6F)c6nc(c(-c7c(F)cccc7F)c7ccc4[nH]7)C=C6)C=C5)cc3)cc2-c2ccccc2)cc1
REMARK SMILES IDX 19 1 20 2 21 3 18 5 17 6 16 7 15 8 12 9 13 10 14 12 11 14
REMARK SMILES IDX 9 15 10 16 83 17 82 18 8 19 5 20 6 21 91 22 7 23 90 24 2 25
REMARK SMILES IDX 3 26 4 27 1 28 84 31 85 32 89 33 86 34 88 35 87 36 22 37
REMARK SMILES IDX 23 38 24 39 25 40 26 41 27 43 28 44 29 45 81 46 30 47 80 48
REMARK SMILES IDX 31 49 32 50 33 51 74 52 34 53 79 54 73 55 75 56 35 57 78 58
REMARK SMILES IDX 72 59 71 60 36 62 62 63 45 64 61 65 46 66 49 67 60 68 76 69
REMARK SMILES IDX 47 70 48 71 59 73 77 74 50 75 37 76 38 77 43 78 39 79 40 80
REMARK SMILES IDX 42 81 44 82 41 83 63 84 64 85 69 86 65 87 66 88 68 89 70 90
REMARK SMILES IDX 67 91 51 92 52 93 57 94 53 95 54 96 56 97 58 98 55 99
REMARK H PARENT 21 4 12 11 15 13 1 29 1 30 25 42 75 61 49 72
REMARK Flexibility Score: inf
ROOT
ATOM      1  C   UNL A   1      35.677  22.771  25.746  1.00  0.00     0.220 C 
ATOM      2  O   UNL A   1      35.045  22.940  26.792  1.00  0.00    -0.275 OA
ATOM      3  N   UNL A   1      36.493  21.684  25.658  1.00  0.00    -0.356 N 
ATOM      4  H   UNL A   1      36.427  21.060  26.416  1.00  0.00     0.163 HD
ENDROOT
BRANCH   1   5
ATOM      5  C   UNL A   1      35.521  23.735  24.583  1.00  0.00     0.102 C 
BRANCH   5   6
ATOM      6  C   UNL A   1      34.953  23.103  23.311  1.00  0.00     0.031 C 
BRANCH   6   7
ATOM      7  C   UNL A   1      33.434  23.102  23.219  1.00  0.00     0.118 C 
BRANCH   7   8
ATOM      8  N   UNL A   1      32.764  22.102  24.035  1.00  0.00    -0.338 N 
ATOM      9  N   UNL A   1      31.838  23.384  25.821  1.00  0.00    -0.291 N 
ATOM     10  C   UNL A   1      32.057  22.213  25.184  1.00  0.00     0.320 C 
ATOM     11  H   UNL A   1      31.626  23.296  26.779  1.00  0.00     0.173 HD
ATOM     12  O   UNL A   1      31.693  21.165  25.725  1.00  0.00    -0.248 OA
ATOM     13  H   UNL A   1      32.836  21.184  23.691  1.00  0.00     0.165 HD
BRANCH   9  14
ATOM     14  C   UNL A   1      31.863  24.674  25.358  1.00  0.00     0.157 A 
ATOM     15  N   UNL A   1      32.213  26.763  25.340  1.00  0.00    -0.231 N 
ATOM     16  N   UNL A   1      32.751  25.592  25.724  1.00  0.00    -0.149 NA
ATOM     17  C   UNL A   1      31.231  26.568  24.379  1.00  0.00     0.076 A 
ATOM     18  C   UNL A   1      31.004  25.200  24.372  1.00  0.00     0.078 A 
BRANCH  15  19
ATOM     19  C   UNL A   1      32.624  27.960  25.984  1.00  0.00     0.065 A 
ATOM     20  C   UNL A   1      33.414  30.369  27.131  1.00  0.00     0.082 A 
ATOM     21  C   UNL A   1      32.103  29.916  27.311  1.00  0.00     0.024 A 
ATOM     22  C   UNL A   1      34.349  29.599  26.431  1.00  0.00     0.024 A 
ATOM     23  C   UNL A   1      31.705  28.714  26.725  1.00  0.00     0.030 A 
ATOM     24  C   UNL A   1      33.959  28.376  25.879  1.00  0.00     0.030 A 
BRANCH  20  25
ATOM     25  S   UNL A   1      33.874  31.966  27.739  1.00  0.00     0.238 S 
ATOM     26  O   UNL A   1      32.802  32.897  27.498  1.00  0.00    -0.207 OA
ATOM     27  O   UNL A   1      35.238  32.228  27.324  1.00  0.00    -0.207 OA
BRANCH  25  28
ATOM     28  N   UNL A   1      33.918  31.745  29.398  1.00  0.00    -0.225 NA
ATOM     29  H   UNL A   1      34.554  32.425  29.814  1.00  0.00     0.137 HD
ATOM     30  H   UNL A   1      34.245  30.802  29.607  1.00  0.00     0.137 HD
ENDBRANCH  25  28
ENDBRANCH  20  25
ENDBRANCH  15  19
BRANCH  17  31
ATOM     31  C   UNL A   1      30.639  27.632  23.577  1.00  0.00     0.000 A 
ATOM     32  C   UNL A   1      31.460  28.482  22.819  1.00  0.00     0.010 A 
ATOM     33  C   UNL A   1      29.257  27.841  23.577  1.00  0.00     0.010 A 
ATOM     34  C   UNL A   1      30.914  29.547  22.109  1.00  0.00     0.001 A 
ATOM     35  C   UNL A   1      28.710  28.903  22.856  1.00  0.00     0.001 A 
ATOM     36  C   UNL A   1      29.537  29.759  22.130  1.00  0.00     0.000 A 
ENDBRANCH  17  31
ENDBRANCH   9  14
ENDBRANCH   7   8
ENDBRANCH   6   7
ENDBRANCH   5   6
ENDBRANCH   1   5
BRANCH   3  37
ATOM     37  C   UNL A   1      37.449  21.287  24.626  1.00  0.00     0.117 C 
BRANCH  37  38
ATOM     38  C   UNL A   1      38.172  19.989  24.986  1.00  0.00     0.042 C 
BRANCH  38  39
ATOM     39  C   UNL A   1      39.234  20.118  26.055  1.00  0.00     0.118 C 
BRANCH  39  40
ATOM     40  N   UNL A   1      40.401  19.280  25.813  1.00  0.00    -0.352 N 
ATOM     41  C   UNL A   1      41.721  19.685  25.759  1.00  0.00     0.251 C 
ATOM     42  H   UNL A   1      40.231  18.321  25.672  1.00  0.00     0.163 HD
ATOM     43  O   UNL A   1      42.553  19.026  25.147  1.00  0.00    -0.269 OA
BRANCH  41  44
ATOM     44  C   UNL A   1      42.116  20.933  26.442  1.00  0.00     0.039 A 
ATOM     45  C   UNL A   1      42.435  22.081  25.715  1.00  0.00     0.014 A 
ATOM     46  C   UNL A   1      42.150  20.950  27.836  1.00  0.00     0.014 A 
ATOM     47  C   UNL A   1      42.712  23.256  26.409  1.00  0.00     0.010 A 
ATOM     48  C   UNL A   1      42.242  22.141  28.510  1.00  0.00     0.010 A 
ATOM     49  C   UNL A   1      42.585  23.288  27.810  1.00  0.00    -0.014 A 
BRANCH  49  50
ATOM     50  C   UNL A   1      42.626  24.559  28.528  1.00  0.00     0.031 A 
ATOM     51  C   UNL A   1      41.446  25.408  28.221  1.00  0.00     0.074 A 
ATOM     52  C   UNL A   1      43.514  24.856  29.508  1.00  0.00     0.049 A 
ATOM     53  N   UNL A   1      41.423  26.452  27.464  1.00  0.00    -0.248 NA
ATOM     54  C   UNL A   1      40.103  24.928  28.601  1.00  0.00     0.031 C 
ATOM     55  C   UNL A   1      44.518  23.960  30.094  1.00  0.00     0.029 A 
ATOM     56  N   UNL A   1      43.648  25.984  30.271  1.00  0.00    -0.354 N 
ATOM     57  C   UNL A   1      40.121  26.935  27.548  1.00  0.00     0.074 A 
ATOM     58  C   UNL A   1      39.320  25.840  28.017  1.00  0.00     0.031 C 
ATOM     59  C   UNL A   1      44.969  24.472  31.259  1.00  0.00     0.029 A 
ATOM     60  C   UNL A   1      44.428  25.809  31.418  1.00  0.00     0.049 A 
ATOM     61  H   UNL A   1      43.233  26.844  30.033  1.00  0.00     0.167 HD
ATOM     62  C   UNL A   1      39.920  28.280  27.622  1.00  0.00     0.037 A 
ATOM     63  C   UNL A   1      44.615  26.695  32.429  1.00  0.00     0.037 A 
ATOM     64  C   UNL A   1      41.128  28.979  27.244  1.00  0.00     0.049 A 
ATOM     65  C   UNL A   1      44.304  28.039  31.897  1.00  0.00     0.074 A 
ATOM     66  C   UNL A   1      41.855  29.207  26.096  1.00  0.00     0.029 A 
ATOM     67  N   UNL A   1      41.968  29.180  28.303  1.00  0.00    -0.354 N 
ATOM     68  N   UNL A   1      45.043  28.647  31.013  1.00  0.00    -0.248 NA
ATOM     69  C   UNL A   1      42.964  28.583  32.076  1.00  0.00     0.031 C 
ATOM     70  C   UNL A   1      43.198  29.454  26.516  1.00  0.00     0.029 A 
ATOM     71  C   UNL A   1      43.249  29.433  27.908  1.00  0.00     0.049 A 
ATOM     72  H   UNL A   1      41.682  29.147  29.245  1.00  0.00     0.167 HD
ATOM     73  C   UNL A   1      44.132  29.311  30.218  1.00  0.00     0.074 A 
ATOM     74  C   UNL A   1      42.916  29.399  31.020  1.00  0.00     0.031 C 
ATOM     75  C   UNL A   1      44.326  29.395  28.870  1.00  0.00     0.037 A 
BRANCH  62  76
ATOM     76  C   UNL A   1      38.937  28.951  28.574  1.00  0.00     0.057 A 
ATOM     77  C   UNL A   1      39.004  28.620  29.944  1.00  0.00     0.134 A 
ATOM     78  C   UNL A   1      37.748  29.605  28.187  1.00  0.00     0.134 A 
ATOM     79  F   UNL A   1      40.075  27.985  30.445  1.00  0.00    -0.206 F 
ATOM     80  C   UNL A   1      37.940  28.841  30.829  1.00  0.00     0.040 A 
ATOM     81  C   UNL A   1      36.698  29.868  29.073  1.00  0.00     0.040 A 
ATOM     82  F   UNL A   1      37.483  29.944  26.923  1.00  0.00    -0.206 F 
ATOM     83  C   UNL A   1      36.776  29.458  30.392  1.00  0.00     0.006 A 
ENDBRANCH  62  76
BRANCH  63  84
ATOM     84  C   UNL A   1      44.855  26.476  33.875  1.00  0.00     0.057 A 
ATOM     85  C   UNL A   1      43.817  26.066  34.731  1.00  0.00     0.134 A 
ATOM     86  C   UNL A   1      46.156  26.361  34.393  1.00  0.00     0.134 A 
ATOM     87  F   UNL A   1      42.540  26.111  34.325  1.00  0.00    -0.206 F 
ATOM     88  C   UNL A   1      44.061  25.523  36.000  1.00  0.00     0.040 A 
ATOM     89  C   UNL A   1      46.413  25.829  35.663  1.00  0.00     0.040 A 
ATOM     90  F   UNL A   1      47.229  26.671  33.649  1.00  0.00    -0.206 F 
ATOM     91  C   UNL A   1      45.366  25.388  36.463  1.00  0.00     0.006 A 
ENDBRANCH  63  84
BRANCH  75  92
ATOM     92  C   UNL A   1      45.733  29.312  28.366  1.00  0.00     0.057 A 
ATOM     93  C   UNL A   1      46.392  28.132  27.995  1.00  0.00     0.134 A 
ATOM     94  C   UNL A   1      46.435  30.512  28.202  1.00  0.00     0.134 A 
ATOM     95  F   UNL A   1      45.773  26.944  28.042  1.00  0.00    -0.206 F 
ATOM     96  C   UNL A   1      47.711  28.149  27.530  1.00  0.00     0.040 A 
ATOM     97  C   UNL A   1      47.736  30.545  27.705  1.00  0.00     0.040 A 
ATOM     98  F   UNL A   1      45.851  31.684  28.502  1.00  0.00    -0.206 F 
ATOM     99  C   UNL A   1      48.384  29.357  27.380  1.00  0.00     0.006 A 
ENDBRANCH  75  92
ENDBRANCH  49  50
ENDBRANCH  41  44
ENDBRANCH  39  40
ENDBRANCH  38  39
ENDBRANCH  37  38
ENDBRANCH   3  37
TORSDOF 18
ENDMDL
