MODEL 1
REMARK VINA RESULT:     -10.6      0.000      0.000
REMARK SMILES O=C(C[C@H]1C[N@@H+](CCSc2ccccc2F)CCO1)NCCCNC(=O)c1ccc(-c2c3nc(c(-c4c(F)cccc4F)c4ccc([nH]4)c(-c4c(F)cccc4F)c4nc(c(-c5c(F)cccc5F)c5ccc2[nH]5)C=C4)C=C3)cc1
REMARK SMILES IDX 1 1 2 2 20 3 3 5 4 6 5 7 19 8 6 9 18 10 17 11 7 13 8 14 9 15
REMARK SMILES IDX 10 16 11 17 15 18 12 19 14 20 16 21 13 22 21 23 22 24 23 25
REMARK SMILES IDX 24 26 25 27 26 29 27 30 28 31 80 32 29 33 79 34 30 35 31 36
REMARK SMILES IDX 32 37 73 38 33 39 78 40 72 41 74 42 34 43 77 44 71 45 70 46
REMARK SMILES IDX 35 48 61 49 44 50 60 51 45 52 48 53 59 54 75 55 46 56 47 57
REMARK SMILES IDX 58 59 76 60 49 61 36 62 37 63 42 64 38 65 39 66 41 67 43 68
REMARK SMILES IDX 40 69 62 70 63 71 68 72 64 73 65 74 67 75 69 76 66 77 50 78
REMARK SMILES IDX 51 79 56 80 52 81 53 82 55 83 57 84 54 85
REMARK H PARENT 20 4 6 12 24 28 74 47 48 58
REMARK Flexibility Score: inf
ROOT
ATOM      1  O   UNL A   1      36.930  24.097  25.897  1.00  0.00    -0.275 OA
ATOM      2  C   UNL A   1      35.932  23.803  25.247  1.00  0.00     0.222 C 
ATOM      3  N   UNL A   1      35.891  22.781  24.327  1.00  0.00    -0.356 N 
ATOM      4  H   UNL A   1      35.036  22.574  23.887  1.00  0.00     0.163 HD
ENDROOT
BRANCH   2   5
ATOM      5  C   UNL A   1      34.630  24.542  25.402  1.00  0.00     0.138 C 
BRANCH   5   6
ATOM      6  C   UNL A   1      33.568  23.804  26.217  1.00  0.00     0.182 C 
ATOM      7  C   UNL A   1      32.193  24.518  26.325  1.00  0.00     0.295 C 
ATOM      8  O   UNL A   1      33.544  22.395  25.929  1.00  0.00    -0.366 OA
ATOM      9  N   UNL A   1      31.079  23.970  25.550  1.00  0.00    -0.330 N 
ATOM     10  C   UNL A   1      32.453  21.959  25.114  1.00  0.00     0.222 C 
ATOM     11  C   UNL A   1      31.110  22.521  25.580  1.00  0.00     0.291 C 
ATOM     12  H   UNL A   1      30.214  24.219  26.029  1.00  0.00     0.348 HD
BRANCH   9  13
ATOM     13  C   UNL A   1      30.698  24.669  24.315  1.00  0.00     0.273 C 
BRANCH  13  14
ATOM     14  C   UNL A   1      29.753  25.897  24.293  1.00  0.00     0.136 C 
BRANCH  14  15
ATOM     15  S   UNL A   1      30.496  27.514  23.814  1.00  0.00    -0.117 SA
BRANCH  15  16
ATOM     16  C   UNL A   1      31.686  27.812  25.115  1.00  0.00     0.043 A 
ATOM     17  C   UNL A   1      31.199  27.972  26.418  1.00  0.00     0.018 A 
ATOM     18  C   UNL A   1      33.070  27.878  24.919  1.00  0.00     0.136 A 
ATOM     19  C   UNL A   1      32.056  28.301  27.472  1.00  0.00     0.001 A 
ATOM     20  C   UNL A   1      33.937  28.188  25.970  1.00  0.00     0.040 A 
ATOM     21  F   UNL A   1      33.600  27.647  23.710  1.00  0.00    -0.206 F 
ATOM     22  C   UNL A   1      33.425  28.421  27.245  1.00  0.00     0.003 A 
ENDBRANCH  15  16
ENDBRANCH  14  15
ENDBRANCH  13  14
ENDBRANCH   9  13
ENDBRANCH   5   6
ENDBRANCH   2   5
BRANCH   3  23
ATOM     23  C   UNL A   1      37.061  22.000  23.979  1.00  0.00     0.117 C 
BRANCH  23  24
ATOM     24  C   UNL A   1      37.336  20.860  24.938  1.00  0.00     0.042 C 
BRANCH  24  25
ATOM     25  C   UNL A   1      38.615  21.029  25.745  1.00  0.00     0.118 C 
BRANCH  25  26
ATOM     26  N   UNL A   1      39.533  19.899  25.655  1.00  0.00    -0.352 N 
ATOM     27  C   UNL A   1      40.861  19.821  26.019  1.00  0.00     0.251 C 
ATOM     28  H   UNL A   1      39.149  19.073  25.280  1.00  0.00     0.163 HD
ATOM     29  O   UNL A   1      41.496  18.793  25.830  1.00  0.00    -0.269 OA
BRANCH  27  30
ATOM     30  C   UNL A   1      41.528  21.015  26.588  1.00  0.00     0.039 A 
ATOM     31  C   UNL A   1      42.117  21.934  25.717  1.00  0.00     0.014 A 
ATOM     32  C   UNL A   1      41.496  21.268  27.960  1.00  0.00     0.014 A 
ATOM     33  C   UNL A   1      42.569  23.162  26.210  1.00  0.00     0.010 A 
ATOM     34  C   UNL A   1      41.861  22.523  28.435  1.00  0.00     0.010 A 
ATOM     35  C   UNL A   1      42.382  23.492  27.563  1.00  0.00    -0.014 A 
BRANCH  35  36
ATOM     36  C   UNL A   1      42.684  24.851  28.083  1.00  0.00     0.031 A 
ATOM     37  C   UNL A   1      44.080  25.201  28.517  1.00  0.00     0.074 A 
ATOM     38  C   UNL A   1      41.685  25.740  28.254  1.00  0.00     0.049 A 
ATOM     39  N   UNL A   1      44.513  26.285  29.109  1.00  0.00    -0.248 NA
ATOM     40  C   UNL A   1      45.121  24.189  28.278  1.00  0.00     0.031 C 
ATOM     41  C   UNL A   1      40.278  25.510  27.918  1.00  0.00     0.029 A 
ATOM     42  N   UNL A   1      41.697  27.015  28.768  1.00  0.00    -0.354 N 
ATOM     43  C   UNL A   1      45.868  26.077  29.330  1.00  0.00     0.074 A 
ATOM     44  C   UNL A   1      46.177  24.746  28.854  1.00  0.00     0.031 C 
ATOM     45  C   UNL A   1      39.570  26.614  28.206  1.00  0.00     0.029 A 
ATOM     46  C   UNL A   1      40.459  27.613  28.791  1.00  0.00     0.049 A 
ATOM     47  H   UNL A   1      42.515  27.458  29.089  1.00  0.00     0.167 HD
ATOM     48  C   UNL A   1      46.777  26.928  29.858  1.00  0.00     0.037 A 
ATOM     49  C   UNL A   1      40.079  28.825  29.241  1.00  0.00     0.037 A 
ATOM     50  C   UNL A   1      46.478  28.265  30.297  1.00  0.00     0.049 A 
ATOM     51  C   UNL A   1      41.105  29.748  29.835  1.00  0.00     0.074 A 
ATOM     52  C   UNL A   1      47.348  29.221  30.789  1.00  0.00     0.029 A 
ATOM     53  N   UNL A   1      45.214  28.834  30.295  1.00  0.00    -0.354 N 
ATOM     54  N   UNL A   1      42.393  29.555  29.994  1.00  0.00    -0.248 NA
ATOM     55  C   UNL A   1      40.631  31.053  30.317  1.00  0.00     0.031 C 
ATOM     56  C   UNL A   1      46.606  30.357  31.122  1.00  0.00     0.029 A 
ATOM     57  C   UNL A   1      45.280  30.125  30.794  1.00  0.00     0.049 A 
ATOM     58  H   UNL A   1      44.394  28.388  29.983  1.00  0.00     0.167 HD
ATOM     59  C   UNL A   1      42.884  30.718  30.570  1.00  0.00     0.074 A 
ATOM     60  C   UNL A   1      41.760  31.617  30.726  1.00  0.00     0.031 C 
ATOM     61  C   UNL A   1      44.154  31.013  30.935  1.00  0.00     0.037 A 
BRANCH  48  62
ATOM     62  C   UNL A   1      48.194  26.450  29.976  1.00  0.00     0.057 A 
ATOM     63  C   UNL A   1      49.096  26.612  28.918  1.00  0.00     0.134 A 
ATOM     64  C   UNL A   1      48.647  25.770  31.115  1.00  0.00     0.134 A 
ATOM     65  F   UNL A   1      48.725  27.249  27.797  1.00  0.00    -0.206 F 
ATOM     66  C   UNL A   1      50.395  26.107  28.984  1.00  0.00     0.040 A 
ATOM     67  C   UNL A   1      49.951  25.282  31.202  1.00  0.00     0.040 A 
ATOM     68  F   UNL A   1      47.834  25.592  32.169  1.00  0.00    -0.206 F 
ATOM     69  C   UNL A   1      50.826  25.441  30.131  1.00  0.00     0.006 A 
ENDBRANCH  48  62
BRANCH  49  70
ATOM     70  C   UNL A   1      38.660  29.243  29.120  1.00  0.00     0.057 A 
ATOM     71  C   UNL A   1      37.786  29.203  30.212  1.00  0.00     0.134 A 
ATOM     72  C   UNL A   1      38.140  29.671  27.893  1.00  0.00     0.134 A 
ATOM     73  F   UNL A   1      38.220  28.796  31.414  1.00  0.00    -0.206 F 
ATOM     74  C   UNL A   1      36.441  29.557  30.085  1.00  0.00     0.040 A 
ATOM     75  C   UNL A   1      36.804  30.051  27.757  1.00  0.00     0.040 A 
ATOM     76  F   UNL A   1      38.935  29.750  26.815  1.00  0.00    -0.206 F 
ATOM     77  C   UNL A   1      35.948  29.986  28.854  1.00  0.00     0.006 A 
ENDBRANCH  49  70
BRANCH  61  78
ATOM     78  C   UNL A   1      44.418  32.367  31.521  1.00  0.00     0.057 A 
ATOM     79  C   UNL A   1      44.778  33.442  30.695  1.00  0.00     0.134 A 
ATOM     80  C   UNL A   1      44.418  32.583  32.904  1.00  0.00     0.134 A 
ATOM     81  F   UNL A   1      44.808  33.296  29.362  1.00  0.00    -0.206 F 
ATOM     82  C   UNL A   1      45.147  34.677  31.227  1.00  0.00     0.040 A 
ATOM     83  C   UNL A   1      44.764  33.821  33.446  1.00  0.00     0.040 A 
ATOM     84  F   UNL A   1      44.074  31.596  33.745  1.00  0.00    -0.206 F 
ATOM     85  C   UNL A   1      45.141  34.870  32.607  1.00  0.00     0.006 A 
ENDBRANCH  61  78
ENDBRANCH  35  36
ENDBRANCH  27  30
ENDBRANCH  25  26
ENDBRANCH  24  25
ENDBRANCH  23  24
ENDBRANCH   3  23
TORSDOF 15
ENDMDL
MODEL 2
REMARK VINA RESULT:     -10.5      0.861      6.302
REMARK SMILES O=C(C[C@H]1C[N@@H+](CCSc2ccccc2F)CCO1)NCCCNC(=O)c1ccc(-c2c3nc(c(-c4c(F)cccc4F)c4ccc([nH]4)c(-c4c(F)cccc4F)c4nc(c(-c5c(F)cccc5F)c5ccc2[nH]5)C=C4)C=C3)cc1
REMARK SMILES IDX 1 1 2 2 20 3 3 5 4 6 5 7 19 8 6 9 18 10 17 11 7 13 8 14 9 15
REMARK SMILES IDX 10 16 11 17 15 18 12 19 14 20 16 21 13 22 21 23 22 24 23 25
REMARK SMILES IDX 24 26 25 27 26 29 27 30 28 31 80 32 29 33 79 34 30 35 31 36
REMARK SMILES IDX 32 37 73 38 33 39 78 40 72 41 74 42 34 43 77 44 71 45 70 46
REMARK SMILES IDX 35 48 61 49 44 50 60 51 45 52 48 53 59 54 75 55 46 56 47 57
REMARK SMILES IDX 58 59 76 60 49 61 36 62 37 63 42 64 38 65 39 66 41 67 43 68
REMARK SMILES IDX 40 69 62 70 63 71 68 72 64 73 65 74 67 75 69 76 66 77 50 78
REMARK SMILES IDX 51 79 56 80 52 81 53 82 55 83 57 84 54 85
REMARK H PARENT 20 4 6 12 24 28 74 47 48 58
REMARK Flexibility Score: inf
ROOT
ATOM      1  O   UNL A   1      36.738  24.348  25.730  1.00  0.00    -0.275 OA
ATOM      2  C   UNL A   1      35.770  23.922  25.111  1.00  0.00     0.222 C 
ATOM      3  N   UNL A   1      35.808  22.811  24.301  1.00  0.00    -0.356 N 
ATOM      4  H   UNL A   1      34.973  22.503  23.881  1.00  0.00     0.163 HD
ENDROOT
BRANCH   2   5
ATOM      5  C   UNL A   1      34.420  24.584  25.182  1.00  0.00     0.138 C 
BRANCH   5   6
ATOM      6  C   UNL A   1      33.380  23.829  26.008  1.00  0.00     0.182 C 
ATOM      7  C   UNL A   1      31.969  24.477  26.061  1.00  0.00     0.295 C 
ATOM      8  O   UNL A   1      33.431  22.410  25.781  1.00  0.00    -0.366 OA
ATOM      9  N   UNL A   1      30.900  23.842  25.290  1.00  0.00    -0.330 N 
ATOM     10  C   UNL A   1      32.379  21.885  24.967  1.00  0.00     0.222 C 
ATOM     11  C   UNL A   1      31.001  22.399  25.384  1.00  0.00     0.291 C 
ATOM     12  H   UNL A   1      30.014  24.066  25.743  1.00  0.00     0.348 HD
BRANCH   9  13
ATOM     13  C   UNL A   1      30.509  24.467  24.020  1.00  0.00     0.273 C 
BRANCH  13  14
ATOM     14  C   UNL A   1      31.242  25.693  23.418  1.00  0.00     0.136 C 
BRANCH  14  15
ATOM     15  S   UNL A   1      30.645  27.359  23.931  1.00  0.00    -0.117 SA
BRANCH  15  16
ATOM     16  C   UNL A   1      31.823  27.838  25.191  1.00  0.00     0.043 A 
ATOM     17  C   UNL A   1      31.351  27.979  26.501  1.00  0.00     0.018 A 
ATOM     18  C   UNL A   1      33.183  28.061  24.954  1.00  0.00     0.136 A 
ATOM     19  C   UNL A   1      32.187  28.441  27.521  1.00  0.00     0.001 A 
ATOM     20  C   UNL A   1      34.032  28.505  25.972  1.00  0.00     0.040 A 
ATOM     21  F   UNL A   1      33.708  27.857  23.738  1.00  0.00    -0.206 F 
ATOM     22  C   UNL A   1      33.526  28.716  27.254  1.00  0.00     0.003 A 
ENDBRANCH  15  16
ENDBRANCH  14  15
ENDBRANCH  13  14
ENDBRANCH   9  13
ENDBRANCH   5   6
ENDBRANCH   2   5
BRANCH   3  23
ATOM     23  C   UNL A   1      37.031  22.078  24.041  1.00  0.00     0.117 C 
BRANCH  23  24
ATOM     24  C   UNL A   1      37.331  21.013  25.076  1.00  0.00     0.042 C 
BRANCH  24  25
ATOM     25  C   UNL A   1      38.688  21.170  25.745  1.00  0.00     0.118 C 
BRANCH  25  26
ATOM     26  N   UNL A   1      39.515  19.968  25.708  1.00  0.00    -0.352 N 
ATOM     27  C   UNL A   1      40.837  19.807  26.067  1.00  0.00     0.251 C 
ATOM     28  H   UNL A   1      39.065  19.157  25.379  1.00  0.00     0.163 HD
ATOM     29  O   UNL A   1      41.389  18.724  25.928  1.00  0.00    -0.269 OA
BRANCH  27  30
ATOM     30  C   UNL A   1      41.600  20.973  26.569  1.00  0.00     0.039 A 
ATOM     31  C   UNL A   1      42.135  21.874  25.645  1.00  0.00     0.014 A 
ATOM     32  C   UNL A   1      41.711  21.221  27.938  1.00  0.00     0.014 A 
ATOM     33  C   UNL A   1      42.678  23.082  26.093  1.00  0.00     0.010 A 
ATOM     34  C   UNL A   1      42.167  22.461  28.375  1.00  0.00     0.010 A 
ATOM     35  C   UNL A   1      42.637  23.413  27.457  1.00  0.00    -0.014 A 
BRANCH  35  36
ATOM     36  C   UNL A   1      43.037  24.758  27.946  1.00  0.00     0.031 A 
ATOM     37  C   UNL A   1      41.990  25.794  28.249  1.00  0.00     0.074 A 
ATOM     38  C   UNL A   1      44.343  25.080  28.028  1.00  0.00     0.049 A 
ATOM     39  N   UNL A   1      42.144  27.055  28.564  1.00  0.00    -0.248 NA
ATOM     40  C   UNL A   1      40.586  25.363  28.159  1.00  0.00     0.031 C 
ATOM     41  C   UNL A   1      45.459  24.183  27.719  1.00  0.00     0.029 A 
ATOM     42  N   UNL A   1      44.956  26.257  28.386  1.00  0.00    -0.354 N 
ATOM     43  C   UNL A   1      40.860  27.570  28.690  1.00  0.00     0.074 A 
ATOM     44  C   UNL A   1      39.940  26.501  28.370  1.00  0.00     0.031 C 
ATOM     45  C   UNL A   1      46.616  24.831  27.928  1.00  0.00     0.029 A 
ATOM     46  C   UNL A   1      46.329  26.202  28.338  1.00  0.00     0.049 A 
ATOM     47  H   UNL A   1      44.459  27.064  28.651  1.00  0.00     0.167 HD
ATOM     48  C   UNL A   1      40.483  28.814  29.064  1.00  0.00     0.037 A 
ATOM     49  C   UNL A   1      47.254  27.150  28.587  1.00  0.00     0.037 A 
ATOM     50  C   UNL A   1      41.397  29.867  29.418  1.00  0.00     0.049 A 
ATOM     51  C   UNL A   1      46.811  28.528  28.988  1.00  0.00     0.074 A 
ATOM     52  C   UNL A   1      41.105  31.142  29.868  1.00  0.00     0.029 A 
ATOM     53  N   UNL A   1      42.779  29.766  29.365  1.00  0.00    -0.354 N 
ATOM     54  N   UNL A   1      45.593  28.987  29.149  1.00  0.00    -0.248 NA
ATOM     55  C   UNL A   1      47.863  29.523  29.239  1.00  0.00     0.031 C 
ATOM     56  C   UNL A   1      42.309  31.827  30.051  1.00  0.00     0.029 A 
ATOM     57  C   UNL A   1      43.352  30.964  29.758  1.00  0.00     0.049 A 
ATOM     58  H   UNL A   1      43.277  28.963  29.090  1.00  0.00     0.167 HD
ATOM     59  C   UNL A   1      45.733  30.311  29.541  1.00  0.00     0.074 A 
ATOM     60  C   UNL A   1      47.154  30.583  29.602  1.00  0.00     0.031 C 
ATOM     61  C   UNL A   1      44.769  31.219  29.824  1.00  0.00     0.037 A 
BRANCH  48  62
ATOM     62  C   UNL A   1      39.014  29.108  29.129  1.00  0.00     0.057 A 
ATOM     63  C   UNL A   1      38.323  29.568  28.002  1.00  0.00     0.134 A 
ATOM     64  C   UNL A   1      38.296  28.995  30.327  1.00  0.00     0.134 A 
ATOM     65  F   UNL A   1      38.953  29.704  26.825  1.00  0.00    -0.206 F 
ATOM     66  C   UNL A   1      36.974  29.917  28.066  1.00  0.00     0.040 A 
ATOM     67  C   UNL A   1      36.939  29.316  30.397  1.00  0.00     0.040 A 
ATOM     68  F   UNL A   1      38.897  28.548  31.441  1.00  0.00    -0.206 F 
ATOM     69  C   UNL A   1      36.277  29.788  29.266  1.00  0.00     0.006 A 
ENDBRANCH  48  62
BRANCH  49  70
ATOM     70  C   UNL A   1      48.697  26.815  28.487  1.00  0.00     0.057 A 
ATOM     71  C   UNL A   1      49.420  27.018  27.307  1.00  0.00     0.134 A 
ATOM     72  C   UNL A   1      49.380  26.257  29.574  1.00  0.00     0.134 A 
ATOM     73  F   UNL A   1      48.822  27.543  26.227  1.00  0.00    -0.206 F 
ATOM     74  C   UNL A   1      50.766  26.662  27.205  1.00  0.00     0.040 A 
ATOM     75  C   UNL A   1      50.731  25.918  29.493  1.00  0.00     0.040 A 
ATOM     76  F   UNL A   1      48.744  26.056  30.739  1.00  0.00    -0.206 F 
ATOM     77  C   UNL A   1      51.426  26.113  28.302  1.00  0.00     0.006 A 
ENDBRANCH  49  70
BRANCH  61  78
ATOM     78  C   UNL A   1      45.200  32.589  30.250  1.00  0.00     0.057 A 
ATOM     79  C   UNL A   1      45.427  32.876  31.604  1.00  0.00     0.134 A 
ATOM     80  C   UNL A   1      45.291  33.648  29.339  1.00  0.00     0.134 A 
ATOM     81  F   UNL A   1      45.344  31.907  32.528  1.00  0.00    -0.206 F 
ATOM     82  C   UNL A   1      45.709  34.172  32.037  1.00  0.00     0.040 A 
ATOM     83  C   UNL A   1      45.595  34.944  29.758  1.00  0.00     0.040 A 
ATOM     84  F   UNL A   1      45.094  33.435  28.029  1.00  0.00    -0.206 F 
ATOM     85  C   UNL A   1      45.794  35.210  31.112  1.00  0.00     0.006 A 
ENDBRANCH  61  78
ENDBRANCH  35  36
ENDBRANCH  27  30
ENDBRANCH  25  26
ENDBRANCH  24  25
ENDBRANCH  23  24
ENDBRANCH   3  23
TORSDOF 15
ENDMDL
MODEL 3
REMARK VINA RESULT:     -10.5      1.714      2.266
REMARK SMILES O=C(C[C@H]1C[N@@H+](CCSc2ccccc2F)CCO1)NCCCNC(=O)c1ccc(-c2c3nc(c(-c4c(F)cccc4F)c4ccc([nH]4)c(-c4c(F)cccc4F)c4nc(c(-c5c(F)cccc5F)c5ccc2[nH]5)C=C4)C=C3)cc1
REMARK SMILES IDX 1 1 2 2 20 3 3 5 4 6 5 7 19 8 6 9 18 10 17 11 7 13 8 14 9 15
REMARK SMILES IDX 10 16 11 17 15 18 12 19 14 20 16 21 13 22 21 23 22 24 23 25
REMARK SMILES IDX 24 26 25 27 26 29 27 30 28 31 80 32 29 33 79 34 30 35 31 36
REMARK SMILES IDX 32 37 73 38 33 39 78 40 72 41 74 42 34 43 77 44 71 45 70 46
REMARK SMILES IDX 35 48 61 49 44 50 60 51 45 52 48 53 59 54 75 55 46 56 47 57
REMARK SMILES IDX 58 59 76 60 49 61 36 62 37 63 42 64 38 65 39 66 41 67 43 68
REMARK SMILES IDX 40 69 62 70 63 71 68 72 64 73 65 74 67 75 69 76 66 77 50 78
REMARK SMILES IDX 51 79 56 80 52 81 53 82 55 83 57 84 54 85
REMARK H PARENT 20 4 6 12 24 28 74 47 48 58
REMARK Flexibility Score: inf
ROOT
ATOM      1  O   UNL A   1      35.268  23.228  26.500  1.00  0.00    -0.275 OA
ATOM      2  C   UNL A   1      34.807  22.122  26.242  1.00  0.00     0.222 C 
ATOM      3  N   UNL A   1      35.494  21.147  25.556  1.00  0.00    -0.356 N 
ATOM      4  H   UNL A   1      35.073  20.265  25.438  1.00  0.00     0.163 HD
ENDROOT
BRANCH   2   5
ATOM      5  C   UNL A   1      33.421  21.714  26.665  1.00  0.00     0.138 C 
BRANCH   5   6
ATOM      6  C   UNL A   1      32.423  21.558  25.518  1.00  0.00     0.182 C 
ATOM      7  C   UNL A   1      31.030  22.204  25.751  1.00  0.00     0.295 C 
ATOM      8  O   UNL A   1      33.031  21.779  24.234  1.00  0.00    -0.366 OA
ATOM      9  N   UNL A   1      30.719  23.433  25.020  1.00  0.00    -0.330 N 
ATOM     10  C   UNL A   1      32.720  23.033  23.621  1.00  0.00     0.222 C 
ATOM     11  C   UNL A   1      31.226  23.353  23.665  1.00  0.00     0.291 C 
ATOM     12  H   UNL A   1      29.706  23.484  24.913  1.00  0.00     0.348 HD
BRANCH   9  13
ATOM     13  C   UNL A   1      30.793  24.702  25.756  1.00  0.00     0.273 C 
BRANCH  13  14
ATOM     14  C   UNL A   1      32.113  25.486  25.965  1.00  0.00     0.136 C 
BRANCH  14  15
ATOM     15  S   UNL A   1      32.572  26.710  24.666  1.00  0.00    -0.117 SA
BRANCH  15  16
ATOM     16  C   UNL A   1      32.696  28.242  25.582  1.00  0.00     0.043 A 
ATOM     17  C   UNL A   1      33.794  28.402  26.436  1.00  0.00     0.018 A 
ATOM     18  C   UNL A   1      31.779  29.294  25.487  1.00  0.00     0.136 A 
ATOM     19  C   UNL A   1      33.911  29.528  27.255  1.00  0.00     0.001 A 
ATOM     20  C   UNL A   1      31.898  30.433  26.288  1.00  0.00     0.040 A 
ATOM     21  F   UNL A   1      30.757  29.234  24.622  1.00  0.00    -0.206 F 
ATOM     22  C   UNL A   1      32.955  30.540  27.190  1.00  0.00     0.003 A 
ENDBRANCH  15  16
ENDBRANCH  14  15
ENDBRANCH  13  14
ENDBRANCH   9  13
ENDBRANCH   5   6
ENDBRANCH   2   5
BRANCH   3  23
ATOM     23  C   UNL A   1      36.813  21.370  25.000  1.00  0.00     0.117 C 
BRANCH  23  24
ATOM     24  C   UNL A   1      37.719  20.158  25.080  1.00  0.00     0.042 C 
BRANCH  24  25
ATOM     25  C   UNL A   1      39.059  20.433  25.746  1.00  0.00     0.118 C 
BRANCH  25  26
ATOM     26  N   UNL A   1      39.950  19.279  25.794  1.00  0.00    -0.352 N 
ATOM     27  C   UNL A   1      41.296  19.226  26.094  1.00  0.00     0.251 C 
ATOM     28  H   UNL A   1      39.532  18.413  25.581  1.00  0.00     0.163 HD
ATOM     29  O   UNL A   1      41.901  18.165  26.043  1.00  0.00    -0.269 OA
BRANCH  27  30
ATOM     30  C   UNL A   1      42.015  20.479  26.421  1.00  0.00     0.039 A 
ATOM     31  C   UNL A   1      42.513  21.261  25.376  1.00  0.00     0.014 A 
ATOM     32  C   UNL A   1      42.120  20.921  27.742  1.00  0.00     0.014 A 
ATOM     33  C   UNL A   1      43.010  22.540  25.647  1.00  0.00     0.010 A 
ATOM     34  C   UNL A   1      42.529  22.225  27.997  1.00  0.00     0.010 A 
ATOM     35  C   UNL A   1      42.959  23.057  26.952  1.00  0.00    -0.014 A 
BRANCH  35  36
ATOM     36  C   UNL A   1      43.309  24.471  27.245  1.00  0.00     0.031 A 
ATOM     37  C   UNL A   1      44.744  24.918  27.200  1.00  0.00     0.074 A 
ATOM     38  C   UNL A   1      42.350  25.330  27.643  1.00  0.00     0.049 A 
ATOM     39  N   UNL A   1      45.259  26.071  27.543  1.00  0.00    -0.248 NA
ATOM     40  C   UNL A   1      45.731  23.932  26.734  1.00  0.00     0.031 C 
ATOM     41  C   UNL A   1      40.927  25.012  27.774  1.00  0.00     0.029 A 
ATOM     42  N   UNL A   1      42.429  26.648  28.025  1.00  0.00    -0.354 N 
ATOM     43  C   UNL A   1      46.629  25.942  27.353  1.00  0.00     0.074 A 
ATOM     44  C   UNL A   1      46.871  24.586  26.913  1.00  0.00     0.031 C 
ATOM     45  C   UNL A   1      40.265  26.108  28.177  1.00  0.00     0.029 A 
ATOM     46  C   UNL A   1      41.218  27.194  28.380  1.00  0.00     0.049 A 
ATOM     47  H   UNL A   1      43.273  27.154  28.044  1.00  0.00     0.167 HD
ATOM     48  C   UNL A   1      47.595  26.877  27.507  1.00  0.00     0.037 A 
ATOM     49  C   UNL A   1      40.909  28.427  28.827  1.00  0.00     0.037 A 
ATOM     50  C   UNL A   1      47.351  28.236  27.909  1.00  0.00     0.049 A 
ATOM     51  C   UNL A   1      42.000  29.445  29.002  1.00  0.00     0.074 A 
ATOM     52  C   UNL A   1      48.261  29.271  28.033  1.00  0.00     0.029 A 
ATOM     53  N   UNL A   1      46.109  28.750  28.250  1.00  0.00    -0.354 N 
ATOM     54  N   UNL A   1      43.286  29.322  28.773  1.00  0.00    -0.248 NA
ATOM     55  C   UNL A   1      41.605  30.770  29.501  1.00  0.00     0.031 C 
ATOM     56  C   UNL A   1      47.577  30.402  28.486  1.00  0.00     0.029 A 
ATOM     57  C   UNL A   1      46.233  30.084  28.601  1.00  0.00     0.049 A 
ATOM     58  H   UNL A   1      45.266  28.243  28.241  1.00  0.00     0.167 HD
ATOM     59  C   UNL A   1      43.847  30.554  29.076  1.00  0.00     0.074 A 
ATOM     60  C   UNL A   1      42.763  31.417  29.498  1.00  0.00     0.031 C 
ATOM     61  C   UNL A   1      45.145  30.935  29.009  1.00  0.00     0.037 A 
BRANCH  48  62
ATOM     62  C   UNL A   1      49.010  26.471  27.223  1.00  0.00     0.057 A 
ATOM     63  C   UNL A   1      49.513  26.489  25.916  1.00  0.00     0.134 A 
ATOM     64  C   UNL A   1      49.857  26.001  28.235  1.00  0.00     0.134 A 
ATOM     65  F   UNL A   1      48.752  26.923  24.899  1.00  0.00    -0.206 F 
ATOM     66  C   UNL A   1      50.802  26.044  25.625  1.00  0.00     0.040 A 
ATOM     67  C   UNL A   1      51.157  25.577  27.959  1.00  0.00     0.040 A 
ATOM     68  F   UNL A   1      49.439  25.969  29.510  1.00  0.00    -0.206 F 
ATOM     69  C   UNL A   1      51.630  25.589  26.649  1.00  0.00     0.006 A 
ENDBRANCH  48  62
BRANCH  49  70
ATOM     70  C   UNL A   1      39.494  28.773  29.115  1.00  0.00     0.057 A 
ATOM     71  C   UNL A   1      38.660  29.329  28.139  1.00  0.00     0.134 A 
ATOM     72  C   UNL A   1      38.953  28.575  30.390  1.00  0.00     0.134 A 
ATOM     73  F   UNL A   1      39.120  29.550  26.899  1.00  0.00    -0.206 F 
ATOM     74  C   UNL A   1      37.342  29.692  28.426  1.00  0.00     0.040 A 
ATOM     75  C   UNL A   1      37.631  28.911  30.684  1.00  0.00     0.040 A 
ATOM     76  F   UNL A   1      39.699  28.027  31.362  1.00  0.00    -0.206 F 
ATOM     77  C   UNL A   1      36.824  29.480  29.701  1.00  0.00     0.006 A 
ENDBRANCH  49  70
BRANCH  61  78
ATOM     78  C   UNL A   1      45.479  32.349  29.376  1.00  0.00     0.057 A 
ATOM     79  C   UNL A   1      45.470  33.358  28.403  1.00  0.00     0.134 A 
ATOM     80  C   UNL A   1      45.909  32.693  30.663  1.00  0.00     0.134 A 
ATOM     81  F   UNL A   1      45.080  33.090  27.147  1.00  0.00    -0.206 F 
ATOM     82  C   UNL A   1      45.896  34.654  28.693  1.00  0.00     0.040 A 
ATOM     83  C   UNL A   1      46.316  33.992  30.971  1.00  0.00     0.040 A 
ATOM     84  F   UNL A   1      45.931  31.774  31.640  1.00  0.00    -0.206 F 
ATOM     85  C   UNL A   1      46.321  34.974  29.981  1.00  0.00     0.006 A 
ENDBRANCH  61  78
ENDBRANCH  35  36
ENDBRANCH  27  30
ENDBRANCH  25  26
ENDBRANCH  24  25
ENDBRANCH  23  24
ENDBRANCH   3  23
TORSDOF 15
ENDMDL
