MODEL 1
REMARK VINA RESULT:     -11.7      0.000      0.000
REMARK SMILES CC(C)[C@H]1CC[C@@H](C)C/C1=C(\F)C(=O)NCCCNC(=O)c1ccc(-c2c3nc(c(-c4c(F)cccc4F)c4ccc([nH]4)c(-c4c(F)cccc4F)c4nc(c(-c5c(F)cccc5F)c5ccc2[nH]5)C=C4)C=C3)cc1
REMARK SMILES IDX 17 1 16 2 15 3 13 4 14 5 11 7 4 8 5 9 10 10 6 11 9 12 7 13
REMARK SMILES IDX 12 14 8 15 2 16 1 17 3 18 18 19 19 20 20 21 21 23 22 24
REMARK SMILES IDX 23 25 75 26 24 27 74 28 25 29 26 30 27 31 68 32 28 33 73 34
REMARK SMILES IDX 67 35 69 36 29 37 72 38 66 39 65 40 30 42 56 43 39 44 55 45
REMARK SMILES IDX 40 46 43 47 54 48 70 49 41 50 42 51 53 53 71 54 44 55 31 56
REMARK SMILES IDX 32 57 37 58 33 59 34 60 36 61 38 62 35 63 57 64 58 65 63 66
REMARK SMILES IDX 59 67 60 68 62 69 64 70 61 71 45 72 46 73 51 74 47 75 48 76
REMARK SMILES IDX 50 77 52 78 49 79
REMARK H PARENT 15 6 19 22 69 41 43 52
REMARK Flexibility Score: inf
ROOT
ATOM      1  C   UNL A   1      37.755  19.635  25.001  1.00  0.00     0.042 C 
ENDROOT
BRANCH   1   2
ATOM      2  C   UNL A   1      36.599  20.637  24.991  1.00  0.00     0.118 C 
BRANCH   2   3
ATOM      3  N   UNL A   1      36.951  21.798  24.197  1.00  0.00    -0.350 N 
ATOM      4  C   UNL A   1      36.202  22.898  23.892  1.00  0.00     0.279 C 
ATOM      5  O   UNL A   1      36.331  23.328  22.751  1.00  0.00    -0.267 OA
ATOM      6  H   UNL A   1      37.862  21.793  23.824  1.00  0.00     0.163 HD
BRANCH   4   7
ATOM      7  C   UNL A   1      35.315  23.511  24.928  1.00  0.00     0.187 C 
ATOM      8  C   UNL A   1      32.824  23.105  24.092  1.00  0.00     0.021 C 
ATOM      9  C   UNL A   1      31.813  22.293  24.947  1.00  0.00     0.009 C 
ATOM     10  C   UNL A   1      33.967  23.603  25.003  1.00  0.00    -0.025 C 
ATOM     11  C   UNL A   1      31.300  23.054  26.169  1.00  0.00     0.004 C 
ATOM     12  C   UNL A   1      33.398  24.418  26.173  1.00  0.00     0.038 C 
ATOM     13  C   UNL A   1      32.434  23.601  27.040  1.00  0.00    -0.010 C 
ATOM     14  F   UNL A   1      36.016  24.092  25.931  1.00  0.00    -0.201 F 
ATOM     15  C   UNL A   1      33.167  22.493  27.805  1.00  0.00     0.008 C 
BRANCH   8  16
ATOM     16  C   UNL A   1      33.141  22.363  22.760  1.00  0.00    -0.010 C 
ATOM     17  C   UNL A   1      32.153  21.233  22.431  1.00  0.00     0.008 C 
ATOM     18  C   UNL A   1      33.183  23.328  21.565  1.00  0.00     0.008 C 
ENDBRANCH   8  16
ENDBRANCH   4   7
ENDBRANCH   2   3
ENDBRANCH   1   2
BRANCH   1  19
ATOM     19  C   UNL A   1      39.001  20.135  25.735  1.00  0.00     0.118 C 
BRANCH  19  20
ATOM     20  N   UNL A   1      40.031  19.111  25.851  1.00  0.00    -0.352 N 
ATOM     21  C   UNL A   1      41.383  19.232  26.050  1.00  0.00     0.251 C 
ATOM     22  H   UNL A   1      39.705  18.185  25.775  1.00  0.00     0.163 HD
ATOM     23  O   UNL A   1      42.109  18.252  25.919  1.00  0.00    -0.269 OA
BRANCH  21  24
ATOM     24  C   UNL A   1      41.971  20.539  26.405  1.00  0.00     0.039 A 
ATOM     25  C   UNL A   1      42.364  21.399  25.376  1.00  0.00     0.014 A 
ATOM     26  C   UNL A   1      42.162  20.908  27.739  1.00  0.00     0.014 A 
ATOM     27  C   UNL A   1      42.888  22.656  25.685  1.00  0.00     0.010 A 
ATOM     28  C   UNL A   1      42.616  22.188  28.046  1.00  0.00     0.010 A 
ATOM     29  C   UNL A   1      42.984  23.075  27.023  1.00  0.00    -0.014 A 
BRANCH  29  30
ATOM     30  C   UNL A   1      43.456  24.439  27.366  1.00  0.00     0.031 A 
ATOM     31  C   UNL A   1      42.482  25.492  27.814  1.00  0.00     0.074 A 
ATOM     32  C   UNL A   1      44.758  24.749  27.211  1.00  0.00     0.049 A 
ATOM     33  N   UNL A   1      42.698  26.752  28.095  1.00  0.00    -0.248 NA
ATOM     34  C   UNL A   1      41.075  25.081  27.937  1.00  0.00     0.031 C 
ATOM     35  C   UNL A   1      45.795  23.830  26.737  1.00  0.00     0.029 A 
ATOM     36  N   UNL A   1      45.430  25.926  27.422  1.00  0.00    -0.354 N 
ATOM     37  C   UNL A   1      41.456  27.286  28.415  1.00  0.00     0.074 A 
ATOM     38  C   UNL A   1      40.485  26.228  28.239  1.00  0.00     0.031 C 
ATOM     39  C   UNL A   1      46.973  24.472  26.713  1.00  0.00     0.029 A 
ATOM     40  C   UNL A   1      46.769  25.856  27.130  1.00  0.00     0.049 A 
ATOM     41  H   UNL A   1      44.992  26.745  27.753  1.00  0.00     0.167 HD
ATOM     42  C   UNL A   1      41.155  28.537  28.839  1.00  0.00     0.037 A 
ATOM     43  C   UNL A   1      47.726  26.802  27.182  1.00  0.00     0.037 A 
ATOM     44  C   UNL A   1      42.125  29.585  29.023  1.00  0.00     0.049 A 
ATOM     45  C   UNL A   1      47.367  28.187  27.641  1.00  0.00     0.074 A 
ATOM     46  C   UNL A   1      41.929  30.868  29.501  1.00  0.00     0.029 A 
ATOM     47  N   UNL A   1      43.476  29.471  28.729  1.00  0.00    -0.354 N 
ATOM     48  N   UNL A   1      46.200  28.660  28.008  1.00  0.00    -0.248 NA
ATOM     49  C   UNL A   1      48.459  29.169  27.699  1.00  0.00     0.031 C 
ATOM     50  C   UNL A   1      43.151  31.547  29.449  1.00  0.00     0.029 A 
ATOM     51  C   UNL A   1      44.120  30.670  28.991  1.00  0.00     0.049 A 
ATOM     52  H   UNL A   1      43.913  28.658  28.385  1.00  0.00     0.167 HD
ATOM     53  C   UNL A   1      46.421  29.983  28.365  1.00  0.00     0.074 A 
ATOM     54  C   UNL A   1      47.835  30.234  28.184  1.00  0.00     0.031 C 
ATOM     55  C   UNL A   1      45.531  30.906  28.805  1.00  0.00     0.037 A 
BRANCH  42  56
ATOM     56  C   UNL A   1      39.711  28.837  29.127  1.00  0.00     0.057 A 
ATOM     57  C   UNL A   1      38.834  29.286  28.128  1.00  0.00     0.134 A 
ATOM     58  C   UNL A   1      39.184  28.662  30.413  1.00  0.00     0.134 A 
ATOM     59  F   UNL A   1      39.275  29.485  26.876  1.00  0.00    -0.206 F 
ATOM     60  C   UNL A   1      37.499  29.584  28.406  1.00  0.00     0.040 A 
ATOM     61  C   UNL A   1      37.842  28.927  30.695  1.00  0.00     0.040 A 
ATOM     62  F   UNL A   1      39.963  28.228  31.414  1.00  0.00    -0.206 F 
ATOM     63  C   UNL A   1      36.998  29.399  29.692  1.00  0.00     0.006 A 
ENDBRANCH  42  56
BRANCH  43  64
ATOM     64  C   UNL A   1      49.121  26.460  26.806  1.00  0.00     0.057 A 
ATOM     65  C   UNL A   1      50.003  25.902  27.737  1.00  0.00     0.134 A 
ATOM     66  C   UNL A   1      49.601  26.671  25.508  1.00  0.00     0.134 A 
ATOM     67  F   UNL A   1      49.608  25.692  29.001  1.00  0.00    -0.206 F 
ATOM     68  C   UNL A   1      51.318  25.578  27.395  1.00  0.00     0.040 A 
ATOM     69  C   UNL A   1      50.904  26.328  25.146  1.00  0.00     0.040 A 
ATOM     70  F   UNL A   1      48.801  27.194  24.566  1.00  0.00    -0.206 F 
ATOM     71  C   UNL A   1      51.769  25.785  26.093  1.00  0.00     0.006 A 
ENDBRANCH  43  64
BRANCH  55  72
ATOM     72  C   UNL A   1      46.066  32.267  29.151  1.00  0.00     0.057 A 
ATOM     73  C   UNL A   1      46.100  33.309  28.217  1.00  0.00     0.134 A 
ATOM     74  C   UNL A   1      46.517  32.545  30.448  1.00  0.00     0.134 A 
ATOM     75  F   UNL A   1      45.695  33.105  26.954  1.00  0.00    -0.206 F 
ATOM     76  C   UNL A   1      46.586  34.574  28.554  1.00  0.00     0.040 A 
ATOM     77  C   UNL A   1      46.979  33.813  30.804  1.00  0.00     0.040 A 
ATOM     78  F   UNL A   1      46.503  31.593  31.393  1.00  0.00    -0.206 F 
ATOM     79  C   UNL A   1      47.021  34.830  29.853  1.00  0.00     0.006 A 
ENDBRANCH  55  72
ENDBRANCH  29  30
ENDBRANCH  21  24
ENDBRANCH  19  20
ENDBRANCH   1  19
TORSDOF 11
ENDMDL
MODEL 2
REMARK VINA RESULT:     -11.7      4.561      9.502
REMARK SMILES CC(C)[C@H]1CC[C@@H](C)C/C1=C(\F)C(=O)NCCCNC(=O)c1ccc(-c2c3nc(c(-c4c(F)cccc4F)c4ccc([nH]4)c(-c4c(F)cccc4F)c4nc(c(-c5c(F)cccc5F)c5ccc2[nH]5)C=C4)C=C3)cc1
REMARK SMILES IDX 17 1 16 2 15 3 13 4 14 5 11 7 4 8 5 9 10 10 6 11 9 12 7 13
REMARK SMILES IDX 12 14 8 15 2 16 1 17 3 18 18 19 19 20 20 21 21 23 22 24
REMARK SMILES IDX 23 25 75 26 24 27 74 28 25 29 26 30 27 31 68 32 28 33 73 34
REMARK SMILES IDX 67 35 69 36 29 37 72 38 66 39 65 40 30 42 56 43 39 44 55 45
REMARK SMILES IDX 40 46 43 47 54 48 70 49 41 50 42 51 53 53 71 54 44 55 31 56
REMARK SMILES IDX 32 57 37 58 33 59 34 60 36 61 38 62 35 63 57 64 58 65 63 66
REMARK SMILES IDX 59 67 60 68 62 69 64 70 61 71 45 72 46 73 51 74 47 75 48 76
REMARK SMILES IDX 50 77 52 78 49 79
REMARK H PARENT 15 6 19 22 69 41 43 52
REMARK Flexibility Score: inf
ROOT
ATOM      1  C   UNL A   1      34.087  33.731  29.056  1.00  0.00     0.042 C 
ENDROOT
BRANCH   1   2
ATOM      2  C   UNL A   1      33.690  34.239  30.443  1.00  0.00     0.118 C 
BRANCH   2   3
ATOM      3  N   UNL A   1      34.801  34.940  31.056  1.00  0.00    -0.350 N 
ATOM      4  C   UNL A   1      35.436  34.690  32.238  1.00  0.00     0.279 C 
ATOM      5  O   UNL A   1      35.761  35.679  32.886  1.00  0.00    -0.267 OA
ATOM      6  H   UNL A   1      35.149  35.706  30.546  1.00  0.00     0.163 HD
BRANCH   4   7
ATOM      7  C   UNL A   1      35.712  33.281  32.658  1.00  0.00     0.187 C 
ATOM      8  C   UNL A   1      37.992  32.598  31.475  1.00  0.00     0.021 C 
ATOM      9  C   UNL A   1      39.234  32.176  32.308  1.00  0.00     0.009 C 
ATOM     10  C   UNL A   1      36.726  32.442  32.344  1.00  0.00    -0.025 C 
ATOM     11  C   UNL A   1      39.111  30.781  32.920  1.00  0.00     0.004 C 
ATOM     12  C   UNL A   1      36.619  31.005  32.874  1.00  0.00     0.038 C 
ATOM     13  C   UNL A   1      37.824  30.607  33.732  1.00  0.00    -0.010 C 
ATOM     14  F   UNL A   1      34.742  32.780  33.461  1.00  0.00    -0.201 F 
ATOM     15  C   UNL A   1      37.858  31.387  35.051  1.00  0.00     0.008 C 
BRANCH   8  16
ATOM     16  C   UNL A   1      38.267  33.926  30.709  1.00  0.00    -0.010 C 
ATOM     17  C   UNL A   1      39.598  34.595  31.087  1.00  0.00     0.008 C 
ATOM     18  C   UNL A   1      38.246  33.722  29.186  1.00  0.00     0.008 C 
ENDBRANCH   8  16
ENDBRANCH   4   7
ENDBRANCH   2   3
ENDBRANCH   1   2
BRANCH   1  19
ATOM     19  C   UNL A   1      35.013  32.512  29.085  1.00  0.00     0.118 C 
BRANCH  19  20
ATOM     20  N   UNL A   1      34.358  31.300  28.610  1.00  0.00    -0.352 N 
ATOM     21  C   UNL A   1      34.894  30.111  28.188  1.00  0.00     0.251 C 
ATOM     22  H   UNL A   1      33.375  31.342  28.590  1.00  0.00     0.163 HD
ATOM     23  O   UNL A   1      34.178  29.281  27.636  1.00  0.00    -0.269 OA
BRANCH  21  24
ATOM     24  C   UNL A   1      36.332  29.831  28.377  1.00  0.00     0.039 A 
ATOM     25  C   UNL A   1      36.764  29.347  29.615  1.00  0.00     0.014 A 
ATOM     26  C   UNL A   1      37.255  30.068  27.355  1.00  0.00     0.014 A 
ATOM     27  C   UNL A   1      38.112  29.040  29.806  1.00  0.00     0.010 A 
ATOM     28  C   UNL A   1      38.585  29.693  27.522  1.00  0.00     0.010 A 
ATOM     29  C   UNL A   1      39.028  29.175  28.749  1.00  0.00    -0.014 A 
BRANCH  29  30
ATOM     30  C   UNL A   1      40.447  28.770  28.908  1.00  0.00     0.031 A 
ATOM     31  C   UNL A   1      41.467  29.750  29.415  1.00  0.00     0.074 A 
ATOM     32  C   UNL A   1      40.829  27.535  28.531  1.00  0.00     0.049 A 
ATOM     33  N   UNL A   1      42.759  29.598  29.559  1.00  0.00    -0.248 NA
ATOM     34  C   UNL A   1      40.974  31.086  29.782  1.00  0.00     0.031 C 
ATOM     35  C   UNL A   1      39.945  26.507  27.979  1.00  0.00     0.029 A 
ATOM     36  N   UNL A   1      42.064  26.937  28.545  1.00  0.00    -0.354 N 
ATOM     37  C   UNL A   1      43.234  30.819  30.022  1.00  0.00     0.074 A 
ATOM     38  C   UNL A   1      42.100  31.717  30.080  1.00  0.00     0.031 C 
ATOM     39  C   UNL A   1      40.660  25.401  27.725  1.00  0.00     0.029 A 
ATOM     40  C   UNL A   1      42.059  25.652  28.058  1.00  0.00     0.049 A 
ATOM     41  H   UNL A   1      42.877  27.386  28.873  1.00  0.00     0.167 HD
ATOM     42  C   UNL A   1      44.494  31.155  30.387  1.00  0.00     0.037 A 
ATOM     43  C   UNL A   1      43.068  24.779  27.889  1.00  0.00     0.037 A 
ATOM     44  C   UNL A   1      45.618  30.256  30.338  1.00  0.00     0.049 A 
ATOM     45  C   UNL A   1      44.461  25.177  28.287  1.00  0.00     0.074 A 
ATOM     46  C   UNL A   1      46.923  30.483  30.738  1.00  0.00     0.029 A 
ATOM     47  N   UNL A   1      45.570  28.958  29.851  1.00  0.00    -0.354 N 
ATOM     48  N   UNL A   1      44.885  26.312  28.789  1.00  0.00    -0.248 NA
ATOM     49  C   UNL A   1      45.517  24.172  28.100  1.00  0.00     0.031 C 
ATOM     50  C   UNL A   1      47.676  29.341  30.447  1.00  0.00     0.029 A 
ATOM     51  C   UNL A   1      46.829  28.381  29.917  1.00  0.00     0.049 A 
ATOM     52  H   UNL A   1      44.761  28.512  29.510  1.00  0.00     0.167 HD
ATOM     53  C   UNL A   1      46.247  26.150  29.003  1.00  0.00     0.074 A 
ATOM     54  C   UNL A   1      46.577  24.801  28.589  1.00  0.00     0.031 C 
ATOM     55  C   UNL A   1      47.143  27.037  29.499  1.00  0.00     0.037 A 
BRANCH  42  56
ATOM     56  C   UNL A   1      44.720  32.561  30.867  1.00  0.00     0.057 A 
ATOM     57  C   UNL A   1      44.578  32.915  32.216  1.00  0.00     0.134 A 
ATOM     58  C   UNL A   1      45.100  33.571  29.974  1.00  0.00     0.134 A 
ATOM     59  F   UNL A   1      44.206  31.999  33.124  1.00  0.00    -0.206 F 
ATOM     60  C   UNL A   1      44.769  34.227  32.653  1.00  0.00     0.040 A 
ATOM     61  C   UNL A   1      45.325  34.881  30.405  1.00  0.00     0.040 A 
ATOM     62  F   UNL A   1      45.263  33.302  28.671  1.00  0.00    -0.206 F 
ATOM     63  C   UNL A   1      45.150  35.214  31.747  1.00  0.00     0.006 A 
ENDBRANCH  42  56
BRANCH  43  64
ATOM     64  C   UNL A   1      42.790  23.430  27.333  1.00  0.00     0.057 A 
ATOM     65  C   UNL A   1      42.935  23.169  25.966  1.00  0.00     0.134 A 
ATOM     66  C   UNL A   1      42.389  22.370  28.153  1.00  0.00     0.134 A 
ATOM     67  F   UNL A   1      43.300  24.148  25.126  1.00  0.00    -0.206 F 
ATOM     68  C   UNL A   1      42.675  21.906  25.432  1.00  0.00     0.040 A 
ATOM     69  C   UNL A   1      42.150  21.095  27.637  1.00  0.00     0.040 A 
ATOM     70  F   UNL A   1      42.241  22.553  29.474  1.00  0.00    -0.206 F 
ATOM     71  C   UNL A   1      42.288  20.862  26.271  1.00  0.00     0.006 A 
ENDBRANCH  43  64
BRANCH  55  72
ATOM     72  C   UNL A   1      48.562  26.569  29.652  1.00  0.00     0.057 A 
ATOM     73  C   UNL A   1      49.530  26.803  28.667  1.00  0.00     0.134 A 
ATOM     74  C   UNL A   1      48.973  25.909  30.818  1.00  0.00     0.134 A 
ATOM     75  F   UNL A   1      49.200  27.419  27.522  1.00  0.00    -0.206 F 
ATOM     76  C   UNL A   1      50.850  26.377  28.826  1.00  0.00     0.040 A 
ATOM     77  C   UNL A   1      50.295  25.502  30.999  1.00  0.00     0.040 A 
ATOM     78  F   UNL A   1      48.098  25.660  31.804  1.00  0.00    -0.206 F 
ATOM     79  C   UNL A   1      51.237  25.730  29.998  1.00  0.00     0.006 A 
ENDBRANCH  55  72
ENDBRANCH  29  30
ENDBRANCH  21  24
ENDBRANCH  19  20
ENDBRANCH   1  19
TORSDOF 11
ENDMDL
MODEL 3
REMARK VINA RESULT:     -11.7      1.569      6.517
REMARK SMILES CC(C)[C@H]1CC[C@@H](C)C/C1=C(\F)C(=O)NCCCNC(=O)c1ccc(-c2c3nc(c(-c4c(F)cccc4F)c4ccc([nH]4)c(-c4c(F)cccc4F)c4nc(c(-c5c(F)cccc5F)c5ccc2[nH]5)C=C4)C=C3)cc1
REMARK SMILES IDX 17 1 16 2 15 3 13 4 14 5 11 7 4 8 5 9 10 10 6 11 9 12 7 13
REMARK SMILES IDX 12 14 8 15 2 16 1 17 3 18 18 19 19 20 20 21 21 23 22 24
REMARK SMILES IDX 23 25 75 26 24 27 74 28 25 29 26 30 27 31 68 32 28 33 73 34
REMARK SMILES IDX 67 35 69 36 29 37 72 38 66 39 65 40 30 42 56 43 39 44 55 45
REMARK SMILES IDX 40 46 43 47 54 48 70 49 41 50 42 51 53 53 71 54 44 55 31 56
REMARK SMILES IDX 32 57 37 58 33 59 34 60 36 61 38 62 35 63 57 64 58 65 63 66
REMARK SMILES IDX 59 67 60 68 62 69 64 70 61 71 45 72 46 73 51 74 47 75 48 76
REMARK SMILES IDX 50 77 52 78 49 79
REMARK H PARENT 15 6 19 22 69 41 43 52
REMARK Flexibility Score: inf
ROOT
ATOM      1  C   UNL A   1      37.772  19.592  24.971  1.00  0.00     0.042 C 
ENDROOT
BRANCH   1   2
ATOM      2  C   UNL A   1      36.564  20.525  24.871  1.00  0.00     0.118 C 
BRANCH   2   3
ATOM      3  N   UNL A   1      36.916  21.721  24.129  1.00  0.00    -0.350 N 
ATOM      4  C   UNL A   1      36.174  22.841  23.889  1.00  0.00     0.279 C 
ATOM      5  O   UNL A   1      36.291  23.325  22.769  1.00  0.00    -0.267 OA
ATOM      6  H   UNL A   1      37.821  21.726  23.743  1.00  0.00     0.163 HD
BRANCH   4   7
ATOM      7  C   UNL A   1      35.308  23.410  24.968  1.00  0.00     0.187 C 
ATOM      8  C   UNL A   1      32.801  23.012  24.179  1.00  0.00     0.021 C 
ATOM      9  C   UNL A   1      31.817  22.162  25.030  1.00  0.00     0.009 C 
ATOM     10  C   UNL A   1      33.962  23.489  25.078  1.00  0.00    -0.025 C 
ATOM     11  C   UNL A   1      31.328  22.877  26.289  1.00  0.00     0.004 C 
ATOM     12  C   UNL A   1      33.415  24.257  26.289  1.00  0.00     0.038 C 
ATOM     13  C   UNL A   1      32.480  23.403  27.151  1.00  0.00    -0.010 C 
ATOM     14  F   UNL A   1      36.029  23.963  25.973  1.00  0.00    -0.201 F 
ATOM     15  C   UNL A   1      33.240  22.276  27.859  1.00  0.00     0.008 C 
BRANCH   8  16
ATOM     16  C   UNL A   1      33.090  22.319  22.814  1.00  0.00    -0.010 C 
ATOM     17  C   UNL A   1      32.104  21.191  22.472  1.00  0.00     0.008 C 
ATOM     18  C   UNL A   1      33.094  23.324  21.652  1.00  0.00     0.008 C 
ENDBRANCH   8  16
ENDBRANCH   4   7
ENDBRANCH   2   3
ENDBRANCH   1   2
BRANCH   1  19
ATOM     19  C   UNL A   1      38.960  20.195  25.724  1.00  0.00     0.118 C 
BRANCH  19  20
ATOM     20  N   UNL A   1      40.102  19.292  25.785  1.00  0.00    -0.352 N 
ATOM     21  C   UNL A   1      41.418  19.546  26.074  1.00  0.00     0.251 C 
ATOM     22  H   UNL A   1      39.895  18.350  25.590  1.00  0.00     0.163 HD
ATOM     23  O   UNL A   1      42.264  18.679  25.877  1.00  0.00    -0.269 OA
BRANCH  21  24
ATOM     24  C   UNL A   1      41.826  20.863  26.603  1.00  0.00     0.039 A 
ATOM     25  C   UNL A   1      42.293  21.830  25.708  1.00  0.00     0.014 A 
ATOM     26  C   UNL A   1      41.778  21.138  27.972  1.00  0.00     0.014 A 
ATOM     27  C   UNL A   1      42.649  23.095  26.179  1.00  0.00     0.010 A 
ATOM     28  C   UNL A   1      42.063  22.422  28.431  1.00  0.00     0.010 A 
ATOM     29  C   UNL A   1      42.502  23.413  27.540  1.00  0.00    -0.014 A 
BRANCH  29  30
ATOM     30  C   UNL A   1      42.792  24.779  28.043  1.00  0.00     0.031 A 
ATOM     31  C   UNL A   1      44.187  25.162  28.448  1.00  0.00     0.074 A 
ATOM     32  C   UNL A   1      41.781  25.656  28.197  1.00  0.00     0.049 A 
ATOM     33  N   UNL A   1      44.619  26.283  28.967  1.00  0.00    -0.248 NA
ATOM     34  C   UNL A   1      45.230  24.139  28.271  1.00  0.00     0.031 C 
ATOM     35  C   UNL A   1      40.376  25.391  27.887  1.00  0.00     0.029 A 
ATOM     36  N   UNL A   1      41.779  26.946  28.666  1.00  0.00    -0.354 N 
ATOM     37  C   UNL A   1      45.978  26.097  29.189  1.00  0.00     0.074 A 
ATOM     38  C   UNL A   1      46.286  24.738  28.801  1.00  0.00     0.031 C 
ATOM     39  C   UNL A   1      39.651  26.488  28.154  1.00  0.00     0.029 A 
ATOM     40  C   UNL A   1      40.532  27.520  28.692  1.00  0.00     0.049 A 
ATOM     41  H   UNL A   1      42.595  27.415  28.957  1.00  0.00     0.167 HD
ATOM     42  C   UNL A   1      46.890  26.985  29.652  1.00  0.00     0.037 A 
ATOM     43  C   UNL A   1      40.139  28.737  29.112  1.00  0.00     0.037 A 
ATOM     44  C   UNL A   1      46.582  28.340  30.028  1.00  0.00     0.049 A 
ATOM     45  C   UNL A   1      41.166  29.701  29.636  1.00  0.00     0.074 A 
ATOM     46  C   UNL A   1      47.444  29.334  30.457  1.00  0.00     0.029 A 
ATOM     47  N   UNL A   1      45.308  28.889  30.028  1.00  0.00    -0.354 N 
ATOM     48  N   UNL A   1      42.459  29.537  29.775  1.00  0.00    -0.248 NA
ATOM     49  C   UNL A   1      40.679  31.023  30.056  1.00  0.00     0.031 C 
ATOM     50  C   UNL A   1      46.686  30.470  30.764  1.00  0.00     0.029 A 
ATOM     51  C   UNL A   1      45.358  30.201  30.474  1.00  0.00     0.049 A 
ATOM     52  H   UNL A   1      44.489  28.417  29.752  1.00  0.00     0.167 HD
ATOM     53  C   UNL A   1      42.945  30.739  30.272  1.00  0.00     0.074 A 
ATOM     54  C   UNL A   1      41.808  31.628  30.398  1.00  0.00     0.031 C 
ATOM     55  C   UNL A   1      44.217  31.076  30.595  1.00  0.00     0.037 A 
BRANCH  42  56
ATOM     56  C   UNL A   1      48.310  26.509  29.782  1.00  0.00     0.057 A 
ATOM     57  C   UNL A   1      48.769  25.853  30.933  1.00  0.00     0.134 A 
ATOM     58  C   UNL A   1      49.226  26.694  28.740  1.00  0.00     0.134 A 
ATOM     59  F   UNL A   1      47.946  25.651  31.975  1.00  0.00    -0.206 F 
ATOM     60  C   UNL A   1      50.094  25.432  31.057  1.00  0.00     0.040 A 
ATOM     61  C   UNL A   1      50.546  26.250  28.839  1.00  0.00     0.040 A 
ATOM     62  F   UNL A   1      48.854  27.307  27.606  1.00  0.00    -0.206 F 
ATOM     63  C   UNL A   1      50.986  25.625  30.005  1.00  0.00     0.006 A 
ENDBRANCH  42  56
BRANCH  43  64
ATOM     64  C   UNL A   1      38.706  29.117  29.032  1.00  0.00     0.057 A 
ATOM     65  C   UNL A   1      37.871  29.022  30.150  1.00  0.00     0.134 A 
ATOM     66  C   UNL A   1      38.142  29.596  27.843  1.00  0.00     0.134 A 
ATOM     67  F   UNL A   1      38.349  28.555  31.312  1.00  0.00    -0.206 F 
ATOM     68  C   UNL A   1      36.522  29.376  30.086  1.00  0.00     0.040 A 
ATOM     69  C   UNL A   1      36.802  29.977  27.772  1.00  0.00     0.040 A 
ATOM     70  F   UNL A   1      38.893  29.719  26.738  1.00  0.00    -0.206 F 
ATOM     71  C   UNL A   1      35.985  29.862  28.895  1.00  0.00     0.006 A 
ENDBRANCH  43  64
BRANCH  55  72
ATOM     72  C   UNL A   1      44.456  32.475  31.086  1.00  0.00     0.057 A 
ATOM     73  C   UNL A   1      44.711  33.535  30.207  1.00  0.00     0.134 A 
ATOM     74  C   UNL A   1      44.391  32.771  32.454  1.00  0.00     0.134 A 
ATOM     75  F   UNL A   1      44.799  33.318  28.886  1.00  0.00    -0.206 F 
ATOM     76  C   UNL A   1      44.916  34.835  30.673  1.00  0.00     0.040 A 
ATOM     77  C   UNL A   1      44.567  34.071  32.929  1.00  0.00     0.040 A 
ATOM     78  F   UNL A   1      44.142  31.803  33.349  1.00  0.00    -0.206 F 
ATOM     79  C   UNL A   1      44.837  35.107  32.038  1.00  0.00     0.006 A 
ENDBRANCH  55  72
ENDBRANCH  29  30
ENDBRANCH  21  24
ENDBRANCH  19  20
ENDBRANCH   1  19
TORSDOF 11
ENDMDL
