MODEL 1
REMARK VINA RESULT:     -11.8      0.000      0.000
REMARK SMILES COCc1cccc(O[C@@H](C)c2ccc(C(=O)NCCCNC(=O)c3ccc(-c4c5nc(c(-c6c(F)cccc6F)c6ccc([nH]6)c(-c6c(F)cccc6F)c6nc(c(-c7c(F)cccc7F)c7ccc4[nH]7)C=C6)C=C5)cc3)o2)c1
REMARK SMILES IDX 16 1 17 2 18 3 15 5 12 6 13 7 79 8 14 9 10 10 11 11 9 12
REMARK SMILES IDX 8 13 4 14 5 15 80 16 6 17 7 18 3 19 2 20 1 21 19 22 20 23
REMARK SMILES IDX 21 24 22 25 23 26 24 28 25 29 26 30 78 31 27 32 77 33 28 34
REMARK SMILES IDX 29 35 30 36 71 37 31 38 76 39 70 40 72 41 32 42 75 43 69 44
REMARK SMILES IDX 68 45 33 47 59 48 42 49 58 50 43 51 46 52 57 53 73 54 44 55
REMARK SMILES IDX 45 56 56 58 74 59 47 60 34 61 35 62 40 63 36 64 37 65 39 66
REMARK SMILES IDX 41 67 38 68 60 69 61 70 66 71 62 72 63 73 65 74 67 75 64 76
REMARK SMILES IDX 48 77 49 78 54 79 50 80 51 81 53 82 55 83 52 84
REMARK H PARENT 18 4 22 27 72 46 46 57
REMARK Flexibility Score: inf
ROOT
ATOM      1  C   UNL A   1      36.678  22.705  25.294  1.00  0.00     0.286 C 
ATOM      2  O   UNL A   1      37.192  23.657  25.880  1.00  0.00    -0.266 OA
ATOM      3  N   UNL A   1      37.325  21.496  25.442  1.00  0.00    -0.349 N 
ATOM      4  H   UNL A   1      38.174  21.549  25.937  1.00  0.00     0.163 HD
ENDROOT
BRANCH   1   5
ATOM      5  C   UNL A   1      35.452  22.813  24.524  1.00  0.00     0.191 A 
ATOM      6  C   UNL A   1      33.287  22.436  24.216  1.00  0.00     0.145 A 
ATOM      7  C   UNL A   1      33.733  23.103  23.095  1.00  0.00     0.050 A 
ATOM      8  O   UNL A   1      34.321  22.275  25.089  1.00  0.00    -0.452 OA
ATOM      9  C   UNL A   1      35.109  23.363  23.301  1.00  0.00     0.057 A 
BRANCH   6  10
ATOM     10  C   UNL A   1      31.941  21.916  24.615  1.00  0.00     0.236 C 
ATOM     11  C   UNL A   1      31.007  22.889  25.327  1.00  0.00     0.062 C 
BRANCH  10  12
ATOM     12  O   UNL A   1      32.045  20.642  25.280  1.00  0.00    -0.483 OA
BRANCH  12  13
ATOM     13  C   UNL A   1      32.481  19.515  24.644  1.00  0.00     0.120 A 
ATOM     14  C   UNL A   1      33.633  17.375  24.437  1.00  0.00    -0.019 A 
ATOM     15  C   UNL A   1      33.297  17.338  23.077  1.00  0.00     0.006 A 
ATOM     16  C   UNL A   1      33.199  18.464  25.212  1.00  0.00     0.052 A 
ATOM     17  C   UNL A   1      32.558  18.372  22.506  1.00  0.00     0.004 A 
ATOM     18  C   UNL A   1      32.153  19.452  23.289  1.00  0.00     0.046 A 
BRANCH  14  19
ATOM     19  C   UNL A   1      34.420  16.227  25.035  1.00  0.00     0.195 C 
BRANCH  19  20
ATOM     20  O   UNL A   1      33.734  14.976  25.001  1.00  0.00    -0.380 OA
ATOM     21  C   UNL A   1      32.524  14.987  25.747  1.00  0.00     0.195 C 
ENDBRANCH  19  20
ENDBRANCH  14  19
ENDBRANCH  12  13
ENDBRANCH  10  12
ENDBRANCH   6  10
ENDBRANCH   1   5
BRANCH   3  22
ATOM     22  C   UNL A   1      36.973  20.163  24.996  1.00  0.00     0.118 C 
BRANCH  22  23
ATOM     23  C   UNL A   1      38.177  19.224  25.031  1.00  0.00     0.042 C 
BRANCH  23  24
ATOM     24  C   UNL A   1      39.387  19.819  25.752  1.00  0.00     0.118 C 
BRANCH  24  25
ATOM     25  N   UNL A   1      40.484  18.865  25.863  1.00  0.00    -0.352 N 
ATOM     26  C   UNL A   1      41.829  19.075  26.036  1.00  0.00     0.251 C 
ATOM     27  H   UNL A   1      40.217  17.920  25.807  1.00  0.00     0.163 HD
ATOM     28  O   UNL A   1      42.608  18.134  25.896  1.00  0.00    -0.269 OA
BRANCH  26  29
ATOM     29  C   UNL A   1      42.357  20.416  26.373  1.00  0.00     0.039 A 
ATOM     30  C   UNL A   1      42.959  21.174  25.363  1.00  0.00     0.014 A 
ATOM     31  C   UNL A   1      42.312  20.910  27.679  1.00  0.00     0.014 A 
ATOM     32  C   UNL A   1      43.459  22.447  25.650  1.00  0.00     0.010 A 
ATOM     33  C   UNL A   1      42.749  22.206  27.950  1.00  0.00     0.010 A 
ATOM     34  C   UNL A   1      43.329  22.987  26.939  1.00  0.00    -0.014 A 
BRANCH  34  35
ATOM     35  C   UNL A   1      43.785  24.368  27.245  1.00  0.00     0.031 A 
ATOM     36  C   UNL A   1      42.797  25.422  27.661  1.00  0.00     0.074 A 
ATOM     37  C   UNL A   1      45.083  24.689  27.080  1.00  0.00     0.049 A 
ATOM     38  N   UNL A   1      42.996  26.696  27.894  1.00  0.00    -0.248 NA
ATOM     39  C   UNL A   1      41.397  24.997  27.812  1.00  0.00     0.031 C 
ATOM     40  C   UNL A   1      46.132  23.770  26.635  1.00  0.00     0.029 A 
ATOM     41  N   UNL A   1      45.738  25.882  27.253  1.00  0.00    -0.354 N 
ATOM     42  C   UNL A   1      41.749  27.225  28.196  1.00  0.00     0.074 A 
ATOM     43  C   UNL A   1      40.792  26.146  28.076  1.00  0.00     0.031 C 
ATOM     44  C   UNL A   1      47.301  24.427  26.589  1.00  0.00     0.029 A 
ATOM     45  C   UNL A   1      47.080  25.821  26.962  1.00  0.00     0.049 A 
ATOM     46  H   UNL A   1      45.290  26.705  27.557  1.00  0.00     0.167 HD
ATOM     47  C   UNL A   1      41.430  28.491  28.556  1.00  0.00     0.037 A 
ATOM     48  C   UNL A   1      48.025  26.780  26.985  1.00  0.00     0.037 A 
ATOM     49  C   UNL A   1      42.388  29.558  28.704  1.00  0.00     0.049 A 
ATOM     50  C   UNL A   1      47.648  28.174  27.400  1.00  0.00     0.074 A 
ATOM     51  C   UNL A   1      42.173  30.856  29.135  1.00  0.00     0.029 A 
ATOM     52  N   UNL A   1      43.742  29.448  28.424  1.00  0.00    -0.354 N 
ATOM     53  N   UNL A   1      46.476  28.645  27.747  1.00  0.00    -0.248 NA
ATOM     54  C   UNL A   1      48.729  29.171  27.431  1.00  0.00     0.031 C 
ATOM     55  C   UNL A   1      43.388  31.544  29.073  1.00  0.00     0.029 A 
ATOM     56  C   UNL A   1      44.370  30.662  28.651  1.00  0.00     0.049 A 
ATOM     57  H   UNL A   1      44.190  28.630  28.110  1.00  0.00     0.167 HD
ATOM     58  C   UNL A   1      46.680  29.982  28.061  1.00  0.00     0.074 A 
ATOM     59  C   UNL A   1      48.092  30.244  27.877  1.00  0.00     0.031 C 
ATOM     60  C   UNL A   1      45.778  30.909  28.467  1.00  0.00     0.037 A 
BRANCH  47  61
ATOM     61  C   UNL A   1      39.984  28.798  28.818  1.00  0.00     0.057 A 
ATOM     62  C   UNL A   1      39.432  28.719  30.104  1.00  0.00     0.134 A 
ATOM     63  C   UNL A   1      39.143  29.220  27.781  1.00  0.00     0.134 A 
ATOM     64  F   UNL A   1      40.180  28.312  31.141  1.00  0.00    -0.206 F 
ATOM     65  C   UNL A   1      38.091  29.024  30.343  1.00  0.00     0.040 A 
ATOM     66  C   UNL A   1      37.808  29.552  28.012  1.00  0.00     0.040 A 
ATOM     67  F   UNL A   1      39.609  29.325  26.526  1.00  0.00    -0.206 F 
ATOM     68  C   UNL A   1      37.276  29.449  29.296  1.00  0.00     0.006 A 
ENDBRANCH  47  61
BRANCH  48  69
ATOM     69  C   UNL A   1      49.425  26.446  26.626  1.00  0.00     0.057 A 
ATOM     70  C   UNL A   1      50.302  25.903  27.574  1.00  0.00     0.134 A 
ATOM     71  C   UNL A   1      49.919  26.652  25.333  1.00  0.00     0.134 A 
ATOM     72  F   UNL A   1      49.890  25.699  28.833  1.00  0.00    -0.206 F 
ATOM     73  C   UNL A   1      51.623  25.592  27.252  1.00  0.00     0.040 A 
ATOM     74  C   UNL A   1      51.231  26.324  24.991  1.00  0.00     0.040 A 
ATOM     75  F   UNL A   1      49.126  27.161  24.378  1.00  0.00    -0.206 F 
ATOM     76  C   UNL A   1      52.090  25.796  25.954  1.00  0.00     0.006 A 
ENDBRANCH  48  69
BRANCH  60  77
ATOM     77  C   UNL A   1      46.294  32.284  28.769  1.00  0.00     0.057 A 
ATOM     78  C   UNL A   1      46.352  33.284  27.790  1.00  0.00     0.134 A 
ATOM     79  C   UNL A   1      46.701  32.623  30.066  1.00  0.00     0.134 A 
ATOM     80  F   UNL A   1      45.990  33.020  26.526  1.00  0.00    -0.206 F 
ATOM     81  C   UNL A   1      46.816  34.567  28.086  1.00  0.00     0.040 A 
ATOM     82  C   UNL A   1      47.143  33.908  30.380  1.00  0.00     0.040 A 
ATOM     83  F   UNL A   1      46.663  31.713  31.052  1.00  0.00    -0.206 F 
ATOM     84  C   UNL A   1      47.206  34.884  29.387  1.00  0.00     0.006 A 
ENDBRANCH  60  77
ENDBRANCH  34  35
ENDBRANCH  26  29
ENDBRANCH  24  25
ENDBRANCH  23  24
ENDBRANCH  22  23
ENDBRANCH   3  22
TORSDOF 15
ENDMDL
MODEL 2
REMARK VINA RESULT:     -11.5      1.447      6.285
REMARK SMILES COCc1cccc(O[C@@H](C)c2ccc(C(=O)NCCCNC(=O)c3ccc(-c4c5nc(c(-c6c(F)cccc6F)c6ccc([nH]6)c(-c6c(F)cccc6F)c6nc(c(-c7c(F)cccc7F)c7ccc4[nH]7)C=C6)C=C5)cc3)o2)c1
REMARK SMILES IDX 16 1 17 2 18 3 15 5 12 6 13 7 79 8 14 9 10 10 11 11 9 12
REMARK SMILES IDX 8 13 4 14 5 15 80 16 6 17 7 18 3 19 2 20 1 21 19 22 20 23
REMARK SMILES IDX 21 24 22 25 23 26 24 28 25 29 26 30 78 31 27 32 77 33 28 34
REMARK SMILES IDX 29 35 30 36 71 37 31 38 76 39 70 40 72 41 32 42 75 43 69 44
REMARK SMILES IDX 68 45 33 47 59 48 42 49 58 50 43 51 46 52 57 53 73 54 44 55
REMARK SMILES IDX 45 56 56 58 74 59 47 60 34 61 35 62 40 63 36 64 37 65 39 66
REMARK SMILES IDX 41 67 38 68 60 69 61 70 66 71 62 72 63 73 65 74 67 75 64 76
REMARK SMILES IDX 48 77 49 78 54 79 50 80 51 81 53 82 55 83 52 84
REMARK H PARENT 18 4 22 27 72 46 46 57
REMARK Flexibility Score: inf
ROOT
ATOM      1  C   UNL A   1      36.693  22.880  25.484  1.00  0.00     0.286 C 
ATOM      2  O   UNL A   1      37.107  23.776  26.218  1.00  0.00    -0.266 OA
ATOM      3  N   UNL A   1      37.431  21.717  25.491  1.00  0.00    -0.349 N 
ATOM      4  H   UNL A   1      38.257  21.763  26.026  1.00  0.00     0.163 HD
ENDROOT
BRANCH   1   5
ATOM      5  C   UNL A   1      35.488  23.003  24.683  1.00  0.00     0.191 A 
ATOM      6  C   UNL A   1      33.378  22.496  24.221  1.00  0.00     0.145 A 
ATOM      7  C   UNL A   1      33.798  23.364  23.236  1.00  0.00     0.050 A 
ATOM      8  O   UNL A   1      34.392  22.290  25.107  1.00  0.00    -0.452 OA
ATOM      9  C   UNL A   1      35.138  23.704  23.542  1.00  0.00     0.057 A 
BRANCH   6  10
ATOM     10  C   UNL A   1      32.071  21.810  24.474  1.00  0.00     0.236 C 
ATOM     11  C   UNL A   1      30.937  22.664  25.030  1.00  0.00     0.062 C 
BRANCH  10  12
ATOM     12  O   UNL A   1      32.258  20.576  25.195  1.00  0.00    -0.483 OA
BRANCH  12  13
ATOM     13  C   UNL A   1      32.653  19.421  24.585  1.00  0.00     0.120 A 
ATOM     14  C   UNL A   1      33.816  17.284  24.392  1.00  0.00    -0.019 A 
ATOM     15  C   UNL A   1      33.364  17.170  23.071  1.00  0.00     0.006 A 
ATOM     16  C   UNL A   1      33.434  18.410  25.143  1.00  0.00     0.052 A 
ATOM     17  C   UNL A   1      32.562  18.164  22.512  1.00  0.00     0.004 A 
ATOM     18  C   UNL A   1      32.210  19.281  23.269  1.00  0.00     0.046 A 
BRANCH  14  19
ATOM     19  C   UNL A   1      34.669  16.180  24.979  1.00  0.00     0.195 C 
BRANCH  19  20
ATOM     20  O   UNL A   1      33.980  14.939  25.138  1.00  0.00    -0.380 OA
ATOM     21  C   UNL A   1      32.662  15.098  25.645  1.00  0.00     0.195 C 
ENDBRANCH  19  20
ENDBRANCH  14  19
ENDBRANCH  12  13
ENDBRANCH  10  12
ENDBRANCH   6  10
ENDBRANCH   1   5
BRANCH   3  22
ATOM     22  C   UNL A   1      37.206  20.437  24.850  1.00  0.00     0.118 C 
BRANCH  22  23
ATOM     23  C   UNL A   1      38.450  19.554  24.906  1.00  0.00     0.042 C 
BRANCH  23  24
ATOM     24  C   UNL A   1      39.444  19.978  25.988  1.00  0.00     0.118 C 
BRANCH  24  25
ATOM     25  N   UNL A   1      40.671  19.191  25.946  1.00  0.00    -0.352 N 
ATOM     26  C   UNL A   1      41.979  19.577  26.101  1.00  0.00     0.251 C 
ATOM     27  H   UNL A   1      40.540  18.230  25.781  1.00  0.00     0.163 HD
ATOM     28  O   UNL A   1      42.877  18.785  25.822  1.00  0.00    -0.269 OA
BRANCH  26  29
ATOM     29  C   UNL A   1      42.325  20.932  26.585  1.00  0.00     0.039 A 
ATOM     30  C   UNL A   1      42.670  21.912  25.648  1.00  0.00     0.014 A 
ATOM     31  C   UNL A   1      42.362  21.231  27.949  1.00  0.00     0.014 A 
ATOM     32  C   UNL A   1      42.994  23.202  26.075  1.00  0.00     0.010 A 
ATOM     33  C   UNL A   1      42.618  22.536  28.370  1.00  0.00     0.010 A 
ATOM     34  C   UNL A   1      42.938  23.534  27.438  1.00  0.00    -0.014 A 
BRANCH  34  35
ATOM     35  C   UNL A   1      43.203  24.920  27.904  1.00  0.00     0.031 A 
ATOM     36  C   UNL A   1      44.608  25.376  28.182  1.00  0.00     0.074 A 
ATOM     37  C   UNL A   1      42.167  25.748  28.143  1.00  0.00     0.049 A 
ATOM     38  N   UNL A   1      45.027  26.519  28.665  1.00  0.00    -0.248 NA
ATOM     39  C   UNL A   1      45.685  24.412  27.905  1.00  0.00     0.031 C 
ATOM     40  C   UNL A   1      40.754  25.411  27.959  1.00  0.00     0.029 A 
ATOM     41  N   UNL A   1      42.142  27.039  28.607  1.00  0.00    -0.354 N 
ATOM     42  C   UNL A   1      46.406  26.404  28.770  1.00  0.00     0.074 A 
ATOM     43  C   UNL A   1      46.752  25.067  28.340  1.00  0.00     0.031 C 
ATOM     44  C   UNL A   1      40.003  26.473  28.287  1.00  0.00     0.029 A 
ATOM     45  C   UNL A   1      40.875  27.552  28.742  1.00  0.00     0.049 A 
ATOM     46  H   UNL A   1      42.956  27.551  28.823  1.00  0.00     0.167 HD
ATOM     47  C   UNL A   1      47.306  27.334  29.172  1.00  0.00     0.037 A 
ATOM     48  C   UNL A   1      40.460  28.753  29.188  1.00  0.00     0.037 A 
ATOM     49  C   UNL A   1      46.963  28.675  29.571  1.00  0.00     0.049 A 
ATOM     50  C   UNL A   1      41.478  29.771  29.617  1.00  0.00     0.074 A 
ATOM     51  C   UNL A   1      47.809  29.712  29.925  1.00  0.00     0.029 A 
ATOM     52  N   UNL A   1      45.668  29.163  29.670  1.00  0.00    -0.354 N 
ATOM     53  N   UNL A   1      42.784  29.671  29.648  1.00  0.00    -0.248 NA
ATOM     54  C   UNL A   1      40.963  31.072  30.069  1.00  0.00     0.031 C 
ATOM     55  C   UNL A   1      47.026  30.814  30.281  1.00  0.00     0.029 A 
ATOM     56  C   UNL A   1      45.692  30.479  30.102  1.00  0.00     0.049 A 
ATOM     57  H   UNL A   1      44.854  28.651  29.465  1.00  0.00     0.167 HD
ATOM     58  C   UNL A   1      43.250  30.900  30.097  1.00  0.00     0.074 A 
ATOM     59  C   UNL A   1      42.086  31.734  30.313  1.00  0.00     0.031 C 
ATOM     60  C   UNL A   1      44.527  31.300  30.309  1.00  0.00     0.037 A 
BRANCH  47  61
ATOM     61  C   UNL A   1      48.753  26.936  29.200  1.00  0.00     0.057 A 
ATOM     62  C   UNL A   1      49.340  26.358  30.334  1.00  0.00     0.134 A 
ATOM     63  C   UNL A   1      49.559  27.091  28.065  1.00  0.00     0.134 A 
ATOM     64  F   UNL A   1      48.626  26.191  31.458  1.00  0.00    -0.206 F 
ATOM     65  C   UNL A   1      50.682  25.973  30.346  1.00  0.00     0.040 A 
ATOM     66  C   UNL A   1      50.895  26.685  28.057  1.00  0.00     0.040 A 
ATOM     67  F   UNL A   1      49.059  27.630  26.943  1.00  0.00    -0.206 F 
ATOM     68  C   UNL A   1      51.461  26.130  29.202  1.00  0.00     0.006 A 
ENDBRANCH  47  61
BRANCH  48  69
ATOM     69  C   UNL A   1      39.010  29.064  29.229  1.00  0.00     0.057 A 
ATOM     70  C   UNL A   1      38.274  28.922  30.412  1.00  0.00     0.134 A 
ATOM     71  C   UNL A   1      38.325  29.516  28.094  1.00  0.00     0.134 A 
ATOM     72  F   UNL A   1      38.872  28.477  31.527  1.00  0.00    -0.206 F 
ATOM     73  C   UNL A   1      36.909  29.204  30.462  1.00  0.00     0.040 A 
ATOM     74  C   UNL A   1      36.965  29.824  28.136  1.00  0.00     0.040 A 
ATOM     75  F   UNL A   1      38.975  29.681  26.933  1.00  0.00    -0.206 F 
ATOM     76  C   UNL A   1      36.251  29.662  29.322  1.00  0.00     0.006 A 
ENDBRANCH  48  69
BRANCH  60  77
ATOM     77  C   UNL A   1      44.736  32.712  30.772  1.00  0.00     0.057 A 
ATOM     78  C   UNL A   1      44.858  33.775  29.869  1.00  0.00     0.134 A 
ATOM     79  C   UNL A   1      44.773  33.015  32.139  1.00  0.00     0.134 A 
ATOM     80  F   UNL A   1      44.845  33.550  28.547  1.00  0.00    -0.206 F 
ATOM     81  C   UNL A   1      45.033  35.089  30.310  1.00  0.00     0.040 A 
ATOM     82  C   UNL A   1      44.922  34.326  32.592  1.00  0.00     0.040 A 
ATOM     83  F   UNL A   1      44.653  32.043  33.056  1.00  0.00    -0.206 F 
ATOM     84  C   UNL A   1      45.057  35.367  31.676  1.00  0.00     0.006 A 
ENDBRANCH  60  77
ENDBRANCH  34  35
ENDBRANCH  26  29
ENDBRANCH  24  25
ENDBRANCH  23  24
ENDBRANCH  22  23
ENDBRANCH   3  22
TORSDOF 15
ENDMDL
MODEL 3
REMARK VINA RESULT:     -11.4      2.696      4.499
REMARK SMILES COCc1cccc(O[C@@H](C)c2ccc(C(=O)NCCCNC(=O)c3ccc(-c4c5nc(c(-c6c(F)cccc6F)c6ccc([nH]6)c(-c6c(F)cccc6F)c6nc(c(-c7c(F)cccc7F)c7ccc4[nH]7)C=C6)C=C5)cc3)o2)c1
REMARK SMILES IDX 16 1 17 2 18 3 15 5 12 6 13 7 79 8 14 9 10 10 11 11 9 12
REMARK SMILES IDX 8 13 4 14 5 15 80 16 6 17 7 18 3 19 2 20 1 21 19 22 20 23
REMARK SMILES IDX 21 24 22 25 23 26 24 28 25 29 26 30 78 31 27 32 77 33 28 34
REMARK SMILES IDX 29 35 30 36 71 37 31 38 76 39 70 40 72 41 32 42 75 43 69 44
REMARK SMILES IDX 68 45 33 47 59 48 42 49 58 50 43 51 46 52 57 53 73 54 44 55
REMARK SMILES IDX 45 56 56 58 74 59 47 60 34 61 35 62 40 63 36 64 37 65 39 66
REMARK SMILES IDX 41 67 38 68 60 69 61 70 66 71 62 72 63 73 65 74 67 75 64 76
REMARK SMILES IDX 48 77 49 78 54 79 50 80 51 81 53 82 55 83 52 84
REMARK H PARENT 18 4 22 27 72 46 46 57
REMARK Flexibility Score: inf
ROOT
ATOM      1  C   UNL A   1      37.192  23.503  25.670  1.00  0.00     0.286 C 
ATOM      2  O   UNL A   1      37.969  24.319  26.165  1.00  0.00    -0.266 OA
ATOM      3  N   UNL A   1      37.778  22.396  25.095  1.00  0.00    -0.349 N 
ATOM      4  H   UNL A   1      38.762  22.423  25.075  1.00  0.00     0.163 HD
ENDROOT
BRANCH   1   5
ATOM      5  C   UNL A   1      35.748  23.655  25.712  1.00  0.00     0.191 A 
ATOM      6  C   UNL A   1      33.827  24.392  24.882  1.00  0.00     0.145 A 
ATOM      7  C   UNL A   1      33.526  23.762  26.070  1.00  0.00     0.050 A 
ATOM      8  O   UNL A   1      35.168  24.313  24.654  1.00  0.00    -0.452 OA
ATOM      9  C   UNL A   1      34.749  23.273  26.589  1.00  0.00     0.057 A 
BRANCH   6  10
ATOM     10  C   UNL A   1      32.978  25.079  23.858  1.00  0.00     0.236 C 
ATOM     11  C   UNL A   1      33.537  25.166  22.442  1.00  0.00     0.062 C 
BRANCH  10  12
ATOM     12  O   UNL A   1      32.479  26.338  24.349  1.00  0.00    -0.483 OA
BRANCH  12  13
ATOM     13  C   UNL A   1      31.248  26.823  24.014  1.00  0.00     0.120 A 
ATOM     14  C   UNL A   1      29.644  28.475  23.205  1.00  0.00    -0.019 A 
ATOM     15  C   UNL A   1      28.601  27.579  23.476  1.00  0.00     0.006 A 
ATOM     16  C   UNL A   1      30.967  28.072  23.463  1.00  0.00     0.052 A 
ATOM     17  C   UNL A   1      28.875  26.318  24.003  1.00  0.00     0.004 A 
ATOM     18  C   UNL A   1      30.192  25.946  24.269  1.00  0.00     0.046 A 
BRANCH  14  19
ATOM     19  C   UNL A   1      29.319  29.830  22.613  1.00  0.00     0.195 C 
BRANCH  19  20
ATOM     20  O   UNL A   1      29.120  30.854  23.587  1.00  0.00    -0.380 OA
ATOM     21  C   UNL A   1      27.855  31.491  23.471  1.00  0.00     0.195 C 
ENDBRANCH  19  20
ENDBRANCH  14  19
ENDBRANCH  12  13
ENDBRANCH  10  12
ENDBRANCH   6  10
ENDBRANCH   1   5
BRANCH   3  22
ATOM     22  C   UNL A   1      37.200  21.200  24.516  1.00  0.00     0.118 C 
BRANCH  22  23
ATOM     23  C   UNL A   1      38.079  19.976  24.763  1.00  0.00     0.042 C 
BRANCH  23  24
ATOM     24  C   UNL A   1      38.989  20.120  25.983  1.00  0.00     0.118 C 
BRANCH  24  25
ATOM     25  N   UNL A   1      40.156  19.251  25.905  1.00  0.00    -0.352 N 
ATOM     26  C   UNL A   1      41.489  19.537  26.059  1.00  0.00     0.251 C 
ATOM     27  H   UNL A   1      39.955  18.307  25.713  1.00  0.00     0.163 HD
ATOM     28  O   UNL A   1      42.326  18.693  25.747  1.00  0.00    -0.269 OA
BRANCH  26  29
ATOM     29  C   UNL A   1      41.934  20.849  26.581  1.00  0.00     0.039 A 
ATOM     30  C   UNL A   1      42.346  21.830  25.671  1.00  0.00     0.014 A 
ATOM     31  C   UNL A   1      41.999  21.103  27.953  1.00  0.00     0.014 A 
ATOM     32  C   UNL A   1      42.763  23.079  26.134  1.00  0.00     0.010 A 
ATOM     33  C   UNL A   1      42.350  22.373  28.411  1.00  0.00     0.010 A 
ATOM     34  C   UNL A   1      42.738  23.373  27.507  1.00  0.00    -0.014 A 
BRANCH  34  35
ATOM     35  C   UNL A   1      43.104  24.722  28.012  1.00  0.00     0.031 A 
ATOM     36  C   UNL A   1      42.041  25.748  28.287  1.00  0.00     0.074 A 
ATOM     37  C   UNL A   1      44.404  25.044  28.158  1.00  0.00     0.049 A 
ATOM     38  N   UNL A   1      42.173  26.998  28.658  1.00  0.00    -0.248 NA
ATOM     39  C   UNL A   1      40.645  25.324  28.097  1.00  0.00     0.031 C 
ATOM     40  C   UNL A   1      45.533  24.154  27.880  1.00  0.00     0.029 A 
ATOM     41  N   UNL A   1      44.996  26.214  28.564  1.00  0.00    -0.354 N 
ATOM     42  C   UNL A   1      40.885  27.512  28.723  1.00  0.00     0.074 A 
ATOM     43  C   UNL A   1      39.987  26.453  28.314  1.00  0.00     0.031 C 
ATOM     44  C   UNL A   1      46.678  24.803  28.141  1.00  0.00     0.029 A 
ATOM     45  C   UNL A   1      46.369  26.165  28.566  1.00  0.00     0.049 A 
ATOM     46  H   UNL A   1      44.485  27.014  28.827  1.00  0.00     0.167 HD
ATOM     47  C   UNL A   1      40.485  28.748  29.105  1.00  0.00     0.037 A 
ATOM     48  C   UNL A   1      47.278  27.111  28.869  1.00  0.00     0.037 A 
ATOM     49  C   UNL A   1      41.378  29.791  29.541  1.00  0.00     0.049 A 
ATOM     50  C   UNL A   1      46.808  28.471  29.302  1.00  0.00     0.074 A 
ATOM     51  C   UNL A   1      41.063  31.052  30.016  1.00  0.00     0.029 A 
ATOM     52  N   UNL A   1      42.761  29.693  29.552  1.00  0.00    -0.354 N 
ATOM     53  N   UNL A   1      45.584  28.923  29.423  1.00  0.00    -0.248 NA
ATOM     54  C   UNL A   1      47.848  29.453  29.645  1.00  0.00     0.031 C 
ATOM     55  C   UNL A   1      42.257  31.734  30.274  1.00  0.00     0.029 A 
ATOM     56  C   UNL A   1      43.315  30.879  30.005  1.00  0.00     0.049 A 
ATOM     57  H   UNL A   1      43.274  28.899  29.280  1.00  0.00     0.167 HD
ATOM     58  C   UNL A   1      45.703  30.229  29.878  1.00  0.00     0.074 A 
ATOM     59  C   UNL A   1      47.119  30.493  30.026  1.00  0.00     0.031 C 
ATOM     60  C   UNL A   1      44.726  31.128  30.151  1.00  0.00     0.037 A 
BRANCH  47  61
ATOM     61  C   UNL A   1      39.014  29.045  29.071  1.00  0.00     0.057 A 
ATOM     62  C   UNL A   1      38.210  28.935  30.214  1.00  0.00     0.134 A 
ATOM     63  C   UNL A   1      38.401  29.489  27.892  1.00  0.00     0.134 A 
ATOM     64  F   UNL A   1      38.731  28.506  31.373  1.00  0.00    -0.206 F 
ATOM     65  C   UNL A   1      36.846  29.231  30.179  1.00  0.00     0.040 A 
ATOM     66  C   UNL A   1      37.044  29.813  27.851  1.00  0.00     0.040 A 
ATOM     67  F   UNL A   1      39.113  29.623  26.763  1.00  0.00    -0.206 F 
ATOM     68  C   UNL A   1      36.261  29.678  28.996  1.00  0.00     0.006 A 
ENDBRANCH  47  61
BRANCH  48  69
ATOM     69  C   UNL A   1      48.726  26.795  28.797  1.00  0.00     0.057 A 
ATOM     70  C   UNL A   1      49.390  26.205  29.880  1.00  0.00     0.134 A 
ATOM     71  C   UNL A   1      49.478  27.064  27.648  1.00  0.00     0.134 A 
ATOM     72  F   UNL A   1      48.725  25.939  31.014  1.00  0.00    -0.206 F 
ATOM     73  C   UNL A   1      50.752  25.909  29.829  1.00  0.00     0.040 A 
ATOM     74  C   UNL A   1      50.836  26.753  27.575  1.00  0.00     0.040 A 
ATOM     75  F   UNL A   1      48.898  27.620  26.574  1.00  0.00    -0.206 F 
ATOM     76  C   UNL A   1      51.479  26.178  28.670  1.00  0.00     0.006 A 
ENDBRANCH  48  69
BRANCH  60  77
ATOM     77  C   UNL A   1      45.153  32.471  30.666  1.00  0.00     0.057 A 
ATOM     78  C   UNL A   1      45.385  33.552  29.808  1.00  0.00     0.134 A 
ATOM     79  C   UNL A   1      45.294  32.694  32.042  1.00  0.00     0.134 A 
ATOM     80  F   UNL A   1      45.281  33.401  28.479  1.00  0.00    -0.206 F 
ATOM     81  C   UNL A   1      45.763  34.804  30.298  1.00  0.00     0.040 A 
ATOM     82  C   UNL A   1      45.646  33.946  32.546  1.00  0.00     0.040 A 
ATOM     83  F   UNL A   1      45.078  31.702  32.919  1.00  0.00    -0.206 F 
ATOM     84  C   UNL A   1      45.886  35.005  31.673  1.00  0.00     0.006 A 
ENDBRANCH  60  77
ENDBRANCH  34  35
ENDBRANCH  26  29
ENDBRANCH  24  25
ENDBRANCH  23  24
ENDBRANCH  22  23
ENDBRANCH   3  22
TORSDOF 15
ENDMDL
