MODEL 1
REMARK VINA RESULT:     -12.6      0.000      0.000
REMARK SMILES O=C(NCCCNC(=O)[C@H]1CC(=O)N(Cc2ccc3cc[nH]c3c2)C1)c1ccc(-c2c3nc(c(-c4c(F)cccc4F)c4ccc([nH]4)c(-c4c(F)cccc4F)c4nc(c(-c5c(F)cccc5F)c5ccc2[nH]5)C=C4)C=C3)cc1
REMARK SMILES IDX 5 1 4 2 3 3 1 4 2 5 26 7 27 8 79 9 28 10 78 11 29 12 30 13
REMARK SMILES IDX 31 14 72 15 32 16 77 17 71 18 73 19 33 20 76 21 70 22 69 23
REMARK SMILES IDX 34 25 60 26 43 27 59 28 44 29 47 30 58 31 74 32 45 33 46 34
REMARK SMILES IDX 57 36 75 37 48 38 35 39 36 40 41 41 37 42 38 43 40 44 42 45
REMARK SMILES IDX 39 46 61 47 62 48 67 49 63 50 64 51 66 52 68 53 65 54 49 55
REMARK SMILES IDX 50 56 55 57 51 58 52 59 54 60 56 61 53 62 6 63 7 64 8 65
REMARK SMILES IDX 9 67 10 68 11 69 25 70 12 71 14 72 13 73 15 74 16 75 17 76
REMARK SMILES IDX 24 77 18 78 23 79 19 80 22 81 20 82 21 83
REMARK H PARENT 3 6 73 24 47 35 7 66 22 84
REMARK Flexibility Score: inf
ROOT
ATOM      1  C   UNL A   1      38.136  19.656  24.992  1.00  0.00     0.042 C 
ENDROOT
BRANCH   1   2
ATOM      2  C   UNL A   1      39.272  19.976  25.957  1.00  0.00     0.118 C 
BRANCH   2   3
ATOM      3  N   UNL A   1      40.347  18.993  25.911  1.00  0.00    -0.352 N 
ATOM      4  O   UNL A   1      42.464  18.231  25.798  1.00  0.00    -0.269 OA
ATOM      5  C   UNL A   1      41.705  19.163  26.040  1.00  0.00     0.251 C 
ATOM      6  H   UNL A   1      40.056  18.065  25.765  1.00  0.00     0.163 HD
BRANCH   5   7
ATOM      7  C   UNL A   1      42.255  20.476  26.445  1.00  0.00     0.039 A 
ATOM      8  C   UNL A   1      42.259  20.864  27.785  1.00  0.00     0.014 A 
ATOM      9  C   UNL A   1      42.772  21.332  25.469  1.00  0.00     0.014 A 
ATOM     10  C   UNL A   1      42.596  22.168  28.122  1.00  0.00     0.010 A 
ATOM     11  C   UNL A   1      43.218  22.608  25.828  1.00  0.00     0.010 A 
ATOM     12  C   UNL A   1      43.088  23.055  27.151  1.00  0.00    -0.014 A 
BRANCH  12  13
ATOM     13  C   UNL A   1      43.479  24.430  27.560  1.00  0.00     0.031 A 
ATOM     14  C   UNL A   1      44.912  24.885  27.493  1.00  0.00     0.074 A 
ATOM     15  C   UNL A   1      42.518  25.290  27.950  1.00  0.00     0.049 A 
ATOM     16  N   UNL A   1      45.417  26.065  27.760  1.00  0.00    -0.248 NA
ATOM     17  C   UNL A   1      45.914  23.889  27.083  1.00  0.00     0.031 C 
ATOM     18  C   UNL A   1      41.093  24.965  28.067  1.00  0.00     0.029 A 
ATOM     19  N   UNL A   1      42.583  26.615  28.295  1.00  0.00    -0.354 N 
ATOM     20  C   UNL A   1      46.788  25.947  27.572  1.00  0.00     0.074 A 
ATOM     21  C   UNL A   1      47.043  24.572  27.200  1.00  0.00     0.031 C 
ATOM     22  C   UNL A   1      40.415  26.072  28.395  1.00  0.00     0.029 A 
ATOM     23  C   UNL A   1      41.359  27.168  28.581  1.00  0.00     0.049 A 
ATOM     24  H   UNL A   1      43.426  27.123  28.333  1.00  0.00     0.167 HD
ATOM     25  C   UNL A   1      47.745  26.900  27.691  1.00  0.00     0.037 A 
ATOM     26  C   UNL A   1      41.029  28.416  28.962  1.00  0.00     0.037 A 
ATOM     27  C   UNL A   1      47.483  28.272  28.048  1.00  0.00     0.049 A 
ATOM     28  C   UNL A   1      42.114  29.443  29.110  1.00  0.00     0.074 A 
ATOM     29  C   UNL A   1      48.380  29.322  28.154  1.00  0.00     0.029 A 
ATOM     30  N   UNL A   1      46.233  28.784  28.364  1.00  0.00    -0.354 N 
ATOM     31  N   UNL A   1      43.400  29.327  28.886  1.00  0.00    -0.248 NA
ATOM     32  C   UNL A   1      41.698  30.777  29.562  1.00  0.00     0.031 C 
ATOM     33  C   UNL A   1      47.682  30.452  28.592  1.00  0.00     0.029 A 
ATOM     34  C   UNL A   1      46.340  30.127  28.693  1.00  0.00     0.049 A 
ATOM     35  H   UNL A   1      45.394  28.269  28.358  1.00  0.00     0.167 HD
ATOM     36  C   UNL A   1      43.943  30.579  29.138  1.00  0.00     0.074 A 
ATOM     37  C   UNL A   1      42.842  31.442  29.515  1.00  0.00     0.031 C 
ATOM     38  C   UNL A   1      45.236  30.979  29.059  1.00  0.00     0.037 A 
BRANCH  25  39
ATOM     39  C   UNL A   1      49.173  26.489  27.458  1.00  0.00     0.057 A 
ATOM     40  C   UNL A   1      50.008  26.064  28.500  1.00  0.00     0.134 A 
ATOM     41  C   UNL A   1      49.709  26.483  26.163  1.00  0.00     0.134 A 
ATOM     42  F   UNL A   1      49.564  26.053  29.766  1.00  0.00    -0.206 F 
ATOM     43  C   UNL A   1      51.329  25.674  28.266  1.00  0.00     0.040 A 
ATOM     44  C   UNL A   1      51.018  26.068  25.912  1.00  0.00     0.040 A 
ATOM     45  F   UNL A   1      48.965  26.869  25.115  1.00  0.00    -0.206 F 
ATOM     46  C   UNL A   1      51.835  25.668  26.968  1.00  0.00     0.006 A 
ENDBRANCH  25  39
BRANCH  26  47
ATOM     47  C   UNL A   1      39.609  28.761  29.225  1.00  0.00     0.057 A 
ATOM     48  C   UNL A   1      39.046  28.594  30.494  1.00  0.00     0.134 A 
ATOM     49  C   UNL A   1      38.780  29.259  28.211  1.00  0.00     0.134 A 
ATOM     50  F   UNL A   1      39.784  28.107  31.503  1.00  0.00    -0.206 F 
ATOM     51  C   UNL A   1      37.703  28.887  30.743  1.00  0.00     0.040 A 
ATOM     52  C   UNL A   1      37.445  29.586  28.453  1.00  0.00     0.040 A 
ATOM     53  F   UNL A   1      39.261  29.453  26.975  1.00  0.00    -0.206 F 
ATOM     54  C   UNL A   1      36.902  29.390  29.720  1.00  0.00     0.006 A 
ENDBRANCH  26  47
BRANCH  38  55
ATOM     55  C   UNL A   1      45.521  32.428  29.334  1.00  0.00     0.057 A 
ATOM     56  C   UNL A   1      45.859  32.894  30.612  1.00  0.00     0.134 A 
ATOM     57  C   UNL A   1      45.466  33.369  28.298  1.00  0.00     0.134 A 
ATOM     58  F   UNL A   1      45.917  32.048  31.652  1.00  0.00    -0.206 F 
ATOM     59  C   UNL A   1      46.097  34.248  30.855  1.00  0.00     0.040 A 
ATOM     60  C   UNL A   1      45.734  34.720  28.522  1.00  0.00     0.040 A 
ATOM     61  F   UNL A   1      45.157  32.990  27.048  1.00  0.00    -0.206 F 
ATOM     62  C   UNL A   1      46.040  35.164  29.805  1.00  0.00     0.006 A 
ENDBRANCH  38  55
ENDBRANCH  12  13
ENDBRANCH   5   7
ENDBRANCH   2   3
ENDBRANCH   1   2
BRANCH   1  63
ATOM     63  C   UNL A   1      37.310  20.877  24.603  1.00  0.00     0.117 C 
BRANCH  63  64
ATOM     64  N   UNL A   1      37.636  22.011  25.454  1.00  0.00    -0.356 N 
ATOM     65  C   UNL A   1      37.068  23.235  25.591  1.00  0.00     0.225 C 
ATOM     66  H   UNL A   1      38.414  21.862  26.040  1.00  0.00     0.163 HD
ATOM     67  O   UNL A   1      37.654  24.044  26.316  1.00  0.00    -0.275 OA
BRANCH  65  68
ATOM     68  C   UNL A   1      35.732  23.599  24.984  1.00  0.00     0.107 C 
ATOM     69  C   UNL A   1      35.636  23.734  23.470  1.00  0.00     0.115 C 
ATOM     70  C   UNL A   1      34.692  22.570  25.376  1.00  0.00     0.133 C 
ATOM     71  C   UNL A   1      34.297  23.126  23.130  1.00  0.00     0.223 C 
ATOM     72  N   UNL A   1      33.797  22.499  24.253  1.00  0.00    -0.338 N 
ATOM     73  O   UNL A   1      33.766  23.187  22.032  1.00  0.00    -0.275 OA
BRANCH  72  74
ATOM     74  C   UNL A   1      32.506  21.829  24.323  1.00  0.00     0.155 C 
BRANCH  74  75
ATOM     75  C   UNL A   1      32.597  20.320  24.245  1.00  0.00    -0.026 A 
ATOM     76  C   UNL A   1      32.440  19.655  23.019  1.00  0.00     0.006 A 
ATOM     77  C   UNL A   1      32.862  19.573  25.405  1.00  0.00     0.032 A 
ATOM     78  C   UNL A   1      32.475  18.259  22.930  1.00  0.00     0.010 A 
ATOM     79  C   UNL A   1      32.939  18.178  25.292  1.00  0.00     0.046 A 
ATOM     80  C   UNL A   1      32.732  17.506  24.088  1.00  0.00    -0.001 A 
ATOM     81  N   UNL A   1      33.214  17.220  26.243  1.00  0.00    -0.361 N 
ATOM     82  C   UNL A   1      32.846  16.114  24.355  1.00  0.00     0.028 A 
ATOM     83  C   UNL A   1      33.152  15.969  25.687  1.00  0.00     0.083 A 
ATOM     84  H   UNL A   1      33.424  17.407  27.186  1.00  0.00     0.166 HD
ENDBRANCH  74  75
ENDBRANCH  72  74
ENDBRANCH  65  68
ENDBRANCH  63  64
ENDBRANCH   1  63
TORSDOF 12
ENDMDL
MODEL 2
REMARK VINA RESULT:     -12.5      2.534      4.376
REMARK SMILES O=C(NCCCNC(=O)[C@H]1CC(=O)N(Cc2ccc3cc[nH]c3c2)C1)c1ccc(-c2c3nc(c(-c4c(F)cccc4F)c4ccc([nH]4)c(-c4c(F)cccc4F)c4nc(c(-c5c(F)cccc5F)c5ccc2[nH]5)C=C4)C=C3)cc1
REMARK SMILES IDX 5 1 4 2 3 3 1 4 2 5 26 7 27 8 79 9 28 10 78 11 29 12 30 13
REMARK SMILES IDX 31 14 72 15 32 16 77 17 71 18 73 19 33 20 76 21 70 22 69 23
REMARK SMILES IDX 34 25 60 26 43 27 59 28 44 29 47 30 58 31 74 32 45 33 46 34
REMARK SMILES IDX 57 36 75 37 48 38 35 39 36 40 41 41 37 42 38 43 40 44 42 45
REMARK SMILES IDX 39 46 61 47 62 48 67 49 63 50 64 51 66 52 68 53 65 54 49 55
REMARK SMILES IDX 50 56 55 57 51 58 52 59 54 60 56 61 53 62 6 63 7 64 8 65
REMARK SMILES IDX 9 67 10 68 11 69 25 70 12 71 14 72 13 73 15 74 16 75 17 76
REMARK SMILES IDX 24 77 18 78 23 79 19 80 22 81 20 82 21 83
REMARK H PARENT 3 6 73 24 47 35 7 66 22 84
REMARK Flexibility Score: inf
ROOT
ATOM      1  C   UNL A   1      37.760  19.954  24.705  1.00  0.00     0.042 C 
ENDROOT
BRANCH   1   2
ATOM      2  C   UNL A   1      38.856  20.333  25.694  1.00  0.00     0.118 C 
BRANCH   2   3
ATOM      3  N   UNL A   1      39.940  19.360  25.737  1.00  0.00    -0.352 N 
ATOM      4  O   UNL A   1      42.064  18.617  25.866  1.00  0.00    -0.269 OA
ATOM      5  C   UNL A   1      41.267  19.529  26.057  1.00  0.00     0.251 C 
ATOM      6  H   UNL A   1      39.684  18.440  25.499  1.00  0.00     0.163 HD
BRANCH   5   7
ATOM      7  C   UNL A   1      41.740  20.818  26.608  1.00  0.00     0.039 A 
ATOM      8  C   UNL A   1      41.764  21.040  27.985  1.00  0.00     0.014 A 
ATOM      9  C   UNL A   1      42.164  21.822  25.732  1.00  0.00     0.014 A 
ATOM     10  C   UNL A   1      42.023  22.314  28.472  1.00  0.00     0.010 A 
ATOM     11  C   UNL A   1      42.534  23.073  26.235  1.00  0.00     0.010 A 
ATOM     12  C   UNL A   1      42.419  23.346  27.606  1.00  0.00    -0.014 A 
BRANCH  12  13
ATOM     13  C   UNL A   1      42.731  24.684  28.173  1.00  0.00     0.031 A 
ATOM     14  C   UNL A   1      44.146  25.087  28.490  1.00  0.00     0.074 A 
ATOM     15  C   UNL A   1      41.725  25.563  28.354  1.00  0.00     0.049 A 
ATOM     16  N   UNL A   1      44.597  26.233  28.938  1.00  0.00    -0.248 NA
ATOM     17  C   UNL A   1      45.192  24.072  28.292  1.00  0.00     0.031 C 
ATOM     18  C   UNL A   1      40.309  25.288  28.093  1.00  0.00     0.029 A 
ATOM     19  N   UNL A   1      41.736  26.868  28.774  1.00  0.00    -0.354 N 
ATOM     20  C   UNL A   1      45.968  26.072  29.093  1.00  0.00     0.074 A 
ATOM     21  C   UNL A   1      46.273  24.706  28.724  1.00  0.00     0.031 C 
ATOM     22  C   UNL A   1      39.599  26.405  28.299  1.00  0.00     0.029 A 
ATOM     23  C   UNL A   1      40.493  27.454  28.773  1.00  0.00     0.049 A 
ATOM     24  H   UNL A   1      42.555  27.341  29.049  1.00  0.00     0.167 HD
ATOM     25  C   UNL A   1      46.889  26.980  29.497  1.00  0.00     0.037 A 
ATOM     26  C   UNL A   1      40.111  28.695  29.125  1.00  0.00     0.037 A 
ATOM     27  C   UNL A   1      46.581  28.344  29.850  1.00  0.00     0.049 A 
ATOM     28  C   UNL A   1      41.150  29.673  29.594  1.00  0.00     0.074 A 
ATOM     29  C   UNL A   1      47.449  29.353  30.233  1.00  0.00     0.029 A 
ATOM     30  N   UNL A   1      45.305  28.889  29.869  1.00  0.00    -0.354 N 
ATOM     31  N   UNL A   1      42.447  29.517  29.693  1.00  0.00    -0.248 NA
ATOM     32  C   UNL A   1      40.668  31.000  29.997  1.00  0.00     0.031 C 
ATOM     33  C   UNL A   1      46.693  30.489  30.541  1.00  0.00     0.029 A 
ATOM     34  C   UNL A   1      45.361  30.211  30.285  1.00  0.00     0.049 A 
ATOM     35  H   UNL A   1      44.482  28.408  29.626  1.00  0.00     0.167 HD
ATOM     36  C   UNL A   1      42.942  30.735  30.138  1.00  0.00     0.074 A 
ATOM     37  C   UNL A   1      41.804  31.622  30.274  1.00  0.00     0.031 C 
ATOM     38  C   UNL A   1      44.223  31.088  30.408  1.00  0.00     0.037 A 
BRANCH  25  39
ATOM     39  C   UNL A   1      48.318  26.526  29.608  1.00  0.00     0.057 A 
ATOM     40  C   UNL A   1      49.243  26.710  28.572  1.00  0.00     0.134 A 
ATOM     41  C   UNL A   1      48.785  25.928  30.787  1.00  0.00     0.134 A 
ATOM     42  F   UNL A   1      48.864  27.266  27.411  1.00  0.00    -0.206 F 
ATOM     43  C   UNL A   1      50.571  26.293  28.694  1.00  0.00     0.040 A 
ATOM     44  C   UNL A   1      50.116  25.534  30.932  1.00  0.00     0.040 A 
ATOM     45  F   UNL A   1      47.957  25.729  31.824  1.00  0.00    -0.206 F 
ATOM     46  C   UNL A   1      51.012  25.710  29.880  1.00  0.00     0.006 A 
ENDBRANCH  25  39
BRANCH  26  47
ATOM     47  C   UNL A   1      38.680  29.083  29.041  1.00  0.00     0.057 A 
ATOM     48  C   UNL A   1      38.124  29.544  27.843  1.00  0.00     0.134 A 
ATOM     49  C   UNL A   1      37.837  29.009  30.157  1.00  0.00     0.134 A 
ATOM     50  F   UNL A   1      38.883  29.652  26.742  1.00  0.00    -0.206 F 
ATOM     51  C   UNL A   1      36.787  29.940  27.763  1.00  0.00     0.040 A 
ATOM     52  C   UNL A   1      36.492  29.372  30.084  1.00  0.00     0.040 A 
ATOM     53  F   UNL A   1      38.306  28.565  31.333  1.00  0.00    -0.206 F 
ATOM     54  C   UNL A   1      35.967  29.849  28.885  1.00  0.00     0.006 A 
ENDBRANCH  26  47
BRANCH  38  55
ATOM     55  C   UNL A   1      44.467  32.511  30.822  1.00  0.00     0.057 A 
ATOM     56  C   UNL A   1      44.702  33.531  29.891  1.00  0.00     0.134 A 
ATOM     57  C   UNL A   1      44.456  32.864  32.178  1.00  0.00     0.134 A 
ATOM     58  F   UNL A   1      44.740  33.258  28.578  1.00  0.00    -0.206 F 
ATOM     59  C   UNL A   1      44.952  34.844  30.295  1.00  0.00     0.040 A 
ATOM     60  C   UNL A   1      44.671  34.180  32.591  1.00  0.00     0.040 A 
ATOM     61  F   UNL A   1      44.228  31.939  33.122  1.00  0.00    -0.206 F 
ATOM     62  C   UNL A   1      44.930  35.172  31.649  1.00  0.00     0.006 A 
ENDBRANCH  38  55
ENDBRANCH  12  13
ENDBRANCH   5   7
ENDBRANCH   2   3
ENDBRANCH   1   2
BRANCH   1  63
ATOM     63  C   UNL A   1      36.404  20.563  25.042  1.00  0.00     0.117 C 
BRANCH  63  64
ATOM     64  N   UNL A   1      36.558  21.924  25.529  1.00  0.00    -0.356 N 
ATOM     65  C   UNL A   1      35.659  22.916  25.749  1.00  0.00     0.225 C 
ATOM     66  H   UNL A   1      37.488  22.172  25.738  1.00  0.00     0.163 HD
ATOM     67  O   UNL A   1      36.113  24.023  26.051  1.00  0.00    -0.275 OA
BRANCH  65  68
ATOM     68  C   UNL A   1      34.163  22.695  25.735  1.00  0.00     0.107 C 
ATOM     69  C   UNL A   1      33.433  22.601  27.068  1.00  0.00     0.115 C 
ATOM     70  C   UNL A   1      33.486  23.812  24.967  1.00  0.00     0.133 C 
ATOM     71  C   UNL A   1      32.139  23.342  26.832  1.00  0.00     0.223 C 
ATOM     72  N   UNL A   1      32.216  23.992  25.616  1.00  0.00    -0.338 N 
ATOM     73  O   UNL A   1      31.195  23.355  27.607  1.00  0.00    -0.275 OA
BRANCH  72  74
ATOM     74  C   UNL A   1      31.142  24.781  25.029  1.00  0.00     0.155 C 
BRANCH  74  75
ATOM     75  C   UNL A   1      31.307  26.274  25.224  1.00  0.00    -0.026 A 
ATOM     76  C   UNL A   1      30.794  27.180  24.282  1.00  0.00     0.006 A 
ATOM     77  C   UNL A   1      31.960  26.764  26.368  1.00  0.00     0.032 A 
ATOM     78  C   UNL A   1      30.974  28.561  24.418  1.00  0.00     0.010 A 
ATOM     79  C   UNL A   1      32.093  28.152  26.512  1.00  0.00     0.046 A 
ATOM     80  C   UNL A   1      31.633  29.057  25.555  1.00  0.00    -0.001 A 
ATOM     81  N   UNL A   1      32.648  28.894  27.531  1.00  0.00    -0.361 N 
ATOM     82  C   UNL A   1      31.971  30.361  26.010  1.00  0.00     0.028 A 
ATOM     83  C   UNL A   1      32.586  30.230  27.233  1.00  0.00     0.083 A 
ATOM     84  H   UNL A   1      33.035  28.518  28.354  1.00  0.00     0.166 HD
ENDBRANCH  74  75
ENDBRANCH  72  74
ENDBRANCH  65  68
ENDBRANCH  63  64
ENDBRANCH   1  63
TORSDOF 12
ENDMDL
MODEL 3
REMARK VINA RESULT:     -12.5      6.243     10.991
REMARK SMILES O=C(NCCCNC(=O)[C@H]1CC(=O)N(Cc2ccc3cc[nH]c3c2)C1)c1ccc(-c2c3nc(c(-c4c(F)cccc4F)c4ccc([nH]4)c(-c4c(F)cccc4F)c4nc(c(-c5c(F)cccc5F)c5ccc2[nH]5)C=C4)C=C3)cc1
REMARK SMILES IDX 5 1 4 2 3 3 1 4 2 5 26 7 27 8 79 9 28 10 78 11 29 12 30 13
REMARK SMILES IDX 31 14 72 15 32 16 77 17 71 18 73 19 33 20 76 21 70 22 69 23
REMARK SMILES IDX 34 25 60 26 43 27 59 28 44 29 47 30 58 31 74 32 45 33 46 34
REMARK SMILES IDX 57 36 75 37 48 38 35 39 36 40 41 41 37 42 38 43 40 44 42 45
REMARK SMILES IDX 39 46 61 47 62 48 67 49 63 50 64 51 66 52 68 53 65 54 49 55
REMARK SMILES IDX 50 56 55 57 51 58 52 59 54 60 56 61 53 62 6 63 7 64 8 65
REMARK SMILES IDX 9 67 10 68 11 69 25 70 12 71 14 72 13 73 15 74 16 75 17 76
REMARK SMILES IDX 24 77 18 78 23 79 19 80 22 81 20 82 21 83
REMARK H PARENT 3 6 73 24 47 35 7 66 22 84
REMARK Flexibility Score: inf
ROOT
ATOM      1  C   UNL A   1      31.518  32.086  26.812  1.00  0.00     0.042 C 
ENDROOT
BRANCH   1   2
ATOM      2  C   UNL A   1      32.780  32.891  27.096  1.00  0.00     0.118 C 
BRANCH   2   3
ATOM      3  N   UNL A   1      32.498  34.214  27.638  1.00  0.00    -0.352 N 
ATOM      4  O   UNL A   1      32.568  35.915  29.114  1.00  0.00    -0.269 OA
ATOM      5  C   UNL A   1      33.065  34.871  28.704  1.00  0.00     0.251 C 
ATOM      6  H   UNL A   1      31.792  34.714  27.169  1.00  0.00     0.163 HD
BRANCH   5   7
ATOM      7  C   UNL A   1      34.256  34.307  29.376  1.00  0.00     0.039 A 
ATOM      8  C   UNL A   1      35.538  34.566  28.889  1.00  0.00     0.014 A 
ATOM      9  C   UNL A   1      34.089  33.507  30.510  1.00  0.00     0.014 A 
ATOM     10  C   UNL A   1      36.624  33.875  29.410  1.00  0.00     0.010 A 
ATOM     11  C   UNL A   1      35.200  32.901  31.103  1.00  0.00     0.010 A 
ATOM     12  C   UNL A   1      36.472  33.040  30.529  1.00  0.00    -0.014 A 
BRANCH  12  13
ATOM     13  C   UNL A   1      37.668  32.353  31.085  1.00  0.00     0.031 A 
ATOM     14  C   UNL A   1      38.176  32.667  32.467  1.00  0.00     0.074 A 
ATOM     15  C   UNL A   1      38.270  31.399  30.347  1.00  0.00     0.049 A 
ATOM     16  N   UNL A   1      39.171  32.122  33.123  1.00  0.00    -0.248 NA
ATOM     17  C   UNL A   1      37.489  33.736  33.207  1.00  0.00     0.031 C 
ATOM     18  C   UNL A   1      37.877  31.011  28.990  1.00  0.00     0.029 A 
ATOM     19  N   UNL A   1      39.318  30.564  30.640  1.00  0.00    -0.354 N 
ATOM     20  C   UNL A   1      39.241  32.793  34.338  1.00  0.00     0.074 A 
ATOM     21  C   UNL A   1      38.210  33.808  34.316  1.00  0.00     0.031 C 
ATOM     22  C   UNL A   1      38.631  29.977  28.592  1.00  0.00     0.029 A 
ATOM     23  C   UNL A   1      39.605  29.674  29.634  1.00  0.00     0.049 A 
ATOM     24  H   UNL A   1      39.816  30.599  31.488  1.00  0.00     0.167 HD
ATOM     25  C   UNL A   1      40.082  32.576  35.379  1.00  0.00     0.037 A 
ATOM     26  C   UNL A   1      40.554  28.724  29.551  1.00  0.00     0.037 A 
ATOM     27  C   UNL A   1      41.099  31.553  35.400  1.00  0.00     0.049 A 
ATOM     28  C   UNL A   1      41.489  28.524  30.709  1.00  0.00     0.074 A 
ATOM     29  C   UNL A   1      41.974  31.229  36.423  1.00  0.00     0.029 A 
ATOM     30  N   UNL A   1      41.381  30.695  34.348  1.00  0.00    -0.354 N 
ATOM     31  N   UNL A   1      41.513  29.137  31.867  1.00  0.00    -0.248 NA
ATOM     32  C   UNL A   1      42.526  27.498  30.548  1.00  0.00     0.031 C 
ATOM     33  C   UNL A   1      42.823  30.215  35.968  1.00  0.00     0.029 A 
ATOM     34  C   UNL A   1      42.436  29.860  34.687  1.00  0.00     0.049 A 
ATOM     35  H   UNL A   1      40.905  30.681  33.486  1.00  0.00     0.167 HD
ATOM     36  C   UNL A   1      42.546  28.549  32.585  1.00  0.00     0.074 A 
ATOM     37  C   UNL A   1      43.110  27.520  31.736  1.00  0.00     0.031 C 
ATOM     38  C   UNL A   1      42.984  28.833  33.837  1.00  0.00     0.037 A 
BRANCH  25  39
ATOM     39  C   UNL A   1      39.961  33.479  36.575  1.00  0.00     0.057 A 
ATOM     40  C   UNL A   1      40.678  34.678  36.683  1.00  0.00     0.134 A 
ATOM     41  C   UNL A   1      39.082  33.161  37.620  1.00  0.00     0.134 A 
ATOM     42  F   UNL A   1      41.545  35.041  35.725  1.00  0.00    -0.206 F 
ATOM     43  C   UNL A   1      40.546  35.512  37.796  1.00  0.00     0.040 A 
ATOM     44  C   UNL A   1      38.919  34.001  38.723  1.00  0.00     0.040 A 
ATOM     45  F   UNL A   1      38.355  32.033  37.579  1.00  0.00    -0.206 F 
ATOM     46  C   UNL A   1      39.658  35.177  38.816  1.00  0.00     0.006 A 
ENDBRANCH  25  39
BRANCH  26  47
ATOM     47  C   UNL A   1      40.664  27.887  28.329  1.00  0.00     0.057 A 
ATOM     48  C   UNL A   1      40.021  26.648  28.240  1.00  0.00     0.134 A 
ATOM     49  C   UNL A   1      41.418  28.304  27.225  1.00  0.00     0.134 A 
ATOM     50  F   UNL A   1      39.295  26.187  29.270  1.00  0.00    -0.206 F 
ATOM     51  C   UNL A   1      40.143  25.841  27.108  1.00  0.00     0.040 A 
ATOM     52  C   UNL A   1      41.523  27.522  26.074  1.00  0.00     0.040 A 
ATOM     53  F   UNL A   1      42.050  29.486  27.242  1.00  0.00    -0.206 F 
ATOM     54  C   UNL A   1      40.892  26.281  26.019  1.00  0.00     0.006 A 
ENDBRANCH  26  47
BRANCH  38  55
ATOM     55  C   UNL A   1      44.094  27.980  34.382  1.00  0.00     0.057 A 
ATOM     56  C   UNL A   1      45.441  28.353  34.283  1.00  0.00     0.134 A 
ATOM     57  C   UNL A   1      43.804  26.770  35.027  1.00  0.00     0.134 A 
ATOM     58  F   UNL A   1      45.788  29.492  33.665  1.00  0.00    -0.206 F 
ATOM     59  C   UNL A   1      46.461  27.535  34.773  1.00  0.00     0.040 A 
ATOM     60  C   UNL A   1      44.814  25.962  35.550  1.00  0.00     0.040 A 
ATOM     61  F   UNL A   1      42.535  26.358  35.165  1.00  0.00    -0.206 F 
ATOM     62  C   UNL A   1      46.147  26.339  35.415  1.00  0.00     0.006 A 
ENDBRANCH  38  55
ENDBRANCH  12  13
ENDBRANCH   5   7
ENDBRANCH   2   3
ENDBRANCH   1   2
BRANCH   1  63
ATOM     63  C   UNL A   1      31.743  30.578  26.835  1.00  0.00     0.117 C 
BRANCH  63  64
ATOM     64  N   UNL A   1      33.157  30.272  26.979  1.00  0.00    -0.356 N 
ATOM     65  C   UNL A   1      33.849  29.110  26.871  1.00  0.00     0.225 C 
ATOM     66  H   UNL A   1      33.717  31.053  27.194  1.00  0.00     0.163 HD
ATOM     67  O   UNL A   1      35.044  29.142  27.176  1.00  0.00    -0.275 OA
BRANCH  65  68
ATOM     68  C   UNL A   1      33.249  27.839  26.312  1.00  0.00     0.107 C 
ATOM     69  C   UNL A   1      32.147  27.149  27.103  1.00  0.00     0.115 C 
ATOM     70  C   UNL A   1      32.671  28.106  24.937  1.00  0.00     0.133 C 
ATOM     71  C   UNL A   1      31.177  26.674  26.048  1.00  0.00     0.223 C 
ATOM     72  N   UNL A   1      31.536  27.229  24.835  1.00  0.00    -0.338 N 
ATOM     73  O   UNL A   1      30.234  25.926  26.257  1.00  0.00    -0.275 OA
BRANCH  72  74
ATOM     74  C   UNL A   1      30.856  26.972  23.573  1.00  0.00     0.155 C 
BRANCH  74  75
ATOM     75  C   UNL A   1      29.878  28.057  23.176  1.00  0.00    -0.026 A 
ATOM     76  C   UNL A   1      28.504  27.909  23.423  1.00  0.00     0.006 A 
ATOM     77  C   UNL A   1      30.346  29.236  22.571  1.00  0.00     0.032 A 
ATOM     78  C   UNL A   1      27.577  28.878  23.024  1.00  0.00     0.010 A 
ATOM     79  C   UNL A   1      29.410  30.217  22.218  1.00  0.00     0.046 A 
ATOM     80  C   UNL A   1      28.038  30.055  22.413  1.00  0.00    -0.001 A 
ATOM     81  N   UNL A   1      29.590  31.461  21.653  1.00  0.00    -0.361 N 
ATOM     82  C   UNL A   1      27.399  31.220  21.905  1.00  0.00     0.028 A 
ATOM     83  C   UNL A   1      28.380  32.071  21.453  1.00  0.00     0.083 A 
ATOM     84  H   UNL A   1      30.463  31.853  21.425  1.00  0.00     0.166 HD
ENDBRANCH  74  75
ENDBRANCH  72  74
ENDBRANCH  65  68
ENDBRANCH  63  64
ENDBRANCH   1  63
TORSDOF 12
ENDMDL
