MODEL 1
REMARK VINA RESULT:     -12.2      0.000      0.000
REMARK SMILES CC[C@H](NC(=O)Cc1c(C)c2cc(Cl)c(OC)cc2oc1=O)C(=O)NCCCNC(=O)c1ccc(-c2c3nc(c(-c4c(F)cccc4F)c4ccc([nH]4)c(-c4c(F)cccc4F)c4nc(c(-c5c(F)cccc5F)c5ccc2[nH]5)C=C4)C=C3)cc1
REMARK SMILES IDX 26 1 25 2 23 3 24 4 3 6 2 7 1 8 4 9 5 10 6 12 7 13 8 14 9 15
REMARK SMILES IDX 21 16 10 17 11 18 20 19 22 20 12 21 19 22 13 23 18 24 14 25
REMARK SMILES IDX 15 26 16 27 17 28 27 29 28 30 29 31 30 32 31 34 32 35 33 36
REMARK SMILES IDX 85 37 34 38 84 39 35 40 36 41 37 42 78 43 38 44 83 45 77 46
REMARK SMILES IDX 79 47 39 48 82 49 76 50 75 51 40 53 66 54 49 55 65 56 50 57
REMARK SMILES IDX 53 58 64 59 80 60 51 61 52 62 63 64 81 65 54 66 41 67 42 68
REMARK SMILES IDX 47 69 43 70 44 71 46 72 48 73 45 74 67 75 68 76 73 77 69 78
REMARK SMILES IDX 70 79 72 80 74 81 71 82 55 83 56 84 61 85 57 86 58 87 60 88
REMARK SMILES IDX 62 89 59 90
REMARK H PARENT 25 5 4 11 29 33 79 52 53 63
REMARK Flexibility Score: inf
ROOT
ATOM      1  C   UNL A   1      36.135  21.254  25.267  1.00  0.00     0.117 C 
ENDROOT
BRANCH   1   2
ATOM      2  N   UNL A   1      35.048  20.325  25.527  1.00  0.00    -0.354 N 
ATOM      3  C   UNL A   1      33.697  20.509  25.498  1.00  0.00     0.242 C 
ATOM      4  O   UNL A   1      32.976  19.541  25.752  1.00  0.00    -0.273 OA
ATOM      5  H   UNL A   1      35.334  19.413  25.764  1.00  0.00     0.163 HD
BRANCH   3   6
ATOM      6  C   UNL A   1      33.079  21.862  25.099  1.00  0.00     0.171 C 
BRANCH   6   7
ATOM      7  C   UNL A   1      31.886  22.207  26.007  1.00  0.00     0.031 C 
ATOM      8  C   UNL A   1      31.022  23.350  25.494  1.00  0.00     0.006 C 
ENDBRANCH   6   7
BRANCH   6   9
ATOM      9  N   UNL A   1      32.765  21.859  23.673  1.00  0.00    -0.344 N 
ATOM     10  C   UNL A   1      33.187  22.712  22.696  1.00  0.00     0.225 C 
ATOM     11  H   UNL A   1      32.163  21.140  23.375  1.00  0.00     0.164 HD
ATOM     12  O   UNL A   1      32.862  22.460  21.534  1.00  0.00    -0.275 OA
BRANCH  10  13
ATOM     13  C   UNL A   1      34.133  23.876  23.011  1.00  0.00     0.143 C 
BRANCH  13  14
ATOM     14  C   UNL A   1      33.579  25.280  23.145  1.00  0.00     0.051 A 
ATOM     15  C   UNL A   1      33.523  25.929  24.333  1.00  0.00    -0.029 A 
ATOM     16  C   UNL A   1      33.076  25.932  21.905  1.00  0.00     0.340 A 
ATOM     17  C   UNL A   1      34.134  25.397  25.608  1.00  0.00     0.046 C 
ATOM     18  C   UNL A   1      32.800  27.214  24.420  1.00  0.00     0.023 A 
ATOM     19  O   UNL A   1      32.236  27.021  22.063  1.00  0.00    -0.422 OA
ATOM     20  O   UNL A   1      33.333  25.511  20.785  1.00  0.00    -0.246 OA
ATOM     21  C   UNL A   1      32.684  27.975  25.591  1.00  0.00     0.036 A 
ATOM     22  C   UNL A   1      32.126  27.678  23.297  1.00  0.00     0.142 A 
ATOM     23  C   UNL A   1      31.893  29.134  25.620  1.00  0.00     0.083 A 
ATOM     24  C   UNL A   1      31.322  28.822  23.309  1.00  0.00     0.095 A 
ATOM     25  Cl  UNL A   1      31.801  30.008  27.112  1.00  0.00    -0.080 Cl
ATOM     26  C   UNL A   1      31.186  29.559  24.485  1.00  0.00     0.141 A 
BRANCH  26  27
ATOM     27  O   UNL A   1      30.416  30.684  24.611  1.00  0.00    -0.495 OA
ATOM     28  C   UNL A   1      29.289  30.806  23.752  1.00  0.00     0.278 C 
ENDBRANCH  26  27
ENDBRANCH  13  14
ENDBRANCH  10  13
ENDBRANCH   6   9
ENDBRANCH   3   6
ENDBRANCH   1   2
BRANCH   1  29
ATOM     29  C   UNL A   1      37.404  20.556  24.806  1.00  0.00     0.042 C 
BRANCH  29  30
ATOM     30  C   UNL A   1      38.611  20.819  25.694  1.00  0.00     0.118 C 
BRANCH  30  31
ATOM     31  N   UNL A   1      39.613  19.760  25.637  1.00  0.00    -0.352 N 
ATOM     32  C   UNL A   1      40.953  19.783  25.949  1.00  0.00     0.251 C 
ATOM     33  H   UNL A   1      39.278  18.889  25.325  1.00  0.00     0.163 HD
ATOM     34  O   UNL A   1      41.658  18.813  25.684  1.00  0.00    -0.269 OA
BRANCH  32  35
ATOM     35  C   UNL A   1      41.553  20.986  26.563  1.00  0.00     0.039 A 
ATOM     36  C   UNL A   1      41.577  21.139  27.949  1.00  0.00     0.014 A 
ATOM     37  C   UNL A   1      42.077  21.989  25.741  1.00  0.00     0.014 A 
ATOM     38  C   UNL A   1      41.907  22.372  28.495  1.00  0.00     0.010 A 
ATOM     39  C   UNL A   1      42.516  23.190  26.304  1.00  0.00     0.010 A 
ATOM     40  C   UNL A   1      42.370  23.418  27.681  1.00  0.00    -0.014 A 
BRANCH  40  41
ATOM     41  C   UNL A   1      42.656  24.739  28.302  1.00  0.00     0.031 A 
ATOM     42  C   UNL A   1      44.069  25.145  28.638  1.00  0.00     0.074 A 
ATOM     43  C   UNL A   1      41.647  25.615  28.475  1.00  0.00     0.049 A 
ATOM     44  N   UNL A   1      44.508  26.284  29.116  1.00  0.00    -0.248 NA
ATOM     45  C   UNL A   1      45.124  24.146  28.416  1.00  0.00     0.031 C 
ATOM     46  C   UNL A   1      40.237  25.344  28.189  1.00  0.00     0.029 A 
ATOM     47  N   UNL A   1      41.657  26.919  28.896  1.00  0.00    -0.354 N 
ATOM     48  C   UNL A   1      45.882  26.131  29.266  1.00  0.00     0.074 A 
ATOM     49  C   UNL A   1      46.199  24.778  28.865  1.00  0.00     0.031 C 
ATOM     50  C   UNL A   1      39.528  26.467  28.374  1.00  0.00     0.029 A 
ATOM     51  C   UNL A   1      40.421  27.517  28.850  1.00  0.00     0.049 A 
ATOM     52  H   UNL A   1      42.470  27.383  29.199  1.00  0.00     0.167 HD
ATOM     53  C   UNL A   1      46.799  27.038  29.682  1.00  0.00     0.037 A 
ATOM     54  C   UNL A   1      40.044  28.770  29.160  1.00  0.00     0.037 A 
ATOM     55  C   UNL A   1      46.490  28.392  30.063  1.00  0.00     0.049 A 
ATOM     56  C   UNL A   1      41.078  29.748  29.638  1.00  0.00     0.074 A 
ATOM     57  C   UNL A   1      47.350  29.386  30.497  1.00  0.00     0.029 A 
ATOM     58  N   UNL A   1      45.218  28.944  30.048  1.00  0.00    -0.354 N 
ATOM     59  N   UNL A   1      42.372  29.585  29.773  1.00  0.00    -0.248 NA
ATOM     60  C   UNL A   1      40.595  31.085  30.009  1.00  0.00     0.031 C 
ATOM     61  C   UNL A   1      46.593  30.531  30.775  1.00  0.00     0.029 A 
ATOM     62  C   UNL A   1      45.267  30.262  30.474  1.00  0.00     0.049 A 
ATOM     63  H   UNL A   1      44.401  28.470  29.774  1.00  0.00     0.167 HD
ATOM     64  C   UNL A   1      42.859  30.799  30.236  1.00  0.00     0.074 A 
ATOM     65  C   UNL A   1      41.726  31.697  30.327  1.00  0.00     0.031 C 
ATOM     66  C   UNL A   1      44.130  31.139  30.566  1.00  0.00     0.037 A 
BRANCH  53  67
ATOM     67  C   UNL A   1      48.229  26.584  29.755  1.00  0.00     0.057 A 
ATOM     68  C   UNL A   1      49.101  26.786  28.678  1.00  0.00     0.134 A 
ATOM     69  C   UNL A   1      48.741  25.931  30.884  1.00  0.00     0.134 A 
ATOM     70  F   UNL A   1      48.676  27.400  27.563  1.00  0.00    -0.206 F 
ATOM     71  C   UNL A   1      50.430  26.361  28.723  1.00  0.00     0.040 A 
ATOM     72  C   UNL A   1      50.075  25.523  30.951  1.00  0.00     0.040 A 
ATOM     73  F   UNL A   1      47.963  25.719  31.957  1.00  0.00    -0.206 F 
ATOM     74  C   UNL A   1      50.922  25.734  29.866  1.00  0.00     0.006 A 
ENDBRANCH  53  67
BRANCH  54  75
ATOM     75  C   UNL A   1      38.622  29.173  29.035  1.00  0.00     0.057 A 
ATOM     76  C   UNL A   1      37.759  29.142  30.136  1.00  0.00     0.134 A 
ATOM     77  C   UNL A   1      38.097  29.613  27.815  1.00  0.00     0.134 A 
ATOM     78  F   UNL A   1      38.199  28.723  31.332  1.00  0.00    -0.206 F 
ATOM     79  C   UNL A   1      36.422  29.526  30.028  1.00  0.00     0.040 A 
ATOM     80  C   UNL A   1      36.770  30.027  27.698  1.00  0.00     0.040 A 
ATOM     81  F   UNL A   1      38.882  29.682  26.728  1.00  0.00    -0.206 F 
ATOM     82  C   UNL A   1      35.927  29.979  28.807  1.00  0.00     0.006 A 
ENDBRANCH  54  75
BRANCH  66  83
ATOM     83  C   UNL A   1      44.347  32.546  31.036  1.00  0.00     0.057 A 
ATOM     84  C   UNL A   1      44.615  33.571  30.121  1.00  0.00     0.134 A 
ATOM     85  C   UNL A   1      44.273  32.890  32.392  1.00  0.00     0.134 A 
ATOM     86  F   UNL A   1      44.704  33.308  28.808  1.00  0.00    -0.206 F 
ATOM     87  C   UNL A   1      44.792  34.891  30.536  1.00  0.00     0.040 A 
ATOM     88  C   UNL A   1      44.422  34.211  32.817  1.00  0.00     0.040 A 
ATOM     89  F   UNL A   1      44.001  31.956  33.316  1.00  0.00    -0.206 F 
ATOM     90  C   UNL A   1      44.685  35.215  31.888  1.00  0.00     0.006 A 
ENDBRANCH  66  83
ENDBRANCH  40  41
ENDBRANCH  32  35
ENDBRANCH  30  31
ENDBRANCH  29  30
ENDBRANCH   1  29
TORSDOF 15
ENDMDL
MODEL 2
REMARK VINA RESULT:     -12.0      3.395      8.787
REMARK SMILES CC[C@H](NC(=O)Cc1c(C)c2cc(Cl)c(OC)cc2oc1=O)C(=O)NCCCNC(=O)c1ccc(-c2c3nc(c(-c4c(F)cccc4F)c4ccc([nH]4)c(-c4c(F)cccc4F)c4nc(c(-c5c(F)cccc5F)c5ccc2[nH]5)C=C4)C=C3)cc1
REMARK SMILES IDX 26 1 25 2 23 3 24 4 3 6 2 7 1 8 4 9 5 10 6 12 7 13 8 14 9 15
REMARK SMILES IDX 21 16 10 17 11 18 20 19 22 20 12 21 19 22 13 23 18 24 14 25
REMARK SMILES IDX 15 26 16 27 17 28 27 29 28 30 29 31 30 32 31 34 32 35 33 36
REMARK SMILES IDX 85 37 34 38 84 39 35 40 36 41 37 42 78 43 38 44 83 45 77 46
REMARK SMILES IDX 79 47 39 48 82 49 76 50 75 51 40 53 66 54 49 55 65 56 50 57
REMARK SMILES IDX 53 58 64 59 80 60 51 61 52 62 63 64 81 65 54 66 41 67 42 68
REMARK SMILES IDX 47 69 43 70 44 71 46 72 48 73 45 74 67 75 68 76 73 77 69 78
REMARK SMILES IDX 70 79 72 80 74 81 71 82 55 83 56 84 61 85 57 86 58 87 60 88
REMARK SMILES IDX 62 89 59 90
REMARK H PARENT 25 5 4 11 29 33 79 52 53 63
REMARK Flexibility Score: inf
ROOT
ATOM      1  C   UNL A   1      32.023  29.518  25.447  1.00  0.00     0.117 C 
ENDROOT
BRANCH   1   2
ATOM      2  N   UNL A   1      31.445  29.731  24.131  1.00  0.00    -0.354 N 
ATOM      3  C   UNL A   1      31.115  28.840  23.152  1.00  0.00     0.242 C 
ATOM      4  O   UNL A   1      30.620  29.282  22.112  1.00  0.00    -0.273 OA
ATOM      5  H   UNL A   1      31.263  30.673  23.909  1.00  0.00     0.163 HD
BRANCH   3   6
ATOM      6  C   UNL A   1      31.289  27.324  23.353  1.00  0.00     0.171 C 
BRANCH   6   7
ATOM      7  C   UNL A   1      31.671  26.637  22.030  1.00  0.00     0.031 C 
ATOM      8  C   UNL A   1      32.213  25.225  22.195  1.00  0.00     0.006 C 
ENDBRANCH   6   7
BRANCH   6   9
ATOM      9  N   UNL A   1      30.099  26.771  23.993  1.00  0.00    -0.344 N 
ATOM     10  C   UNL A   1      29.976  26.170  25.212  1.00  0.00     0.225 C 
ATOM     11  H   UNL A   1      29.268  26.842  23.471  1.00  0.00     0.164 HD
ATOM     12  O   UNL A   1      28.844  25.859  25.587  1.00  0.00    -0.275 OA
BRANCH  10  13
ATOM     13  C   UNL A   1      31.185  25.996  26.138  1.00  0.00     0.143 C 
BRANCH  13  14
ATOM     14  C   UNL A   1      31.959  24.694  26.126  1.00  0.00     0.051 A 
ATOM     15  C   UNL A   1      33.233  24.609  25.670  1.00  0.00    -0.029 A 
ATOM     16  C   UNL A   1      31.256  23.480  26.628  1.00  0.00     0.340 A 
ATOM     17  C   UNL A   1      34.062  25.808  25.274  1.00  0.00     0.046 C 
ATOM     18  C   UNL A   1      33.857  23.280  25.512  1.00  0.00     0.023 A 
ATOM     19  O   UNL A   1      31.788  22.254  26.274  1.00  0.00    -0.422 OA
ATOM     20  O   UNL A   1      30.223  23.539  27.280  1.00  0.00    -0.246 OA
ATOM     21  C   UNL A   1      35.166  23.072  25.059  1.00  0.00     0.036 A 
ATOM     22  C   UNL A   1      33.087  22.148  25.756  1.00  0.00     0.142 A 
ATOM     23  C   UNL A   1      35.654  21.776  24.836  1.00  0.00     0.083 A 
ATOM     24  C   UNL A   1      33.550  20.849  25.527  1.00  0.00     0.095 A 
ATOM     25  Cl  UNL A   1      37.282  21.615  24.269  1.00  0.00    -0.080 Cl
ATOM     26  C   UNL A   1      34.843  20.650  25.047  1.00  0.00     0.141 A 
BRANCH  26  27
ATOM     27  O   UNL A   1      35.390  19.424  24.776  1.00  0.00    -0.495 OA
ATOM     28  C   UNL A   1      34.495  18.351  24.514  1.00  0.00     0.278 C 
ENDBRANCH  26  27
ENDBRANCH  13  14
ENDBRANCH  10  13
ENDBRANCH   6   9
ENDBRANCH   3   6
ENDBRANCH   1   2
BRANCH   1  29
ATOM     29  C   UNL A   1      31.609  30.585  26.448  1.00  0.00     0.042 C 
BRANCH  29  30
ATOM     30  C   UNL A   1      32.764  31.434  26.959  1.00  0.00     0.118 C 
BRANCH  30  31
ATOM     31  N   UNL A   1      32.371  32.795  27.308  1.00  0.00    -0.352 N 
ATOM     32  C   UNL A   1      32.991  33.723  28.112  1.00  0.00     0.251 C 
ATOM     33  H   UNL A   1      31.526  33.098  26.904  1.00  0.00     0.163 HD
ATOM     34  O   UNL A   1      32.411  34.767  28.398  1.00  0.00    -0.269 OA
BRANCH  32  35
ATOM     35  C   UNL A   1      34.333  33.449  28.666  1.00  0.00     0.039 A 
ATOM     36  C   UNL A   1      35.480  33.847  27.978  1.00  0.00     0.014 A 
ATOM     37  C   UNL A   1      34.450  32.761  29.877  1.00  0.00     0.014 A 
ATOM     38  C   UNL A   1      36.719  33.364  28.377  1.00  0.00     0.010 A 
ATOM     39  C   UNL A   1      35.711  32.371  30.337  1.00  0.00     0.010 A 
ATOM     40  C   UNL A   1      36.851  32.611  29.555  1.00  0.00    -0.014 A 
BRANCH  40  41
ATOM     41  C   UNL A   1      38.188  32.065  29.911  1.00  0.00     0.031 A 
ATOM     42  C   UNL A   1      39.047  32.742  30.949  1.00  0.00     0.074 A 
ATOM     43  C   UNL A   1      38.588  30.900  29.366  1.00  0.00     0.049 A 
ATOM     44  N   UNL A   1      40.206  32.366  31.433  1.00  0.00    -0.248 NA
ATOM     45  C   UNL A   1      38.549  34.005  31.511  1.00  0.00     0.031 C 
ATOM     46  C   UNL A   1      37.848  30.146  28.352  1.00  0.00     0.029 A 
ATOM     47  N   UNL A   1      39.692  30.127  29.615  1.00  0.00    -0.354 N 
ATOM     48  C   UNL A   1      40.578  33.351  32.342  1.00  0.00     0.074 A 
ATOM     49  C   UNL A   1      39.543  34.360  32.312  1.00  0.00     0.031 C 
ATOM     50  C   UNL A   1      38.481  28.987  28.117  1.00  0.00     0.029 A 
ATOM     51  C   UNL A   1      39.701  28.945  28.915  1.00  0.00     0.049 A 
ATOM     52  H   UNL A   1      40.409  30.393  30.236  1.00  0.00     0.167 HD
ATOM     53  C   UNL A   1      41.672  33.403  33.140  1.00  0.00     0.037 A 
ATOM     54  C   UNL A   1      40.592  27.938  28.913  1.00  0.00     0.037 A 
ATOM     55  C   UNL A   1      42.695  32.390  33.187  1.00  0.00     0.049 A 
ATOM     56  C   UNL A   1      41.806  28.032  29.792  1.00  0.00     0.074 A 
ATOM     57  C   UNL A   1      43.841  32.352  33.962  1.00  0.00     0.029 A 
ATOM     58  N   UNL A   1      42.691  31.230  32.427  1.00  0.00    -0.354 N 
ATOM     59  N   UNL A   1      42.140  28.971  30.643  1.00  0.00    -0.248 NA
ATOM     60  C   UNL A   1      42.766  26.924  29.706  1.00  0.00     0.031 C 
ATOM     61  C   UNL A   1      44.545  31.184  33.649  1.00  0.00     0.029 A 
ATOM     62  C   UNL A   1      43.818  30.474  32.708  1.00  0.00     0.049 A 
ATOM     63  H   UNL A   1      41.989  30.980  31.783  1.00  0.00     0.167 HD
ATOM     64  C   UNL A   1      43.345  28.564  31.200  1.00  0.00     0.074 A 
ATOM     65  C   UNL A   1      43.664  27.279  30.613  1.00  0.00     0.031 C 
ATOM     66  C   UNL A   1      44.123  29.201  32.109  1.00  0.00     0.037 A 
BRANCH  53  67
ATOM     67  C   UNL A   1      41.820  34.609  34.024  1.00  0.00     0.057 A 
ATOM     68  C   UNL A   1      42.445  35.770  33.554  1.00  0.00     0.134 A 
ATOM     69  C   UNL A   1      41.358  34.616  35.347  1.00  0.00     0.134 A 
ATOM     70  F   UNL A   1      42.917  35.830  32.298  1.00  0.00    -0.206 F 
ATOM     71  C   UNL A   1      42.602  36.896  34.364  1.00  0.00     0.040 A 
ATOM     72  C   UNL A   1      41.487  35.745  36.160  1.00  0.00     0.040 A 
ATOM     73  F   UNL A   1      40.736  33.541  35.855  1.00  0.00    -0.206 F 
ATOM     74  C   UNL A   1      42.115  36.887  35.670  1.00  0.00     0.006 A 
ENDBRANCH  53  67
BRANCH  54  75
ATOM     75  C   UNL A   1      40.376  26.754  28.045  1.00  0.00     0.057 A 
ATOM     76  C   UNL A   1      40.976  26.659  26.784  1.00  0.00     0.134 A 
ATOM     77  C   UNL A   1      39.577  25.685  28.462  1.00  0.00     0.134 A 
ATOM     78  F   UNL A   1      41.749  27.655  26.323  1.00  0.00    -0.206 F 
ATOM     79  C   UNL A   1      40.784  25.547  25.966  1.00  0.00     0.040 A 
ATOM     80  C   UNL A   1      39.398  24.553  27.666  1.00  0.00     0.040 A 
ATOM     81  F   UNL A   1      38.990  25.711  29.669  1.00  0.00    -0.206 F 
ATOM     82  C   UNL A   1      40.000  24.484  26.411  1.00  0.00     0.006 A 
ENDBRANCH  54  75
BRANCH  66  83
ATOM     83  C   UNL A   1      45.380  28.497  32.526  1.00  0.00     0.057 A 
ATOM     84  C   UNL A   1      45.374  27.606  33.606  1.00  0.00     0.134 A 
ATOM     85  C   UNL A   1      46.591  28.688  31.849  1.00  0.00     0.134 A 
ATOM     86  F   UNL A   1      44.248  27.382  34.300  1.00  0.00    -0.206 F 
ATOM     87  C   UNL A   1      46.527  26.921  33.991  1.00  0.00     0.040 A 
ATOM     88  C   UNL A   1      47.744  27.989  32.208  1.00  0.00     0.040 A 
ATOM     89  F   UNL A   1      46.657  29.516  30.796  1.00  0.00    -0.206 F 
ATOM     90  C   UNL A   1      47.714  27.104  33.284  1.00  0.00     0.006 A 
ENDBRANCH  66  83
ENDBRANCH  40  41
ENDBRANCH  32  35
ENDBRANCH  30  31
ENDBRANCH  29  30
ENDBRANCH   1  29
TORSDOF 15
ENDMDL
MODEL 3
REMARK VINA RESULT:     -11.8      2.435      3.807
REMARK SMILES CC[C@H](NC(=O)Cc1c(C)c2cc(Cl)c(OC)cc2oc1=O)C(=O)NCCCNC(=O)c1ccc(-c2c3nc(c(-c4c(F)cccc4F)c4ccc([nH]4)c(-c4c(F)cccc4F)c4nc(c(-c5c(F)cccc5F)c5ccc2[nH]5)C=C4)C=C3)cc1
REMARK SMILES IDX 26 1 25 2 23 3 24 4 3 6 2 7 1 8 4 9 5 10 6 12 7 13 8 14 9 15
REMARK SMILES IDX 21 16 10 17 11 18 20 19 22 20 12 21 19 22 13 23 18 24 14 25
REMARK SMILES IDX 15 26 16 27 17 28 27 29 28 30 29 31 30 32 31 34 32 35 33 36
REMARK SMILES IDX 85 37 34 38 84 39 35 40 36 41 37 42 78 43 38 44 83 45 77 46
REMARK SMILES IDX 79 47 39 48 82 49 76 50 75 51 40 53 66 54 49 55 65 56 50 57
REMARK SMILES IDX 53 58 64 59 80 60 51 61 52 62 63 64 81 65 54 66 41 67 42 68
REMARK SMILES IDX 47 69 43 70 44 71 46 72 48 73 45 74 67 75 68 76 73 77 69 78
REMARK SMILES IDX 70 79 72 80 74 81 71 82 55 83 56 84 61 85 57 86 58 87 60 88
REMARK SMILES IDX 62 89 59 90
REMARK H PARENT 25 5 4 11 29 33 79 52 53 63
REMARK Flexibility Score: inf
ROOT
ATOM      1  C   UNL A   1      34.669  23.088  24.466  1.00  0.00     0.117 C 
ENDROOT
BRANCH   1   2
ATOM      2  N   UNL A   1      34.399  23.088  23.038  1.00  0.00    -0.354 N 
ATOM      3  C   UNL A   1      33.333  23.571  22.337  1.00  0.00     0.242 C 
ATOM      4  O   UNL A   1      33.349  23.455  21.109  1.00  0.00    -0.273 OA
ATOM      5  H   UNL A   1      35.100  22.671  22.486  1.00  0.00     0.163 HD
BRANCH   3   6
ATOM      6  C   UNL A   1      32.171  24.297  23.039  1.00  0.00     0.171 C 
BRANCH   6   7
ATOM      7  C   UNL A   1      31.089  23.297  23.482  1.00  0.00     0.031 C 
ATOM      8  C   UNL A   1      31.008  23.092  24.987  1.00  0.00     0.006 C 
ENDBRANCH   6   7
BRANCH   6   9
ATOM      9  N   UNL A   1      31.678  25.376  22.189  1.00  0.00    -0.344 N 
ATOM     10  C   UNL A   1      31.056  26.538  22.544  1.00  0.00     0.225 C 
ATOM     11  H   UNL A   1      31.813  25.247  21.223  1.00  0.00     0.164 HD
ATOM     12  O   UNL A   1      30.807  27.351  21.651  1.00  0.00    -0.275 OA
BRANCH  10  13
ATOM     13  C   UNL A   1      30.786  26.878  24.013  1.00  0.00     0.143 C 
BRANCH  13  14
ATOM     14  C   UNL A   1      31.575  27.982  24.686  1.00  0.00     0.051 A 
ATOM     15  C   UNL A   1      32.727  27.746  25.359  1.00  0.00    -0.029 A 
ATOM     16  C   UNL A   1      31.025  29.363  24.595  1.00  0.00     0.340 A 
ATOM     17  C   UNL A   1      33.423  26.406  25.384  1.00  0.00     0.046 C 
ATOM     18  C   UNL A   1      33.340  28.835  26.147  1.00  0.00     0.023 A 
ATOM     19  O   UNL A   1      31.504  30.292  25.502  1.00  0.00    -0.422 OA
ATOM     20  O   UNL A   1      30.149  29.674  23.800  1.00  0.00    -0.246 OA
ATOM     21  C   UNL A   1      34.531  28.708  26.874  1.00  0.00     0.036 A 
ATOM     22  C   UNL A   1      32.668  30.048  26.244  1.00  0.00     0.142 A 
ATOM     23  C   UNL A   1      34.996  29.756  27.683  1.00  0.00     0.083 A 
ATOM     24  C   UNL A   1      33.107  31.099  27.054  1.00  0.00     0.095 A 
ATOM     25  Cl  UNL A   1      36.473  29.509  28.551  1.00  0.00    -0.080 Cl
ATOM     26  C   UNL A   1      34.278  30.956  27.799  1.00  0.00     0.141 A 
BRANCH  26  27
ATOM     27  O   UNL A   1      34.789  31.915  28.632  1.00  0.00    -0.495 OA
ATOM     28  C   UNL A   1      35.454  33.019  28.031  1.00  0.00     0.278 C 
ENDBRANCH  26  27
ENDBRANCH  13  14
ENDBRANCH  10  13
ENDBRANCH   6   9
ENDBRANCH   3   6
ENDBRANCH   1   2
BRANCH   1  29
ATOM     29  C   UNL A   1      35.570  21.939  24.892  1.00  0.00     0.042 C 
BRANCH  29  30
ATOM     30  C   UNL A   1      36.823  22.379  25.633  1.00  0.00     0.118 C 
BRANCH  30  31
ATOM     31  N   UNL A   1      37.854  21.348  25.688  1.00  0.00    -0.352 N 
ATOM     32  C   UNL A   1      39.168  21.421  26.089  1.00  0.00     0.251 C 
ATOM     33  H   UNL A   1      37.564  20.456  25.388  1.00  0.00     0.163 HD
ATOM     34  O   UNL A   1      39.915  20.463  25.913  1.00  0.00    -0.269 OA
BRANCH  32  35
ATOM     35  C   UNL A   1      39.692  22.664  26.694  1.00  0.00     0.039 A 
ATOM     36  C   UNL A   1      39.270  23.911  26.234  1.00  0.00     0.014 A 
ATOM     37  C   UNL A   1      40.641  22.582  27.719  1.00  0.00     0.014 A 
ATOM     38  C   UNL A   1      39.953  25.053  26.631  1.00  0.00     0.010 A 
ATOM     39  C   UNL A   1      41.248  23.746  28.198  1.00  0.00     0.010 A 
ATOM     40  C   UNL A   1      40.958  24.987  27.609  1.00  0.00    -0.014 A 
BRANCH  40  41
ATOM     41  C   UNL A   1      41.701  26.226  27.960  1.00  0.00     0.031 A 
ATOM     42  C   UNL A   1      43.071  26.493  27.391  1.00  0.00     0.074 A 
ATOM     43  C   UNL A   1      41.098  27.160  28.720  1.00  0.00     0.049 A 
ATOM     44  N   UNL A   1      43.832  27.550  27.532  1.00  0.00    -0.248 NA
ATOM     45  C   UNL A   1      43.670  25.436  26.562  1.00  0.00     0.031 C 
ATOM     46  C   UNL A   1      39.774  27.024  29.331  1.00  0.00     0.029 A 
ATOM     47  N   UNL A   1      41.500  28.421  29.076  1.00  0.00    -0.354 N 
ATOM     48  C   UNL A   1      44.999  27.280  26.826  1.00  0.00     0.074 A 
ATOM     49  C   UNL A   1      44.863  25.943  26.289  1.00  0.00     0.031 C 
ATOM     50  C   UNL A   1      39.443  28.179  29.925  1.00  0.00     0.029 A 
ATOM     51  C   UNL A   1      40.554  29.114  29.792  1.00  0.00     0.049 A 
ATOM     52  H   UNL A   1      42.380  28.794  28.841  1.00  0.00     0.167 HD
ATOM     53  C   UNL A   1      46.078  28.076  26.627  1.00  0.00     0.037 A 
ATOM     54  C   UNL A   1      40.578  30.364  30.289  1.00  0.00     0.037 A 
ATOM     55  C   UNL A   1      46.209  29.414  27.143  1.00  0.00     0.049 A 
ATOM     56  C   UNL A   1      41.794  31.216  30.071  1.00  0.00     0.074 A 
ATOM     57  C   UNL A   1      47.262  30.300  26.994  1.00  0.00     0.029 A 
ATOM     58  N   UNL A   1      45.248  30.063  27.903  1.00  0.00    -0.354 N 
ATOM     59  N   UNL A   1      42.887  30.943  29.401  1.00  0.00    -0.248 NA
ATOM     60  C   UNL A   1      41.778  32.551  30.683  1.00  0.00     0.031 C 
ATOM     61  C   UNL A   1      46.951  31.473  27.692  1.00  0.00     0.029 A 
ATOM     62  C   UNL A   1      45.686  31.333  28.240  1.00  0.00     0.049 A 
ATOM     63  H   UNL A   1      44.380  29.677  28.164  1.00  0.00     0.167 HD
ATOM     64  C   UNL A   1      43.685  32.073  29.503  1.00  0.00     0.074 A 
ATOM     65  C   UNL A   1      42.936  33.046  30.272  1.00  0.00     0.031 C 
ATOM     66  C   UNL A   1      44.932  32.285  29.012  1.00  0.00     0.037 A 
BRANCH  53  67
ATOM     67  C   UNL A   1      47.210  27.508  25.820  1.00  0.00     0.057 A 
ATOM     68  C   UNL A   1      48.272  26.841  26.444  1.00  0.00     0.134 A 
ATOM     69  C   UNL A   1      47.260  27.635  24.425  1.00  0.00     0.134 A 
ATOM     70  F   UNL A   1      48.291  26.688  27.777  1.00  0.00    -0.206 F 
ATOM     71  C   UNL A   1      49.338  26.316  25.711  1.00  0.00     0.040 A 
ATOM     72  C   UNL A   1      48.309  27.094  23.678  1.00  0.00     0.040 A 
ATOM     73  F   UNL A   1      46.268  28.250  23.763  1.00  0.00    -0.206 F 
ATOM     74  C   UNL A   1      49.355  26.436  24.323  1.00  0.00     0.006 A 
ENDBRANCH  53  67
BRANCH  54  75
ATOM     75  C   UNL A   1      39.414  30.884  31.049  1.00  0.00     0.057 A 
ATOM     76  C   UNL A   1      38.434  31.667  30.429  1.00  0.00     0.134 A 
ATOM     77  C   UNL A   1      39.248  30.597  32.408  1.00  0.00     0.134 A 
ATOM     78  F   UNL A   1      38.540  31.983  29.129  1.00  0.00    -0.206 F 
ATOM     79  C   UNL A   1      37.333  32.154  31.133  1.00  0.00     0.040 A 
ATOM     80  C   UNL A   1      38.138  31.054  33.119  1.00  0.00     0.040 A 
ATOM     81  F   UNL A   1      40.145  29.836  33.052  1.00  0.00    -0.206 F 
ATOM     82  C   UNL A   1      37.178  31.839  32.482  1.00  0.00     0.006 A 
ENDBRANCH  54  75
BRANCH  66  83
ATOM     83  C   UNL A   1      45.540  33.628  29.285  1.00  0.00     0.057 A 
ATOM     84  C   UNL A   1      46.321  33.840  30.428  1.00  0.00     0.134 A 
ATOM     85  C   UNL A   1      45.366  34.708  28.410  1.00  0.00     0.134 A 
ATOM     86  F   UNL A   1      46.522  32.849  31.310  1.00  0.00    -0.206 F 
ATOM     87  C   UNL A   1      46.918  35.074  30.684  1.00  0.00     0.040 A 
ATOM     88  C   UNL A   1      45.979  35.940  28.641  1.00  0.00     0.040 A 
ATOM     89  F   UNL A   1      44.643  34.564  27.289  1.00  0.00    -0.206 F 
ATOM     90  C   UNL A   1      46.756  36.126  29.783  1.00  0.00     0.006 A 
ENDBRANCH  66  83
ENDBRANCH  40  41
ENDBRANCH  32  35
ENDBRANCH  30  31
ENDBRANCH  29  30
ENDBRANCH   1  29
TORSDOF 15
ENDMDL
