MODEL 1
REMARK VINA RESULT:     -12.2      0.000      0.000
REMARK SMILES COc1ccc(NC(=O)[C@@H]2CC=CC[C@H]2C(=O)NCCCNC(=O)c2ccc(-c3c4nc(c(-c5c(F)cccc5F)c5ccc([nH]5)c(-c5c(F)cccc5F)c5nc(c(-c6c(F)cccc6F)c6ccc3[nH]6)C=C5)C=C4)cc2)cc1Cl
REMARK SMILES IDX 19 1 18 2 16 3 17 4 15 6 10 7 11 8 12 9 14 10 13 11 8 12
REMARK SMILES IDX 7 13 9 15 6 16 3 17 4 18 80 19 5 20 79 21 81 22 2 23 1 24
REMARK SMILES IDX 20 25 21 26 22 27 23 28 24 30 25 31 26 32 78 33 27 34 77 35
REMARK SMILES IDX 28 36 29 37 30 38 71 39 31 40 76 41 70 42 72 43 32 44 75 45
REMARK SMILES IDX 69 46 68 47 33 49 59 50 42 51 58 52 43 53 46 54 57 55 73 56
REMARK SMILES IDX 44 57 45 58 56 60 74 61 47 62 34 63 35 64 40 65 36 66 37 67
REMARK SMILES IDX 39 68 41 69 38 70 60 71 61 72 66 73 62 74 63 75 65 76 67 77
REMARK SMILES IDX 64 78 48 79 49 80 54 81 50 82 51 83 53 84 55 85 52 86
REMARK H PARENT 18 5 7 14 22 29 72 48 46 59
REMARK Flexibility Score: inf
ROOT
ATOM      1  C   UNL A   1      35.597  21.738  26.101  1.00  0.00     0.117 C 
ENDROOT
BRANCH   1   2
ATOM      2  N   UNL A   1      34.726  22.205  27.167  1.00  0.00    -0.356 N 
ATOM      3  C   UNL A   1      33.368  22.171  27.306  1.00  0.00     0.224 C 
ATOM      4  O   UNL A   1      32.934  22.371  28.445  1.00  0.00    -0.275 OA
ATOM      5  H   UNL A   1      35.200  22.620  27.924  1.00  0.00     0.163 HD
BRANCH   3   6
ATOM      6  C   UNL A   1      32.385  21.975  26.145  1.00  0.00     0.095 C 
ATOM      7  C   UNL A   1      31.937  23.347  25.587  1.00  0.00     0.095 C 
ATOM      8  C   UNL A   1      31.291  23.259  24.191  1.00  0.00     0.041 C 
ATOM      9  C   UNL A   1      32.002  22.347  23.252  1.00  0.00    -0.030 C 
ATOM     10  C   UNL A   1      32.885  20.938  25.118  1.00  0.00     0.041 C 
ATOM     11  C   UNL A   1      32.715  21.298  23.674  1.00  0.00    -0.030 C 
BRANCH   7  12
ATOM     12  C   UNL A   1      30.874  23.951  26.508  1.00  0.00     0.228 C 
ATOM     13  N   UNL A   1      30.639  25.279  26.653  1.00  0.00    -0.326 N 
ATOM     14  H   UNL A   1      29.954  25.466  27.335  1.00  0.00     0.169 HD
ATOM     15  O   UNL A   1      30.221  23.219  27.265  1.00  0.00    -0.274 OA
BRANCH  13  16
ATOM     16  C   UNL A   1      31.138  26.445  26.066  1.00  0.00     0.042 A 
ATOM     17  C   UNL A   1      32.597  28.510  24.906  1.00  0.00     0.137 A 
ATOM     18  C   UNL A   1      31.458  28.022  24.271  1.00  0.00     0.050 A 
ATOM     19  C   UNL A   1      32.863  28.142  26.222  1.00  0.00     0.085 A 
ATOM     20  C   UNL A   1      30.732  26.978  24.849  1.00  0.00     0.030 A 
ATOM     21  C   UNL A   1      32.131  27.110  26.798  1.00  0.00     0.050 A 
ATOM     22  Cl  UNL A   1      34.098  28.903  27.154  1.00  0.00    -0.080 Cl
BRANCH  17  23
ATOM     23  O   UNL A   1      33.435  29.307  24.175  1.00  0.00    -0.495 OA
ATOM     24  C   UNL A   1      33.424  28.920  22.790  1.00  0.00     0.278 C 
ENDBRANCH  17  23
ENDBRANCH  13  16
ENDBRANCH   7  12
ENDBRANCH   3   6
ENDBRANCH   1   2
BRANCH   1  25
ATOM     25  C   UNL A   1      36.167  22.819  25.156  1.00  0.00     0.042 C 
BRANCH  25  26
ATOM     26  C   UNL A   1      37.079  23.894  25.777  1.00  0.00     0.118 C 
BRANCH  26  27
ATOM     27  N   UNL A   1      38.465  23.448  25.908  1.00  0.00    -0.352 N 
ATOM     28  C   UNL A   1      39.619  23.902  26.502  1.00  0.00     0.251 C 
ATOM     29  H   UNL A   1      38.613  22.592  25.446  1.00  0.00     0.163 HD
ATOM     30  O   UNL A   1      40.639  23.248  26.271  1.00  0.00    -0.269 OA
BRANCH  28  31
ATOM     31  C   UNL A   1      39.758  25.095  27.389  1.00  0.00     0.039 A 
ATOM     32  C   UNL A   1      39.043  25.103  28.595  1.00  0.00     0.014 A 
ATOM     33  C   UNL A   1      40.411  26.267  27.033  1.00  0.00     0.014 A 
ATOM     34  C   UNL A   1      39.018  26.239  29.427  1.00  0.00     0.010 A 
ATOM     35  C   UNL A   1      40.446  27.389  27.892  1.00  0.00     0.010 A 
ATOM     36  C   UNL A   1      39.747  27.397  29.107  1.00  0.00    -0.014 A 
BRANCH  36  37
ATOM     37  C   UNL A   1      39.811  28.549  30.072  1.00  0.00     0.031 A 
ATOM     38  C   UNL A   1      38.819  29.695  30.058  1.00  0.00     0.074 A 
ATOM     39  C   UNL A   1      40.812  28.590  30.978  1.00  0.00     0.049 A 
ATOM     40  N   UNL A   1      38.716  30.714  30.882  1.00  0.00    -0.248 NA
ATOM     41  C   UNL A   1      37.837  29.719  28.966  1.00  0.00     0.031 C 
ATOM     42  C   UNL A   1      41.906  27.621  31.064  1.00  0.00     0.029 A 
ATOM     43  N   UNL A   1      41.077  29.474  32.000  1.00  0.00    -0.354 N 
ATOM     44  C   UNL A   1      37.677  31.506  30.400  1.00  0.00     0.074 A 
ATOM     45  C   UNL A   1      37.209  30.869  29.187  1.00  0.00     0.031 C 
ATOM     46  C   UNL A   1      42.696  27.937  32.101  1.00  0.00     0.029 A 
ATOM     47  C   UNL A   1      42.186  29.144  32.743  1.00  0.00     0.049 A 
ATOM     48  H   UNL A   1      40.524  30.269  32.181  1.00  0.00     0.167 HD
ATOM     49  C   UNL A   1      37.148  32.644  30.922  1.00  0.00     0.037 A 
ATOM     50  C   UNL A   1      42.733  29.726  33.830  1.00  0.00     0.037 A 
ATOM     51  C   UNL A   1      37.586  33.270  32.150  1.00  0.00     0.049 A 
ATOM     52  C   UNL A   1      42.088  30.939  34.434  1.00  0.00     0.074 A 
ATOM     53  C   UNL A   1      37.034  34.356  32.811  1.00  0.00     0.029 A 
ATOM     54  N   UNL A   1      38.686  32.873  32.894  1.00  0.00    -0.354 N 
ATOM     55  N   UNL A   1      41.027  31.596  34.033  1.00  0.00    -0.248 NA
ATOM     56  C   UNL A   1      42.706  31.482  35.653  1.00  0.00     0.031 C 
ATOM     57  C   UNL A   1      37.826  34.643  33.930  1.00  0.00     0.029 A 
ATOM     58  C   UNL A   1      38.842  33.705  33.993  1.00  0.00     0.049 A 
ATOM     59  H   UNL A   1      39.271  32.112  32.675  1.00  0.00     0.167 HD
ATOM     60  C   UNL A   1      40.837  32.611  34.961  1.00  0.00     0.074 A 
ATOM     61  C   UNL A   1      41.877  32.474  35.957  1.00  0.00     0.031 C 
ATOM     62  C   UNL A   1      39.880  33.573  34.982  1.00  0.00     0.037 A 
BRANCH  49  63
ATOM     63  C   UNL A   1      36.010  33.303  30.182  1.00  0.00     0.057 A 
ATOM     64  C   UNL A   1      34.686  33.221  30.636  1.00  0.00     0.134 A 
ATOM     65  C   UNL A   1      36.250  34.097  29.052  1.00  0.00     0.134 A 
ATOM     66  F   UNL A   1      34.383  32.486  31.716  1.00  0.00    -0.206 F 
ATOM     67  C   UNL A   1      33.642  33.876  29.978  1.00  0.00     0.040 A 
ATOM     68  C   UNL A   1      35.218  34.780  28.401  1.00  0.00     0.040 A 
ATOM     69  F   UNL A   1      37.494  34.244  28.572  1.00  0.00    -0.206 F 
ATOM     70  C   UNL A   1      33.907  34.664  28.861  1.00  0.00     0.006 A 
ENDBRANCH  49  63
BRANCH  50  71
ATOM     71  C   UNL A   1      43.936  29.121  34.457  1.00  0.00     0.057 A 
ATOM     72  C   UNL A   1      43.813  28.164  35.472  1.00  0.00     0.134 A 
ATOM     73  C   UNL A   1      45.230  29.466  34.050  1.00  0.00     0.134 A 
ATOM     74  F   UNL A   1      42.600  27.808  35.920  1.00  0.00    -0.206 F 
ATOM     75  C   UNL A   1      44.932  27.580  36.066  1.00  0.00     0.040 A 
ATOM     76  C   UNL A   1      46.357  28.870  34.617  1.00  0.00     0.040 A 
ATOM     77  F   UNL A   1      45.414  30.370  33.077  1.00  0.00    -0.206 F 
ATOM     78  C   UNL A   1      46.209  27.926  35.633  1.00  0.00     0.006 A 
ENDBRANCH  50  71
BRANCH  62  79
ATOM     79  C   UNL A   1      39.905  34.537  36.133  1.00  0.00     0.057 A 
ATOM     80  C   UNL A   1      40.621  35.740  36.075  1.00  0.00     0.134 A 
ATOM     81  C   UNL A   1      39.198  34.264  37.310  1.00  0.00     0.134 A 
ATOM     82  F   UNL A   1      41.333  36.056  34.982  1.00  0.00    -0.206 F 
ATOM     83  C   UNL A   1      40.659  36.621  37.157  1.00  0.00     0.040 A 
ATOM     84  C   UNL A   1      39.207  35.150  38.390  1.00  0.00     0.040 A 
ATOM     85  F   UNL A   1      38.485  33.134  37.431  1.00  0.00    -0.206 F 
ATOM     86  C   UNL A   1      39.946  36.328  38.319  1.00  0.00     0.006 A 
ENDBRANCH  62  79
ENDBRANCH  36  37
ENDBRANCH  28  31
ENDBRANCH  26  27
ENDBRANCH  25  26
ENDBRANCH   1  25
TORSDOF 13
ENDMDL
MODEL 2
REMARK VINA RESULT:     -12.2      5.161      9.852
REMARK SMILES COc1ccc(NC(=O)[C@@H]2CC=CC[C@H]2C(=O)NCCCNC(=O)c2ccc(-c3c4nc(c(-c5c(F)cccc5F)c5ccc([nH]5)c(-c5c(F)cccc5F)c5nc(c(-c6c(F)cccc6F)c6ccc3[nH]6)C=C5)C=C4)cc2)cc1Cl
REMARK SMILES IDX 19 1 18 2 16 3 17 4 15 6 10 7 11 8 12 9 14 10 13 11 8 12
REMARK SMILES IDX 7 13 9 15 6 16 3 17 4 18 80 19 5 20 79 21 81 22 2 23 1 24
REMARK SMILES IDX 20 25 21 26 22 27 23 28 24 30 25 31 26 32 78 33 27 34 77 35
REMARK SMILES IDX 28 36 29 37 30 38 71 39 31 40 76 41 70 42 72 43 32 44 75 45
REMARK SMILES IDX 69 46 68 47 33 49 59 50 42 51 58 52 43 53 46 54 57 55 73 56
REMARK SMILES IDX 44 57 45 58 56 60 74 61 47 62 34 63 35 64 40 65 36 66 37 67
REMARK SMILES IDX 39 68 41 69 38 70 60 71 61 72 66 73 62 74 63 75 65 76 67 77
REMARK SMILES IDX 64 78 48 79 49 80 54 81 50 82 51 83 53 84 55 85 52 86
REMARK H PARENT 18 5 7 14 22 29 72 48 46 59
REMARK Flexibility Score: inf
ROOT
ATOM      1  C   UNL A   1      32.023  29.778  26.157  1.00  0.00     0.117 C 
ENDROOT
BRANCH   1   2
ATOM      2  N   UNL A   1      31.351  29.981  24.884  1.00  0.00    -0.356 N 
ATOM      3  C   UNL A   1      31.024  29.110  23.885  1.00  0.00     0.224 C 
ATOM      4  O   UNL A   1      30.196  29.514  23.062  1.00  0.00    -0.275 OA
ATOM      5  H   UNL A   1      31.083  30.914  24.713  1.00  0.00     0.163 HD
BRANCH   3   6
ATOM      6  C   UNL A   1      31.666  27.730  23.697  1.00  0.00     0.095 C 
ATOM      7  C   UNL A   1      30.678  26.771  22.992  1.00  0.00     0.095 C 
ATOM      8  C   UNL A   1      31.355  25.520  22.400  1.00  0.00     0.041 C 
ATOM      9  C   UNL A   1      32.640  25.801  21.700  1.00  0.00    -0.030 C 
ATOM     10  C   UNL A   1      33.089  27.819  23.106  1.00  0.00     0.041 C 
ATOM     11  C   UNL A   1      33.422  26.836  22.025  1.00  0.00    -0.030 C 
BRANCH   7  12
ATOM     12  C   UNL A   1      29.652  26.259  24.005  1.00  0.00     0.228 C 
ATOM     13  N   UNL A   1      29.903  25.324  24.956  1.00  0.00    -0.326 N 
ATOM     14  H   UNL A   1      29.097  25.089  25.471  1.00  0.00     0.169 HD
ATOM     15  O   UNL A   1      28.471  26.628  23.933  1.00  0.00    -0.274 OA
BRANCH  13  16
ATOM     16  C   UNL A   1      31.029  24.613  25.376  1.00  0.00     0.042 A 
ATOM     17  C   UNL A   1      33.318  23.065  25.700  1.00  0.00     0.137 A 
ATOM     18  C   UNL A   1      33.297  24.379  26.160  1.00  0.00     0.050 A 
ATOM     19  C   UNL A   1      32.130  22.454  25.308  1.00  0.00     0.085 A 
ATOM     20  C   UNL A   1      32.151  25.159  25.987  1.00  0.00     0.030 A 
ATOM     21  C   UNL A   1      30.989  23.231  25.148  1.00  0.00     0.050 A 
ATOM     22  Cl  UNL A   1      32.035  20.764  24.979  1.00  0.00    -0.080 Cl
BRANCH  17  23
ATOM     23  O   UNL A   1      34.534  22.445  25.614  1.00  0.00    -0.495 OA
ATOM     24  C   UNL A   1      35.563  23.262  26.198  1.00  0.00     0.278 C 
ENDBRANCH  17  23
ENDBRANCH  13  16
ENDBRANCH   7  12
ENDBRANCH   3   6
ENDBRANCH   1   2
BRANCH   1  25
ATOM     25  C   UNL A   1      33.558  29.612  26.105  1.00  0.00     0.042 C 
BRANCH  25  26
ATOM     26  C   UNL A   1      34.258  29.095  27.375  1.00  0.00     0.118 C 
BRANCH  26  27
ATOM     27  N   UNL A   1      34.524  30.158  28.343  1.00  0.00    -0.352 N 
ATOM     28  C   UNL A   1      35.591  30.599  29.091  1.00  0.00     0.251 C 
ATOM     29  H   UNL A   1      33.723  30.707  28.504  1.00  0.00     0.163 HD
ATOM     30  O   UNL A   1      35.350  31.501  29.897  1.00  0.00    -0.269 OA
BRANCH  28  31
ATOM     31  C   UNL A   1      36.995  30.099  29.024  1.00  0.00     0.039 A 
ATOM     32  C   UNL A   1      37.638  30.110  27.778  1.00  0.00     0.014 A 
ATOM     33  C   UNL A   1      37.656  29.470  30.072  1.00  0.00     0.014 A 
ATOM     34  C   UNL A   1      38.914  29.539  27.604  1.00  0.00     0.010 A 
ATOM     35  C   UNL A   1      38.964  28.954  29.922  1.00  0.00     0.010 A 
ATOM     36  C   UNL A   1      39.619  28.977  28.683  1.00  0.00    -0.014 A 
BRANCH  36  37
ATOM     37  C   UNL A   1      41.030  28.492  28.501  1.00  0.00     0.031 A 
ATOM     38  C   UNL A   1      41.372  27.063  28.133  1.00  0.00     0.074 A 
ATOM     39  C   UNL A   1      42.050  29.354  28.703  1.00  0.00     0.049 A 
ATOM     40  N   UNL A   1      42.546  26.530  27.873  1.00  0.00    -0.248 NA
ATOM     41  C   UNL A   1      40.264  26.100  28.076  1.00  0.00     0.031 C 
ATOM     42  C   UNL A   1      41.902  30.738  29.158  1.00  0.00     0.029 A 
ATOM     43  N   UNL A   1      43.411  29.203  28.553  1.00  0.00    -0.354 N 
ATOM     44  C   UNL A   1      42.321  25.175  27.643  1.00  0.00     0.074 A 
ATOM     45  C   UNL A   1      40.902  24.960  27.835  1.00  0.00     0.031 C 
ATOM     46  C   UNL A   1      43.110  31.319  29.211  1.00  0.00     0.029 A 
ATOM     47  C   UNL A   1      44.126  30.348  28.819  1.00  0.00     0.049 A 
ATOM     48  H   UNL A   1      43.832  28.356  28.282  1.00  0.00     0.167 HD
ATOM     49  C   UNL A   1      43.203  24.203  27.290  1.00  0.00     0.037 A 
ATOM     50  C   UNL A   1      45.447  30.607  28.745  1.00  0.00     0.037 A 
ATOM     51  C   UNL A   1      44.615  24.414  27.063  1.00  0.00     0.049 A 
ATOM     52  C   UNL A   1      46.394  29.539  28.278  1.00  0.00     0.074 A 
ATOM     53  C   UNL A   1      45.559  23.515  26.592  1.00  0.00     0.029 A 
ATOM     54  N   UNL A   1      45.288  25.602  27.301  1.00  0.00    -0.354 N 
ATOM     55  N   UNL A   1      46.140  28.299  27.942  1.00  0.00    -0.248 NA
ATOM     56  C   UNL A   1      47.813  29.914  28.165  1.00  0.00     0.031 C 
ATOM     57  C   UNL A   1      46.810  24.145  26.587  1.00  0.00     0.029 A 
ATOM     58  C   UNL A   1      46.636  25.452  27.008  1.00  0.00     0.049 A 
ATOM     59  H   UNL A   1      44.872  26.431  27.629  1.00  0.00     0.167 HD
ATOM     60  C   UNL A   1      47.356  27.754  27.554  1.00  0.00     0.074 A 
ATOM     61  C   UNL A   1      48.347  28.801  27.676  1.00  0.00     0.031 C 
ATOM     62  C   UNL A   1      47.624  26.492  27.134  1.00  0.00     0.037 A 
BRANCH  49  63
ATOM     63  C   UNL A   1      42.678  22.802  27.101  1.00  0.00     0.057 A 
ATOM     64  C   UNL A   1      42.331  21.988  28.189  1.00  0.00     0.134 A 
ATOM     65  C   UNL A   1      42.436  22.289  25.819  1.00  0.00     0.134 A 
ATOM     66  F   UNL A   1      42.527  22.415  29.446  1.00  0.00    -0.206 F 
ATOM     67  C   UNL A   1      41.796  20.710  28.010  1.00  0.00     0.040 A 
ATOM     68  C   UNL A   1      41.874  21.024  25.626  1.00  0.00     0.040 A 
ATOM     69  F   UNL A   1      42.718  23.018  24.728  1.00  0.00    -0.206 F 
ATOM     70  C   UNL A   1      41.559  20.227  26.725  1.00  0.00     0.006 A 
ENDBRANCH  49  63
BRANCH  50  71
ATOM     71  C   UNL A   1      45.946  31.969  29.064  1.00  0.00     0.057 A 
ATOM     72  C   UNL A   1      46.007  32.962  28.079  1.00  0.00     0.134 A 
ATOM     73  C   UNL A   1      46.354  32.319  30.357  1.00  0.00     0.134 A 
ATOM     74  F   UNL A   1      45.650  32.683  26.817  1.00  0.00    -0.206 F 
ATOM     75  C   UNL A   1      46.465  34.250  28.364  1.00  0.00     0.040 A 
ATOM     76  C   UNL A   1      46.788  33.609  30.662  1.00  0.00     0.040 A 
ATOM     77  F   UNL A   1      46.311  31.415  31.347  1.00  0.00    -0.206 F 
ATOM     78  C   UNL A   1      46.849  34.578  29.662  1.00  0.00     0.006 A 
ENDBRANCH  50  71
BRANCH  62  79
ATOM     79  C   UNL A   1      49.044  26.185  26.754  1.00  0.00     0.057 A 
ATOM     80  C   UNL A   1      49.937  25.585  27.651  1.00  0.00     0.134 A 
ATOM     81  C   UNL A   1      49.523  26.487  25.473  1.00  0.00     0.134 A 
ATOM     82  F   UNL A   1      49.547  25.283  28.900  1.00  0.00    -0.206 F 
ATOM     83  C   UNL A   1      51.263  25.323  27.299  1.00  0.00     0.040 A 
ATOM     84  C   UNL A   1      50.840  26.207  25.101  1.00  0.00     0.040 A 
ATOM     85  F   UNL A   1      48.721  27.057  24.562  1.00  0.00    -0.206 F 
ATOM     86  C   UNL A   1      51.716  25.631  26.018  1.00  0.00     0.006 A 
ENDBRANCH  62  79
ENDBRANCH  36  37
ENDBRANCH  28  31
ENDBRANCH  26  27
ENDBRANCH  25  26
ENDBRANCH   1  25
TORSDOF 13
ENDMDL
MODEL 3
REMARK VINA RESULT:     -12.1      2.639      6.754
REMARK SMILES COc1ccc(NC(=O)[C@@H]2CC=CC[C@H]2C(=O)NCCCNC(=O)c2ccc(-c3c4nc(c(-c5c(F)cccc5F)c5ccc([nH]5)c(-c5c(F)cccc5F)c5nc(c(-c6c(F)cccc6F)c6ccc3[nH]6)C=C5)C=C4)cc2)cc1Cl
REMARK SMILES IDX 19 1 18 2 16 3 17 4 15 6 10 7 11 8 12 9 14 10 13 11 8 12
REMARK SMILES IDX 7 13 9 15 6 16 3 17 4 18 80 19 5 20 79 21 81 22 2 23 1 24
REMARK SMILES IDX 20 25 21 26 22 27 23 28 24 30 25 31 26 32 78 33 27 34 77 35
REMARK SMILES IDX 28 36 29 37 30 38 71 39 31 40 76 41 70 42 72 43 32 44 75 45
REMARK SMILES IDX 69 46 68 47 33 49 59 50 42 51 58 52 43 53 46 54 57 55 73 56
REMARK SMILES IDX 44 57 45 58 56 60 74 61 47 62 34 63 35 64 40 65 36 66 37 67
REMARK SMILES IDX 39 68 41 69 38 70 60 71 61 72 66 73 62 74 63 75 65 76 67 77
REMARK SMILES IDX 64 78 48 79 49 80 54 81 50 82 51 83 53 84 55 85 52 86
REMARK H PARENT 18 5 7 14 22 29 72 48 46 59
REMARK Flexibility Score: inf
ROOT
ATOM      1  C   UNL A   1      32.331  26.762  26.284  1.00  0.00     0.117 C 
ENDROOT
BRANCH   1   2
ATOM      2  N   UNL A   1      31.485  25.643  26.669  1.00  0.00    -0.356 N 
ATOM      3  C   UNL A   1      31.710  24.296  26.664  1.00  0.00     0.224 C 
ATOM      4  O   UNL A   1      30.920  23.612  27.323  1.00  0.00    -0.275 OA
ATOM      5  H   UNL A   1      30.592  25.904  26.991  1.00  0.00     0.163 HD
BRANCH   3   6
ATOM      6  C   UNL A   1      32.811  23.607  25.848  1.00  0.00     0.095 C 
ATOM      7  C   UNL A   1      32.891  24.221  24.431  1.00  0.00     0.095 C 
ATOM      8  C   UNL A   1      34.203  23.892  23.694  1.00  0.00     0.041 C 
ATOM      9  C   UNL A   1      35.420  23.998  24.547  1.00  0.00    -0.030 C 
ATOM     10  C   UNL A   1      34.135  23.487  26.630  1.00  0.00     0.041 C 
ATOM     11  C   UNL A   1      35.386  23.810  25.871  1.00  0.00    -0.030 C 
BRANCH   7  12
ATOM     12  C   UNL A   1      31.765  23.656  23.563  1.00  0.00     0.228 C 
ATOM     13  N   UNL A   1      30.691  24.364  23.131  1.00  0.00    -0.326 N 
ATOM     14  H   UNL A   1      30.050  23.806  22.634  1.00  0.00     0.169 HD
ATOM     15  O   UNL A   1      31.740  22.448  23.288  1.00  0.00    -0.274 OA
BRANCH  13  16
ATOM     16  C   UNL A   1      30.276  25.694  23.224  1.00  0.00     0.042 A 
ATOM     17  C   UNL A   1      29.479  28.337  22.879  1.00  0.00     0.137 A 
ATOM     18  C   UNL A   1      28.687  27.464  23.620  1.00  0.00     0.050 A 
ATOM     19  C   UNL A   1      30.772  27.963  22.525  1.00  0.00     0.085 A 
ATOM     20  C   UNL A   1      29.082  26.134  23.784  1.00  0.00     0.030 A 
ATOM     21  C   UNL A   1      31.166  26.641  22.700  1.00  0.00     0.050 A 
ATOM     22  Cl  UNL A   1      31.894  29.080  21.842  1.00  0.00    -0.080 Cl
BRANCH  17  23
ATOM     23  O   UNL A   1      28.918  29.524  22.492  1.00  0.00    -0.495 OA
ATOM     24  C   UNL A   1      29.116  30.532  23.499  1.00  0.00     0.278 C 
ENDBRANCH  17  23
ENDBRANCH  13  16
ENDBRANCH   7  12
ENDBRANCH   3   6
ENDBRANCH   1   2
BRANCH   1  25
ATOM     25  C   UNL A   1      31.645  28.143  26.196  1.00  0.00     0.042 C 
BRANCH  25  26
ATOM     26  C   UNL A   1      32.355  29.235  25.374  1.00  0.00     0.118 C 
BRANCH  26  27
ATOM     27  N   UNL A   1      32.107  30.579  25.892  1.00  0.00    -0.352 N 
ATOM     28  C   UNL A   1      32.697  31.440  26.787  1.00  0.00     0.251 C 
ATOM     29  H   UNL A   1      31.299  30.976  25.493  1.00  0.00     0.163 HD
ATOM     30  O   UNL A   1      32.080  32.481  27.023  1.00  0.00    -0.269 OA
BRANCH  28  31
ATOM     31  C   UNL A   1      33.997  31.241  27.494  1.00  0.00     0.039 A 
ATOM     32  C   UNL A   1      34.290  29.959  27.981  1.00  0.00     0.014 A 
ATOM     33  C   UNL A   1      34.863  32.267  27.850  1.00  0.00     0.014 A 
ATOM     34  C   UNL A   1      35.433  29.716  28.768  1.00  0.00     0.010 A 
ATOM     35  C   UNL A   1      36.046  32.019  28.582  1.00  0.00     0.010 A 
ATOM     36  C   UNL A   1      36.353  30.737  29.058  1.00  0.00    -0.014 A 
BRANCH  36  37
ATOM     37  C   UNL A   1      37.631  30.427  29.789  1.00  0.00     0.031 A 
ATOM     38  C   UNL A   1      37.892  30.859  31.217  1.00  0.00     0.074 A 
ATOM     39  C   UNL A   1      38.610  29.759  29.141  1.00  0.00     0.049 A 
ATOM     40  N   UNL A   1      38.921  30.593  31.990  1.00  0.00    -0.248 NA
ATOM     41  C   UNL A   1      36.887  31.722  31.852  1.00  0.00     0.031 C 
ATOM     42  C   UNL A   1      38.562  29.357  27.734  1.00  0.00     0.029 A 
ATOM     43  N   UNL A   1      39.833  29.298  29.572  1.00  0.00    -0.354 N 
ATOM     44  C   UNL A   1      38.699  31.269  33.188  1.00  0.00     0.074 A 
ATOM     45  C   UNL A   1      37.455  31.990  33.023  1.00  0.00     0.031 C 
ATOM     46  C   UNL A   1      39.679  28.677  27.430  1.00  0.00     0.029 A 
ATOM     47  C   UNL A   1      40.537  28.613  28.608  1.00  0.00     0.049 A 
ATOM     48  H   UNL A   1      40.173  29.444  30.485  1.00  0.00     0.167 HD
ATOM     49  C   UNL A   1      39.446  31.277  34.324  1.00  0.00     0.037 A 
ATOM     50  C   UNL A   1      41.730  27.986  28.656  1.00  0.00     0.037 A 
ATOM     51  C   UNL A   1      40.672  30.533  34.510  1.00  0.00     0.049 A 
ATOM     52  C   UNL A   1      42.502  27.944  29.943  1.00  0.00     0.074 A 
ATOM     53  C   UNL A   1      41.431  30.391  35.661  1.00  0.00     0.029 A 
ATOM     54  N   UNL A   1      41.324  29.816  33.519  1.00  0.00    -0.354 N 
ATOM     55  N   UNL A   1      42.208  28.482  31.100  1.00  0.00    -0.248 NA
ATOM     56  C   UNL A   1      43.765  27.190  29.934  1.00  0.00     0.031 C 
ATOM     57  C   UNL A   1      42.563  29.627  35.356  1.00  0.00     0.029 A 
ATOM     58  C   UNL A   1      42.484  29.251  34.026  1.00  0.00     0.049 A 
ATOM     59  H   UNL A   1      41.009  29.722  32.590  1.00  0.00     0.167 HD
ATOM     60  C   UNL A   1      43.233  28.113  31.962  1.00  0.00     0.074 A 
ATOM     61  C   UNL A   1      44.147  27.289  31.202  1.00  0.00     0.031 C 
ATOM     62  C   UNL A   1      43.398  28.433  33.270  1.00  0.00     0.037 A 
BRANCH  49  63
ATOM     63  C   UNL A   1      38.961  32.106  35.487  1.00  0.00     0.057 A 
ATOM     64  C   UNL A   1      38.215  31.547  36.534  1.00  0.00     0.134 A 
ATOM     65  C   UNL A   1      39.314  33.457  35.604  1.00  0.00     0.134 A 
ATOM     66  F   UNL A   1      37.848  30.258  36.495  1.00  0.00    -0.206 F 
ATOM     67  C   UNL A   1      37.812  32.307  37.636  1.00  0.00     0.040 A 
ATOM     68  C   UNL A   1      38.942  34.221  36.715  1.00  0.00     0.040 A 
ATOM     69  F   UNL A   1      40.048  34.056  34.654  1.00  0.00    -0.206 F 
ATOM     70  C   UNL A   1      38.181  33.647  37.732  1.00  0.00     0.006 A 
ENDBRANCH  49  63
BRANCH  50  71
ATOM     71  C   UNL A   1      42.239  27.287  27.449  1.00  0.00     0.057 A 
ATOM     72  C   UNL A   1      42.990  27.971  26.485  1.00  0.00     0.134 A 
ATOM     73  C   UNL A   1      42.007  25.923  27.236  1.00  0.00     0.134 A 
ATOM     74  F   UNL A   1      43.228  29.283  26.622  1.00  0.00    -0.206 F 
ATOM     75  C   UNL A   1      43.484  27.327  25.349  1.00  0.00     0.040 A 
ATOM     76  C   UNL A   1      42.517  25.261  26.118  1.00  0.00     0.040 A 
ATOM     77  F   UNL A   1      41.302  25.210  28.126  1.00  0.00    -0.206 F 
ATOM     78  C   UNL A   1      43.254  25.966  25.168  1.00  0.00     0.006 A 
ENDBRANCH  50  71
BRANCH  62  79
ATOM     79  C   UNL A   1      44.603  27.869  33.965  1.00  0.00     0.057 A 
ATOM     80  C   UNL A   1      44.577  26.616  34.592  1.00  0.00     0.134 A 
ATOM     81  C   UNL A   1      45.807  28.584  34.002  1.00  0.00     0.134 A 
ATOM     82  F   UNL A   1      43.451  25.887  34.607  1.00  0.00    -0.206 F 
ATOM     83  C   UNL A   1      45.694  26.108  35.257  1.00  0.00     0.040 A 
ATOM     84  C   UNL A   1      46.939  28.075  34.642  1.00  0.00     0.040 A 
ATOM     85  F   UNL A   1      45.904  29.786  33.416  1.00  0.00    -0.206 F 
ATOM     86  C   UNL A   1      46.883  26.837  35.279  1.00  0.00     0.006 A 
ENDBRANCH  62  79
ENDBRANCH  36  37
ENDBRANCH  28  31
ENDBRANCH  26  27
ENDBRANCH  25  26
ENDBRANCH   1  25
TORSDOF 13
ENDMDL
