MODEL 1
REMARK VINA RESULT:     -13.0      0.000      0.000
REMARK SMILES Cc1ccc(-c2cc3cccnc3n2CCC(=O)NCCCNC(=O)c2ccc(-c3c4nc(c(-c5c(F)cccc5F)c5ccc([nH]5)c(-c5c(F)cccc5F)c5nc(c(-c6c(F)cccc6F)c6ccc3[nH]6)C=C5)C=C4)cc2)cn1
REMARK SMILES IDX 20 1 19 2 17 3 18 4 16 6 15 7 14 8 6 9 7 10 8 11 13 12 9 13
REMARK SMILES IDX 12 14 10 15 11 16 5 17 1 18 2 19 3 20 81 21 4 22 80 23 21 24
REMARK SMILES IDX 22 25 23 26 24 27 25 29 26 30 27 31 79 32 28 33 78 34 29 35
REMARK SMILES IDX 30 36 31 37 72 38 32 39 77 40 71 41 73 42 33 43 76 44 70 45
REMARK SMILES IDX 69 46 34 48 60 49 43 50 59 51 44 52 47 53 58 54 74 55 45 56
REMARK SMILES IDX 46 57 57 59 75 60 48 61 35 62 36 63 41 64 37 65 38 66 40 67
REMARK SMILES IDX 42 68 39 69 61 70 62 71 67 72 63 73 64 74 66 75 68 76 65 77
REMARK SMILES IDX 49 78 50 79 55 80 51 81 52 82 54 83 56 84 53 85
REMARK H PARENT 19 5 23 28 73 47 47 58
REMARK Flexibility Score: inf
ROOT
ATOM      1  C   UNL A   1      32.763  29.292  25.922  1.00  0.00     0.117 C 
ENDROOT
BRANCH   1   2
ATOM      2  N   UNL A   1      33.628  29.342  24.752  1.00  0.00    -0.356 N 
ATOM      3  C   UNL A   1      33.648  28.582  23.623  1.00  0.00     0.221 C 
ATOM      4  O   UNL A   1      34.374  28.954  22.695  1.00  0.00    -0.275 OA
ATOM      5  H   UNL A   1      34.317  30.045  24.783  1.00  0.00     0.163 HD
BRANCH   3   6
ATOM      6  C   UNL A   1      32.851  27.303  23.495  1.00  0.00     0.122 C 
BRANCH   6   7
ATOM      7  C   UNL A   1      31.780  27.317  22.389  1.00  0.00     0.134 C 
BRANCH   7   8
ATOM      8  N   UNL A   1      30.403  27.370  22.865  1.00  0.00    -0.325 N 
ATOM      9  C   UNL A   1      29.726  26.547  23.775  1.00  0.00     0.052 A 
ATOM     10  C   UNL A   1      28.433  27.085  23.858  1.00  0.00     0.039 A 
ATOM     11  C   UNL A   1      28.386  28.314  23.152  1.00  0.00     0.020 A 
ATOM     12  C   UNL A   1      29.587  28.421  22.472  1.00  0.00     0.140 A 
ATOM     13  C   UNL A   1      27.500  29.403  23.084  1.00  0.00     0.013 A 
ATOM     14  N   UNL A   1      29.972  29.440  21.674  1.00  0.00    -0.238 NA
ATOM     15  C   UNL A   1      27.880  30.503  22.313  1.00  0.00     0.021 A 
ATOM     16  C   UNL A   1      29.082  30.454  21.625  1.00  0.00     0.113 A 
BRANCH   9  17
ATOM     17  C   UNL A   1      30.278  25.497  24.677  1.00  0.00     0.017 A 
ATOM     18  C   UNL A   1      32.527  22.882  27.249  1.00  0.00     0.066 C 
ATOM     19  C   UNL A   1      31.723  23.776  26.355  1.00  0.00     0.037 A 
ATOM     20  C   UNL A   1      31.445  23.389  25.059  1.00  0.00     0.024 A 
ATOM     21  N   UNL A   1      31.267  24.945  26.857  1.00  0.00    -0.261 NA
ATOM     22  C   UNL A   1      30.716  24.250  24.242  1.00  0.00     0.014 A 
ATOM     23  C   UNL A   1      30.564  25.761  26.018  1.00  0.00     0.121 A 
ENDBRANCH   9  17
ENDBRANCH   7   8
ENDBRANCH   6   7
ENDBRANCH   3   6
ENDBRANCH   1   2
BRANCH   1  24
ATOM     24  C   UNL A   1      33.464  28.809  27.174  1.00  0.00     0.042 C 
BRANCH  24  25
ATOM     25  C   UNL A   1      34.938  29.109  27.287  1.00  0.00     0.118 C 
BRANCH  25  26
ATOM     26  N   UNL A   1      35.246  30.049  28.349  1.00  0.00    -0.352 N 
ATOM     27  C   UNL A   1      36.330  30.097  29.200  1.00  0.00     0.251 C 
ATOM     28  H   UNL A   1      34.580  30.760  28.482  1.00  0.00     0.163 HD
ATOM     29  O   UNL A   1      36.262  30.801  30.200  1.00  0.00    -0.269 OA
BRANCH  27  30
ATOM     30  C   UNL A   1      37.586  29.357  28.906  1.00  0.00     0.039 A 
ATOM     31  C   UNL A   1      38.021  28.368  29.803  1.00  0.00     0.014 A 
ATOM     32  C   UNL A   1      38.403  29.702  27.829  1.00  0.00     0.014 A 
ATOM     33  C   UNL A   1      39.303  27.843  29.668  1.00  0.00     0.010 A 
ATOM     34  C   UNL A   1      39.571  29.042  27.578  1.00  0.00     0.010 A 
ATOM     35  C   UNL A   1      40.082  28.247  28.580  1.00  0.00    -0.014 A 
BRANCH  35  36
ATOM     36  C   UNL A   1      41.473  27.877  28.437  1.00  0.00     0.031 A 
ATOM     37  C   UNL A   1      41.660  26.634  27.673  1.00  0.00     0.074 A 
ATOM     38  C   UNL A   1      42.477  28.721  28.761  1.00  0.00     0.049 A 
ATOM     39  N   UNL A   1      41.909  25.460  28.144  1.00  0.00    -0.248 NA
ATOM     40  C   UNL A   1      41.326  26.649  26.240  1.00  0.00     0.031 C 
ATOM     41  C   UNL A   1      42.385  30.129  29.179  1.00  0.00     0.029 A 
ATOM     42  N   UNL A   1      43.822  28.513  28.707  1.00  0.00    -0.354 N 
ATOM     43  C   UNL A   1      42.043  24.645  27.027  1.00  0.00     0.074 A 
ATOM     44  C   UNL A   1      41.418  25.351  25.942  1.00  0.00     0.031 C 
ATOM     45  C   UNL A   1      43.610  30.698  29.140  1.00  0.00     0.029 A 
ATOM     46  C   UNL A   1      44.588  29.663  28.865  1.00  0.00     0.049 A 
ATOM     47  H   UNL A   1      44.218  27.624  28.566  1.00  0.00     0.167 HD
ATOM     48  C   UNL A   1      42.976  23.653  27.023  1.00  0.00     0.037 A 
ATOM     49  C   UNL A   1      45.937  29.744  28.769  1.00  0.00     0.037 A 
ATOM     50  C   UNL A   1      43.494  23.451  28.358  1.00  0.00     0.049 A 
ATOM     51  C   UNL A   1      46.472  28.381  28.996  1.00  0.00     0.074 A 
ATOM     52  C   UNL A   1      43.053  22.901  29.540  1.00  0.00     0.029 A 
ATOM     53  N   UNL A   1      44.550  24.273  28.658  1.00  0.00    -0.354 N 
ATOM     54  N   UNL A   1      46.371  27.751  30.134  1.00  0.00    -0.248 NA
ATOM     55  C   UNL A   1      46.792  27.541  27.847  1.00  0.00     0.031 C 
ATOM     56  C   UNL A   1      43.773  23.566  30.581  1.00  0.00     0.029 A 
ATOM     57  C   UNL A   1      44.660  24.476  30.006  1.00  0.00     0.049 A 
ATOM     58  H   UNL A   1      45.154  24.668  27.988  1.00  0.00     0.167 HD
ATOM     59  C   UNL A   1      46.185  26.427  29.781  1.00  0.00     0.074 A 
ATOM     60  C   UNL A   1      46.630  26.334  28.396  1.00  0.00     0.031 C 
ATOM     61  C   UNL A   1      45.388  25.610  30.531  1.00  0.00     0.037 A 
BRANCH  48  62
ATOM     62  C   UNL A   1      43.818  23.263  25.821  1.00  0.00     0.057 A 
ATOM     63  C   UNL A   1      44.803  24.072  25.218  1.00  0.00     0.134 A 
ATOM     64  C   UNL A   1      43.883  21.899  25.474  1.00  0.00     0.134 A 
ATOM     65  F   UNL A   1      44.921  25.381  25.460  1.00  0.00    -0.206 F 
ATOM     66  C   UNL A   1      45.808  23.559  24.392  1.00  0.00     0.040 A 
ATOM     67  C   UNL A   1      44.911  21.370  24.683  1.00  0.00     0.040 A 
ATOM     68  F   UNL A   1      42.996  21.021  25.966  1.00  0.00    -0.206 F 
ATOM     69  C   UNL A   1      45.889  22.200  24.152  1.00  0.00     0.006 A 
ENDBRANCH  48  62
BRANCH  49  70
ATOM     70  C   UNL A   1      46.769  30.845  28.237  1.00  0.00     0.057 A 
ATOM     71  C   UNL A   1      47.523  31.658  29.099  1.00  0.00     0.134 A 
ATOM     72  C   UNL A   1      46.615  31.312  26.923  1.00  0.00     0.134 A 
ATOM     73  F   UNL A   1      47.683  31.333  30.391  1.00  0.00    -0.206 F 
ATOM     74  C   UNL A   1      48.062  32.884  28.691  1.00  0.00     0.040 A 
ATOM     75  C   UNL A   1      47.151  32.537  26.501  1.00  0.00     0.040 A 
ATOM     76  F   UNL A   1      45.883  30.621  26.038  1.00  0.00    -0.206 F 
ATOM     77  C   UNL A   1      47.863  33.335  27.392  1.00  0.00     0.006 A 
ENDBRANCH  49  70
BRANCH  61  78
ATOM     78  C   UNL A   1      45.125  26.025  31.947  1.00  0.00     0.057 A 
ATOM     79  C   UNL A   1      46.033  25.629  32.933  1.00  0.00     0.134 A 
ATOM     80  C   UNL A   1      43.989  26.726  32.372  1.00  0.00     0.134 A 
ATOM     81  F   UNL A   1      47.121  24.917  32.603  1.00  0.00    -0.206 F 
ATOM     82  C   UNL A   1      45.829  25.925  34.282  1.00  0.00     0.040 A 
ATOM     83  C   UNL A   1      43.787  27.055  33.716  1.00  0.00     0.040 A 
ATOM     84  F   UNL A   1      43.030  27.079  31.509  1.00  0.00    -0.206 F 
ATOM     85  C   UNL A   1      44.708  26.650  34.677  1.00  0.00     0.006 A 
ENDBRANCH  61  78
ENDBRANCH  35  36
ENDBRANCH  27  30
ENDBRANCH  25  26
ENDBRANCH  24  25
ENDBRANCH   1  24
TORSDOF 13
ENDMDL
MODEL 2
REMARK VINA RESULT:     -12.7      1.861      6.051
REMARK SMILES Cc1ccc(-c2cc3cccnc3n2CCC(=O)NCCCNC(=O)c2ccc(-c3c4nc(c(-c5c(F)cccc5F)c5ccc([nH]5)c(-c5c(F)cccc5F)c5nc(c(-c6c(F)cccc6F)c6ccc3[nH]6)C=C5)C=C4)cc2)cn1
REMARK SMILES IDX 20 1 19 2 17 3 18 4 16 6 15 7 14 8 6 9 7 10 8 11 13 12 9 13
REMARK SMILES IDX 12 14 10 15 11 16 5 17 1 18 2 19 3 20 81 21 4 22 80 23 21 24
REMARK SMILES IDX 22 25 23 26 24 27 25 29 26 30 27 31 79 32 28 33 78 34 29 35
REMARK SMILES IDX 30 36 31 37 72 38 32 39 77 40 71 41 73 42 33 43 76 44 70 45
REMARK SMILES IDX 69 46 34 48 60 49 43 50 59 51 44 52 47 53 58 54 74 55 45 56
REMARK SMILES IDX 46 57 57 59 75 60 48 61 35 62 36 63 41 64 37 65 38 66 40 67
REMARK SMILES IDX 42 68 39 69 61 70 62 71 67 72 63 73 64 74 66 75 68 76 65 77
REMARK SMILES IDX 49 78 50 79 55 80 51 81 52 82 54 83 56 84 53 85
REMARK H PARENT 19 5 23 28 73 47 47 58
REMARK Flexibility Score: inf
ROOT
ATOM      1  C   UNL A   1      32.138  29.605  25.748  1.00  0.00     0.117 C 
ENDROOT
BRANCH   1   2
ATOM      2  N   UNL A   1      33.103  29.703  24.662  1.00  0.00    -0.356 N 
ATOM      3  C   UNL A   1      33.362  28.867  23.619  1.00  0.00     0.221 C 
ATOM      4  O   UNL A   1      34.114  29.278  22.730  1.00  0.00    -0.275 OA
ATOM      5  H   UNL A   1      33.665  30.512  24.686  1.00  0.00     0.163 HD
BRANCH   3   6
ATOM      6  C   UNL A   1      32.797  27.466  23.547  1.00  0.00     0.122 C 
BRANCH   6   7
ATOM      7  C   UNL A   1      31.742  27.252  22.446  1.00  0.00     0.134 C 
BRANCH   7   8
ATOM      8  N   UNL A   1      30.359  27.265  22.908  1.00  0.00    -0.325 N 
ATOM      9  C   UNL A   1      29.692  26.414  23.798  1.00  0.00     0.052 A 
ATOM     10  C   UNL A   1      28.386  26.920  23.874  1.00  0.00     0.039 A 
ATOM     11  C   UNL A   1      28.317  28.157  23.184  1.00  0.00     0.020 A 
ATOM     12  C   UNL A   1      29.522  28.302  22.520  1.00  0.00     0.140 A 
ATOM     13  C   UNL A   1      27.405  29.225  23.121  1.00  0.00     0.013 A 
ATOM     14  N   UNL A   1      29.891  29.341  21.740  1.00  0.00    -0.238 NA
ATOM     15  C   UNL A   1      27.767  30.344  22.370  1.00  0.00     0.021 A 
ATOM     16  C   UNL A   1      28.978  30.334  21.695  1.00  0.00     0.113 A 
BRANCH   9  17
ATOM     17  C   UNL A   1      30.259  25.365  24.692  1.00  0.00     0.017 A 
ATOM     18  C   UNL A   1      32.544  22.768  27.253  1.00  0.00     0.066 C 
ATOM     19  C   UNL A   1      31.727  23.655  26.362  1.00  0.00     0.037 A 
ATOM     20  C   UNL A   1      31.471  23.279  25.059  1.00  0.00     0.024 A 
ATOM     21  N   UNL A   1      31.240  24.807  26.875  1.00  0.00    -0.261 NA
ATOM     22  C   UNL A   1      30.729  24.134  24.246  1.00  0.00     0.014 A 
ATOM     23  C   UNL A   1      30.527  25.618  26.039  1.00  0.00     0.121 A 
ENDBRANCH   9  17
ENDBRANCH   7   8
ENDBRANCH   6   7
ENDBRANCH   3   6
ENDBRANCH   1   2
BRANCH   1  24
ATOM     24  C   UNL A   1      32.405  30.569  26.884  1.00  0.00     0.042 C 
BRANCH  24  25
ATOM     25  C   UNL A   1      33.849  30.828  27.233  1.00  0.00     0.118 C 
BRANCH  25  26
ATOM     26  N   UNL A   1      34.009  31.748  28.345  1.00  0.00    -0.352 N 
ATOM     27  C   UNL A   1      34.986  31.800  29.316  1.00  0.00     0.251 C 
ATOM     28  H   UNL A   1      33.314  32.440  28.415  1.00  0.00     0.163 HD
ATOM     29  O   UNL A   1      34.785  32.477  30.316  1.00  0.00    -0.269 OA
BRANCH  27  30
ATOM     30  C   UNL A   1      36.286  31.097  29.152  1.00  0.00     0.039 A 
ATOM     31  C   UNL A   1      36.290  29.703  28.978  1.00  0.00     0.014 A 
ATOM     32  C   UNL A   1      37.503  31.766  29.289  1.00  0.00     0.014 A 
ATOM     33  C   UNL A   1      37.494  29.010  29.065  1.00  0.00     0.010 A 
ATOM     34  C   UNL A   1      38.695  31.112  29.169  1.00  0.00     0.010 A 
ATOM     35  C   UNL A   1      38.676  29.737  29.226  1.00  0.00    -0.014 A 
BRANCH  35  36
ATOM     36  C   UNL A   1      39.953  29.104  29.477  1.00  0.00     0.031 A 
ATOM     37  C   UNL A   1      40.287  29.037  30.908  1.00  0.00     0.074 A 
ATOM     38  C   UNL A   1      40.626  28.438  28.514  1.00  0.00     0.049 A 
ATOM     39  N   UNL A   1      41.098  29.802  31.556  1.00  0.00    -0.248 NA
ATOM     40  C   UNL A   1      39.476  28.158  31.765  1.00  0.00     0.031 C 
ATOM     41  C   UNL A   1      40.187  28.130  27.143  1.00  0.00     0.029 A 
ATOM     42  N   UNL A   1      41.836  27.818  28.587  1.00  0.00    -0.354 N 
ATOM     43  C   UNL A   1      41.103  29.305  32.853  1.00  0.00     0.074 A 
ATOM     44  C   UNL A   1      39.917  28.502  32.977  1.00  0.00     0.031 C 
ATOM     45  C   UNL A   1      41.019  27.217  26.592  1.00  0.00     0.029 A 
ATOM     46  C   UNL A   1      42.134  27.008  27.496  1.00  0.00     0.049 A 
ATOM     47  H   UNL A   1      42.448  27.932  29.348  1.00  0.00     0.167 HD
ATOM     48  C   UNL A   1      42.262  29.296  33.567  1.00  0.00     0.037 A 
ATOM     49  C   UNL A   1      43.228  26.221  27.360  1.00  0.00     0.037 A 
ATOM     50  C   UNL A   1      43.264  30.098  32.901  1.00  0.00     0.049 A 
ATOM     51  C   UNL A   1      44.264  26.753  28.275  1.00  0.00     0.074 A 
ATOM     52  C   UNL A   1      43.514  31.435  32.695  1.00  0.00     0.029 A 
ATOM     53  N   UNL A   1      43.982  29.399  31.964  1.00  0.00    -0.354 N 
ATOM     54  N   UNL A   1      44.818  27.925  28.127  1.00  0.00    -0.248 NA
ATOM     55  C   UNL A   1      44.426  26.151  29.594  1.00  0.00     0.031 C 
ATOM     56  C   UNL A   1      44.268  31.517  31.483  1.00  0.00     0.029 A 
ATOM     57  C   UNL A   1      44.491  30.227  31.003  1.00  0.00     0.049 A 
ATOM     58  H   UNL A   1      44.114  28.423  31.981  1.00  0.00     0.167 HD
ATOM     59  C   UNL A   1      45.011  28.382  29.419  1.00  0.00     0.074 A 
ATOM     60  C   UNL A   1      44.924  27.195  30.261  1.00  0.00     0.031 C 
ATOM     61  C   UNL A   1      44.895  29.710  29.713  1.00  0.00     0.037 A 
BRANCH  48  62
ATOM     62  C   UNL A   1      42.692  28.181  34.505  1.00  0.00     0.057 A 
ATOM     63  C   UNL A   1      42.629  28.231  35.913  1.00  0.00     0.134 A 
ATOM     64  C   UNL A   1      42.851  26.889  33.968  1.00  0.00     0.134 A 
ATOM     65  F   UNL A   1      42.441  29.363  36.596  1.00  0.00    -0.206 F 
ATOM     66  C   UNL A   1      42.655  27.086  36.717  1.00  0.00     0.040 A 
ATOM     67  C   UNL A   1      42.835  25.734  34.762  1.00  0.00     0.040 A 
ATOM     68  F   UNL A   1      42.941  26.701  32.642  1.00  0.00    -0.206 F 
ATOM     69  C   UNL A   1      42.719  25.831  36.141  1.00  0.00     0.006 A 
ENDBRANCH  48  62
BRANCH  49  70
ATOM     70  C   UNL A   1      43.349  24.900  26.706  1.00  0.00     0.057 A 
ATOM     71  C   UNL A   1      44.030  24.762  25.485  1.00  0.00     0.134 A 
ATOM     72  C   UNL A   1      42.558  23.811  27.099  1.00  0.00     0.134 A 
ATOM     73  F   UNL A   1      44.769  25.767  24.989  1.00  0.00    -0.206 F 
ATOM     74  C   UNL A   1      43.904  23.623  24.682  1.00  0.00     0.040 A 
ATOM     75  C   UNL A   1      42.424  22.663  26.305  1.00  0.00     0.040 A 
ATOM     76  F   UNL A   1      41.844  23.864  28.232  1.00  0.00    -0.206 F 
ATOM     77  C   UNL A   1      43.085  22.574  25.084  1.00  0.00     0.006 A 
ENDBRANCH  49  70
BRANCH  61  78
ATOM     78  C   UNL A   1      45.032  30.676  28.576  1.00  0.00     0.057 A 
ATOM     79  C   UNL A   1      46.306  31.161  28.267  1.00  0.00     0.134 A 
ATOM     80  C   UNL A   1      43.959  31.192  27.837  1.00  0.00     0.134 A 
ATOM     81  F   UNL A   1      47.374  30.744  28.964  1.00  0.00    -0.206 F 
ATOM     82  C   UNL A   1      46.510  32.108  27.262  1.00  0.00     0.040 A 
ATOM     83  C   UNL A   1      44.152  32.118  26.807  1.00  0.00     0.040 A 
ATOM     84  F   UNL A   1      42.698  30.843  28.112  1.00  0.00    -0.206 F 
ATOM     85  C   UNL A   1      45.432  32.581  26.520  1.00  0.00     0.006 A 
ENDBRANCH  61  78
ENDBRANCH  35  36
ENDBRANCH  27  30
ENDBRANCH  25  26
ENDBRANCH  24  25
ENDBRANCH   1  24
TORSDOF 13
ENDMDL
MODEL 3
REMARK VINA RESULT:     -12.7      3.453      7.678
REMARK SMILES Cc1ccc(-c2cc3cccnc3n2CCC(=O)NCCCNC(=O)c2ccc(-c3c4nc(c(-c5c(F)cccc5F)c5ccc([nH]5)c(-c5c(F)cccc5F)c5nc(c(-c6c(F)cccc6F)c6ccc3[nH]6)C=C5)C=C4)cc2)cn1
REMARK SMILES IDX 20 1 19 2 17 3 18 4 16 6 15 7 14 8 6 9 7 10 8 11 13 12 9 13
REMARK SMILES IDX 12 14 10 15 11 16 5 17 1 18 2 19 3 20 81 21 4 22 80 23 21 24
REMARK SMILES IDX 22 25 23 26 24 27 25 29 26 30 27 31 79 32 28 33 78 34 29 35
REMARK SMILES IDX 30 36 31 37 72 38 32 39 77 40 71 41 73 42 33 43 76 44 70 45
REMARK SMILES IDX 69 46 34 48 60 49 43 50 59 51 44 52 47 53 58 54 74 55 45 56
REMARK SMILES IDX 46 57 57 59 75 60 48 61 35 62 36 63 41 64 37 65 38 66 40 67
REMARK SMILES IDX 42 68 39 69 61 70 62 71 67 72 63 73 64 74 66 75 68 76 65 77
REMARK SMILES IDX 49 78 50 79 55 80 51 81 52 82 54 83 56 84 53 85
REMARK H PARENT 19 5 23 28 73 47 47 58
REMARK Flexibility Score: inf
ROOT
ATOM      1  C   UNL A   1      39.729  21.260  26.450  1.00  0.00     0.117 C 
ENDROOT
BRANCH   1   2
ATOM      2  N   UNL A   1      39.037  22.097  25.479  1.00  0.00    -0.356 N 
ATOM      3  C   UNL A   1      37.747  22.083  25.046  1.00  0.00     0.221 C 
ATOM      4  O   UNL A   1      37.368  23.027  24.345  1.00  0.00    -0.275 OA
ATOM      5  H   UNL A   1      39.600  22.792  25.064  1.00  0.00     0.163 HD
BRANCH   3   6
ATOM      6  C   UNL A   1      36.800  20.947  25.363  1.00  0.00     0.122 C 
BRANCH   6   7
ATOM      7  C   UNL A   1      35.513  21.365  26.097  1.00  0.00     0.134 C 
BRANCH   7   8
ATOM      8  N   UNL A   1      34.387  21.691  25.231  1.00  0.00    -0.325 N 
ATOM      9  C   UNL A   1      33.538  20.855  24.495  1.00  0.00     0.052 A 
ATOM     10  C   UNL A   1      32.630  21.722  23.867  1.00  0.00     0.039 A 
ATOM     11  C   UNL A   1      32.817  23.039  24.360  1.00  0.00     0.020 A 
ATOM     12  C   UNL A   1      33.966  23.009  25.130  1.00  0.00     0.140 A 
ATOM     13  C   UNL A   1      32.089  24.241  24.322  1.00  0.00     0.013 A 
ATOM     14  N   UNL A   1      34.516  24.048  25.796  1.00  0.00    -0.238 NA
ATOM     15  C   UNL A   1      32.591  25.327  25.040  1.00  0.00     0.021 A 
ATOM     16  C   UNL A   1      33.792  25.184  25.717  1.00  0.00     0.113 A 
BRANCH   9  17
ATOM     17  C   UNL A   1      33.411  19.371  24.544  1.00  0.00     0.017 A 
ATOM     18  C   UNL A   1      33.133  15.175  25.455  1.00  0.00     0.066 C 
ATOM     19  C   UNL A   1      33.228  16.630  25.111  1.00  0.00     0.037 A 
ATOM     20  C   UNL A   1      34.378  17.131  24.534  1.00  0.00     0.024 A 
ATOM     21  N   UNL A   1      32.160  17.421  25.361  1.00  0.00    -0.261 NA
ATOM     22  C   UNL A   1      34.448  18.493  24.247  1.00  0.00     0.014 A 
ATOM     23  C   UNL A   1      32.278  18.750  25.073  1.00  0.00     0.121 A 
ENDBRANCH   9  17
ENDBRANCH   7   8
ENDBRANCH   6   7
ENDBRANCH   3   6
ENDBRANCH   1   2
BRANCH   1  24
ATOM     24  C   UNL A   1      40.563  20.165  25.821  1.00  0.00     0.042 C 
BRANCH  24  25
ATOM     25  C   UNL A   1      41.828  19.773  26.541  1.00  0.00     0.118 C 
BRANCH  25  26
ATOM     26  N   UNL A   1      42.942  19.534  25.642  1.00  0.00    -0.352 N 
ATOM     27  C   UNL A   1      43.778  20.431  25.010  1.00  0.00     0.251 C 
ATOM     28  H   UNL A   1      43.130  18.587  25.454  1.00  0.00     0.163 HD
ATOM     29  O   UNL A   1      44.472  20.035  24.083  1.00  0.00    -0.269 OA
BRANCH  27  30
ATOM     30  C   UNL A   1      43.888  21.844  25.461  1.00  0.00     0.039 A 
ATOM     31  C   UNL A   1      44.805  22.166  26.474  1.00  0.00     0.014 A 
ATOM     32  C   UNL A   1      43.021  22.831  24.992  1.00  0.00     0.014 A 
ATOM     33  C   UNL A   1      44.749  23.423  27.069  1.00  0.00     0.010 A 
ATOM     34  C   UNL A   1      43.104  24.121  25.431  1.00  0.00     0.010 A 
ATOM     35  C   UNL A   1      43.842  24.362  26.568  1.00  0.00    -0.014 A 
BRANCH  35  36
ATOM     36  C   UNL A   1      43.603  25.635  27.211  1.00  0.00     0.031 A 
ATOM     37  C   UNL A   1      44.579  26.665  26.823  1.00  0.00     0.074 A 
ATOM     38  C   UNL A   1      42.466  25.893  27.892  1.00  0.00     0.049 A 
ATOM     39  N   UNL A   1      45.595  27.073  27.504  1.00  0.00    -0.248 NA
ATOM     40  C   UNL A   1      44.550  27.153  25.435  1.00  0.00     0.031 C 
ATOM     41  C   UNL A   1      41.266  25.049  28.014  1.00  0.00     0.029 A 
ATOM     42  N   UNL A   1      42.107  27.021  28.565  1.00  0.00    -0.354 N 
ATOM     43  C   UNL A   1      46.166  28.077  26.733  1.00  0.00     0.074 A 
ATOM     44  C   UNL A   1      45.663  27.891  25.400  1.00  0.00     0.031 C 
ATOM     45  C   UNL A   1      40.250  25.772  28.537  1.00  0.00     0.029 A 
ATOM     46  C   UNL A   1      40.769  27.065  28.943  1.00  0.00     0.049 A 
ATOM     47  H   UNL A   1      42.741  27.745  28.767  1.00  0.00     0.167 HD
ATOM     48  C   UNL A   1      46.692  29.177  27.340  1.00  0.00     0.037 A 
ATOM     49  C   UNL A   1      40.142  28.104  29.546  1.00  0.00     0.037 A 
ATOM     50  C   UNL A   1      46.806  28.954  28.764  1.00  0.00     0.049 A 
ATOM     51  C   UNL A   1      41.189  28.928  30.192  1.00  0.00     0.074 A 
ATOM     52  C   UNL A   1      47.607  28.222  29.611  1.00  0.00     0.029 A 
ATOM     53  N   UNL A   1      45.664  29.272  29.455  1.00  0.00    -0.354 N 
ATOM     54  N   UNL A   1      41.921  28.508  31.187  1.00  0.00    -0.248 NA
ATOM     55  C   UNL A   1      41.704  30.100  29.493  1.00  0.00     0.031 C 
ATOM     56  C   UNL A   1      46.820  27.962  30.776  1.00  0.00     0.029 A 
ATOM     57  C   UNL A   1      45.576  28.573  30.627  1.00  0.00     0.049 A 
ATOM     58  H   UNL A   1      44.992  29.923  29.146  1.00  0.00     0.167 HD
ATOM     59  C   UNL A   1      43.164  29.074  30.965  1.00  0.00     0.074 A 
ATOM     60  C   UNL A   1      42.924  30.169  30.033  1.00  0.00     0.031 C 
ATOM     61  C   UNL A   1      44.305  28.403  31.297  1.00  0.00     0.037 A 
BRANCH  48  62
ATOM     62  C   UNL A   1      46.582  30.595  26.807  1.00  0.00     0.057 A 
ATOM     63  C   UNL A   1      45.376  31.287  26.572  1.00  0.00     0.134 A 
ATOM     64  C   UNL A   1      47.729  31.412  26.858  1.00  0.00     0.134 A 
ATOM     65  F   UNL A   1      44.185  30.684  26.530  1.00  0.00    -0.206 F 
ATOM     66  C   UNL A   1      45.307  32.680  26.463  1.00  0.00     0.040 A 
ATOM     67  C   UNL A   1      47.664  32.810  26.793  1.00  0.00     0.040 A 
ATOM     68  F   UNL A   1      48.944  30.879  27.060  1.00  0.00    -0.206 F 
ATOM     69  C   UNL A   1      46.446  33.449  26.612  1.00  0.00     0.006 A 
ENDBRANCH  48  62
BRANCH  49  70
ATOM     70  C   UNL A   1      38.751  28.575  29.378  1.00  0.00     0.057 A 
ATOM     71  C   UNL A   1      38.355  29.249  28.210  1.00  0.00     0.134 A 
ATOM     72  C   UNL A   1      37.863  28.644  30.462  1.00  0.00     0.134 A 
ATOM     73  F   UNL A   1      39.156  29.294  27.135  1.00  0.00    -0.206 F 
ATOM     74  C   UNL A   1      37.165  29.980  28.134  1.00  0.00     0.040 A 
ATOM     75  C   UNL A   1      36.667  29.373  30.399  1.00  0.00     0.040 A 
ATOM     76  F   UNL A   1      38.170  28.062  31.630  1.00  0.00    -0.206 F 
ATOM     77  C   UNL A   1      36.322  30.058  29.237  1.00  0.00     0.006 A 
ENDBRANCH  49  70
BRANCH  61  78
ATOM     78  C   UNL A   1      44.182  27.302  32.307  1.00  0.00     0.057 A 
ATOM     79  C   UNL A   1      44.165  27.645  33.663  1.00  0.00     0.134 A 
ATOM     80  C   UNL A   1      44.153  25.936  31.996  1.00  0.00     0.134 A 
ATOM     81  F   UNL A   1      44.234  28.932  34.035  1.00  0.00    -0.206 F 
ATOM     82  C   UNL A   1      44.112  26.676  34.666  1.00  0.00     0.040 A 
ATOM     83  C   UNL A   1      44.069  24.956  32.990  1.00  0.00     0.040 A 
ATOM     84  F   UNL A   1      44.241  25.513  30.730  1.00  0.00    -0.206 F 
ATOM     85  C   UNL A   1      44.052  25.326  34.331  1.00  0.00     0.006 A 
ENDBRANCH  61  78
ENDBRANCH  35  36
ENDBRANCH  27  30
ENDBRANCH  25  26
ENDBRANCH  24  25
ENDBRANCH   1  24
TORSDOF 13
ENDMDL
