MODEL 1
REMARK VINA RESULT:     -12.8      0.000      0.000
REMARK SMILES O=C(NCCCNC(=O)c1ccsc1NC(=O)c1cc2c(F)cccc2s1)c1ccc(-c2c3nc(c(-c4c(F)cccc4F)c4ccc([nH]4)c(-c4c(F)cccc4F)c4nc(c(-c5c(F)cccc5F)c5ccc2[nH]5)C=C4)C=C3)cc1
REMARK SMILES IDX 5 1 4 2 3 3 1 4 2 5 28 7 29 8 81 9 30 10 80 11 31 12 32 13
REMARK SMILES IDX 33 14 74 15 34 16 79 17 73 18 75 19 35 20 78 21 72 22 71 23
REMARK SMILES IDX 36 25 62 26 45 27 61 28 46 29 49 30 60 31 76 32 47 33 48 34
REMARK SMILES IDX 59 36 77 37 50 38 37 39 38 40 43 41 39 42 40 43 42 44 44 45
REMARK SMILES IDX 41 46 63 47 64 48 69 49 65 50 66 51 68 52 70 53 67 54 51 55
REMARK SMILES IDX 52 56 57 57 53 58 54 59 56 60 58 61 55 62 6 63 7 64 8 65
REMARK SMILES IDX 9 67 10 68 11 69 14 70 12 71 13 72 15 73 16 74 17 76 18 77
REMARK SMILES IDX 19 78 27 79 20 80 26 81 21 82 25 83 22 84 23 85 24 86
REMARK H PARENT 3 6 75 24 49 35 7 66 15 75
REMARK Flexibility Score: inf
ROOT
ATOM      1  C   UNL A   1      34.498  28.492  26.655  1.00  0.00     0.042 C 
ENDROOT
BRANCH   1   2
ATOM      2  C   UNL A   1      35.169  29.678  27.336  1.00  0.00     0.118 C 
BRANCH   2   3
ATOM      3  N   UNL A   1      35.313  29.545  28.774  1.00  0.00    -0.352 N 
ATOM      4  O   UNL A   1      36.081  29.507  30.841  1.00  0.00    -0.269 OA
ATOM      5  C   UNL A   1      36.365  29.444  29.642  1.00  0.00     0.251 C 
ATOM      6  H   UNL A   1      34.444  29.522  29.236  1.00  0.00     0.163 HD
BRANCH   5   7
ATOM      7  C   UNL A   1      37.779  29.175  29.261  1.00  0.00     0.039 A 
ATOM      8  C   UNL A   1      38.418  29.629  28.109  1.00  0.00     0.014 A 
ATOM      9  C   UNL A   1      38.510  28.361  30.154  1.00  0.00     0.014 A 
ATOM     10  C   UNL A   1      39.710  29.195  27.810  1.00  0.00     0.010 A 
ATOM     11  C   UNL A   1      39.803  27.930  29.863  1.00  0.00     0.010 A 
ATOM     12  C   UNL A   1      40.393  28.319  28.669  1.00  0.00    -0.014 A 
BRANCH  12  13
ATOM     13  C   UNL A   1      41.807  28.054  28.396  1.00  0.00     0.031 A 
ATOM     14  C   UNL A   1      42.008  26.785  27.645  1.00  0.00     0.074 A 
ATOM     15  C   UNL A   1      42.856  28.851  28.693  1.00  0.00     0.049 A 
ATOM     16  N   UNL A   1      42.464  25.673  28.116  1.00  0.00    -0.248 NA
ATOM     17  C   UNL A   1      41.489  26.684  26.273  1.00  0.00     0.031 C 
ATOM     18  C   UNL A   1      42.849  30.235  29.167  1.00  0.00     0.029 A 
ATOM     19  N   UNL A   1      44.194  28.580  28.580  1.00  0.00    -0.354 N 
ATOM     20  C   UNL A   1      42.484  24.780  27.049  1.00  0.00     0.074 A 
ATOM     21  C   UNL A   1      41.723  25.399  25.997  1.00  0.00     0.031 C 
ATOM     22  C   UNL A   1      44.107  30.741  29.105  1.00  0.00     0.029 A 
ATOM     23  C   UNL A   1      45.032  29.685  28.724  1.00  0.00     0.049 A 
ATOM     24  H   UNL A   1      44.538  27.674  28.409  1.00  0.00     0.167 HD
ATOM     25  C   UNL A   1      43.335  23.716  27.056  1.00  0.00     0.037 A 
ATOM     26  C   UNL A   1      46.381  29.728  28.529  1.00  0.00     0.037 A 
ATOM     27  C   UNL A   1      43.817  23.459  28.395  1.00  0.00     0.049 A 
ATOM     28  C   UNL A   1      46.894  28.340  28.621  1.00  0.00     0.074 A 
ATOM     29  C   UNL A   1      43.233  23.145  29.607  1.00  0.00     0.029 A 
ATOM     30  N   UNL A   1      45.088  23.881  28.694  1.00  0.00    -0.354 N 
ATOM     31  N   UNL A   1      46.958  27.663  29.730  1.00  0.00    -0.248 NA
ATOM     32  C   UNL A   1      46.924  27.551  27.400  1.00  0.00     0.031 C 
ATOM     33  C   UNL A   1      44.001  23.852  30.581  1.00  0.00     0.029 A 
ATOM     34  C   UNL A   1      45.049  24.491  29.917  1.00  0.00     0.049 A 
ATOM     35  H   UNL A   1      45.886  23.766  28.129  1.00  0.00     0.167 HD
ATOM     36  C   UNL A   1      46.549  26.389  29.376  1.00  0.00     0.074 A 
ATOM     37  C   UNL A   1      46.629  26.355  27.916  1.00  0.00     0.031 C 
ATOM     38  C   UNL A   1      45.912  25.587  30.278  1.00  0.00     0.037 A 
BRANCH  25  39
ATOM     39  C   UNL A   1      44.083  23.210  25.840  1.00  0.00     0.057 A 
ATOM     40  C   UNL A   1      45.007  23.967  25.093  1.00  0.00     0.134 A 
ATOM     41  C   UNL A   1      44.151  21.817  25.627  1.00  0.00     0.134 A 
ATOM     42  F   UNL A   1      45.088  25.298  25.175  1.00  0.00    -0.206 F 
ATOM     43  C   UNL A   1      45.982  23.383  24.280  1.00  0.00     0.040 A 
ATOM     44  C   UNL A   1      45.153  21.221  24.854  1.00  0.00     0.040 A 
ATOM     45  F   UNL A   1      43.311  20.980  26.257  1.00  0.00    -0.206 F 
ATOM     46  C   UNL A   1      46.088  22.004  24.194  1.00  0.00     0.006 A 
ENDBRANCH  25  39
BRANCH  26  47
ATOM     47  C   UNL A   1      47.259  30.819  28.036  1.00  0.00     0.057 A 
ATOM     48  C   UNL A   1      48.234  31.392  28.865  1.00  0.00     0.134 A 
ATOM     49  C   UNL A   1      46.955  31.536  26.864  1.00  0.00     0.134 A 
ATOM     50  F   UNL A   1      48.551  30.833  30.042  1.00  0.00    -0.206 F 
ATOM     51  C   UNL A   1      48.849  32.615  28.567  1.00  0.00     0.040 A 
ATOM     52  C   UNL A   1      47.561  32.763  26.555  1.00  0.00     0.040 A 
ATOM     53  F   UNL A   1      46.005  31.101  26.024  1.00  0.00    -0.206 F 
ATOM     54  C   UNL A   1      48.504  33.314  27.416  1.00  0.00     0.006 A 
ENDBRANCH  26  47
BRANCH  38  55
ATOM     55  C   UNL A   1      45.944  25.990  31.725  1.00  0.00     0.057 A 
ATOM     56  C   UNL A   1      44.882  26.757  32.218  1.00  0.00     0.134 A 
ATOM     57  C   UNL A   1      47.012  25.747  32.602  1.00  0.00     0.134 A 
ATOM     58  F   UNL A   1      43.848  27.074  31.421  1.00  0.00    -0.206 F 
ATOM     59  C   UNL A   1      44.869  27.249  33.523  1.00  0.00     0.040 A 
ATOM     60  C   UNL A   1      46.993  26.201  33.926  1.00  0.00     0.040 A 
ATOM     61  F   UNL A   1      48.119  25.110  32.196  1.00  0.00    -0.206 F 
ATOM     62  C   UNL A   1      45.920  26.958  34.388  1.00  0.00     0.006 A 
ENDBRANCH  38  55
ENDBRANCH  12  13
ENDBRANCH   5   7
ENDBRANCH   2   3
ENDBRANCH   1   2
BRANCH   1  63
ATOM     63  C   UNL A   1      33.514  28.896  25.559  1.00  0.00     0.118 C 
BRANCH  63  64
ATOM     64  N   UNL A   1      34.110  28.915  24.225  1.00  0.00    -0.352 N 
ATOM     65  C   UNL A   1      33.517  28.616  23.016  1.00  0.00     0.254 C 
ATOM     66  H   UNL A   1      35.059  29.177  24.183  1.00  0.00     0.163 HD
ATOM     67  O   UNL A   1      34.181  28.506  21.997  1.00  0.00    -0.269 OA
BRANCH  65  68
ATOM     68  C   UNL A   1      32.095  28.360  23.068  1.00  0.00     0.074 A 
ATOM     69  C   UNL A   1      31.114  29.164  23.750  1.00  0.00     0.028 A 
ATOM     70  C   UNL A   1      31.455  27.349  22.380  1.00  0.00     0.108 A 
ATOM     71  C   UNL A   1      29.922  28.489  23.902  1.00  0.00     0.068 A 
ATOM     72  S   UNL A   1      30.073  26.886  23.300  1.00  0.00    -0.126 S 
BRANCH  70  73
ATOM     73  N   UNL A   1      31.876  26.616  21.283  1.00  0.00    -0.312 N 
ATOM     74  C   UNL A   1      32.728  25.510  21.240  1.00  0.00     0.266 C 
ATOM     75  H   UNL A   1      31.528  26.918  20.413  1.00  0.00     0.171 HD
ATOM     76  O   UNL A   1      33.099  25.135  20.124  1.00  0.00    -0.268 OA
BRANCH  74  77
ATOM     77  C   UNL A   1      33.017  24.764  22.458  1.00  0.00     0.094 A 
ATOM     78  C   UNL A   1      34.032  24.973  23.362  1.00  0.00     0.037 A 
ATOM     79  S   UNL A   1      31.964  23.557  23.093  1.00  0.00    -0.130 S 
ATOM     80  C   UNL A   1      34.179  23.923  24.292  1.00  0.00     0.029 A 
ATOM     81  C   UNL A   1      32.895  23.464  24.556  1.00  0.00     0.038 A 
ATOM     82  C   UNL A   1      35.215  23.716  25.206  1.00  0.00     0.131 A 
ATOM     83  C   UNL A   1      32.552  23.087  25.857  1.00  0.00     0.020 A 
ATOM     84  F   UNL A   1      36.489  23.971  24.873  1.00  0.00    -0.206 F 
ATOM     85  C   UNL A   1      34.857  23.546  26.527  1.00  0.00     0.040 A 
ATOM     86  C   UNL A   1      33.523  23.303  26.853  1.00  0.00     0.005 A 
ENDBRANCH  74  77
ENDBRANCH  70  73
ENDBRANCH  65  68
ENDBRANCH  63  64
ENDBRANCH   1  63
TORSDOF 12
ENDMDL
MODEL 2
REMARK VINA RESULT:     -12.6      2.454      6.447
REMARK SMILES O=C(NCCCNC(=O)c1ccsc1NC(=O)c1cc2c(F)cccc2s1)c1ccc(-c2c3nc(c(-c4c(F)cccc4F)c4ccc([nH]4)c(-c4c(F)cccc4F)c4nc(c(-c5c(F)cccc5F)c5ccc2[nH]5)C=C4)C=C3)cc1
REMARK SMILES IDX 5 1 4 2 3 3 1 4 2 5 28 7 29 8 81 9 30 10 80 11 31 12 32 13
REMARK SMILES IDX 33 14 74 15 34 16 79 17 73 18 75 19 35 20 78 21 72 22 71 23
REMARK SMILES IDX 36 25 62 26 45 27 61 28 46 29 49 30 60 31 76 32 47 33 48 34
REMARK SMILES IDX 59 36 77 37 50 38 37 39 38 40 43 41 39 42 40 43 42 44 44 45
REMARK SMILES IDX 41 46 63 47 64 48 69 49 65 50 66 51 68 52 70 53 67 54 51 55
REMARK SMILES IDX 52 56 57 57 53 58 54 59 56 60 58 61 55 62 6 63 7 64 8 65
REMARK SMILES IDX 9 67 10 68 11 69 14 70 12 71 13 72 15 73 16 74 17 76 18 77
REMARK SMILES IDX 19 78 27 79 20 80 26 81 21 82 25 83 22 84 23 85 24 86
REMARK H PARENT 3 6 75 24 49 35 7 66 15 75
REMARK Flexibility Score: inf
ROOT
ATOM      1  C   UNL A   1      34.242  30.990  27.631  1.00  0.00     0.042 C 
ENDROOT
BRANCH   1   2
ATOM      2  C   UNL A   1      34.350  32.387  28.231  1.00  0.00     0.118 C 
BRANCH   2   3
ATOM      3  N   UNL A   1      34.287  32.428  29.679  1.00  0.00    -0.352 N 
ATOM      4  O   UNL A   1      34.773  32.449  31.830  1.00  0.00    -0.269 OA
ATOM      5  C   UNL A   1      35.144  32.121  30.701  1.00  0.00     0.251 C 
ATOM      6  H   UNL A   1      33.418  32.757  30.007  1.00  0.00     0.163 HD
BRANCH   5   7
ATOM      7  C   UNL A   1      36.413  31.356  30.564  1.00  0.00     0.039 A 
ATOM      8  C   UNL A   1      37.689  31.901  30.437  1.00  0.00     0.014 A 
ATOM      9  C   UNL A   1      36.281  29.950  30.539  1.00  0.00     0.014 A 
ATOM     10  C   UNL A   1      38.782  31.070  30.186  1.00  0.00     0.010 A 
ATOM     11  C   UNL A   1      37.370  29.115  30.295  1.00  0.00     0.010 A 
ATOM     12  C   UNL A   1      38.620  29.678  30.082  1.00  0.00    -0.014 A 
BRANCH  12  13
ATOM     13  C   UNL A   1      39.826  28.852  30.008  1.00  0.00     0.031 A 
ATOM     14  C   UNL A   1      40.478  28.688  31.337  1.00  0.00     0.074 A 
ATOM     15  C   UNL A   1      40.315  28.220  28.920  1.00  0.00     0.049 A 
ATOM     16  N   UNL A   1      41.565  29.257  31.739  1.00  0.00    -0.248 NA
ATOM     17  C   UNL A   1      39.764  27.953  32.391  1.00  0.00     0.031 C 
ATOM     18  C   UNL A   1      39.686  28.029  27.613  1.00  0.00     0.029 A 
ATOM     19  N   UNL A   1      41.506  27.556  28.779  1.00  0.00    -0.354 N 
ATOM     20  C   UNL A   1      41.788  28.794  33.033  1.00  0.00     0.074 A 
ATOM     21  C   UNL A   1      40.572  28.138  33.436  1.00  0.00     0.031 C 
ATOM     22  C   UNL A   1      40.406  27.133  26.891  1.00  0.00     0.029 A 
ATOM     23  C   UNL A   1      41.620  26.793  27.618  1.00  0.00     0.049 A 
ATOM     24  H   UNL A   1      42.226  27.614  29.447  1.00  0.00     0.167 HD
ATOM     25  C   UNL A   1      43.045  28.790  33.556  1.00  0.00     0.037 A 
ATOM     26  C   UNL A   1      42.628  25.937  27.290  1.00  0.00     0.037 A 
ATOM     27  C   UNL A   1      43.914  29.662  32.799  1.00  0.00     0.049 A 
ATOM     28  C   UNL A   1      43.811  26.299  28.106  1.00  0.00     0.074 A 
ATOM     29  C   UNL A   1      43.927  31.007  32.486  1.00  0.00     0.029 A 
ATOM     30  N   UNL A   1      44.784  29.069  31.919  1.00  0.00    -0.354 N 
ATOM     31  N   UNL A   1      44.512  27.380  27.925  1.00  0.00    -0.248 NA
ATOM     32  C   UNL A   1      43.946  25.674  29.411  1.00  0.00     0.031 C 
ATOM     33  C   UNL A   1      44.413  31.070  31.145  1.00  0.00     0.029 A 
ATOM     34  C   UNL A   1      44.738  29.773  30.748  1.00  0.00     0.049 A 
ATOM     35  H   UNL A   1      45.340  28.277  32.098  1.00  0.00     0.167 HD
ATOM     36  C   UNL A   1      44.780  27.832  29.206  1.00  0.00     0.074 A 
ATOM     37  C   UNL A   1      44.487  26.696  30.079  1.00  0.00     0.031 C 
ATOM     38  C   UNL A   1      44.933  29.165  29.456  1.00  0.00     0.037 A 
BRANCH  25  39
ATOM     39  C   UNL A   1      43.605  27.686  34.430  1.00  0.00     0.057 A 
ATOM     40  C   UNL A   1      43.909  26.385  33.983  1.00  0.00     0.134 A 
ATOM     41  C   UNL A   1      44.193  28.040  35.662  1.00  0.00     0.134 A 
ATOM     42  F   UNL A   1      43.445  25.886  32.834  1.00  0.00    -0.206 F 
ATOM     43  C   UNL A   1      44.801  25.543  34.654  1.00  0.00     0.040 A 
ATOM     44  C   UNL A   1      45.123  27.224  36.316  1.00  0.00     0.040 A 
ATOM     45  F   UNL A   1      43.966  29.242  36.216  1.00  0.00    -0.206 F 
ATOM     46  C   UNL A   1      45.447  25.979  35.799  1.00  0.00     0.006 A 
ENDBRANCH  25  39
BRANCH  26  47
ATOM     47  C   UNL A   1      42.617  24.674  26.508  1.00  0.00     0.057 A 
ATOM     48  C   UNL A   1      42.060  23.501  27.038  1.00  0.00     0.134 A 
ATOM     49  C   UNL A   1      43.425  24.506  25.368  1.00  0.00     0.134 A 
ATOM     50  F   UNL A   1      41.332  23.533  28.163  1.00  0.00    -0.206 F 
ATOM     51  C   UNL A   1      42.312  22.236  26.490  1.00  0.00     0.040 A 
ATOM     52  C   UNL A   1      43.688  23.245  24.812  1.00  0.00     0.040 A 
ATOM     53  F   UNL A   1      44.043  25.556  24.808  1.00  0.00    -0.206 F 
ATOM     54  C   UNL A   1      43.140  22.102  25.383  1.00  0.00     0.006 A 
ENDBRANCH  26  47
BRANCH  38  55
ATOM     55  C   UNL A   1      45.113  30.085  28.282  1.00  0.00     0.057 A 
ATOM     56  C   UNL A   1      46.415  30.471  27.942  1.00  0.00     0.134 A 
ATOM     57  C   UNL A   1      44.066  30.678  27.559  1.00  0.00     0.134 A 
ATOM     58  F   UNL A   1      47.465  29.985  28.624  1.00  0.00    -0.206 F 
ATOM     59  C   UNL A   1      46.672  31.389  26.924  1.00  0.00     0.040 A 
ATOM     60  C   UNL A   1      44.312  31.570  26.509  1.00  0.00     0.040 A 
ATOM     61  F   UNL A   1      42.784  30.453  27.875  1.00  0.00    -0.206 F 
ATOM     62  C   UNL A   1      45.619  31.931  26.192  1.00  0.00     0.006 A 
ENDBRANCH  38  55
ENDBRANCH  12  13
ENDBRANCH   5   7
ENDBRANCH   2   3
ENDBRANCH   1   2
BRANCH   1  63
ATOM     63  C   UNL A   1      32.866  30.686  27.042  1.00  0.00     0.118 C 
BRANCH  63  64
ATOM     64  N   UNL A   1      32.235  29.504  27.625  1.00  0.00    -0.352 N 
ATOM     65  C   UNL A   1      31.961  28.293  27.024  1.00  0.00     0.254 C 
ATOM     66  H   UNL A   1      31.972  29.582  28.571  1.00  0.00     0.163 HD
ATOM     67  O   UNL A   1      31.273  27.453  27.582  1.00  0.00    -0.269 OA
BRANCH  65  68
ATOM     68  C   UNL A   1      32.465  28.140  25.677  1.00  0.00     0.074 A 
ATOM     69  C   UNL A   1      33.849  28.013  25.300  1.00  0.00     0.028 A 
ATOM     70  C   UNL A   1      31.673  27.992  24.556  1.00  0.00     0.108 A 
ATOM     71  C   UNL A   1      34.028  28.224  23.950  1.00  0.00     0.068 A 
ATOM     72  S   UNL A   1      32.533  28.658  23.219  1.00  0.00    -0.126 S 
BRANCH  70  73
ATOM     73  N   UNL A   1      30.345  27.615  24.451  1.00  0.00    -0.312 N 
ATOM     74  C   UNL A   1      29.809  26.376  24.096  1.00  0.00     0.266 C 
ATOM     75  H   UNL A   1      29.688  28.320  24.653  1.00  0.00     0.171 HD
ATOM     76  O   UNL A   1      28.591  26.330  23.899  1.00  0.00    -0.268 OA
BRANCH  74  77
ATOM     77  C   UNL A   1      30.646  25.184  24.121  1.00  0.00     0.094 A 
ATOM     78  C   UNL A   1      30.696  24.200  25.080  1.00  0.00     0.037 A 
ATOM     79  S   UNL A   1      31.621  24.692  22.788  1.00  0.00    -0.130 S 
ATOM     80  C   UNL A   1      31.788  23.321  24.926  1.00  0.00     0.029 A 
ATOM     81  C   UNL A   1      31.969  23.174  23.557  1.00  0.00     0.038 A 
ATOM     82  C   UNL A   1      32.249  22.349  25.816  1.00  0.00     0.131 A 
ATOM     83  C   UNL A   1      32.314  21.923  23.037  1.00  0.00     0.020 A 
ATOM     84  F   UNL A   1      32.263  22.576  27.138  1.00  0.00    -0.206 F 
ATOM     85  C   UNL A   1      32.389  21.067  25.325  1.00  0.00     0.040 A 
ATOM     86  C   UNL A   1      32.350  20.851  23.948  1.00  0.00     0.005 A 
ENDBRANCH  74  77
ENDBRANCH  70  73
ENDBRANCH  65  68
ENDBRANCH  63  64
ENDBRANCH   1  63
TORSDOF 12
ENDMDL
MODEL 3
REMARK VINA RESULT:     -12.5      2.018      6.135
REMARK SMILES O=C(NCCCNC(=O)c1ccsc1NC(=O)c1cc2c(F)cccc2s1)c1ccc(-c2c3nc(c(-c4c(F)cccc4F)c4ccc([nH]4)c(-c4c(F)cccc4F)c4nc(c(-c5c(F)cccc5F)c5ccc2[nH]5)C=C4)C=C3)cc1
REMARK SMILES IDX 5 1 4 2 3 3 1 4 2 5 28 7 29 8 81 9 30 10 80 11 31 12 32 13
REMARK SMILES IDX 33 14 74 15 34 16 79 17 73 18 75 19 35 20 78 21 72 22 71 23
REMARK SMILES IDX 36 25 62 26 45 27 61 28 46 29 49 30 60 31 76 32 47 33 48 34
REMARK SMILES IDX 59 36 77 37 50 38 37 39 38 40 43 41 39 42 40 43 42 44 44 45
REMARK SMILES IDX 41 46 63 47 64 48 69 49 65 50 66 51 68 52 70 53 67 54 51 55
REMARK SMILES IDX 52 56 57 57 53 58 54 59 56 60 58 61 55 62 6 63 7 64 8 65
REMARK SMILES IDX 9 67 10 68 11 69 14 70 12 71 13 72 15 73 16 74 17 76 18 77
REMARK SMILES IDX 19 78 27 79 20 80 26 81 21 82 25 83 22 84 23 85 24 86
REMARK H PARENT 3 6 75 24 49 35 7 66 15 75
REMARK Flexibility Score: inf
ROOT
ATOM      1  C   UNL A   1      33.028  29.075  27.192  1.00  0.00     0.042 C 
ENDROOT
BRANCH   1   2
ATOM      2  C   UNL A   1      33.719  30.394  26.872  1.00  0.00     0.118 C 
BRANCH   2   3
ATOM      3  N   UNL A   1      33.790  31.323  27.984  1.00  0.00    -0.352 N 
ATOM      4  O   UNL A   1      34.474  32.692  29.572  1.00  0.00    -0.269 OA
ATOM      5  C   UNL A   1      34.771  31.747  28.838  1.00  0.00     0.251 C 
ATOM      6  H   UNL A   1      32.924  31.753  28.168  1.00  0.00     0.163 HD
BRANCH   5   7
ATOM      7  C   UNL A   1      36.105  31.108  29.008  1.00  0.00     0.039 A 
ATOM      8  C   UNL A   1      37.312  31.773  29.215  1.00  0.00     0.014 A 
ATOM      9  C   UNL A   1      36.124  29.699  28.921  1.00  0.00     0.014 A 
ATOM     10  C   UNL A   1      38.510  31.056  29.229  1.00  0.00     0.010 A 
ATOM     11  C   UNL A   1      37.317  28.978  28.941  1.00  0.00     0.010 A 
ATOM     12  C   UNL A   1      38.518  29.662  29.059  1.00  0.00    -0.014 A 
BRANCH  12  13
ATOM     13  C   UNL A   1      39.781  28.953  29.273  1.00  0.00     0.031 A 
ATOM     14  C   UNL A   1      40.153  28.887  30.713  1.00  0.00     0.074 A 
ATOM     15  C   UNL A   1      40.541  28.343  28.338  1.00  0.00     0.049 A 
ATOM     16  N   UNL A   1      41.077  29.568  31.304  1.00  0.00    -0.248 NA
ATOM     17  C   UNL A   1      39.301  28.114  31.630  1.00  0.00     0.031 C 
ATOM     18  C   UNL A   1      40.218  28.058  26.940  1.00  0.00     0.029 A 
ATOM     19  N   UNL A   1      41.788  27.793  28.476  1.00  0.00    -0.354 N 
ATOM     20  C   UNL A   1      41.064  29.162  32.636  1.00  0.00     0.074 A 
ATOM     21  C   UNL A   1      39.854  28.403  32.809  1.00  0.00     0.031 C 
ATOM     22  C   UNL A   1      41.150  27.217  26.423  1.00  0.00     0.029 A 
ATOM     23  C   UNL A   1      42.209  27.014  27.399  1.00  0.00     0.049 A 
ATOM     24  H   UNL A   1      42.344  27.936  29.275  1.00  0.00     0.167 HD
ATOM     25  C   UNL A   1      42.179  29.292  33.407  1.00  0.00     0.037 A 
ATOM     26  C   UNL A   1      43.336  26.250  27.325  1.00  0.00     0.037 A 
ATOM     27  C   UNL A   1      43.107  30.223  32.806  1.00  0.00     0.049 A 
ATOM     28  C   UNL A   1      44.285  26.745  28.350  1.00  0.00     0.074 A 
ATOM     29  C   UNL A   1      43.067  31.555  32.441  1.00  0.00     0.029 A 
ATOM     30  N   UNL A   1      44.191  29.693  32.151  1.00  0.00    -0.354 N 
ATOM     31  N   UNL A   1      44.910  27.883  28.268  1.00  0.00    -0.248 NA
ATOM     32  C   UNL A   1      44.199  26.170  29.682  1.00  0.00     0.031 C 
ATOM     33  C   UNL A   1      43.814  31.629  31.228  1.00  0.00     0.029 A 
ATOM     34  C   UNL A   1      44.329  30.359  30.965  1.00  0.00     0.049 A 
ATOM     35  H   UNL A   1      44.765  28.963  32.477  1.00  0.00     0.167 HD
ATOM     36  C   UNL A   1      44.863  28.391  29.555  1.00  0.00     0.074 A 
ATOM     37  C   UNL A   1      44.495  27.256  30.400  1.00  0.00     0.031 C 
ATOM     38  C   UNL A   1      44.842  29.739  29.770  1.00  0.00     0.037 A 
BRANCH  25  39
ATOM     39  C   UNL A   1      42.640  28.270  34.426  1.00  0.00     0.057 A 
ATOM     40  C   UNL A   1      42.490  28.403  35.820  1.00  0.00     0.134 A 
ATOM     41  C   UNL A   1      42.914  26.959  33.983  1.00  0.00     0.134 A 
ATOM     42  F   UNL A   1      42.220  29.570  36.413  1.00  0.00    -0.206 F 
ATOM     43  C   UNL A   1      42.511  27.310  36.692  1.00  0.00     0.040 A 
ATOM     44  C   UNL A   1      42.889  25.853  34.841  1.00  0.00     0.040 A 
ATOM     45  F   UNL A   1      43.105  26.696  32.680  1.00  0.00    -0.206 F 
ATOM     46  C   UNL A   1      42.665  26.024  36.198  1.00  0.00     0.006 A 
ENDBRANCH  25  39
BRANCH  26  47
ATOM     47  C   UNL A   1      43.600  24.972  26.615  1.00  0.00     0.057 A 
ATOM     48  C   UNL A   1      44.321  24.950  25.412  1.00  0.00     0.134 A 
ATOM     49  C   UNL A   1      42.890  23.797  26.923  1.00  0.00     0.134 A 
ATOM     50  F   UNL A   1      44.976  26.038  24.983  1.00  0.00    -0.206 F 
ATOM     51  C   UNL A   1      44.316  23.843  24.553  1.00  0.00     0.040 A 
ATOM     52  C   UNL A   1      42.873  22.684  26.071  1.00  0.00     0.040 A 
ATOM     53  F   UNL A   1      42.131  23.728  28.027  1.00  0.00    -0.206 F 
ATOM     54  C   UNL A   1      43.578  22.709  24.872  1.00  0.00     0.006 A 
ENDBRANCH  26  47
BRANCH  38  55
ATOM     55  C   UNL A   1      45.183  30.642  28.618  1.00  0.00     0.057 A 
ATOM     56  C   UNL A   1      46.457  31.220  28.589  1.00  0.00     0.134 A 
ATOM     57  C   UNL A   1      44.283  31.038  27.616  1.00  0.00     0.134 A 
ATOM     58  F   UNL A   1      47.354  30.928  29.544  1.00  0.00    -0.206 F 
ATOM     59  C   UNL A   1      46.830  32.137  27.606  1.00  0.00     0.040 A 
ATOM     60  C   UNL A   1      44.658  31.926  26.603  1.00  0.00     0.040 A 
ATOM     61  F   UNL A   1      43.009  30.620  27.616  1.00  0.00    -0.206 F 
ATOM     62  C   UNL A   1      45.934  32.482  26.599  1.00  0.00     0.006 A 
ENDBRANCH  38  55
ENDBRANCH  12  13
ENDBRANCH   5   7
ENDBRANCH   2   3
ENDBRANCH   1   2
BRANCH   1  63
ATOM     63  C   UNL A   1      33.168  28.030  26.087  1.00  0.00     0.118 C 
BRANCH  63  64
ATOM     64  N   UNL A   1      33.901  28.518  24.920  1.00  0.00    -0.352 N 
ATOM     65  C   UNL A   1      33.428  28.748  23.645  1.00  0.00     0.254 C 
ATOM     66  H   UNL A   1      34.856  28.708  25.063  1.00  0.00     0.163 HD
ATOM     67  O   UNL A   1      34.190  28.991  22.723  1.00  0.00    -0.269 OA
BRANCH  65  68
ATOM     68  C   UNL A   1      32.000  28.592  23.474  1.00  0.00     0.074 A 
ATOM     69  C   UNL A   1      30.980  29.412  24.076  1.00  0.00     0.028 A 
ATOM     70  C   UNL A   1      31.408  27.683  22.620  1.00  0.00     0.108 A 
ATOM     71  C   UNL A   1      29.741  28.815  24.001  1.00  0.00     0.068 A 
ATOM     72  S   UNL A   1      29.880  27.254  23.294  1.00  0.00    -0.126 S 
BRANCH  70  73
ATOM     73  N   UNL A   1      31.940  27.005  21.537  1.00  0.00    -0.312 N 
ATOM     74  C   UNL A   1      32.731  25.855  21.523  1.00  0.00     0.266 C 
ATOM     75  H   UNL A   1      31.733  27.389  20.654  1.00  0.00     0.171 HD
ATOM     76  O   UNL A   1      33.235  25.537  20.442  1.00  0.00    -0.268 OA
BRANCH  74  77
ATOM     77  C   UNL A   1      32.809  25.008  22.706  1.00  0.00     0.094 A 
ATOM     78  C   UNL A   1      33.687  25.098  23.760  1.00  0.00     0.037 A 
ATOM     79  S   UNL A   1      31.627  23.813  23.086  1.00  0.00    -0.130 S 
ATOM     80  C   UNL A   1      33.655  23.978  24.615  1.00  0.00     0.029 A 
ATOM     81  C   UNL A   1      32.329  23.567  24.655  1.00  0.00     0.038 A 
ATOM     82  C   UNL A   1      34.536  23.652  25.648  1.00  0.00     0.131 A 
ATOM     83  C   UNL A   1      31.783  23.113  25.860  1.00  0.00     0.020 A 
ATOM     84  F   UNL A   1      35.854  23.864  25.523  1.00  0.00    -0.206 F 
ATOM     85  C   UNL A   1      33.982  23.404  26.887  1.00  0.00     0.040 A 
ATOM     86  C   UNL A   1      32.606  23.207  26.998  1.00  0.00     0.005 A 
ENDBRANCH  74  77
ENDBRANCH  70  73
ENDBRANCH  65  68
ENDBRANCH  63  64
ENDBRANCH   1  63
TORSDOF 12
ENDMDL
