MODEL 1
REMARK VINA RESULT:     -10.9      0.000      0.000
REMARK SMILES CCOc1ccccc1NC(=O)N[C@@](C)(CC)C(=O)NCCCNC(=O)c1ccc(-c2c3nc(c(-c4c(F)cccc4F)c4ccc([nH]4)c(-c4c(F)cccc4F)c4nc(c(-c5c(F)cccc5F)c5ccc2[nH]5)C=C4)C=C3)cc1
REMARK SMILES IDX 21 1 20 2 18 3 19 4 14 6 15 7 13 8 10 9 11 10 12 12 9 14
REMARK SMILES IDX 4 15 5 16 6 17 8 18 7 19 3 20 2 21 1 22 16 23 17 24 22 25
REMARK SMILES IDX 23 26 24 27 25 28 26 30 27 31 28 32 80 33 29 34 79 35 30 36
REMARK SMILES IDX 31 37 32 38 73 39 33 40 78 41 72 42 74 43 34 44 77 45 71 46
REMARK SMILES IDX 70 47 35 49 61 50 44 51 60 52 45 53 48 54 59 55 75 56 46 57
REMARK SMILES IDX 47 58 58 60 76 61 49 62 36 63 37 64 42 65 38 66 39 67 41 68
REMARK SMILES IDX 43 69 40 70 62 71 63 72 68 73 64 74 65 75 67 76 69 77 66 78
REMARK SMILES IDX 50 79 51 80 56 81 52 82 53 83 55 84 57 85 54 86
REMARK H PARENT 20 5 10 11 13 13 24 29 74 48 48 59
REMARK Flexibility Score: inf
ROOT
ATOM      1  C   UNL A   1      36.383  20.167  25.003  1.00  0.00     0.117 C 
ENDROOT
BRANCH   1   2
ATOM      2  N   UNL A   1      35.785  21.342  25.582  1.00  0.00    -0.354 N 
ATOM      3  C   UNL A   1      34.577  21.768  25.086  1.00  0.00     0.245 C 
ATOM      4  O   UNL A   1      33.780  20.962  24.601  1.00  0.00    -0.272 OA
ATOM      5  H   UNL A   1      36.231  21.828  26.313  1.00  0.00     0.163 HD
BRANCH   3   6
ATOM      6  C   UNL A   1      34.306  23.299  25.138  1.00  0.00     0.117 C 
ATOM      7  C   UNL A   1      35.765  23.865  25.096  1.00  0.00     0.045 C 
BRANCH   6   8
ATOM      8  N   UNL A   1      33.636  23.959  23.995  1.00  0.00    -0.324 N 
ATOM      9  N   UNL A   1      33.771  26.332  23.969  1.00  0.00    -0.305 N 
ATOM     10  C   UNL A   1      33.806  25.134  23.388  1.00  0.00     0.320 C 
ATOM     11  H   UNL A   1      34.268  26.998  23.441  1.00  0.00     0.172 HD
ATOM     12  O   UNL A   1      34.005  25.100  22.170  1.00  0.00    -0.248 OA
ATOM     13  H   UNL A   1      32.916  23.419  23.600  1.00  0.00     0.166 HD
BRANCH   9  14
ATOM     14  C   UNL A   1      33.223  26.906  25.122  1.00  0.00     0.085 A 
ATOM     15  C   UNL A   1      31.823  26.877  25.217  1.00  0.00     0.142 A 
ATOM     16  C   UNL A   1      31.134  27.652  26.149  1.00  0.00     0.048 A 
ATOM     17  C   UNL A   1      31.861  28.346  27.108  1.00  0.00     0.004 A 
ATOM     18  C   UNL A   1      33.923  27.436  26.189  1.00  0.00     0.030 A 
ATOM     19  C   UNL A   1      33.248  28.183  27.167  1.00  0.00     0.002 A 
BRANCH  15  20
ATOM     20  O   UNL A   1      31.117  26.002  24.420  1.00  0.00    -0.492 OA
BRANCH  20  21
ATOM     21  C   UNL A   1      30.128  26.741  23.664  1.00  0.00     0.226 C 
ATOM     22  C   UNL A   1      30.707  27.269  22.357  1.00  0.00     0.049 C 
ENDBRANCH  20  21
ENDBRANCH  15  20
ENDBRANCH   9  14
ENDBRANCH   6   8
BRANCH   6  23
ATOM     23  C   UNL A   1      33.755  23.718  26.541  1.00  0.00     0.035 C 
ATOM     24  C   UNL A   1      32.259  23.603  26.797  1.00  0.00     0.007 C 
ENDBRANCH   6  23
ENDBRANCH   3   6
ENDBRANCH   1   2
BRANCH   1  25
ATOM     25  C   UNL A   1      37.828  20.385  24.600  1.00  0.00     0.042 C 
BRANCH  25  26
ATOM     26  C   UNL A   1      38.738  20.540  25.808  1.00  0.00     0.118 C 
BRANCH  26  27
ATOM     27  N   UNL A   1      39.782  19.518  25.849  1.00  0.00    -0.352 N 
ATOM     28  C   UNL A   1      41.133  19.626  26.068  1.00  0.00     0.251 C 
ATOM     29  H   UNL A   1      39.465  18.600  25.693  1.00  0.00     0.163 HD
ATOM     30  O   UNL A   1      41.878  18.680  25.817  1.00  0.00    -0.269 OA
BRANCH  28  31
ATOM     31  C   UNL A   1      41.697  20.890  26.579  1.00  0.00     0.039 A 
ATOM     32  C   UNL A   1      42.240  21.815  25.683  1.00  0.00     0.014 A 
ATOM     33  C   UNL A   1      41.671  21.167  27.945  1.00  0.00     0.014 A 
ATOM     34  C   UNL A   1      42.655  23.063  26.152  1.00  0.00     0.010 A 
ATOM     35  C   UNL A   1      41.980  22.445  28.393  1.00  0.00     0.010 A 
ATOM     36  C   UNL A   1      42.468  23.409  27.501  1.00  0.00    -0.014 A 
BRANCH  36  37
ATOM     37  C   UNL A   1      42.751  24.777  28.001  1.00  0.00     0.031 A 
ATOM     38  C   UNL A   1      44.144  25.157  28.416  1.00  0.00     0.074 A 
ATOM     39  C   UNL A   1      41.733  25.646  28.165  1.00  0.00     0.049 A 
ATOM     40  N   UNL A   1      44.571  26.266  28.963  1.00  0.00    -0.248 NA
ATOM     41  C   UNL A   1      45.194  24.143  28.220  1.00  0.00     0.031 C 
ATOM     42  C   UNL A   1      40.328  25.376  27.851  1.00  0.00     0.029 A 
ATOM     43  N   UNL A   1      41.722  26.931  28.648  1.00  0.00    -0.354 N 
ATOM     44  C   UNL A   1      45.927  26.079  29.188  1.00  0.00     0.074 A 
ATOM     45  C   UNL A   1      46.242  24.727  28.779  1.00  0.00     0.031 C 
ATOM     46  C   UNL A   1      39.599  26.470  28.119  1.00  0.00     0.029 A 
ATOM     47  C   UNL A   1      40.472  27.500  28.668  1.00  0.00     0.049 A 
ATOM     48  H   UNL A   1      42.533  27.398  28.952  1.00  0.00     0.167 HD
ATOM     49  C   UNL A   1      46.836  26.962  29.663  1.00  0.00     0.037 A 
ATOM     50  C   UNL A   1      40.074  28.715  29.091  1.00  0.00     0.037 A 
ATOM     51  C   UNL A   1      46.521  28.311  30.053  1.00  0.00     0.049 A 
ATOM     52  C   UNL A   1      41.099  29.668  29.641  1.00  0.00     0.074 A 
ATOM     53  C   UNL A   1      47.378  29.303  30.494  1.00  0.00     0.029 A 
ATOM     54  N   UNL A   1      45.245  28.855  30.052  1.00  0.00    -0.354 N 
ATOM     55  N   UNL A   1      42.392  29.504  29.777  1.00  0.00    -0.248 NA
ATOM     56  C   UNL A   1      40.609  30.978  30.093  1.00  0.00     0.031 C 
ATOM     57  C   UNL A   1      46.614  30.430  30.812  1.00  0.00     0.029 A 
ATOM     58  C   UNL A   1      45.287  30.160  30.513  1.00  0.00     0.049 A 
ATOM     59  H   UNL A   1      44.430  28.382  29.765  1.00  0.00     0.167 HD
ATOM     60  C   UNL A   1      42.874  30.695  30.305  1.00  0.00     0.074 A 
ATOM     61  C   UNL A   1      41.735  31.579  30.447  1.00  0.00     0.031 C 
ATOM     62  C   UNL A   1      44.144  31.027  30.645  1.00  0.00     0.037 A 
BRANCH  49  63
ATOM     63  C   UNL A   1      48.258  26.492  29.784  1.00  0.00     0.057 A 
ATOM     64  C   UNL A   1      48.721  25.822  30.924  1.00  0.00     0.134 A 
ATOM     65  C   UNL A   1      49.170  26.693  28.741  1.00  0.00     0.134 A 
ATOM     66  F   UNL A   1      47.904  25.607  31.967  1.00  0.00    -0.206 F 
ATOM     67  C   UNL A   1      50.046  25.397  31.036  1.00  0.00     0.040 A 
ATOM     68  C   UNL A   1      50.491  26.245  28.828  1.00  0.00     0.040 A 
ATOM     69  F   UNL A   1      48.795  27.323  27.617  1.00  0.00    -0.206 F 
ATOM     70  C   UNL A   1      50.933  25.602  29.982  1.00  0.00     0.006 A 
ENDBRANCH  49  63
BRANCH  50  71
ATOM     71  C   UNL A   1      38.645  29.108  28.997  1.00  0.00     0.057 A 
ATOM     72  C   UNL A   1      38.111  29.602  27.800  1.00  0.00     0.134 A 
ATOM     73  C   UNL A   1      37.782  29.014  30.095  1.00  0.00     0.134 A 
ATOM     74  F   UNL A   1      38.892  29.732  26.717  1.00  0.00    -0.206 F 
ATOM     75  C   UNL A   1      36.779  30.009  27.705  1.00  0.00     0.040 A 
ATOM     76  C   UNL A   1      36.441  29.391  30.007  1.00  0.00     0.040 A 
ATOM     77  F   UNL A   1      38.227  28.540  31.268  1.00  0.00    -0.206 F 
ATOM     78  C   UNL A   1      35.938  29.898  28.810  1.00  0.00     0.006 A 
ENDBRANCH  50  71
BRANCH  62  79
ATOM     79  C   UNL A   1      44.374  32.414  31.171  1.00  0.00     0.057 A 
ATOM     80  C   UNL A   1      44.621  33.498  30.320  1.00  0.00     0.134 A 
ATOM     81  C   UNL A   1      44.303  32.674  32.546  1.00  0.00     0.134 A 
ATOM     82  F   UNL A   1      44.714  33.313  28.994  1.00  0.00    -0.206 F 
ATOM     83  C   UNL A   1      44.814  34.787  30.819  1.00  0.00     0.040 A 
ATOM     84  C   UNL A   1      44.464  33.964  33.054  1.00  0.00     0.040 A 
ATOM     85  F   UNL A   1      44.061  31.683  33.417  1.00  0.00    -0.206 F 
ATOM     86  C   UNL A   1      44.727  35.024  32.189  1.00  0.00     0.006 A 
ENDBRANCH  62  79
ENDBRANCH  36  37
ENDBRANCH  28  31
ENDBRANCH  26  27
ENDBRANCH  25  26
ENDBRANCH   1  25
TORSDOF 15
ENDMDL
MODEL 2
REMARK VINA RESULT:     -10.8      0.524      6.232
REMARK SMILES CCOc1ccccc1NC(=O)N[C@@](C)(CC)C(=O)NCCCNC(=O)c1ccc(-c2c3nc(c(-c4c(F)cccc4F)c4ccc([nH]4)c(-c4c(F)cccc4F)c4nc(c(-c5c(F)cccc5F)c5ccc2[nH]5)C=C4)C=C3)cc1
REMARK SMILES IDX 21 1 20 2 18 3 19 4 14 6 15 7 13 8 10 9 11 10 12 12 9 14
REMARK SMILES IDX 4 15 5 16 6 17 8 18 7 19 3 20 2 21 1 22 16 23 17 24 22 25
REMARK SMILES IDX 23 26 24 27 25 28 26 30 27 31 28 32 80 33 29 34 79 35 30 36
REMARK SMILES IDX 31 37 32 38 73 39 33 40 78 41 72 42 74 43 34 44 77 45 71 46
REMARK SMILES IDX 70 47 35 49 61 50 44 51 60 52 45 53 48 54 59 55 75 56 46 57
REMARK SMILES IDX 47 58 58 60 76 61 49 62 36 63 37 64 42 65 38 66 39 67 41 68
REMARK SMILES IDX 43 69 40 70 62 71 63 72 68 73 64 74 65 75 67 76 69 77 66 78
REMARK SMILES IDX 50 79 51 80 56 81 52 82 53 83 55 84 57 85 54 86
REMARK H PARENT 20 5 10 11 13 13 24 29 74 48 48 59
REMARK Flexibility Score: inf
ROOT
ATOM      1  C   UNL A   1      36.082  20.434  25.217  1.00  0.00     0.117 C 
ENDROOT
BRANCH   1   2
ATOM      2  N   UNL A   1      35.319  21.562  25.685  1.00  0.00    -0.354 N 
ATOM      3  C   UNL A   1      34.300  22.033  24.893  1.00  0.00     0.245 C 
ATOM      4  O   UNL A   1      33.695  21.272  24.134  1.00  0.00    -0.272 OA
ATOM      5  H   UNL A   1      35.523  21.986  26.551  1.00  0.00     0.163 HD
BRANCH   3   6
ATOM      6  C   UNL A   1      33.997  23.555  24.983  1.00  0.00     0.117 C 
ATOM      7  C   UNL A   1      35.446  24.149  25.012  1.00  0.00     0.045 C 
BRANCH   6   8
ATOM      8  N   UNL A   1      33.356  24.240  23.837  1.00  0.00    -0.324 N 
ATOM      9  N   UNL A   1      33.685  26.592  23.744  1.00  0.00    -0.305 N 
ATOM     10  C   UNL A   1      33.607  25.380  23.196  1.00  0.00     0.320 C 
ATOM     11  H   UNL A   1      34.222  27.201  23.187  1.00  0.00     0.172 HD
ATOM     12  O   UNL A   1      33.773  25.300  21.974  1.00  0.00    -0.248 OA
ATOM     13  H   UNL A   1      32.584  23.751  23.474  1.00  0.00     0.166 HD
BRANCH   9  14
ATOM     14  C   UNL A   1      33.215  27.238  24.893  1.00  0.00     0.085 A 
ATOM     15  C   UNL A   1      31.902  27.728  24.829  1.00  0.00     0.142 A 
ATOM     16  C   UNL A   1      31.408  28.631  25.769  1.00  0.00     0.048 A 
ATOM     17  C   UNL A   1      32.183  28.925  26.883  1.00  0.00     0.004 A 
ATOM     18  C   UNL A   1      33.891  27.383  26.090  1.00  0.00     0.030 A 
ATOM     19  C   UNL A   1      33.392  28.251  27.073  1.00  0.00     0.002 A 
BRANCH  15  20
ATOM     20  O   UNL A   1      31.056  27.246  23.853  1.00  0.00    -0.492 OA
BRANCH  20  21
ATOM     21  C   UNL A   1      30.001  26.475  24.478  1.00  0.00     0.226 C 
ATOM     22  C   UNL A   1      28.657  26.724  23.805  1.00  0.00     0.049 C 
ENDBRANCH  20  21
ENDBRANCH  15  20
ENDBRANCH   9  14
ENDBRANCH   6   8
BRANCH   6  23
ATOM     23  C   UNL A   1      33.388  23.918  26.378  1.00  0.00     0.035 C 
ATOM     24  C   UNL A   1      31.889  24.166  26.472  1.00  0.00     0.007 C 
ENDBRANCH   6  23
ENDBRANCH   3   6
ENDBRANCH   1   2
BRANCH   1  25
ATOM     25  C   UNL A   1      37.388  20.843  24.566  1.00  0.00     0.042 C 
BRANCH  25  26
ATOM     26  C   UNL A   1      38.486  21.076  25.592  1.00  0.00     0.118 C 
BRANCH  26  27
ATOM     27  N   UNL A   1      39.413  19.948  25.676  1.00  0.00    -0.352 N 
ATOM     28  C   UNL A   1      40.748  19.908  25.992  1.00  0.00     0.251 C 
ATOM     29  H   UNL A   1      39.013  19.072  25.473  1.00  0.00     0.163 HD
ATOM     30  O   UNL A   1      41.407  18.894  25.766  1.00  0.00    -0.269 OA
BRANCH  28  31
ATOM     31  C   UNL A   1      41.403  21.094  26.575  1.00  0.00     0.039 A 
ATOM     32  C   UNL A   1      42.002  22.035  25.734  1.00  0.00     0.014 A 
ATOM     33  C   UNL A   1      41.406  21.284  27.956  1.00  0.00     0.014 A 
ATOM     34  C   UNL A   1      42.506  23.219  26.277  1.00  0.00     0.010 A 
ATOM     35  C   UNL A   1      41.807  22.505  28.481  1.00  0.00     0.010 A 
ATOM     36  C   UNL A   1      42.354  23.489  27.647  1.00  0.00    -0.014 A 
BRANCH  36  37
ATOM     37  C   UNL A   1      42.735  24.799  28.230  1.00  0.00     0.031 A 
ATOM     38  C   UNL A   1      41.697  25.866  28.436  1.00  0.00     0.074 A 
ATOM     39  C   UNL A   1      44.033  25.057  28.489  1.00  0.00     0.049 A 
ATOM     40  N   UNL A   1      41.848  27.100  28.842  1.00  0.00    -0.248 NA
ATOM     41  C   UNL A   1      40.306  25.507  28.112  1.00  0.00     0.031 C 
ATOM     42  C   UNL A   1      45.142  24.123  28.278  1.00  0.00     0.029 A 
ATOM     43  N   UNL A   1      44.642  26.187  28.974  1.00  0.00    -0.354 N 
ATOM     44  C   UNL A   1      40.581  27.666  28.809  1.00  0.00     0.074 A 
ATOM     45  C   UNL A   1      39.682  26.663  28.281  1.00  0.00     0.031 C 
ATOM     46  C   UNL A   1      46.288  24.706  28.662  1.00  0.00     0.029 A 
ATOM     47  C   UNL A   1      46.005  26.068  29.099  1.00  0.00     0.049 A 
ATOM     48  H   UNL A   1      44.148  27.005  29.210  1.00  0.00     0.167 HD
ATOM     49  C   UNL A   1      40.195  28.900  29.209  1.00  0.00     0.037 A 
ATOM     50  C   UNL A   1      46.924  26.961  29.510  1.00  0.00     0.037 A 
ATOM     51  C   UNL A   1      41.091  29.889  29.749  1.00  0.00     0.049 A 
ATOM     52  C   UNL A   1      46.473  28.335  29.924  1.00  0.00     0.074 A 
ATOM     53  C   UNL A   1      40.792  31.148  30.236  1.00  0.00     0.029 A 
ATOM     54  N   UNL A   1      42.464  29.729  29.867  1.00  0.00    -0.354 N 
ATOM     55  N   UNL A   1      45.261  28.832  29.958  1.00  0.00    -0.248 NA
ATOM     56  C   UNL A   1      47.519  29.272  30.359  1.00  0.00     0.031 C 
ATOM     57  C   UNL A   1      41.990  31.772  30.598  1.00  0.00     0.029 A 
ATOM     58  C   UNL A   1      43.030  30.879  30.391  1.00  0.00     0.049 A 
ATOM     59  H   UNL A   1      42.962  28.917  29.614  1.00  0.00     0.167 HD
ATOM     60  C   UNL A   1      45.394  30.127  30.443  1.00  0.00     0.074 A 
ATOM     61  C   UNL A   1      46.803  30.331  30.705  1.00  0.00     0.031 C 
ATOM     62  C   UNL A   1      44.436  31.064  30.649  1.00  0.00     0.037 A 
BRANCH  49  63
ATOM     63  C   UNL A   1      38.739  29.244  29.079  1.00  0.00     0.057 A 
ATOM     64  C   UNL A   1      37.873  29.229  30.180  1.00  0.00     0.134 A 
ATOM     65  C   UNL A   1      38.199  29.616  27.841  1.00  0.00     0.134 A 
ATOM     66  F   UNL A   1      38.322  28.869  31.393  1.00  0.00    -0.206 F 
ATOM     67  C   UNL A   1      36.519  29.539  30.052  1.00  0.00     0.040 A 
ATOM     68  C   UNL A   1      36.851  29.959  27.705  1.00  0.00     0.040 A 
ATOM     69  F   UNL A   1      38.970  29.659  26.745  1.00  0.00    -0.206 F 
ATOM     70  C   UNL A   1      36.006  29.912  28.811  1.00  0.00     0.006 A 
ENDBRANCH  49  63
BRANCH  50  71
ATOM     71  C   UNL A   1      48.360  26.584  29.569  1.00  0.00     0.057 A 
ATOM     72  C   UNL A   1      48.889  25.938  30.694  1.00  0.00     0.134 A 
ATOM     73  C   UNL A   1      49.238  26.866  28.516  1.00  0.00     0.134 A 
ATOM     74  F   UNL A   1      48.101  25.657  31.742  1.00  0.00    -0.206 F 
ATOM     75  C   UNL A   1      50.243  25.609  30.779  1.00  0.00     0.040 A 
ATOM     76  C   UNL A   1      50.588  26.516  28.577  1.00  0.00     0.040 A 
ATOM     77  F   UNL A   1      48.793  27.473  27.407  1.00  0.00    -0.206 F 
ATOM     78  C   UNL A   1      51.096  25.893  29.715  1.00  0.00     0.006 A 
ENDBRANCH  50  71
BRANCH  62  79
ATOM     79  C   UNL A   1      44.876  32.383  31.215  1.00  0.00     0.057 A 
ATOM     80  C   UNL A   1      45.225  33.461  30.393  1.00  0.00     0.134 A 
ATOM     81  C   UNL A   1      44.909  32.588  32.600  1.00  0.00     0.134 A 
ATOM     82  F   UNL A   1      45.227  33.326  29.057  1.00  0.00    -0.206 F 
ATOM     83  C   UNL A   1      45.614  34.690  30.929  1.00  0.00     0.040 A 
ATOM     84  C   UNL A   1      45.267  33.821  33.146  1.00  0.00     0.040 A 
ATOM     85  F   UNL A   1      44.578  31.601  33.445  1.00  0.00    -0.206 F 
ATOM     86  C   UNL A   1      45.627  34.875  32.310  1.00  0.00     0.006 A 
ENDBRANCH  62  79
ENDBRANCH  36  37
ENDBRANCH  28  31
ENDBRANCH  26  27
ENDBRANCH  25  26
ENDBRANCH   1  25
TORSDOF 15
ENDMDL
MODEL 3
REMARK VINA RESULT:     -10.7      1.051      6.386
REMARK SMILES CCOc1ccccc1NC(=O)N[C@@](C)(CC)C(=O)NCCCNC(=O)c1ccc(-c2c3nc(c(-c4c(F)cccc4F)c4ccc([nH]4)c(-c4c(F)cccc4F)c4nc(c(-c5c(F)cccc5F)c5ccc2[nH]5)C=C4)C=C3)cc1
REMARK SMILES IDX 21 1 20 2 18 3 19 4 14 6 15 7 13 8 10 9 11 10 12 12 9 14
REMARK SMILES IDX 4 15 5 16 6 17 8 18 7 19 3 20 2 21 1 22 16 23 17 24 22 25
REMARK SMILES IDX 23 26 24 27 25 28 26 30 27 31 28 32 80 33 29 34 79 35 30 36
REMARK SMILES IDX 31 37 32 38 73 39 33 40 78 41 72 42 74 43 34 44 77 45 71 46
REMARK SMILES IDX 70 47 35 49 61 50 44 51 60 52 45 53 48 54 59 55 75 56 46 57
REMARK SMILES IDX 47 58 58 60 76 61 49 62 36 63 37 64 42 65 38 66 39 67 41 68
REMARK SMILES IDX 43 69 40 70 62 71 63 72 68 73 64 74 65 75 67 76 69 77 66 78
REMARK SMILES IDX 50 79 51 80 56 81 52 82 53 83 55 84 57 85 54 86
REMARK H PARENT 20 5 10 11 13 13 24 29 74 48 48 59
REMARK Flexibility Score: inf
ROOT
ATOM      1  C   UNL A   1      36.187  21.877  24.178  1.00  0.00     0.117 C 
ENDROOT
BRANCH   1   2
ATOM      2  N   UNL A   1      35.078  22.499  24.855  1.00  0.00    -0.354 N 
ATOM      3  C   UNL A   1      34.036  22.973  24.096  1.00  0.00     0.245 C 
ATOM      4  O   UNL A   1      33.760  22.449  23.013  1.00  0.00    -0.272 OA
ATOM      5  H   UNL A   1      35.067  22.582  25.836  1.00  0.00     0.163 HD
BRANCH   3   6
ATOM      6  C   UNL A   1      33.274  24.208  24.656  1.00  0.00     0.117 C 
ATOM      7  C   UNL A   1      31.952  24.152  23.819  1.00  0.00     0.045 C 
BRANCH   6   8
ATOM      8  N   UNL A   1      32.805  24.200  26.060  1.00  0.00    -0.324 N 
ATOM      9  N   UNL A   1      31.176  25.844  26.599  1.00  0.00    -0.305 N 
ATOM     10  C   UNL A   1      31.688  24.616  26.655  1.00  0.00     0.320 C 
ATOM     11  H   UNL A   1      30.209  25.836  26.782  1.00  0.00     0.172 HD
ATOM     12  O   UNL A   1      31.078  23.778  27.327  1.00  0.00    -0.248 OA
ATOM     13  H   UNL A   1      33.454  23.805  26.685  1.00  0.00     0.166 HD
BRANCH   9  14
ATOM     14  C   UNL A   1      31.634  27.144  26.351  1.00  0.00     0.085 A 
ATOM     15  C   UNL A   1      31.208  27.727  25.149  1.00  0.00     0.142 A 
ATOM     16  C   UNL A   1      31.804  28.880  24.640  1.00  0.00     0.048 A 
ATOM     17  C   UNL A   1      32.733  29.552  25.423  1.00  0.00     0.004 A 
ATOM     18  C   UNL A   1      32.406  27.918  27.197  1.00  0.00     0.030 A 
ATOM     19  C   UNL A   1      32.982  29.107  26.724  1.00  0.00     0.002 A 
BRANCH  15  20
ATOM     20  O   UNL A   1      30.120  27.189  24.494  1.00  0.00    -0.492 OA
BRANCH  20  21
ATOM     21  C   UNL A   1      29.740  28.065  23.406  1.00  0.00     0.226 C 
ATOM     22  C   UNL A   1      28.242  27.999  23.136  1.00  0.00     0.049 C 
ENDBRANCH  20  21
ENDBRANCH  15  20
ENDBRANCH   9  14
ENDBRANCH   6   8
BRANCH   6  23
ATOM     23  C   UNL A   1      33.972  25.537  24.213  1.00  0.00     0.035 C 
ATOM     24  C   UNL A   1      33.585  26.147  22.873  1.00  0.00     0.007 C 
ENDBRANCH   6  23
ENDBRANCH   3   6
ENDBRANCH   1   2
BRANCH   1  25
ATOM     25  C   UNL A   1      36.841  20.790  25.008  1.00  0.00     0.042 C 
BRANCH  25  26
ATOM     26  C   UNL A   1      38.243  21.178  25.449  1.00  0.00     0.118 C 
BRANCH  26  27
ATOM     27  N   UNL A   1      39.125  20.019  25.572  1.00  0.00    -0.352 N 
ATOM     28  C   UNL A   1      40.444  19.932  25.941  1.00  0.00     0.251 C 
ATOM     29  H   UNL A   1      38.704  19.157  25.355  1.00  0.00     0.163 HD
ATOM     30  O   UNL A   1      41.076  18.894  25.744  1.00  0.00    -0.269 OA
BRANCH  28  31
ATOM     31  C   UNL A   1      41.117  21.096  26.549  1.00  0.00     0.039 A 
ATOM     32  C   UNL A   1      41.778  22.016  25.731  1.00  0.00     0.014 A 
ATOM     33  C   UNL A   1      41.076  21.286  27.930  1.00  0.00     0.014 A 
ATOM     34  C   UNL A   1      42.301  23.182  26.293  1.00  0.00     0.010 A 
ATOM     35  C   UNL A   1      41.498  22.493  28.470  1.00  0.00     0.010 A 
ATOM     36  C   UNL A   1      42.108  23.458  27.657  1.00  0.00    -0.014 A 
BRANCH  36  37
ATOM     37  C   UNL A   1      42.512  24.754  28.254  1.00  0.00     0.031 A 
ATOM     38  C   UNL A   1      41.495  25.843  28.456  1.00  0.00     0.074 A 
ATOM     39  C   UNL A   1      43.812  24.981  28.530  1.00  0.00     0.049 A 
ATOM     40  N   UNL A   1      41.670  27.071  28.872  1.00  0.00    -0.248 NA
ATOM     41  C   UNL A   1      40.101  25.518  28.112  1.00  0.00     0.031 C 
ATOM     42  C   UNL A   1      44.902  24.024  28.326  1.00  0.00     0.029 A 
ATOM     43  N   UNL A   1      44.440  26.094  29.031  1.00  0.00    -0.354 N 
ATOM     44  C   UNL A   1      40.416  27.665  28.829  1.00  0.00     0.074 A 
ATOM     45  C   UNL A   1      39.501  26.686  28.283  1.00  0.00     0.031 C 
ATOM     46  C   UNL A   1      46.056  24.578  28.728  1.00  0.00     0.029 A 
ATOM     47  C   UNL A   1      45.799  25.943  29.171  1.00  0.00     0.049 A 
ATOM     48  H   UNL A   1      43.962  26.921  29.267  1.00  0.00     0.167 HD
ATOM     49  C   UNL A   1      40.053  28.905  29.234  1.00  0.00     0.037 A 
ATOM     50  C   UNL A   1      46.733  26.812  29.600  1.00  0.00     0.037 A 
ATOM     51  C   UNL A   1      40.965  29.869  29.791  1.00  0.00     0.049 A 
ATOM     52  C   UNL A   1      46.308  28.192  30.019  1.00  0.00     0.074 A 
ATOM     53  C   UNL A   1      40.688  31.131  30.284  1.00  0.00     0.029 A 
ATOM     54  N   UNL A   1      42.332  29.677  29.925  1.00  0.00    -0.354 N 
ATOM     55  N   UNL A   1      45.106  28.717  30.043  1.00  0.00    -0.248 NA
ATOM     56  C   UNL A   1      47.369  29.102  30.473  1.00  0.00     0.031 C 
ATOM     57  C   UNL A   1      41.895  31.725  30.666  1.00  0.00     0.029 A 
ATOM     58  C   UNL A   1      42.917  30.810  30.465  1.00  0.00     0.049 A 
ATOM     59  H   UNL A   1      42.815  28.857  29.672  1.00  0.00     0.167 HD
ATOM     60  C   UNL A   1      45.263  30.005  30.538  1.00  0.00     0.074 A 
ATOM     61  C   UNL A   1      46.673  30.175  30.819  1.00  0.00     0.031 C 
ATOM     62  C   UNL A   1      44.324  30.962  30.741  1.00  0.00     0.037 A 
BRANCH  49  63
ATOM     63  C   UNL A   1      38.606  29.283  29.089  1.00  0.00     0.057 A 
ATOM     64  C   UNL A   1      37.722  29.254  30.174  1.00  0.00     0.134 A 
ATOM     65  C   UNL A   1      38.096  29.701  27.853  1.00  0.00     0.134 A 
ATOM     66  F   UNL A   1      38.141  28.851  31.384  1.00  0.00    -0.206 F 
ATOM     67  C   UNL A   1      36.376  29.596  30.032  1.00  0.00     0.040 A 
ATOM     68  C   UNL A   1      36.759  30.075  27.704  1.00  0.00     0.040 A 
ATOM     69  F   UNL A   1      38.887  29.758  26.772  1.00  0.00    -0.206 F 
ATOM     70  C   UNL A   1      35.893  30.015  28.794  1.00  0.00     0.006 A 
ENDBRANCH  49  63
BRANCH  50  71
ATOM     71  C   UNL A   1      48.158  26.402  29.674  1.00  0.00     0.057 A 
ATOM     72  C   UNL A   1      49.019  26.586  28.585  1.00  0.00     0.134 A 
ATOM     73  C   UNL A   1      48.694  25.807  30.823  1.00  0.00     0.134 A 
ATOM     74  F   UNL A   1      48.561  27.134  27.449  1.00  0.00    -0.206 F 
ATOM     75  C   UNL A   1      50.352  26.174  28.626  1.00  0.00     0.040 A 
ATOM     76  C   UNL A   1      50.032  25.416  30.889  1.00  0.00     0.040 A 
ATOM     77  F   UNL A   1      47.926  25.612  31.905  1.00  0.00    -0.206 F 
ATOM     78  C   UNL A   1      50.863  25.591  29.784  1.00  0.00     0.006 A 
ENDBRANCH  50  71
BRANCH  62  79
ATOM     79  C   UNL A   1      44.787  32.266  31.321  1.00  0.00     0.057 A 
ATOM     80  C   UNL A   1      44.857  32.477  32.704  1.00  0.00     0.134 A 
ATOM     81  C   UNL A   1      45.208  33.309  30.485  1.00  0.00     0.134 A 
ATOM     82  F   UNL A   1      44.456  31.524  33.559  1.00  0.00    -0.206 F 
ATOM     83  C   UNL A   1      45.308  33.688  33.234  1.00  0.00     0.040 A 
ATOM     84  C   UNL A   1      45.689  34.511  31.004  1.00  0.00     0.040 A 
ATOM     85  F   UNL A   1      45.175  33.170  29.152  1.00  0.00    -0.206 F 
ATOM     86  C   UNL A   1      45.734  34.706  32.383  1.00  0.00     0.006 A 
ENDBRANCH  62  79
ENDBRANCH  36  37
ENDBRANCH  28  31
ENDBRANCH  26  27
ENDBRANCH  25  26
ENDBRANCH   1  25
TORSDOF 15
ENDMDL
