MODEL 1
REMARK VINA RESULT:     -12.4      0.000      0.000
REMARK SMILES O=C(NCCCNC(=O)[C@H]1CC[C@@H](CNC(=O)[C@@H]2C[C@H]3CC[C@@H]2[NH2+]3)O1)c1ccc(-c2c3nc(c(-c4c(F)cccc4F)c4ccc([nH]4)c(-c4c(F)cccc4F)c4nc(c(-c5c(F)cccc5F)c5ccc2[nH]5)C=C4)C=C3)cc1
REMARK SMILES IDX 5 1 4 2 3 3 1 4 2 5 26 7 27 8 79 9 28 10 78 11 29 12 30 13
REMARK SMILES IDX 31 14 72 15 32 16 77 17 71 18 73 19 33 20 76 21 70 22 69 23
REMARK SMILES IDX 34 25 60 26 43 27 59 28 44 29 47 30 58 31 74 32 45 33 46 34
REMARK SMILES IDX 57 36 75 37 48 38 35 39 36 40 41 41 37 42 38 43 40 44 42 45
REMARK SMILES IDX 39 46 61 47 62 48 67 49 63 50 64 51 66 52 68 53 65 54 49 55
REMARK SMILES IDX 50 56 55 57 51 58 52 59 54 60 56 61 53 62 6 63 7 64 8 65
REMARK SMILES IDX 9 67 10 68 11 69 25 70 12 71 13 72 14 73 15 74 16 75 17 77
REMARK SMILES IDX 18 78 19 79 23 80 20 81 22 82 24 83 21 84
REMARK H PARENT 3 6 73 24 47 35 7 66 15 76 24 85 24 86
REMARK Flexibility Score: inf
ROOT
ATOM      1  C   UNL A   1      31.452  32.175  26.719  1.00  0.00     0.042 C 
ENDROOT
BRANCH   1   2
ATOM      2  C   UNL A   1      32.720  32.855  27.220  1.00  0.00     0.118 C 
BRANCH   2   3
ATOM      3  N   UNL A   1      32.488  34.236  27.621  1.00  0.00    -0.352 N 
ATOM      4  O   UNL A   1      32.591  36.046  28.956  1.00  0.00    -0.269 OA
ATOM      5  C   UNL A   1      33.059  34.959  28.638  1.00  0.00     0.251 C 
ATOM      6  H   UNL A   1      31.822  34.723  27.082  1.00  0.00     0.163 HD
BRANCH   5   7
ATOM      7  C   UNL A   1      34.240  34.424  29.346  1.00  0.00     0.039 A 
ATOM      8  C   UNL A   1      34.091  33.746  30.557  1.00  0.00     0.014 A 
ATOM      9  C   UNL A   1      35.506  34.560  28.767  1.00  0.00     0.014 A 
ATOM     10  C   UNL A   1      35.212  33.305  31.247  1.00  0.00     0.010 A 
ATOM     11  C   UNL A   1      36.625  34.034  29.416  1.00  0.00     0.010 A 
ATOM     12  C   UNL A   1      36.486  33.406  30.664  1.00  0.00    -0.014 A 
BRANCH  12  13
ATOM     13  C   UNL A   1      37.629  32.720  31.315  1.00  0.00     0.031 A 
ATOM     14  C   UNL A   1      38.277  31.516  30.700  1.00  0.00     0.074 A 
ATOM     15  C   UNL A   1      38.074  33.216  32.486  1.00  0.00     0.049 A 
ATOM     16  N   UNL A   1      39.276  30.803  31.156  1.00  0.00    -0.248 NA
ATOM     17  C   UNL A   1      37.739  31.042  29.415  1.00  0.00     0.031 C 
ATOM     18  C   UNL A   1      37.501  34.372  33.183  1.00  0.00     0.029 A 
ATOM     19  N   UNL A   1      39.107  32.823  33.297  1.00  0.00    -0.354 N 
ATOM     20  C   UNL A   1      39.477  29.790  30.229  1.00  0.00     0.074 A 
ATOM     21  C   UNL A   1      38.486  29.968  29.188  1.00  0.00     0.031 C 
ATOM     22  C   UNL A   1      38.207  34.613  34.296  1.00  0.00     0.029 A 
ATOM     23  C   UNL A   1      39.232  33.587  34.432  1.00  0.00     0.049 A 
ATOM     24  H   UNL A   1      39.701  32.066  33.086  1.00  0.00     0.167 HD
ATOM     25  C   UNL A   1      40.408  28.805  30.251  1.00  0.00     0.037 A 
ATOM     26  C   UNL A   1      40.056  33.457  35.487  1.00  0.00     0.037 A 
ATOM     27  C   UNL A   1      41.399  28.650  31.286  1.00  0.00     0.049 A 
ATOM     28  C   UNL A   1      41.047  32.330  35.494  1.00  0.00     0.074 A 
ATOM     29  C   UNL A   1      42.427  27.725  31.359  1.00  0.00     0.029 A 
ATOM     30  N   UNL A   1      41.478  29.426  32.432  1.00  0.00    -0.354 N 
ATOM     31  N   UNL A   1      41.273  31.424  34.574  1.00  0.00    -0.248 NA
ATOM     32  C   UNL A   1      41.892  32.201  36.688  1.00  0.00     0.031 C 
ATOM     33  C   UNL A   1      43.086  27.899  32.579  1.00  0.00     0.029 A 
ATOM     34  C   UNL A   1      42.509  28.971  33.239  1.00  0.00     0.049 A 
ATOM     35  H   UNL A   1      40.890  30.187  32.642  1.00  0.00     0.167 HD
ATOM     36  C   UNL A   1      42.293  30.627  35.072  1.00  0.00     0.074 A 
ATOM     37  C   UNL A   1      42.665  31.177  36.359  1.00  0.00     0.031 C 
ATOM     38  C   UNL A   1      42.864  29.529  34.519  1.00  0.00     0.037 A 
BRANCH  25  39
ATOM     39  C   UNL A   1      40.404  27.797  29.139  1.00  0.00     0.057 A 
ATOM     40  C   UNL A   1      39.561  26.678  29.153  1.00  0.00     0.134 A 
ATOM     41  C   UNL A   1      41.174  28.011  27.988  1.00  0.00     0.134 A 
ATOM     42  F   UNL A   1      38.802  26.413  30.226  1.00  0.00    -0.206 F 
ATOM     43  C   UNL A   1      39.486  25.809  28.063  1.00  0.00     0.040 A 
ATOM     44  C   UNL A   1      41.091  27.161  26.884  1.00  0.00     0.040 A 
ATOM     45  F   UNL A   1      41.995  29.069  27.905  1.00  0.00    -0.206 F 
ATOM     46  C   UNL A   1      40.244  26.056  26.919  1.00  0.00     0.006 A 
ENDBRANCH  25  39
BRANCH  26  47
ATOM     47  C   UNL A   1      39.946  34.383  36.643  1.00  0.00     0.057 A 
ATOM     48  C   UNL A   1      39.173  34.062  37.763  1.00  0.00     0.134 A 
ATOM     49  C   UNL A   1      40.586  35.629  36.638  1.00  0.00     0.134 A 
ATOM     50  F   UNL A   1      38.522  32.890  37.821  1.00  0.00    -0.206 F 
ATOM     51  C   UNL A   1      39.013  34.958  38.822  1.00  0.00     0.040 A 
ATOM     52  C   UNL A   1      40.464  36.520  37.704  1.00  0.00     0.040 A 
ATOM     53  F   UNL A   1      41.350  35.995  35.598  1.00  0.00    -0.206 F 
ATOM     54  C   UNL A   1      39.664  36.190  38.795  1.00  0.00     0.006 A 
ENDBRANCH  26  47
BRANCH  38  55
ATOM     55  C   UNL A   1      43.960  28.867  35.299  1.00  0.00     0.057 A 
ATOM     56  C   UNL A   1      43.692  27.861  36.237  1.00  0.00     0.134 A 
ATOM     57  C   UNL A   1      45.300  29.222  35.095  1.00  0.00     0.134 A 
ATOM     58  F   UNL A   1      42.429  27.489  36.492  1.00  0.00    -0.206 F 
ATOM     59  C   UNL A   1      44.715  27.249  36.962  1.00  0.00     0.040 A 
ATOM     60  C   UNL A   1      46.334  28.596  35.791  1.00  0.00     0.040 A 
ATOM     61  F   UNL A   1      45.626  30.173  34.207  1.00  0.00    -0.206 F 
ATOM     62  C   UNL A   1      46.041  27.612  36.734  1.00  0.00     0.006 A 
ENDBRANCH  38  55
ENDBRANCH  12  13
ENDBRANCH   5   7
ENDBRANCH   2   3
ENDBRANCH   1   2
BRANCH   1  63
ATOM     63  C   UNL A   1      31.707  30.802  26.108  1.00  0.00     0.117 C 
BRANCH  63  64
ATOM     64  N   UNL A   1      31.595  29.754  27.105  1.00  0.00    -0.354 N 
ATOM     65  C   UNL A   1      31.750  28.406  26.935  1.00  0.00     0.249 C 
ATOM     66  H   UNL A   1      31.382  30.051  28.019  1.00  0.00     0.163 HD
ATOM     67  O   UNL A   1      31.510  27.672  27.895  1.00  0.00    -0.272 OA
BRANCH  65  68
ATOM     68  C   UNL A   1      32.270  27.885  25.577  1.00  0.00     0.207 C 
ATOM     69  C   UNL A   1      33.624  27.212  25.684  1.00  0.00     0.045 C 
ATOM     70  O   UNL A   1      31.392  26.904  25.006  1.00  0.00    -0.363 OA
ATOM     71  C   UNL A   1      33.239  25.790  25.999  1.00  0.00     0.037 C 
ATOM     72  C   UNL A   1      31.957  25.586  25.201  1.00  0.00     0.138 C 
BRANCH  72  73
ATOM     73  C   UNL A   1      30.907  24.705  25.899  1.00  0.00     0.147 C 
BRANCH  73  74
ATOM     74  N   UNL A   1      31.419  23.887  26.989  1.00  0.00    -0.353 N 
ATOM     75  C   UNL A   1      32.344  22.898  27.066  1.00  0.00     0.229 C 
ATOM     76  H   UNL A   1      31.005  24.098  27.858  1.00  0.00     0.163 HD
ATOM     77  O   UNL A   1      32.663  22.553  28.214  1.00  0.00    -0.275 OA
BRANCH  75  78
ATOM     78  C   UNL A   1      32.925  22.116  25.889  1.00  0.00     0.142 C 
ATOM     79  C   UNL A   1      32.057  21.128  25.106  1.00  0.00     0.084 C 
ATOM     80  C   UNL A   1      34.085  21.235  26.362  1.00  0.00     0.195 C 
ATOM     81  C   UNL A   1      32.721  19.776  25.429  1.00  0.00     0.183 C 
ATOM     82  C   UNL A   1      34.897  20.704  25.167  1.00  0.00     0.072 C 
ATOM     83  N   UNL A   1      33.333  20.028  26.744  1.00  0.00    -0.341 N 
ATOM     84  C   UNL A   1      33.986  19.608  24.591  1.00  0.00     0.071 C 
ATOM     85  H   UNL A   1      33.943  19.267  27.044  1.00  0.00     0.346 HD
ATOM     86  H   UNL A   1      32.697  20.119  27.536  1.00  0.00     0.346 HD
ENDBRANCH  75  78
ENDBRANCH  73  74
ENDBRANCH  72  73
ENDBRANCH  65  68
ENDBRANCH  63  64
ENDBRANCH   1  63
TORSDOF 13
ENDMDL
MODEL 2
REMARK VINA RESULT:     -12.3      5.601     10.235
REMARK SMILES O=C(NCCCNC(=O)[C@H]1CC[C@@H](CNC(=O)[C@@H]2C[C@H]3CC[C@@H]2[NH2+]3)O1)c1ccc(-c2c3nc(c(-c4c(F)cccc4F)c4ccc([nH]4)c(-c4c(F)cccc4F)c4nc(c(-c5c(F)cccc5F)c5ccc2[nH]5)C=C4)C=C3)cc1
REMARK SMILES IDX 5 1 4 2 3 3 1 4 2 5 26 7 27 8 79 9 28 10 78 11 29 12 30 13
REMARK SMILES IDX 31 14 72 15 32 16 77 17 71 18 73 19 33 20 76 21 70 22 69 23
REMARK SMILES IDX 34 25 60 26 43 27 59 28 44 29 47 30 58 31 74 32 45 33 46 34
REMARK SMILES IDX 57 36 75 37 48 38 35 39 36 40 41 41 37 42 38 43 40 44 42 45
REMARK SMILES IDX 39 46 61 47 62 48 67 49 63 50 64 51 66 52 68 53 65 54 49 55
REMARK SMILES IDX 50 56 55 57 51 58 52 59 54 60 56 61 53 62 6 63 7 64 8 65
REMARK SMILES IDX 9 67 10 68 11 69 25 70 12 71 13 72 14 73 15 74 16 75 17 77
REMARK SMILES IDX 18 78 19 79 23 80 20 81 22 82 24 83 21 84
REMARK H PARENT 3 6 73 24 47 35 7 66 15 76 24 85 24 86
REMARK Flexibility Score: inf
ROOT
ATOM      1  C   UNL A   1      38.035  19.996  24.972  1.00  0.00     0.042 C 
ENDROOT
BRANCH   1   2
ATOM      2  C   UNL A   1      39.087  20.205  26.053  1.00  0.00     0.118 C 
BRANCH   2   3
ATOM      3  N   UNL A   1      40.163  19.226  25.976  1.00  0.00    -0.352 N 
ATOM      4  O   UNL A   1      42.280  18.495  25.739  1.00  0.00    -0.269 OA
ATOM      5  C   UNL A   1      41.522  19.414  26.026  1.00  0.00     0.251 C 
ATOM      6  H   UNL A   1      39.873  18.290  25.875  1.00  0.00     0.163 HD
BRANCH   5   7
ATOM      7  C   UNL A   1      42.068  20.727  26.426  1.00  0.00     0.039 A 
ATOM      8  C   UNL A   1      42.397  21.681  25.461  1.00  0.00     0.014 A 
ATOM      9  C   UNL A   1      42.207  21.026  27.785  1.00  0.00     0.014 A 
ATOM     10  C   UNL A   1      42.969  22.885  25.844  1.00  0.00     0.010 A 
ATOM     11  C   UNL A   1      42.696  22.274  28.175  1.00  0.00     0.010 A 
ATOM     12  C   UNL A   1      43.086  23.212  27.205  1.00  0.00    -0.014 A 
BRANCH  12  13
ATOM     13  C   UNL A   1      43.482  24.591  27.580  1.00  0.00     0.031 A 
ATOM     14  C   UNL A   1      42.466  25.621  27.978  1.00  0.00     0.074 A 
ATOM     15  C   UNL A   1      44.794  24.897  27.554  1.00  0.00     0.049 A 
ATOM     16  N   UNL A   1      42.658  26.870  28.320  1.00  0.00    -0.248 NA
ATOM     17  C   UNL A   1      41.054  25.206  27.990  1.00  0.00     0.031 C 
ATOM     18  C   UNL A   1      45.865  23.976  27.162  1.00  0.00     0.029 A 
ATOM     19  N   UNL A   1      45.456  26.055  27.867  1.00  0.00    -0.354 N 
ATOM     20  C   UNL A   1      41.399  27.395  28.571  1.00  0.00     0.074 A 
ATOM     21  C   UNL A   1      40.443  26.335  28.328  1.00  0.00     0.031 C 
ATOM     22  C   UNL A   1      47.048  24.593  27.287  1.00  0.00     0.029 A 
ATOM     23  C   UNL A   1      46.816  25.972  27.694  1.00  0.00     0.049 A 
ATOM     24  H   UNL A   1      45.000  26.869  28.184  1.00  0.00     0.167 HD
ATOM     25  C   UNL A   1      41.078  28.650  28.970  1.00  0.00     0.037 A 
ATOM     26  C   UNL A   1      47.772  26.910  27.812  1.00  0.00     0.037 A 
ATOM     27  C   UNL A   1      42.042  29.691  29.225  1.00  0.00     0.049 A 
ATOM     28  C   UNL A   1      47.374  28.300  28.218  1.00  0.00     0.074 A 
ATOM     29  C   UNL A   1      41.818  30.973  29.698  1.00  0.00     0.029 A 
ATOM     30  N   UNL A   1      43.408  29.577  29.013  1.00  0.00    -0.354 N 
ATOM     31  N   UNL A   1      46.185  28.762  28.523  1.00  0.00    -0.248 NA
ATOM     32  C   UNL A   1      48.445  29.301  28.288  1.00  0.00     0.031 C 
ATOM     33  C   UNL A   1      43.037  31.655  29.711  1.00  0.00     0.029 A 
ATOM     34  C   UNL A   1      44.032  30.781  29.303  1.00  0.00     0.049 A 
ATOM     35  H   UNL A   1      43.866  28.763  28.703  1.00  0.00     0.167 HD
ATOM     36  C   UNL A   1      46.369  30.101  28.833  1.00  0.00     0.074 A 
ATOM     37  C   UNL A   1      47.787  30.368  28.713  1.00  0.00     0.031 C 
ATOM     38  C   UNL A   1      45.444  31.030  29.176  1.00  0.00     0.037 A 
BRANCH  25  39
ATOM     39  C   UNL A   1      39.627  28.993  29.145  1.00  0.00     0.057 A 
ATOM     40  C   UNL A   1      38.817  29.370  28.067  1.00  0.00     0.134 A 
ATOM     41  C   UNL A   1      39.008  28.831  30.392  1.00  0.00     0.134 A 
ATOM     42  F   UNL A   1      39.347  29.546  26.848  1.00  0.00    -0.206 F 
ATOM     43  C   UNL A   1      37.445  29.578  28.224  1.00  0.00     0.040 A 
ATOM     44  C   UNL A   1      37.635  29.014  30.557  1.00  0.00     0.040 A 
ATOM     45  F   UNL A   1      39.725  28.462  31.465  1.00  0.00    -0.206 F 
ATOM     46  C   UNL A   1      36.848  29.388  29.469  1.00  0.00     0.006 A 
ENDBRANCH  25  39
BRANCH  26  47
ATOM     47  C   UNL A   1      49.186  26.584  27.495  1.00  0.00     0.057 A 
ATOM     48  C   UNL A   1      49.680  26.677  26.190  1.00  0.00     0.134 A 
ATOM     49  C   UNL A   1      50.068  26.138  28.488  1.00  0.00     0.134 A 
ATOM     50  F   UNL A   1      48.881  27.083  25.192  1.00  0.00    -0.206 F 
ATOM     51  C   UNL A   1      50.990  26.308  25.877  1.00  0.00     0.040 A 
ATOM     52  C   UNL A   1      51.389  25.800  28.196  1.00  0.00     0.040 A 
ATOM     53  F   UNL A   1      49.660  26.036  29.762  1.00  0.00    -0.206 F 
ATOM     54  C   UNL A   1      51.849  25.871  26.884  1.00  0.00     0.006 A 
ENDBRANCH  26  47
BRANCH  38  55
ATOM     55  C   UNL A   1      45.946  32.415  29.460  1.00  0.00     0.057 A 
ATOM     56  C   UNL A   1      46.004  33.396  28.462  1.00  0.00     0.134 A 
ATOM     57  C   UNL A   1      46.353  32.778  30.750  1.00  0.00     0.134 A 
ATOM     58  F   UNL A   1      45.646  33.106  27.202  1.00  0.00    -0.206 F 
ATOM     59  C   UNL A   1      46.473  34.682  28.730  1.00  0.00     0.040 A 
ATOM     60  C   UNL A   1      46.795  34.070  31.038  1.00  0.00     0.040 A 
ATOM     61  F   UNL A   1      46.317  31.889  31.753  1.00  0.00    -0.206 F 
ATOM     62  C   UNL A   1      46.864  35.023  30.024  1.00  0.00     0.006 A 
ENDBRANCH  38  55
ENDBRANCH  12  13
ENDBRANCH   5   7
ENDBRANCH   2   3
ENDBRANCH   1   2
BRANCH   1  63
ATOM     63  C   UNL A   1      36.786  20.846  25.176  1.00  0.00     0.117 C 
BRANCH  63  64
ATOM     64  N   UNL A   1      36.504  21.655  24.005  1.00  0.00    -0.354 N 
ATOM     65  C   UNL A   1      35.955  22.907  23.957  1.00  0.00     0.249 C 
ATOM     66  H   UNL A   1      36.738  21.253  23.138  1.00  0.00     0.163 HD
ATOM     67  O   UNL A   1      35.701  23.382  22.849  1.00  0.00    -0.272 OA
BRANCH  65  68
ATOM     68  C   UNL A   1      35.739  23.674  25.279  1.00  0.00     0.207 C 
ATOM     69  C   UNL A   1      34.743  24.810  25.145  1.00  0.00     0.045 C 
ATOM     70  O   UNL A   1      35.224  22.826  26.315  1.00  0.00    -0.363 OA
ATOM     71  C   UNL A   1      33.438  24.111  25.423  1.00  0.00     0.037 C 
ATOM     72  C   UNL A   1      33.808  23.077  26.479  1.00  0.00     0.138 C 
BRANCH  72  73
ATOM     73  C   UNL A   1      33.059  21.741  26.352  1.00  0.00     0.147 C 
BRANCH  73  74
ATOM     74  N   UNL A   1      32.812  21.304  24.984  1.00  0.00    -0.353 N 
ATOM     75  C   UNL A   1      32.795  20.093  24.375  1.00  0.00     0.229 C 
ATOM     76  H   UNL A   1      32.615  22.049  24.371  1.00  0.00     0.163 HD
ATOM     77  O   UNL A   1      32.353  20.085  23.216  1.00  0.00    -0.275 OA
BRANCH  75  78
ATOM     78  C   UNL A   1      33.363  18.792  24.941  1.00  0.00     0.142 C 
ATOM     79  C   UNL A   1      34.562  18.114  24.275  1.00  0.00     0.084 C 
ATOM     80  C   UNL A   1      32.298  17.692  24.907  1.00  0.00     0.195 C 
ATOM     81  C   UNL A   1      33.950  16.801  23.751  1.00  0.00     0.183 C 
ATOM     82  C   UNL A   1      32.722  16.488  25.766  1.00  0.00     0.072 C 
ATOM     83  N   UNL A   1      32.536  17.165  23.553  1.00  0.00    -0.341 N 
ATOM     84  C   UNL A   1      33.794  15.807  24.901  1.00  0.00     0.071 C 
ATOM     85  H   UNL A   1      31.951  16.357  23.340  1.00  0.00     0.346 HD
ATOM     86  H   UNL A   1      32.329  17.792  22.776  1.00  0.00     0.346 HD
ENDBRANCH  75  78
ENDBRANCH  73  74
ENDBRANCH  72  73
ENDBRANCH  65  68
ENDBRANCH  63  64
ENDBRANCH   1  63
TORSDOF 13
ENDMDL
MODEL 3
REMARK VINA RESULT:     -12.2      5.240      9.373
REMARK SMILES O=C(NCCCNC(=O)[C@H]1CC[C@@H](CNC(=O)[C@@H]2C[C@H]3CC[C@@H]2[NH2+]3)O1)c1ccc(-c2c3nc(c(-c4c(F)cccc4F)c4ccc([nH]4)c(-c4c(F)cccc4F)c4nc(c(-c5c(F)cccc5F)c5ccc2[nH]5)C=C4)C=C3)cc1
REMARK SMILES IDX 5 1 4 2 3 3 1 4 2 5 26 7 27 8 79 9 28 10 78 11 29 12 30 13
REMARK SMILES IDX 31 14 72 15 32 16 77 17 71 18 73 19 33 20 76 21 70 22 69 23
REMARK SMILES IDX 34 25 60 26 43 27 59 28 44 29 47 30 58 31 74 32 45 33 46 34
REMARK SMILES IDX 57 36 75 37 48 38 35 39 36 40 41 41 37 42 38 43 40 44 42 45
REMARK SMILES IDX 39 46 61 47 62 48 67 49 63 50 64 51 66 52 68 53 65 54 49 55
REMARK SMILES IDX 50 56 55 57 51 58 52 59 54 60 56 61 53 62 6 63 7 64 8 65
REMARK SMILES IDX 9 67 10 68 11 69 25 70 12 71 13 72 14 73 15 74 16 75 17 77
REMARK SMILES IDX 18 78 19 79 23 80 20 81 22 82 24 83 21 84
REMARK H PARENT 3 6 73 24 47 35 7 66 15 76 24 85 24 86
REMARK Flexibility Score: inf
ROOT
ATOM      1  C   UNL A   1      37.906  19.898  24.993  1.00  0.00     0.042 C 
ENDROOT
BRANCH   1   2
ATOM      2  C   UNL A   1      39.030  20.278  25.948  1.00  0.00     0.118 C 
BRANCH   2   3
ATOM      3  N   UNL A   1      40.123  19.314  25.931  1.00  0.00    -0.352 N 
ATOM      4  O   UNL A   1      42.260  18.615  25.812  1.00  0.00    -0.269 OA
ATOM      5  C   UNL A   1      41.473  19.522  26.058  1.00  0.00     0.251 C 
ATOM      6  H   UNL A   1      39.852  18.375  25.809  1.00  0.00     0.163 HD
BRANCH   5   7
ATOM      7  C   UNL A   1      41.976  20.841  26.495  1.00  0.00     0.039 A 
ATOM      8  C   UNL A   1      42.305  21.818  25.554  1.00  0.00     0.014 A 
ATOM      9  C   UNL A   1      42.072  21.119  27.862  1.00  0.00     0.014 A 
ATOM     10  C   UNL A   1      42.838  23.030  25.972  1.00  0.00     0.010 A 
ATOM     11  C   UNL A   1      42.520  22.372  28.284  1.00  0.00     0.010 A 
ATOM     12  C   UNL A   1      42.911  23.336  27.341  1.00  0.00    -0.014 A 
BRANCH  12  13
ATOM     13  C   UNL A   1      43.263  24.718  27.749  1.00  0.00     0.031 A 
ATOM     14  C   UNL A   1      44.690  25.168  27.852  1.00  0.00     0.074 A 
ATOM     15  C   UNL A   1      42.254  25.567  28.025  1.00  0.00     0.049 A 
ATOM     16  N   UNL A   1      45.154  26.340  28.207  1.00  0.00    -0.248 NA
ATOM     17  C   UNL A   1      45.734  24.184  27.525  1.00  0.00     0.031 C 
ATOM     18  C   UNL A   1      40.829  25.226  27.975  1.00  0.00     0.029 A 
ATOM     19  N   UNL A   1      42.262  26.887  28.394  1.00  0.00    -0.354 N 
ATOM     20  C   UNL A   1      46.537  26.233  28.162  1.00  0.00     0.074 A 
ATOM     21  C   UNL A   1      46.842  24.876  27.761  1.00  0.00     0.031 C 
ATOM     22  C   UNL A   1      40.102  26.312  28.271  1.00  0.00     0.029 A 
ATOM     23  C   UNL A   1      41.007  27.404  28.603  1.00  0.00     0.049 A 
ATOM     24  H   UNL A   1      43.088  27.412  28.500  1.00  0.00     0.167 HD
ATOM     25  C   UNL A   1      47.461  27.187  28.432  1.00  0.00     0.037 A 
ATOM     26  C   UNL A   1      40.622  28.613  29.050  1.00  0.00     0.037 A 
ATOM     27  C   UNL A   1      47.142  28.539  28.814  1.00  0.00     0.049 A 
ATOM     28  C   UNL A   1      41.676  29.631  29.377  1.00  0.00     0.074 A 
ATOM     29  C   UNL A   1      48.008  29.595  29.041  1.00  0.00     0.029 A 
ATOM     30  N   UNL A   1      45.860  29.019  29.042  1.00  0.00    -0.354 N 
ATOM     31  N   UNL A   1      42.979  29.537  29.259  1.00  0.00    -0.248 NA
ATOM     32  C   UNL A   1      41.210  30.918  29.906  1.00  0.00     0.031 C 
ATOM     33  C   UNL A   1      47.258  30.694  29.469  1.00  0.00     0.029 A 
ATOM     34  C   UNL A   1      45.918  30.342  29.450  1.00  0.00     0.049 A 
ATOM     35  H   UNL A   1      45.033  28.497  28.930  1.00  0.00     0.167 HD
ATOM     36  C   UNL A   1      43.485  30.755  29.686  1.00  0.00     0.074 A 
ATOM     37  C   UNL A   1      42.349  31.583  30.032  1.00  0.00     0.031 C 
ATOM     38  C   UNL A   1      44.777  31.151  29.793  1.00  0.00     0.037 A 
BRANCH  25  39
ATOM     39  C   UNL A   1      48.913  26.816  28.346  1.00  0.00     0.057 A 
ATOM     40  C   UNL A   1      49.620  26.321  29.448  1.00  0.00     0.134 A 
ATOM     41  C   UNL A   1      49.579  26.850  27.113  1.00  0.00     0.134 A 
ATOM     42  F   UNL A   1      49.043  26.267  30.657  1.00  0.00    -0.206 F 
ATOM     43  C   UNL A   1      50.938  25.875  29.327  1.00  0.00     0.040 A 
ATOM     44  C   UNL A   1      50.888  26.387  26.975  1.00  0.00     0.040 A 
ATOM     45  F   UNL A   1      48.956  27.304  26.014  1.00  0.00    -0.206 F 
ATOM     46  C   UNL A   1      51.572  25.896  28.085  1.00  0.00     0.006 A 
ENDBRANCH  25  39
BRANCH  26  47
ATOM     47  C   UNL A   1      39.183  28.910  29.264  1.00  0.00     0.057 A 
ATOM     48  C   UNL A   1      38.393  29.458  28.249  1.00  0.00     0.134 A 
ATOM     49  C   UNL A   1      38.572  28.682  30.504  1.00  0.00     0.134 A 
ATOM     50  F   UNL A   1      38.924  29.715  27.044  1.00  0.00    -0.206 F 
ATOM     51  C   UNL A   1      37.057  29.800  28.467  1.00  0.00     0.040 A 
ATOM     52  C   UNL A   1      37.229  28.985  30.725  1.00  0.00     0.040 A 
ATOM     53  F   UNL A   1      39.271  28.148  31.518  1.00  0.00    -0.206 F 
ATOM     54  C   UNL A   1      36.471  29.560  29.708  1.00  0.00     0.006 A 
ENDBRANCH  26  47
BRANCH  38  55
ATOM     55  C   UNL A   1      45.022  32.545  30.290  1.00  0.00     0.057 A 
ATOM     56  C   UNL A   1      45.052  33.642  29.420  1.00  0.00     0.134 A 
ATOM     57  C   UNL A   1      45.206  32.796  31.656  1.00  0.00     0.134 A 
ATOM     58  F   UNL A   1      44.901  33.466  28.099  1.00  0.00    -0.206 F 
ATOM     59  C   UNL A   1      45.282  34.937  29.887  1.00  0.00     0.040 A 
ATOM     60  C   UNL A   1      45.406  34.089  32.139  1.00  0.00     0.040 A 
ATOM     61  F   UNL A   1      45.182  31.790  32.543  1.00  0.00    -0.206 F 
ATOM     62  C   UNL A   1      45.452  35.163  31.251  1.00  0.00     0.006 A 
ENDBRANCH  38  55
ENDBRANCH  12  13
ENDBRANCH   5   7
ENDBRANCH   2   3
ENDBRANCH   1   2
BRANCH   1  63
ATOM     63  C   UNL A   1      36.646  20.733  25.184  1.00  0.00     0.117 C 
BRANCH  63  64
ATOM     64  N   UNL A   1      36.411  21.599  24.044  1.00  0.00    -0.354 N 
ATOM     65  C   UNL A   1      35.921  22.876  24.040  1.00  0.00     0.249 C 
ATOM     66  H   UNL A   1      36.633  21.220  23.163  1.00  0.00     0.163 HD
ATOM     67  O   UNL A   1      35.699  23.405  22.949  1.00  0.00    -0.272 OA
BRANCH  65  68
ATOM     68  C   UNL A   1      35.732  23.603  25.389  1.00  0.00     0.207 C 
ATOM     69  C   UNL A   1      34.761  24.763  25.302  1.00  0.00     0.045 C 
ATOM     70  O   UNL A   1      35.206  22.730  26.400  1.00  0.00    -0.363 OA
ATOM     71  C   UNL A   1      33.442  24.083  25.566  1.00  0.00     0.037 C 
ATOM     72  C   UNL A   1      33.797  23.007  26.584  1.00  0.00     0.138 C 
BRANCH  72  73
ATOM     73  C   UNL A   1      33.018  21.692  26.417  1.00  0.00     0.147 C 
BRANCH  73  74
ATOM     74  N   UNL A   1      32.789  21.285  25.036  1.00  0.00    -0.353 N 
ATOM     75  C   UNL A   1      32.783  20.088  24.400  1.00  0.00     0.229 C 
ATOM     76  H   UNL A   1      32.599  22.044  24.437  1.00  0.00     0.163 HD
ATOM     77  O   UNL A   1      32.355  20.105  23.235  1.00  0.00    -0.275 OA
BRANCH  75  78
ATOM     78  C   UNL A   1      33.347  18.776  24.943  1.00  0.00     0.142 C 
ATOM     79  C   UNL A   1      34.521  18.087  24.245  1.00  0.00     0.084 C 
ATOM     80  C   UNL A   1      32.266  17.691  24.927  1.00  0.00     0.195 C 
ATOM     81  C   UNL A   1      33.879  16.785  23.727  1.00  0.00     0.183 C 
ATOM     82  C   UNL A   1      32.695  16.475  25.768  1.00  0.00     0.072 C 
ATOM     83  N   UNL A   1      32.466  17.169  23.565  1.00  0.00    -0.341 N 
ATOM     84  C   UNL A   1      33.738  15.787  24.873  1.00  0.00     0.071 C 
ATOM     85  H   UNL A   1      31.865  16.371  23.361  1.00  0.00     0.346 HD
ATOM     86  H   UNL A   1      32.249  17.805  22.797  1.00  0.00     0.346 HD
ENDBRANCH  75  78
ENDBRANCH  73  74
ENDBRANCH  72  73
ENDBRANCH  65  68
ENDBRANCH  63  64
ENDBRANCH   1  63
TORSDOF 13
ENDMDL
