MODEL 1
REMARK VINA RESULT:     -13.4      0.000      0.000
REMARK SMILES O=C(NCCCNC(=O)c1nn(Cc2ccc(F)cc2)c2c1CN(C(=O)[C@H]1CC1(F)F)CC2)c1ccc(-c2c3nc(c(-c4c(F)cccc4F)c4ccc([nH]4)c(-c4c(F)cccc4F)c4nc(c(-c5c(F)cccc5F)c5ccc2[nH]5)C=C4)C=C3)cc1
REMARK SMILES IDX 5 1 4 2 3 3 1 4 2 5 34 7 35 8 87 9 36 10 86 11 37 12 38 13
REMARK SMILES IDX 39 14 80 15 40 16 85 17 79 18 81 19 41 20 84 21 78 22 77 23
REMARK SMILES IDX 42 25 68 26 51 27 67 28 52 29 55 30 66 31 82 32 53 33 54 34
REMARK SMILES IDX 65 36 83 37 56 38 43 39 44 40 49 41 45 42 46 43 48 44 50 45
REMARK SMILES IDX 47 46 69 47 70 48 75 49 71 50 72 51 74 52 76 53 73 54 57 55
REMARK SMILES IDX 58 56 63 57 59 58 60 59 62 60 64 61 61 62 6 63 7 64 8 65
REMARK SMILES IDX 9 67 10 68 11 69 22 70 12 71 21 72 23 73 33 74 24 75 32 76
REMARK SMILES IDX 13 77 14 78 15 79 20 80 16 81 19 82 17 83 18 84 25 85 26 86
REMARK SMILES IDX 27 87 28 88 29 89 30 90 31 91
REMARK H PARENT 3 6 81 24 55 35 7 66
REMARK Flexibility Score: inf
ROOT
ATOM      1  C   UNL A   1      38.580  23.499  26.675  1.00  0.00     0.042 C 
ENDROOT
BRANCH   1   2
ATOM      2  C   UNL A   1      39.359  22.212  26.411  1.00  0.00     0.118 C 
BRANCH   2   3
ATOM      3  N   UNL A   1      40.646  22.379  25.766  1.00  0.00    -0.352 N 
ATOM      4  O   UNL A   1      42.784  22.817  25.426  1.00  0.00    -0.269 OA
ATOM      5  C   UNL A   1      41.746  23.157  26.001  1.00  0.00     0.251 C 
ATOM      6  H   UNL A   1      40.753  21.798  24.978  1.00  0.00     0.163 HD
BRANCH   5   7
ATOM      7  C   UNL A   1      41.754  24.419  26.787  1.00  0.00     0.039 A 
ATOM      8  C   UNL A   1      42.239  24.589  28.085  1.00  0.00     0.014 A 
ATOM      9  C   UNL A   1      41.173  25.525  26.135  1.00  0.00     0.014 A 
ATOM     10  C   UNL A   1      42.051  25.805  28.748  1.00  0.00     0.010 A 
ATOM     11  C   UNL A   1      40.982  26.733  26.790  1.00  0.00     0.010 A 
ATOM     12  C   UNL A   1      41.382  26.861  28.115  1.00  0.00    -0.014 A 
BRANCH  12  13
ATOM     13  C   UNL A   1      41.267  28.156  28.786  1.00  0.00     0.031 A 
ATOM     14  C   UNL A   1      42.347  29.123  28.428  1.00  0.00     0.074 A 
ATOM     15  C   UNL A   1      40.187  28.528  29.511  1.00  0.00     0.049 A 
ATOM     16  N   UNL A   1      43.215  29.678  29.210  1.00  0.00    -0.248 NA
ATOM     17  C   UNL A   1      42.559  29.424  27.000  1.00  0.00     0.031 C 
ATOM     18  C   UNL A   1      38.929  27.798  29.696  1.00  0.00     0.029 A 
ATOM     19  N   UNL A   1      39.948  29.697  30.175  1.00  0.00    -0.354 N 
ATOM     20  C   UNL A   1      43.968  30.535  28.407  1.00  0.00     0.074 A 
ATOM     21  C   UNL A   1      43.622  30.229  27.045  1.00  0.00     0.031 C 
ATOM     22  C   UNL A   1      37.997  28.627  30.222  1.00  0.00     0.029 A 
ATOM     23  C   UNL A   1      38.618  29.901  30.539  1.00  0.00     0.049 A 
ATOM     24  H   UNL A   1      40.660  30.345  30.379  1.00  0.00     0.167 HD
ATOM     25  C   UNL A   1      44.667  31.579  28.931  1.00  0.00     0.037 A 
ATOM     26  C   UNL A   1      38.070  31.051  31.020  1.00  0.00     0.037 A 
ATOM     27  C   UNL A   1      44.847  31.434  30.348  1.00  0.00     0.049 A 
ATOM     28  C   UNL A   1      39.182  31.892  31.525  1.00  0.00     0.074 A 
ATOM     29  C   UNL A   1      45.494  30.524  31.160  1.00  0.00     0.029 A 
ATOM     30  N   UNL A   1      43.994  32.127  31.168  1.00  0.00    -0.354 N 
ATOM     31  N   UNL A   1      39.900  31.597  32.571  1.00  0.00    -0.248 NA
ATOM     32  C   UNL A   1      39.780  32.833  30.592  1.00  0.00     0.031 C 
ATOM     33  C   UNL A   1      44.649  30.383  32.297  1.00  0.00     0.029 A 
ATOM     34  C   UNL A   1      43.579  31.266  32.149  1.00  0.00     0.049 A 
ATOM     35  H   UNL A   1      43.728  33.071  31.069  1.00  0.00     0.167 HD
ATOM     36  C   UNL A   1      41.191  31.949  32.212  1.00  0.00     0.074 A 
ATOM     37  C   UNL A   1      41.046  32.768  31.010  1.00  0.00     0.031 C 
ATOM     38  C   UNL A   1      42.268  31.307  32.751  1.00  0.00     0.037 A 
BRANCH  25  39
ATOM     39  C   UNL A   1      44.884  32.895  28.231  1.00  0.00     0.057 A 
ATOM     40  C   UNL A   1      46.020  33.183  27.448  1.00  0.00     0.134 A 
ATOM     41  C   UNL A   1      43.812  33.794  28.084  1.00  0.00     0.134 A 
ATOM     42  F   UNL A   1      47.076  32.362  27.395  1.00  0.00    -0.206 F 
ATOM     43  C   UNL A   1      46.089  34.283  26.589  1.00  0.00     0.040 A 
ATOM     44  C   UNL A   1      43.852  34.870  27.188  1.00  0.00     0.040 A 
ATOM     45  F   UNL A   1      42.662  33.608  28.750  1.00  0.00    -0.206 F 
ATOM     46  C   UNL A   1      44.993  35.116  26.435  1.00  0.00     0.006 A 
ENDBRANCH  25  39
BRANCH  26  47
ATOM     47  C   UNL A   1      36.732  31.644  30.755  1.00  0.00     0.057 A 
ATOM     48  C   UNL A   1      36.414  32.208  29.508  1.00  0.00     0.134 A 
ATOM     49  C   UNL A   1      35.859  31.964  31.810  1.00  0.00     0.134 A 
ATOM     50  F   UNL A   1      37.209  32.026  28.445  1.00  0.00    -0.206 F 
ATOM     51  C   UNL A   1      35.323  33.067  29.327  1.00  0.00     0.040 A 
ATOM     52  C   UNL A   1      34.764  32.827  31.643  1.00  0.00     0.040 A 
ATOM     53  F   UNL A   1      36.092  31.510  33.050  1.00  0.00    -0.206 F 
ATOM     54  C   UNL A   1      34.503  33.394  30.400  1.00  0.00     0.006 A 
ENDBRANCH  26  47
BRANCH  38  55
ATOM     55  C   UNL A   1      42.037  30.385  33.917  1.00  0.00     0.057 A 
ATOM     56  C   UNL A   1      42.316  30.862  35.202  1.00  0.00     0.134 A 
ATOM     57  C   UNL A   1      41.735  29.020  33.799  1.00  0.00     0.134 A 
ATOM     58  F   UNL A   1      42.661  32.148  35.385  1.00  0.00    -0.206 F 
ATOM     59  C   UNL A   1      42.314  30.024  36.318  1.00  0.00     0.040 A 
ATOM     60  C   UNL A   1      41.694  28.175  34.915  1.00  0.00     0.040 A 
ATOM     61  F   UNL A   1      41.536  28.452  32.603  1.00  0.00    -0.206 F 
ATOM     62  C   UNL A   1      41.997  28.675  36.177  1.00  0.00     0.006 A 
ENDBRANCH  38  55
ENDBRANCH  12  13
ENDBRANCH   5   7
ENDBRANCH   2   3
ENDBRANCH   1   2
BRANCH   1  63
ATOM     63  C   UNL A   1      37.255  23.633  25.914  1.00  0.00     0.118 C 
BRANCH  63  64
ATOM     64  N   UNL A   1      37.402  23.394  24.485  1.00  0.00    -0.351 N 
ATOM     65  C   UNL A   1      36.461  23.179  23.499  1.00  0.00     0.272 C 
ATOM     66  H   UNL A   1      38.334  23.383  24.168  1.00  0.00     0.163 HD
ATOM     67  O   UNL A   1      36.880  22.822  22.395  1.00  0.00    -0.267 OA
BRANCH  65  68
ATOM     68  C   UNL A   1      35.018  23.343  23.752  1.00  0.00     0.155 A 
ATOM     69  N   UNL A   1      34.318  24.434  23.381  1.00  0.00    -0.167 NA
ATOM     70  C   UNL A   1      34.142  22.371  24.323  1.00  0.00     0.026 A 
ATOM     71  N   UNL A   1      33.050  24.202  23.786  1.00  0.00    -0.264 N 
ATOM     72  C   UNL A   1      32.909  22.988  24.383  1.00  0.00     0.046 A 
ATOM     73  C   UNL A   1      34.404  20.982  24.812  1.00  0.00     0.159 C 
ATOM     74  C   UNL A   1      31.680  22.375  24.950  1.00  0.00     0.078 C 
ATOM     75  N   UNL A   1      33.109  20.335  25.137  1.00  0.00    -0.337 N 
ATOM     76  C   UNL A   1      32.098  21.169  25.817  1.00  0.00     0.126 C 
BRANCH  71  77
ATOM     77  C   UNL A   1      32.002  25.161  23.456  1.00  0.00     0.180 C 
BRANCH  77  78
ATOM     78  C   UNL A   1      31.891  26.261  24.484  1.00  0.00    -0.026 A 
ATOM     79  C   UNL A   1      31.392  27.522  24.114  1.00  0.00     0.008 A 
ATOM     80  C   UNL A   1      32.284  26.047  25.815  1.00  0.00     0.008 A 
ATOM     81  C   UNL A   1      31.284  28.547  25.052  1.00  0.00     0.039 A 
ATOM     82  C   UNL A   1      32.171  27.075  26.754  1.00  0.00     0.039 A 
ATOM     83  C   UNL A   1      31.673  28.314  26.364  1.00  0.00     0.123 A 
ATOM     84  F   UNL A   1      31.567  29.295  27.269  1.00  0.00    -0.207 F 
ENDBRANCH  77  78
ENDBRANCH  71  77
BRANCH  75  85
ATOM     85  C   UNL A   1      32.959  18.984  24.840  1.00  0.00     0.232 C 
ATOM     86  O   UNL A   1      32.003  18.319  25.200  1.00  0.00    -0.274 OA
BRANCH  85  87
ATOM     87  C   UNL A   1      34.013  18.355  24.011  1.00  0.00     0.154 C 
ATOM     88  C   UNL A   1      35.035  17.425  24.644  1.00  0.00     0.097 C 
ATOM     89  C   UNL A   1      33.985  16.898  23.739  1.00  0.00     0.260 C 
ATOM     90  F   UNL A   1      33.043  16.040  24.250  1.00  0.00    -0.206 F 
ATOM     91  F   UNL A   1      34.357  16.409  22.507  1.00  0.00    -0.206 F 
ENDBRANCH  85  87
ENDBRANCH  75  85
ENDBRANCH  65  68
ENDBRANCH  63  64
ENDBRANCH   1  63
TORSDOF 14
ENDMDL
MODEL 2
REMARK VINA RESULT:     -13.2      3.608      7.899
REMARK SMILES O=C(NCCCNC(=O)c1nn(Cc2ccc(F)cc2)c2c1CN(C(=O)[C@H]1CC1(F)F)CC2)c1ccc(-c2c3nc(c(-c4c(F)cccc4F)c4ccc([nH]4)c(-c4c(F)cccc4F)c4nc(c(-c5c(F)cccc5F)c5ccc2[nH]5)C=C4)C=C3)cc1
REMARK SMILES IDX 5 1 4 2 3 3 1 4 2 5 34 7 35 8 87 9 36 10 86 11 37 12 38 13
REMARK SMILES IDX 39 14 80 15 40 16 85 17 79 18 81 19 41 20 84 21 78 22 77 23
REMARK SMILES IDX 42 25 68 26 51 27 67 28 52 29 55 30 66 31 82 32 53 33 54 34
REMARK SMILES IDX 65 36 83 37 56 38 43 39 44 40 49 41 45 42 46 43 48 44 50 45
REMARK SMILES IDX 47 46 69 47 70 48 75 49 71 50 72 51 74 52 76 53 73 54 57 55
REMARK SMILES IDX 58 56 63 57 59 58 60 59 62 60 64 61 61 62 6 63 7 64 8 65
REMARK SMILES IDX 9 67 10 68 11 69 22 70 12 71 21 72 23 73 33 74 24 75 32 76
REMARK SMILES IDX 13 77 14 78 15 79 20 80 16 81 19 82 17 83 18 84 25 85 26 86
REMARK SMILES IDX 27 87 28 88 29 89 30 90 31 91
REMARK H PARENT 3 6 81 24 55 35 7 66
REMARK Flexibility Score: inf
ROOT
ATOM      1  C   UNL A   1      34.386  30.250  27.348  1.00  0.00     0.042 C 
ENDROOT
BRANCH   1   2
ATOM      2  C   UNL A   1      34.467  31.716  27.772  1.00  0.00     0.118 C 
BRANCH   2   3
ATOM      3  N   UNL A   1      34.370  31.963  29.197  1.00  0.00    -0.352 N 
ATOM      4  O   UNL A   1      34.877  32.537  31.269  1.00  0.00    -0.269 OA
ATOM      5  C   UNL A   1      35.263  31.990  30.232  1.00  0.00     0.251 C 
ATOM      6  H   UNL A   1      33.448  32.157  29.485  1.00  0.00     0.163 HD
BRANCH   5   7
ATOM      7  C   UNL A   1      36.591  31.322  30.238  1.00  0.00     0.039 A 
ATOM      8  C   UNL A   1      37.835  31.940  30.098  1.00  0.00     0.014 A 
ATOM      9  C   UNL A   1      36.546  29.919  30.365  1.00  0.00     0.014 A 
ATOM     10  C   UNL A   1      38.992  31.163  29.983  1.00  0.00     0.010 A 
ATOM     11  C   UNL A   1      37.691  29.145  30.249  1.00  0.00     0.010 A 
ATOM     12  C   UNL A   1      38.913  29.765  30.013  1.00  0.00    -0.014 A 
BRANCH  12  13
ATOM     13  C   UNL A   1      40.138  28.966  29.977  1.00  0.00     0.031 A 
ATOM     14  C   UNL A   1      40.766  28.759  31.317  1.00  0.00     0.074 A 
ATOM     15  C   UNL A   1      40.568  28.306  28.878  1.00  0.00     0.049 A 
ATOM     16  N   UNL A   1      41.945  29.118  31.711  1.00  0.00    -0.248 NA
ATOM     17  C   UNL A   1      39.935  28.179  32.388  1.00  0.00     0.031 C 
ATOM     18  C   UNL A   1      39.894  28.175  27.583  1.00  0.00     0.029 A 
ATOM     19  N   UNL A   1      41.676  27.525  28.712  1.00  0.00    -0.354 N 
ATOM     20  C   UNL A   1      42.074  28.652  33.019  1.00  0.00     0.074 A 
ATOM     21  C   UNL A   1      40.766  28.217  33.431  1.00  0.00     0.031 C 
ATOM     22  C   UNL A   1      40.487  27.196  26.859  1.00  0.00     0.029 A 
ATOM     23  C   UNL A   1      41.660  26.722  27.572  1.00  0.00     0.049 A 
ATOM     24  H   UNL A   1      42.427  27.529  29.348  1.00  0.00     0.167 HD
ATOM     25  C   UNL A   1      43.292  28.463  33.597  1.00  0.00     0.037 A 
ATOM     26  C   UNL A   1      42.524  25.714  27.271  1.00  0.00     0.037 A 
ATOM     27  C   UNL A   1      44.328  29.153  32.879  1.00  0.00     0.049 A 
ATOM     28  C   UNL A   1      43.737  25.910  28.101  1.00  0.00     0.074 A 
ATOM     29  C   UNL A   1      44.604  30.476  32.601  1.00  0.00     0.029 A 
ATOM     30  N   UNL A   1      45.085  28.419  32.004  1.00  0.00    -0.354 N 
ATOM     31  N   UNL A   1      44.571  26.899  27.950  1.00  0.00    -0.248 NA
ATOM     32  C   UNL A   1      43.769  25.248  29.396  1.00  0.00     0.031 C 
ATOM     33  C   UNL A   1      45.116  30.471  31.272  1.00  0.00     0.029 A 
ATOM     34  C   UNL A   1      45.193  29.145  30.847  1.00  0.00     0.049 A 
ATOM     35  H   UNL A   1      45.481  27.532  32.175  1.00  0.00     0.167 HD
ATOM     36  C   UNL A   1      44.904  27.270  29.243  1.00  0.00     0.074 A 
ATOM     37  C   UNL A   1      44.434  26.174  30.089  1.00  0.00     0.031 C 
ATOM     38  C   UNL A   1      45.265  28.553  29.532  1.00  0.00     0.037 A 
BRANCH  25  39
ATOM     39  C   UNL A   1      43.602  27.380  34.598  1.00  0.00     0.057 A 
ATOM     40  C   UNL A   1      43.807  26.031  34.247  1.00  0.00     0.134 A 
ATOM     41  C   UNL A   1      43.999  27.727  35.902  1.00  0.00     0.134 A 
ATOM     42  F   UNL A   1      43.583  25.575  33.009  1.00  0.00    -0.206 F 
ATOM     43  C   UNL A   1      44.358  25.095  35.126  1.00  0.00     0.040 A 
ATOM     44  C   UNL A   1      44.598  26.809  36.773  1.00  0.00     0.040 A 
ATOM     45  F   UNL A   1      43.887  28.989  36.343  1.00  0.00    -0.206 F 
ATOM     46  C   UNL A   1      44.782  25.487  36.385  1.00  0.00     0.006 A 
ENDBRANCH  25  39
BRANCH  26  47
ATOM     47  C   UNL A   1      42.260  24.407  26.613  1.00  0.00     0.057 A 
ATOM     48  C   UNL A   1      41.500  23.408  27.245  1.00  0.00     0.134 A 
ATOM     49  C   UNL A   1      43.015  23.988  25.502  1.00  0.00     0.134 A 
ATOM     50  F   UNL A   1      40.792  23.675  28.351  1.00  0.00    -0.206 F 
ATOM     51  C   UNL A   1      41.519  22.072  26.827  1.00  0.00     0.040 A 
ATOM     52  C   UNL A   1      43.045  22.651  25.076  1.00  0.00     0.040 A 
ATOM     53  F   UNL A   1      43.805  24.853  24.850  1.00  0.00    -0.206 F 
ATOM     54  C   UNL A   1      42.307  21.684  25.750  1.00  0.00     0.006 A 
ENDBRANCH  26  47
BRANCH  38  55
ATOM     55  C   UNL A   1      45.531  29.493  28.388  1.00  0.00     0.057 A 
ATOM     56  C   UNL A   1      46.860  29.710  28.007  1.00  0.00     0.134 A 
ATOM     57  C   UNL A   1      44.559  30.311  27.793  1.00  0.00     0.134 A 
ATOM     58  F   UNL A   1      47.849  28.999  28.572  1.00  0.00    -0.206 F 
ATOM     59  C   UNL A   1      47.212  30.702  27.091  1.00  0.00     0.040 A 
ATOM     60  C   UNL A   1      44.894  31.286  26.845  1.00  0.00     0.040 A 
ATOM     61  F   UNL A   1      43.271  30.237  28.153  1.00  0.00    -0.206 F 
ATOM     62  C   UNL A   1      46.227  31.491  26.502  1.00  0.00     0.006 A 
ENDBRANCH  38  55
ENDBRANCH  12  13
ENDBRANCH   5   7
ENDBRANCH   2   3
ENDBRANCH   1   2
BRANCH   1  63
ATOM     63  C   UNL A   1      33.270  29.917  26.350  1.00  0.00     0.118 C 
BRANCH  63  64
ATOM     64  N   UNL A   1      33.771  29.696  25.000  1.00  0.00    -0.351 N 
ATOM     65  C   UNL A   1      33.266  28.952  23.955  1.00  0.00     0.272 C 
ATOM     66  H   UNL A   1      34.617  30.158  24.800  1.00  0.00     0.163 HD
ATOM     67  O   UNL A   1      33.998  28.797  22.974  1.00  0.00    -0.267 OA
BRANCH  65  68
ATOM     68  C   UNL A   1      31.924  28.344  24.009  1.00  0.00     0.155 A 
ATOM     69  N   UNL A   1      30.855  28.843  23.355  1.00  0.00    -0.167 NA
ATOM     70  C   UNL A   1      31.572  27.124  24.661  1.00  0.00     0.026 A 
ATOM     71  N   UNL A   1      29.831  28.015  23.655  1.00  0.00    -0.264 N 
ATOM     72  C   UNL A   1      30.213  26.988  24.462  1.00  0.00     0.046 A 
ATOM     73  C   UNL A   1      32.401  26.154  25.443  1.00  0.00     0.159 C 
ATOM     74  C   UNL A   1      29.383  25.879  24.999  1.00  0.00     0.078 C 
ATOM     75  N   UNL A   1      31.581  24.955  25.744  1.00  0.00    -0.337 N 
ATOM     76  C   UNL A   1      30.175  25.188  26.129  1.00  0.00     0.126 C 
BRANCH  71  77
ATOM     77  C   UNL A   1      28.531  28.221  23.028  1.00  0.00     0.180 C 
BRANCH  77  78
ATOM     78  C   UNL A   1      28.327  29.653  22.596  1.00  0.00    -0.026 A 
ATOM     79  C   UNL A   1      27.966  30.628  23.542  1.00  0.00     0.008 A 
ATOM     80  C   UNL A   1      28.491  30.033  21.254  1.00  0.00     0.008 A 
ATOM     81  C   UNL A   1      27.774  31.954  23.157  1.00  0.00     0.039 A 
ATOM     82  C   UNL A   1      28.303  31.363  20.873  1.00  0.00     0.039 A 
ATOM     83  C   UNL A   1      27.947  32.310  21.827  1.00  0.00     0.123 A 
ATOM     84  F   UNL A   1      27.767  33.584  21.455  1.00  0.00    -0.207 F 
ENDBRANCH  77  78
ENDBRANCH  71  77
BRANCH  75  85
ATOM     85  C   UNL A   1      32.202  23.711  25.706  1.00  0.00     0.232 C 
ATOM     86  O   UNL A   1      32.190  22.924  26.637  1.00  0.00    -0.274 OA
BRANCH  85  87
ATOM     87  C   UNL A   1      32.874  23.333  24.442  1.00  0.00     0.154 C 
ATOM     88  C   UNL A   1      32.536  22.019  23.754  1.00  0.00     0.097 C 
ATOM     89  C   UNL A   1      32.119  23.315  23.166  1.00  0.00     0.260 C 
ATOM     90  F   UNL A   1      30.778  23.593  23.063  1.00  0.00    -0.206 F 
ATOM     91  F   UNL A   1      32.713  23.733  21.996  1.00  0.00    -0.206 F 
ENDBRANCH  85  87
ENDBRANCH  75  85
ENDBRANCH  65  68
ENDBRANCH  63  64
ENDBRANCH   1  63
TORSDOF 14
ENDMDL
MODEL 3
REMARK VINA RESULT:     -13.2      1.039      4.510
REMARK SMILES O=C(NCCCNC(=O)c1nn(Cc2ccc(F)cc2)c2c1CN(C(=O)[C@H]1CC1(F)F)CC2)c1ccc(-c2c3nc(c(-c4c(F)cccc4F)c4ccc([nH]4)c(-c4c(F)cccc4F)c4nc(c(-c5c(F)cccc5F)c5ccc2[nH]5)C=C4)C=C3)cc1
REMARK SMILES IDX 5 1 4 2 3 3 1 4 2 5 34 7 35 8 87 9 36 10 86 11 37 12 38 13
REMARK SMILES IDX 39 14 80 15 40 16 85 17 79 18 81 19 41 20 84 21 78 22 77 23
REMARK SMILES IDX 42 25 68 26 51 27 67 28 52 29 55 30 66 31 82 32 53 33 54 34
REMARK SMILES IDX 65 36 83 37 56 38 43 39 44 40 49 41 45 42 46 43 48 44 50 45
REMARK SMILES IDX 47 46 69 47 70 48 75 49 71 50 72 51 74 52 76 53 73 54 57 55
REMARK SMILES IDX 58 56 63 57 59 58 60 59 62 60 64 61 61 62 6 63 7 64 8 65
REMARK SMILES IDX 9 67 10 68 11 69 22 70 12 71 21 72 23 73 33 74 24 75 32 76
REMARK SMILES IDX 13 77 14 78 15 79 20 80 16 81 19 82 17 83 18 84 25 85 26 86
REMARK SMILES IDX 27 87 28 88 29 89 30 90 31 91
REMARK H PARENT 3 6 81 24 55 35 7 66
REMARK Flexibility Score: inf
ROOT
ATOM      1  C   UNL A   1      38.600  23.214  26.567  1.00  0.00     0.042 C 
ENDROOT
BRANCH   1   2
ATOM      2  C   UNL A   1      39.400  21.965  26.203  1.00  0.00     0.118 C 
BRANCH   2   3
ATOM      3  N   UNL A   1      40.763  22.197  25.769  1.00  0.00    -0.352 N 
ATOM      4  O   UNL A   1      42.881  22.823  25.740  1.00  0.00    -0.269 OA
ATOM      5  C   UNL A   1      41.730  23.110  26.084  1.00  0.00     0.251 C 
ATOM      6  H   UNL A   1      41.060  21.547  25.090  1.00  0.00     0.163 HD
BRANCH   5   7
ATOM      7  C   UNL A   1      41.488  24.444  26.693  1.00  0.00     0.039 A 
ATOM      8  C   UNL A   1      40.961  25.568  26.054  1.00  0.00     0.014 A 
ATOM      9  C   UNL A   1      41.875  24.557  28.043  1.00  0.00     0.014 A 
ATOM     10  C   UNL A   1      40.922  26.797  26.720  1.00  0.00     0.010 A 
ATOM     11  C   UNL A   1      41.840  25.775  28.707  1.00  0.00     0.010 A 
ATOM     12  C   UNL A   1      41.404  26.908  28.030  1.00  0.00    -0.014 A 
BRANCH  12  13
ATOM     13  C   UNL A   1      41.279  28.178  28.746  1.00  0.00     0.031 A 
ATOM     14  C   UNL A   1      42.352  29.165  28.420  1.00  0.00     0.074 A 
ATOM     15  C   UNL A   1      40.197  28.517  29.484  1.00  0.00     0.049 A 
ATOM     16  N   UNL A   1      43.216  29.700  29.221  1.00  0.00    -0.248 NA
ATOM     17  C   UNL A   1      42.560  29.517  27.003  1.00  0.00     0.031 C 
ATOM     18  C   UNL A   1      38.945  27.772  29.645  1.00  0.00     0.029 A 
ATOM     19  N   UNL A   1      39.950  29.661  30.188  1.00  0.00    -0.354 N 
ATOM     20  C   UNL A   1      43.961  30.590  28.447  1.00  0.00     0.074 A 
ATOM     21  C   UNL A   1      43.616  30.329  27.075  1.00  0.00     0.031 C 
ATOM     22  C   UNL A   1      38.007  28.575  30.200  1.00  0.00     0.029 A 
ATOM     23  C   UNL A   1      38.619  29.842  30.560  1.00  0.00     0.049 A 
ATOM     24  H   UNL A   1      40.658  30.307  30.414  1.00  0.00     0.167 HD
ATOM     25  C   UNL A   1      44.653  31.620  29.006  1.00  0.00     0.037 A 
ATOM     26  C   UNL A   1      38.063  30.970  31.080  1.00  0.00     0.037 A 
ATOM     27  C   UNL A   1      44.836  31.428  30.417  1.00  0.00     0.049 A 
ATOM     28  C   UNL A   1      39.168  31.802  31.614  1.00  0.00     0.074 A 
ATOM     29  C   UNL A   1      45.491  30.495  31.196  1.00  0.00     0.029 A 
ATOM     30  N   UNL A   1      43.978  32.086  31.261  1.00  0.00    -0.354 N 
ATOM     31  N   UNL A   1      39.890  31.477  32.648  1.00  0.00    -0.248 NA
ATOM     32  C   UNL A   1      39.759  32.779  30.712  1.00  0.00     0.031 C 
ATOM     33  C   UNL A   1      44.648  30.309  32.329  1.00  0.00     0.029 A 
ATOM     34  C   UNL A   1      43.571  31.189  32.212  1.00  0.00     0.049 A 
ATOM     35  H   UNL A   1      43.705  33.030  31.195  1.00  0.00     0.167 HD
ATOM     36  C   UNL A   1      41.178  31.850  32.300  1.00  0.00     0.074 A 
ATOM     37  C   UNL A   1      41.025  32.709  31.127  1.00  0.00     0.031 C 
ATOM     38  C   UNL A   1      42.260  31.199  32.816  1.00  0.00     0.037 A 
BRANCH  25  39
ATOM     39  C   UNL A   1      44.860  32.962  28.351  1.00  0.00     0.057 A 
ATOM     40  C   UNL A   1      46.001  33.291  27.593  1.00  0.00     0.134 A 
ATOM     41  C   UNL A   1      43.776  33.848  28.218  1.00  0.00     0.134 A 
ATOM     42  F   UNL A   1      47.070  32.488  27.529  1.00  0.00    -0.206 F 
ATOM     43  C   UNL A   1      46.065  34.419  26.771  1.00  0.00     0.040 A 
ATOM     44  C   UNL A   1      43.812  34.953  27.359  1.00  0.00     0.040 A 
ATOM     45  F   UNL A   1      42.621  33.625  28.862  1.00  0.00    -0.206 F 
ATOM     46  C   UNL A   1      44.959  35.241  26.629  1.00  0.00     0.006 A 
ENDBRANCH  25  39
BRANCH  26  47
ATOM     47  C   UNL A   1      36.720  31.562  30.837  1.00  0.00     0.057 A 
ATOM     48  C   UNL A   1      36.352  32.048  29.571  1.00  0.00     0.134 A 
ATOM     49  C   UNL A   1      35.898  31.961  31.907  1.00  0.00     0.134 A 
ATOM     50  F   UNL A   1      37.096  31.787  28.488  1.00  0.00    -0.206 F 
ATOM     51  C   UNL A   1      35.262  32.907  29.384  1.00  0.00     0.040 A 
ATOM     52  C   UNL A   1      34.806  32.824  31.733  1.00  0.00     0.040 A 
ATOM     53  F   UNL A   1      36.183  31.585  33.162  1.00  0.00    -0.206 F 
ATOM     54  C   UNL A   1      34.494  33.314  30.469  1.00  0.00     0.006 A 
ENDBRANCH  26  47
BRANCH  38  55
ATOM     55  C   UNL A   1      42.038  30.235  33.950  1.00  0.00     0.057 A 
ATOM     56  C   UNL A   1      42.314  30.670  35.250  1.00  0.00     0.134 A 
ATOM     57  C   UNL A   1      41.747  28.872  33.785  1.00  0.00     0.134 A 
ATOM     58  F   UNL A   1      42.648  31.951  35.477  1.00  0.00    -0.206 F 
ATOM     59  C   UNL A   1      42.319  29.794  36.337  1.00  0.00     0.040 A 
ATOM     60  C   UNL A   1      41.714  27.989  34.871  1.00  0.00     0.040 A 
ATOM     61  F   UNL A   1      41.551  28.344  32.570  1.00  0.00    -0.206 F 
ATOM     62  C   UNL A   1      42.013  28.448  36.150  1.00  0.00     0.006 A 
ENDBRANCH  38  55
ENDBRANCH  12  13
ENDBRANCH   5   7
ENDBRANCH   2   3
ENDBRANCH   1   2
BRANCH   1  63
ATOM     63  C   UNL A   1      37.213  23.316  25.920  1.00  0.00     0.118 C 
BRANCH  63  64
ATOM     64  N   UNL A   1      37.269  23.300  24.464  1.00  0.00    -0.351 N 
ATOM     65  C   UNL A   1      36.291  23.068  23.521  1.00  0.00     0.272 C 
ATOM     66  H   UNL A   1      38.161  23.487  24.090  1.00  0.00     0.163 HD
ATOM     67  O   UNL A   1      36.662  22.937  22.351  1.00  0.00    -0.267 OA
BRANCH  65  68
ATOM     68  C   UNL A   1      34.868  22.954  23.887  1.00  0.00     0.155 A 
ATOM     69  N   UNL A   1      34.305  21.813  24.335  1.00  0.00    -0.167 NA
ATOM     70  C   UNL A   1      33.913  24.014  23.918  1.00  0.00     0.026 A 
ATOM     71  N   UNL A   1      33.007  22.115  24.557  1.00  0.00    -0.264 N 
ATOM     72  C   UNL A   1      32.724  23.419  24.290  1.00  0.00     0.046 A 
ATOM     73  C   UNL A   1      34.053  25.470  23.602  1.00  0.00     0.159 C 
ATOM     74  C   UNL A   1      31.424  24.126  24.416  1.00  0.00     0.078 C 
ATOM     75  N   UNL A   1      32.797  26.166  23.977  1.00  0.00    -0.337 N 
ATOM     76  C   UNL A   1      31.532  25.471  23.667  1.00  0.00     0.126 C 
BRANCH  71  77
ATOM     77  C   UNL A   1      32.123  21.112  25.140  1.00  0.00     0.180 C 
BRANCH  77  78
ATOM     78  C   UNL A   1      32.459  19.716  24.672  1.00  0.00    -0.026 A 
ATOM     79  C   UNL A   1      32.861  18.741  25.601  1.00  0.00     0.008 A 
ATOM     80  C   UNL A   1      32.380  19.372  23.313  1.00  0.00     0.008 A 
ATOM     81  C   UNL A   1      33.174  17.448  25.183  1.00  0.00     0.039 A 
ATOM     82  C   UNL A   1      32.690  18.075  22.898  1.00  0.00     0.039 A 
ATOM     83  C   UNL A   1      33.084  17.126  23.836  1.00  0.00     0.123 A 
ATOM     84  F   UNL A   1      33.381  15.885  23.432  1.00  0.00    -0.207 F 
ENDBRANCH  77  78
ENDBRANCH  71  77
BRANCH  75  85
ATOM     85  C   UNL A   1      32.893  27.439  24.530  1.00  0.00     0.232 C 
ATOM     86  O   UNL A   1      33.745  28.249  24.211  1.00  0.00    -0.274 OA
BRANCH  85  87
ATOM     87  C   UNL A   1      31.870  27.815  25.533  1.00  0.00     0.154 C 
ATOM     88  C   UNL A   1      31.764  27.056  26.846  1.00  0.00     0.097 C 
ATOM     89  C   UNL A   1      32.269  28.449  26.812  1.00  0.00     0.260 C 
ATOM     90  F   UNL A   1      33.572  28.690  27.176  1.00  0.00    -0.206 F 
ATOM     91  F   UNL A   1      31.500  29.446  27.369  1.00  0.00    -0.206 F 
ENDBRANCH  85  87
ENDBRANCH  75  85
ENDBRANCH  65  68
ENDBRANCH  63  64
ENDBRANCH   1  63
TORSDOF 14
ENDMDL
