MODEL 1
REMARK VINA RESULT:     -12.3      0.000      0.000
REMARK SMILES CC1(C)S[C@H](c2ccc(-c3cccc([N+](=O)[O-])c3)o2)[NH2+][C@@H]1C(=O)NCCCNC(=O)c1ccc(-c2c3nc(c(-c4c(F)cccc4F)c4ccc([nH]4)c(-c4c(F)cccc4F)c4nc(c(-c5c(F)cccc5F)c5ccc2[nH]5)C=C4)C=C3)cc1
REMARK SMILES IDX 25 1 24 2 22 3 23 4 21 6 1 7 2 8 3 9 4 10 5 11 20 12 6 15
REMARK SMILES IDX 7 16 19 17 8 18 9 19 10 20 11 21 18 22 12 23 14 24 13 25
REMARK SMILES IDX 15 26 16 27 17 28 26 29 27 30 28 31 29 32 30 34 31 35 32 36
REMARK SMILES IDX 84 37 33 38 83 39 34 40 35 41 36 42 77 43 37 44 82 45 76 46
REMARK SMILES IDX 78 47 38 48 81 49 75 50 74 51 39 53 65 54 48 55 64 56 49 57
REMARK SMILES IDX 52 58 63 59 79 60 50 61 51 62 62 64 80 65 53 66 40 67 41 68
REMARK SMILES IDX 46 69 42 70 43 71 45 72 47 73 44 74 66 75 67 76 72 77 68 78
REMARK SMILES IDX 69 79 71 80 73 81 70 82 54 83 55 84 60 85 56 86 57 87 59 88
REMARK SMILES IDX 61 89 58 90
REMARK H PARENT 24 5 20 13 20 14 28 33 78 52 52 63
REMARK Flexibility Score: inf
ROOT
ATOM      1  C   UNL A   1      31.675  28.329  27.262  1.00  0.00     0.118 C 
ENDROOT
BRANCH   1   2
ATOM      2  N   UNL A   1      31.380  26.990  26.790  1.00  0.00    -0.351 N 
ATOM      3  C   UNL A   1      31.580  26.505  25.520  1.00  0.00     0.279 C 
ATOM      4  O   UNL A   1      31.432  25.295  25.356  1.00  0.00    -0.268 OA
ATOM      5  H   UNL A   1      30.996  26.365  27.447  1.00  0.00     0.163 HD
BRANCH   3   6
ATOM      6  C   UNL A   1      31.847  27.522  24.379  1.00  0.00     0.289 C 
ATOM      7  C   UNL A   1      30.923  29.000  22.547  1.00  0.00     0.030 C 
ATOM      8  C   UNL A   1      30.847  27.602  23.201  1.00  0.00     0.078 C 
ATOM      9  C   UNL A   1      29.381  27.302  23.511  1.00  0.00     0.030 C 
ATOM     10  S   UNL A   1      31.487  26.381  22.008  1.00  0.00    -0.078 SA
ATOM     11  C   UNL A   1      33.140  26.335  22.733  1.00  0.00     0.311 C 
ATOM     12  N   UNL A   1      33.219  27.332  23.808  1.00  0.00    -0.317 N 
ATOM     13  H   UNL A   1      33.560  28.217  23.432  1.00  0.00     0.348 HD
ATOM     14  H   UNL A   1      33.860  27.014  24.533  1.00  0.00     0.348 HD
BRANCH  11  15
ATOM     15  C   UNL A   1      33.572  24.948  23.095  1.00  0.00     0.172 A 
ATOM     16  C   UNL A   1      32.995  23.723  22.810  1.00  0.00     0.054 A 
ATOM     17  O   UNL A   1      34.734  24.746  23.797  1.00  0.00    -0.454 OA
ATOM     18  C   UNL A   1      33.849  22.732  23.338  1.00  0.00     0.051 A 
ATOM     19  C   UNL A   1      34.900  23.395  23.935  1.00  0.00     0.134 A 
BRANCH  19  20
ATOM     20  C   UNL A   1      36.110  22.936  24.603  1.00  0.00     0.024 A 
ATOM     21  C   UNL A   1      36.942  23.822  25.303  1.00  0.00     0.012 A 
ATOM     22  C   UNL A   1      36.449  21.575  24.563  1.00  0.00     0.097 A 
ATOM     23  C   UNL A   1      38.096  23.362  25.950  1.00  0.00     0.008 A 
ATOM     24  C   UNL A   1      37.613  21.122  25.200  1.00  0.00     0.270 A 
ATOM     25  C   UNL A   1      38.440  22.010  25.897  1.00  0.00     0.085 A 
BRANCH  24  26
ATOM     26  N   UNL A   1      37.985  19.704  25.105  1.00  0.00     0.062 N 
ATOM     27  O   UNL A   1      37.086  18.894  24.829  1.00  0.00    -0.258 OA
ATOM     28  O   UNL A   1      39.178  19.408  25.261  1.00  0.00    -0.258 OA
ENDBRANCH  24  26
ENDBRANCH  19  20
ENDBRANCH  11  15
ENDBRANCH   3   6
ENDBRANCH   1   2
BRANCH   1  29
ATOM     29  C   UNL A   1      33.142  28.553  27.585  1.00  0.00     0.042 C 
BRANCH  29  30
ATOM     30  C   UNL A   1      33.739  29.820  26.997  1.00  0.00     0.118 C 
BRANCH  30  31
ATOM     31  N   UNL A   1      33.909  30.902  27.956  1.00  0.00    -0.352 N 
ATOM     32  C   UNL A   1      34.960  31.164  28.805  1.00  0.00     0.251 C 
ATOM     33  H   UNL A   1      33.162  31.540  28.004  1.00  0.00     0.163 HD
ATOM     34  O   UNL A   1      34.881  32.083  29.611  1.00  0.00    -0.269 OA
BRANCH  32  35
ATOM     35  C   UNL A   1      36.166  30.305  28.788  1.00  0.00     0.039 A 
ATOM     36  C   UNL A   1      36.990  30.354  27.662  1.00  0.00     0.014 A 
ATOM     37  C   UNL A   1      36.533  29.532  29.891  1.00  0.00     0.014 A 
ATOM     38  C   UNL A   1      38.253  29.765  27.709  1.00  0.00     0.010 A 
ATOM     39  C   UNL A   1      37.829  29.038  29.978  1.00  0.00     0.010 A 
ATOM     40  C   UNL A   1      38.714  29.185  28.902  1.00  0.00    -0.014 A 
BRANCH  40  41
ATOM     41  C   UNL A   1      40.143  28.824  29.064  1.00  0.00     0.031 A 
ATOM     42  C   UNL A   1      41.123  29.799  29.645  1.00  0.00     0.074 A 
ATOM     43  C   UNL A   1      40.565  27.629  28.601  1.00  0.00     0.049 A 
ATOM     44  N   UNL A   1      42.412  29.663  29.824  1.00  0.00    -0.248 NA
ATOM     45  C   UNL A   1      40.593  31.112  30.048  1.00  0.00     0.031 C 
ATOM     46  C   UNL A   1      39.719  26.630  27.938  1.00  0.00     0.029 A 
ATOM     47  N   UNL A   1      41.807  27.047  28.614  1.00  0.00    -0.354 N 
ATOM     48  C   UNL A   1      42.847  30.872  30.350  1.00  0.00     0.074 A 
ATOM     49  C   UNL A   1      41.698  31.749  30.404  1.00  0.00     0.031 C 
ATOM     50  C   UNL A   1      40.456  25.546  27.654  1.00  0.00     0.029 A 
ATOM     51  C   UNL A   1      41.830  25.783  28.077  1.00  0.00     0.049 A 
ATOM     52  H   UNL A   1      42.607  27.494  28.976  1.00  0.00     0.167 HD
ATOM     53  C   UNL A   1      44.087  31.208  30.776  1.00  0.00     0.037 A 
ATOM     54  C   UNL A   1      42.845  24.908  27.947  1.00  0.00     0.037 A 
ATOM     55  C   UNL A   1      45.219  30.321  30.741  1.00  0.00     0.049 A 
ATOM     56  C   UNL A   1      44.206  25.297  28.451  1.00  0.00     0.074 A 
ATOM     57  C   UNL A   1      46.506  30.543  31.200  1.00  0.00     0.029 A 
ATOM     58  N   UNL A   1      45.197  29.036  30.217  1.00  0.00    -0.354 N 
ATOM     59  N   UNL A   1      44.586  26.416  29.016  1.00  0.00    -0.248 NA
ATOM     60  C   UNL A   1      45.275  24.300  28.306  1.00  0.00     0.031 C 
ATOM     61  C   UNL A   1      47.272  29.405  30.923  1.00  0.00     0.029 A 
ATOM     62  C   UNL A   1      46.451  28.459  30.328  1.00  0.00     0.049 A 
ATOM     63  H   UNL A   1      44.407  28.600  29.824  1.00  0.00     0.167 HD
ATOM     64  C   UNL A   1      45.931  26.252  29.316  1.00  0.00     0.074 A 
ATOM     65  C   UNL A   1      46.295  24.918  28.884  1.00  0.00     0.031 C 
ATOM     66  C   UNL A   1      46.789  27.126  29.896  1.00  0.00     0.037 A 
BRANCH  53  67
ATOM     67  C   UNL A   1      44.273  32.591  31.330  1.00  0.00     0.057 A 
ATOM     68  C   UNL A   1      44.083  32.869  32.690  1.00  0.00     0.134 A 
ATOM     69  C   UNL A   1      44.658  33.652  30.501  1.00  0.00     0.134 A 
ATOM     70  F   UNL A   1      43.700  31.900  33.535  1.00  0.00    -0.206 F 
ATOM     71  C   UNL A   1      44.242  34.159  33.202  1.00  0.00     0.040 A 
ATOM     72  C   UNL A   1      44.846  34.940  31.007  1.00  0.00     0.040 A 
ATOM     73  F   UNL A   1      44.860  33.455  29.191  1.00  0.00    -0.206 F 
ATOM     74  C   UNL A   1      44.630  35.197  32.358  1.00  0.00     0.006 A 
ENDBRANCH  53  67
BRANCH  54  75
ATOM     75  C   UNL A   1      42.604  23.568  27.356  1.00  0.00     0.057 A 
ATOM     76  C   UNL A   1      42.736  23.356  25.979  1.00  0.00     0.134 A 
ATOM     77  C   UNL A   1      42.238  22.471  28.145  1.00  0.00     0.134 A 
ATOM     78  F   UNL A   1      43.069  24.372  25.169  1.00  0.00    -0.206 F 
ATOM     79  C   UNL A   1      42.497  22.106  25.405  1.00  0.00     0.040 A 
ATOM     80  C   UNL A   1      42.018  21.210  27.588  1.00  0.00     0.040 A 
ATOM     81  F   UNL A   1      42.105  22.606  29.473  1.00  0.00    -0.206 F 
ATOM     82  C   UNL A   1      42.141  21.027  26.211  1.00  0.00     0.006 A 
ENDBRANCH  54  75
BRANCH  66  83
ATOM     83  C   UNL A   1      48.194  26.654  30.117  1.00  0.00     0.057 A 
ATOM     84  C   UNL A   1      48.563  25.954  31.273  1.00  0.00     0.134 A 
ATOM     85  C   UNL A   1      49.180  26.876  29.149  1.00  0.00     0.134 A 
ATOM     86  F   UNL A   1      47.665  25.724  32.243  1.00  0.00    -0.206 F 
ATOM     87  C   UNL A   1      49.870  25.508  31.467  1.00  0.00     0.040 A 
ATOM     88  C   UNL A   1      50.485  26.413  29.320  1.00  0.00     0.040 A 
ATOM     89  F   UNL A   1      48.889  27.535  28.017  1.00  0.00    -0.206 F 
ATOM     90  C   UNL A   1      50.835  25.732  30.484  1.00  0.00     0.006 A 
ENDBRANCH  66  83
ENDBRANCH  40  41
ENDBRANCH  32  35
ENDBRANCH  30  31
ENDBRANCH  29  30
ENDBRANCH   1  29
TORSDOF 13
ENDMDL
MODEL 2
REMARK VINA RESULT:     -12.1      1.940      6.362
REMARK SMILES CC1(C)S[C@H](c2ccc(-c3cccc([N+](=O)[O-])c3)o2)[NH2+][C@@H]1C(=O)NCCCNC(=O)c1ccc(-c2c3nc(c(-c4c(F)cccc4F)c4ccc([nH]4)c(-c4c(F)cccc4F)c4nc(c(-c5c(F)cccc5F)c5ccc2[nH]5)C=C4)C=C3)cc1
REMARK SMILES IDX 25 1 24 2 22 3 23 4 21 6 1 7 2 8 3 9 4 10 5 11 20 12 6 15
REMARK SMILES IDX 7 16 19 17 8 18 9 19 10 20 11 21 18 22 12 23 14 24 13 25
REMARK SMILES IDX 15 26 16 27 17 28 26 29 27 30 28 31 29 32 30 34 31 35 32 36
REMARK SMILES IDX 84 37 33 38 83 39 34 40 35 41 36 42 77 43 37 44 82 45 76 46
REMARK SMILES IDX 78 47 38 48 81 49 75 50 74 51 39 53 65 54 48 55 64 56 49 57
REMARK SMILES IDX 52 58 63 59 79 60 50 61 51 62 62 64 80 65 53 66 40 67 41 68
REMARK SMILES IDX 46 69 42 70 43 71 45 72 47 73 44 74 66 75 67 76 72 77 68 78
REMARK SMILES IDX 69 79 71 80 73 81 70 82 54 83 55 84 60 85 56 86 57 87 59 88
REMARK SMILES IDX 61 89 58 90
REMARK H PARENT 24 5 20 13 20 14 28 33 78 52 52 63
REMARK Flexibility Score: inf
ROOT
ATOM      1  C   UNL A   1      32.054  28.868  27.245  1.00  0.00     0.118 C 
ENDROOT
BRANCH   1   2
ATOM      2  N   UNL A   1      31.427  27.562  27.283  1.00  0.00    -0.351 N 
ATOM      3  C   UNL A   1      31.236  26.711  26.221  1.00  0.00     0.279 C 
ATOM      4  O   UNL A   1      30.844  25.575  26.480  1.00  0.00    -0.268 OA
ATOM      5  H   UNL A   1      31.104  27.253  28.161  1.00  0.00     0.163 HD
BRANCH   3   6
ATOM      6  C   UNL A   1      31.402  27.279  24.786  1.00  0.00     0.289 C 
ATOM      7  C   UNL A   1      30.380  27.750  22.522  1.00  0.00     0.030 C 
ATOM      8  C   UNL A   1      30.523  26.705  23.649  1.00  0.00     0.078 C 
ATOM      9  C   UNL A   1      29.124  26.219  24.028  1.00  0.00     0.030 C 
ATOM     10  S   UNL A   1      31.507  25.309  23.009  1.00  0.00    -0.078 SA
ATOM     11  C   UNL A   1      33.058  25.896  23.721  1.00  0.00     0.311 C 
ATOM     12  N   UNL A   1      32.832  27.205  24.347  1.00  0.00    -0.317 N 
ATOM     13  H   UNL A   1      33.023  27.945  23.673  1.00  0.00     0.348 HD
ATOM     14  H   UNL A   1      33.451  27.320  25.148  1.00  0.00     0.348 HD
BRANCH  11  15
ATOM     15  C   UNL A   1      33.722  24.866  24.582  1.00  0.00     0.172 A 
ATOM     16  C   UNL A   1      34.270  24.971  25.848  1.00  0.00     0.054 A 
ATOM     17  O   UNL A   1      33.828  23.567  24.152  1.00  0.00    -0.454 OA
ATOM     18  C   UNL A   1      34.708  23.681  26.216  1.00  0.00     0.051 A 
ATOM     19  C   UNL A   1      34.422  22.851  25.154  1.00  0.00     0.134 A 
BRANCH  19  20
ATOM     20  C   UNL A   1      34.586  21.418  24.943  1.00  0.00     0.024 A 
ATOM     21  C   UNL A   1      35.838  20.799  25.060  1.00  0.00     0.012 A 
ATOM     22  C   UNL A   1      33.466  20.631  24.632  1.00  0.00     0.097 A 
ATOM     23  C   UNL A   1      35.977  19.419  24.866  1.00  0.00     0.008 A 
ATOM     24  C   UNL A   1      33.612  19.253  24.424  1.00  0.00     0.270 A 
ATOM     25  C   UNL A   1      34.865  18.640  24.542  1.00  0.00     0.085 A 
BRANCH  24  26
ATOM     26  N   UNL A   1      32.442  18.450  24.046  1.00  0.00     0.062 N 
ATOM     27  O   UNL A   1      32.115  18.443  22.849  1.00  0.00    -0.258 OA
ATOM     28  O   UNL A   1      31.880  17.794  24.935  1.00  0.00    -0.258 OA
ENDBRANCH  24  26
ENDBRANCH  19  20
ENDBRANCH  11  15
ENDBRANCH   3   6
ENDBRANCH   1   2
BRANCH   1  29
ATOM     29  C   UNL A   1      33.555  28.832  27.465  1.00  0.00     0.042 C 
BRANCH  29  30
ATOM     30  C   UNL A   1      34.265  30.158  27.250  1.00  0.00     0.118 C 
BRANCH  30  31
ATOM     31  N   UNL A   1      34.501  30.915  28.470  1.00  0.00    -0.352 N 
ATOM     32  C   UNL A   1      35.564  30.862  29.343  1.00  0.00     0.251 C 
ATOM     33  H   UNL A   1      33.796  31.560  28.706  1.00  0.00     0.163 HD
ATOM     34  O   UNL A   1      35.541  31.522  30.376  1.00  0.00    -0.269 OA
BRANCH  32  35
ATOM     35  C   UNL A   1      36.711  29.968  29.069  1.00  0.00     0.039 A 
ATOM     36  C   UNL A   1      37.294  30.019  27.801  1.00  0.00     0.014 A 
ATOM     37  C   UNL A   1      37.267  29.159  30.062  1.00  0.00     0.014 A 
ATOM     38  C   UNL A   1      38.519  29.391  27.583  1.00  0.00     0.010 A 
ATOM     39  C   UNL A   1      38.536  28.625  29.878  1.00  0.00     0.010 A 
ATOM     40  C   UNL A   1      39.191  28.771  28.648  1.00  0.00    -0.014 A 
BRANCH  40  41
ATOM     41  C   UNL A   1      40.611  28.363  28.513  1.00  0.00     0.031 A 
ATOM     42  C   UNL A   1      40.976  26.951  28.163  1.00  0.00     0.074 A 
ATOM     43  C   UNL A   1      41.573  29.266  28.794  1.00  0.00     0.049 A 
ATOM     44  N   UNL A   1      42.163  26.415  28.040  1.00  0.00    -0.248 NA
ATOM     45  C   UNL A   1      39.864  26.010  27.954  1.00  0.00     0.031 C 
ATOM     46  C   UNL A   1      41.338  30.647  29.229  1.00  0.00     0.029 A 
ATOM     47  N   UNL A   1      42.941  29.163  28.757  1.00  0.00    -0.354 N 
ATOM     48  C   UNL A   1      41.941  25.075  27.750  1.00  0.00     0.074 A 
ATOM     49  C   UNL A   1      40.510  24.868  27.776  1.00  0.00     0.031 C 
ATOM     50  C   UNL A   1      42.517  31.272  29.371  1.00  0.00     0.029 A 
ATOM     51  C   UNL A   1      43.590  30.331  29.076  1.00  0.00     0.049 A 
ATOM     52  H   UNL A   1      43.412  28.331  28.524  1.00  0.00     0.167 HD
ATOM     53  C   UNL A   1      42.849  24.114  27.461  1.00  0.00     0.037 A 
ATOM     54  C   UNL A   1      44.906  30.614  29.117  1.00  0.00     0.037 A 
ATOM     55  C   UNL A   1      44.270  24.335  27.414  1.00  0.00     0.049 A 
ATOM     56  C   UNL A   1      45.891  29.536  28.768  1.00  0.00     0.074 A 
ATOM     57  C   UNL A   1      45.273  23.443  27.076  1.00  0.00     0.029 A 
ATOM     58  N   UNL A   1      44.890  25.540  27.714  1.00  0.00    -0.354 N 
ATOM     59  N   UNL A   1      45.663  28.293  28.421  1.00  0.00    -0.248 NA
ATOM     60  C   UNL A   1      47.313  29.901  28.807  1.00  0.00     0.031 C 
ATOM     61  C   UNL A   1      46.502  24.099  27.203  1.00  0.00     0.029 A 
ATOM     62  C   UNL A   1      46.262  25.411  27.582  1.00  0.00     0.049 A 
ATOM     63  H   UNL A   1      44.423  26.364  27.980  1.00  0.00     0.167 HD
ATOM     64  C   UNL A   1      46.909  27.733  28.178  1.00  0.00     0.074 A 
ATOM     65  C   UNL A   1      47.887  28.777  28.401  1.00  0.00     0.031 C 
ATOM     66  C   UNL A   1      47.217  26.467  27.805  1.00  0.00     0.037 A 
BRANCH  53  67
ATOM     67  C   UNL A   1      42.323  22.741  27.158  1.00  0.00     0.057 A 
ATOM     68  C   UNL A   1      41.847  21.896  28.171  1.00  0.00     0.134 A 
ATOM     69  C   UNL A   1      42.277  22.262  25.844  1.00  0.00     0.134 A 
ATOM     70  F   UNL A   1      41.877  22.290  29.454  1.00  0.00    -0.206 F 
ATOM     71  C   UNL A   1      41.373  20.613  27.890  1.00  0.00     0.040 A 
ATOM     72  C   UNL A   1      41.779  20.991  25.548  1.00  0.00     0.040 A 
ATOM     73  F   UNL A   1      42.712  23.019  24.827  1.00  0.00    -0.206 F 
ATOM     74  C   UNL A   1      41.333  20.161  26.574  1.00  0.00     0.006 A 
ENDBRANCH  53  67
BRANCH  54  75
ATOM     75  C   UNL A   1      45.362  31.984  29.460  1.00  0.00     0.057 A 
ATOM     76  C   UNL A   1      45.455  32.978  28.478  1.00  0.00     0.134 A 
ATOM     77  C   UNL A   1      45.715  32.337  30.769  1.00  0.00     0.134 A 
ATOM     78  F   UNL A   1      45.146  32.697  27.203  1.00  0.00    -0.206 F 
ATOM     79  C   UNL A   1      45.898  34.267  28.780  1.00  0.00     0.040 A 
ATOM     80  C   UNL A   1      46.137  33.629  31.089  1.00  0.00     0.040 A 
ATOM     81  F   UNL A   1      45.637  31.434  31.757  1.00  0.00    -0.206 F 
ATOM     82  C   UNL A   1      46.236  34.596  30.091  1.00  0.00     0.006 A 
ENDBRANCH  54  75
BRANCH  66  83
ATOM     83  C   UNL A   1      48.667  26.155  27.591  1.00  0.00     0.057 A 
ATOM     84  C   UNL A   1      49.481  25.684  28.629  1.00  0.00     0.134 A 
ATOM     85  C   UNL A   1      49.246  26.298  26.325  1.00  0.00     0.134 A 
ATOM     86  F   UNL A   1      48.987  25.540  29.868  1.00  0.00    -0.206 F 
ATOM     87  C   UNL A   1      50.827  25.385  28.419  1.00  0.00     0.040 A 
ATOM     88  C   UNL A   1      50.585  25.979  26.097  1.00  0.00     0.040 A 
ATOM     89  F   UNL A   1      48.518  26.740  25.287  1.00  0.00    -0.206 F 
ATOM     90  C   UNL A   1      51.381  25.526  27.147  1.00  0.00     0.006 A 
ENDBRANCH  66  83
ENDBRANCH  40  41
ENDBRANCH  32  35
ENDBRANCH  30  31
ENDBRANCH  29  30
ENDBRANCH   1  29
TORSDOF 13
ENDMDL
MODEL 3
REMARK VINA RESULT:     -12.1      1.390      2.176
REMARK SMILES CC1(C)S[C@H](c2ccc(-c3cccc([N+](=O)[O-])c3)o2)[NH2+][C@@H]1C(=O)NCCCNC(=O)c1ccc(-c2c3nc(c(-c4c(F)cccc4F)c4ccc([nH]4)c(-c4c(F)cccc4F)c4nc(c(-c5c(F)cccc5F)c5ccc2[nH]5)C=C4)C=C3)cc1
REMARK SMILES IDX 25 1 24 2 22 3 23 4 21 6 1 7 2 8 3 9 4 10 5 11 20 12 6 15
REMARK SMILES IDX 7 16 19 17 8 18 9 19 10 20 11 21 18 22 12 23 14 24 13 25
REMARK SMILES IDX 15 26 16 27 17 28 26 29 27 30 28 31 29 32 30 34 31 35 32 36
REMARK SMILES IDX 84 37 33 38 83 39 34 40 35 41 36 42 77 43 37 44 82 45 76 46
REMARK SMILES IDX 78 47 38 48 81 49 75 50 74 51 39 53 65 54 48 55 64 56 49 57
REMARK SMILES IDX 52 58 63 59 79 60 50 61 51 62 62 64 80 65 53 66 40 67 41 68
REMARK SMILES IDX 46 69 42 70 43 71 45 72 47 73 44 74 66 75 67 76 72 77 68 78
REMARK SMILES IDX 69 79 71 80 73 81 70 82 54 83 55 84 60 85 56 86 57 87 59 88
REMARK SMILES IDX 61 89 58 90
REMARK H PARENT 24 5 20 13 20 14 28 33 78 52 52 63
REMARK Flexibility Score: inf
ROOT
ATOM      1  C   UNL A   1      31.740  28.357  27.252  1.00  0.00     0.118 C 
ENDROOT
BRANCH   1   2
ATOM      2  N   UNL A   1      31.399  26.951  27.152  1.00  0.00    -0.351 N 
ATOM      3  C   UNL A   1      31.537  26.149  26.045  1.00  0.00     0.279 C 
ATOM      4  O   UNL A   1      31.358  24.943  26.203  1.00  0.00    -0.268 OA
ATOM      5  H   UNL A   1      31.029  26.528  27.960  1.00  0.00     0.163 HD
BRANCH   3   6
ATOM      6  C   UNL A   1      31.779  26.829  24.670  1.00  0.00     0.289 C 
ATOM      7  C   UNL A   1      30.907  27.415  22.371  1.00  0.00     0.030 C 
ATOM      8  C   UNL A   1      31.023  26.297  23.430  1.00  0.00     0.078 C 
ATOM      9  C   UNL A   1      29.629  25.715  23.661  1.00  0.00     0.030 C 
ATOM     10  S   UNL A   1      32.129  25.004  22.773  1.00  0.00    -0.078 SA
ATOM     11  C   UNL A   1      33.586  25.615  23.646  1.00  0.00     0.311 C 
ATOM     12  N   UNL A   1      33.240  26.860  24.342  1.00  0.00    -0.317 N 
ATOM     13  H   UNL A   1      33.440  27.658  23.739  1.00  0.00     0.348 HD
ATOM     14  H   UNL A   1      33.790  26.948  25.196  1.00  0.00     0.348 HD
BRANCH  11  15
ATOM     15  C   UNL A   1      34.241  24.559  24.483  1.00  0.00     0.172 A 
ATOM     16  C   UNL A   1      34.884  24.651  25.704  1.00  0.00     0.054 A 
ATOM     17  O   UNL A   1      34.227  23.248  24.078  1.00  0.00    -0.454 OA
ATOM     18  C   UNL A   1      35.260  23.341  26.072  1.00  0.00     0.051 A 
ATOM     19  C   UNL A   1      34.842  22.512  25.053  1.00  0.00     0.134 A 
BRANCH  19  20
ATOM     20  C   UNL A   1      34.894  21.068  24.867  1.00  0.00     0.024 A 
ATOM     21  C   UNL A   1      36.100  20.359  24.968  1.00  0.00     0.012 A 
ATOM     22  C   UNL A   1      33.712  20.362  24.596  1.00  0.00     0.097 A 
ATOM     23  C   UNL A   1      36.130  18.968  24.797  1.00  0.00     0.008 A 
ATOM     24  C   UNL A   1      33.750  18.973  24.412  1.00  0.00     0.270 A 
ATOM     25  C   UNL A   1      34.956  18.270  24.513  1.00  0.00     0.085 A 
BRANCH  24  26
ATOM     26  N   UNL A   1      32.514  18.253  24.076  1.00  0.00     0.062 N 
ATOM     27  O   UNL A   1      32.181  18.215  22.881  1.00  0.00    -0.258 OA
ATOM     28  O   UNL A   1      31.905  17.691  24.997  1.00  0.00    -0.258 OA
ENDBRANCH  24  26
ENDBRANCH  19  20
ENDBRANCH  11  15
ENDBRANCH   3   6
ENDBRANCH   1   2
BRANCH   1  29
ATOM     29  C   UNL A   1      33.191  28.608  27.621  1.00  0.00     0.042 C 
BRANCH  29  30
ATOM     30  C   UNL A   1      33.785  29.883  27.047  1.00  0.00     0.118 C 
BRANCH  30  31
ATOM     31  N   UNL A   1      33.968  30.949  28.020  1.00  0.00    -0.352 N 
ATOM     32  C   UNL A   1      35.022  31.186  28.873  1.00  0.00     0.251 C 
ATOM     33  H   UNL A   1      33.229  31.596  28.077  1.00  0.00     0.163 HD
ATOM     34  O   UNL A   1      34.954  32.095  29.692  1.00  0.00    -0.269 OA
BRANCH  32  35
ATOM     35  C   UNL A   1      36.216  30.312  28.845  1.00  0.00     0.039 A 
ATOM     36  C   UNL A   1      37.026  30.344  27.707  1.00  0.00     0.014 A 
ATOM     37  C   UNL A   1      36.589  29.541  29.947  1.00  0.00     0.014 A 
ATOM     38  C   UNL A   1      38.282  29.739  27.741  1.00  0.00     0.010 A 
ATOM     39  C   UNL A   1      37.880  29.031  30.020  1.00  0.00     0.010 A 
ATOM     40  C   UNL A   1      38.751  29.161  28.931  1.00  0.00    -0.014 A 
BRANCH  40  41
ATOM     41  C   UNL A   1      40.179  28.783  29.076  1.00  0.00     0.031 A 
ATOM     42  C   UNL A   1      41.176  29.746  29.649  1.00  0.00     0.074 A 
ATOM     43  C   UNL A   1      40.581  27.584  28.605  1.00  0.00     0.049 A 
ATOM     44  N   UNL A   1      42.465  29.594  29.812  1.00  0.00    -0.248 NA
ATOM     45  C   UNL A   1      40.666  31.063  30.060  1.00  0.00     0.031 C 
ATOM     46  C   UNL A   1      39.717  26.597  27.950  1.00  0.00     0.029 A 
ATOM     47  N   UNL A   1      41.817  26.988  28.603  1.00  0.00    -0.354 N 
ATOM     48  C   UNL A   1      42.920  30.796  30.337  1.00  0.00     0.074 A 
ATOM     49  C   UNL A   1      41.782  31.687  30.405  1.00  0.00     0.031 C 
ATOM     50  C   UNL A   1      40.437  25.505  27.654  1.00  0.00     0.029 A 
ATOM     51  C   UNL A   1      41.819  25.725  28.062  1.00  0.00     0.049 A 
ATOM     52  H   UNL A   1      42.625  27.425  28.957  1.00  0.00     0.167 HD
ATOM     53  C   UNL A   1      44.169  31.117  30.749  1.00  0.00     0.037 A 
ATOM     54  C   UNL A   1      42.822  24.840  27.919  1.00  0.00     0.037 A 
ATOM     55  C   UNL A   1      45.290  30.217  30.699  1.00  0.00     0.049 A 
ATOM     56  C   UNL A   1      44.193  25.211  28.408  1.00  0.00     0.074 A 
ATOM     57  C   UNL A   1      46.585  30.423  31.144  1.00  0.00     0.029 A 
ATOM     58  N   UNL A   1      45.248  28.934  30.172  1.00  0.00    -0.354 N 
ATOM     59  N   UNL A   1      44.593  26.324  28.972  1.00  0.00    -0.248 NA
ATOM     60  C   UNL A   1      45.248  24.202  28.249  1.00  0.00     0.031 C 
ATOM     61  C   UNL A   1      47.334  29.277  30.856  1.00  0.00     0.029 A 
ATOM     62  C   UNL A   1      46.496  28.342  30.268  1.00  0.00     0.049 A 
ATOM     63  H   UNL A   1      44.448  28.508  29.787  1.00  0.00     0.167 HD
ATOM     64  C   UNL A   1      45.938  26.144  29.256  1.00  0.00     0.074 A 
ATOM     65  C   UNL A   1      46.282  24.807  28.817  1.00  0.00     0.031 C 
ATOM     66  C   UNL A   1      46.814  27.006  29.828  1.00  0.00     0.037 A 
BRANCH  53  67
ATOM     67  C   UNL A   1      44.377  32.496  31.304  1.00  0.00     0.057 A 
ATOM     68  C   UNL A   1      44.166  32.782  32.660  1.00  0.00     0.134 A 
ATOM     69  C   UNL A   1      44.805  33.545  30.482  1.00  0.00     0.134 A 
ATOM     70  F   UNL A   1      43.740  31.825  33.498  1.00  0.00    -0.206 F 
ATOM     71  C   UNL A   1      44.345  34.069  33.172  1.00  0.00     0.040 A 
ATOM     72  C   UNL A   1      45.014  34.830  30.989  1.00  0.00     0.040 A 
ATOM     73  F   UNL A   1      45.030  33.340  29.176  1.00  0.00    -0.206 F 
ATOM     74  C   UNL A   1      44.776  35.095  32.335  1.00  0.00     0.006 A 
ENDBRANCH  53  67
BRANCH  54  75
ATOM     75  C   UNL A   1      42.558  23.504  27.328  1.00  0.00     0.057 A 
ATOM     76  C   UNL A   1      42.148  22.431  28.130  1.00  0.00     0.134 A 
ATOM     77  C   UNL A   1      42.706  23.264  25.957  1.00  0.00     0.134 A 
ATOM     78  F   UNL A   1      42.004  22.595  29.453  1.00  0.00    -0.206 F 
ATOM     79  C   UNL A   1      41.911  21.165  27.592  1.00  0.00     0.040 A 
ATOM     80  C   UNL A   1      42.450  22.008  25.402  1.00  0.00     0.040 A 
ATOM     81  F   UNL A   1      43.086  24.252  25.133  1.00  0.00    -0.206 F 
ATOM     82  C   UNL A   1      42.058  20.952  26.224  1.00  0.00     0.006 A 
ENDBRANCH  54  75
BRANCH  66  83
ATOM     83  C   UNL A   1      48.215  26.518  30.033  1.00  0.00     0.057 A 
ATOM     84  C   UNL A   1      49.198  26.665  29.047  1.00  0.00     0.134 A 
ATOM     85  C   UNL A   1      48.591  25.923  31.242  1.00  0.00     0.134 A 
ATOM     86  F   UNL A   1      48.894  27.214  27.861  1.00  0.00    -0.206 F 
ATOM     87  C   UNL A   1      50.504  26.217  29.249  1.00  0.00     0.040 A 
ATOM     88  C   UNL A   1      49.900  25.494  31.466  1.00  0.00     0.040 A 
ATOM     89  F   UNL A   1      47.697  25.758  32.229  1.00  0.00    -0.206 F 
ATOM     90  C   UNL A   1      50.859  25.635  30.466  1.00  0.00     0.006 A 
ENDBRANCH  66  83
ENDBRANCH  40  41
ENDBRANCH  32  35
ENDBRANCH  30  31
ENDBRANCH  29  30
ENDBRANCH   1  29
TORSDOF 13
ENDMDL
