MODEL 1
REMARK VINA RESULT:     -12.0      0.000      0.000
REMARK SMILES CC[C@@H]1CC[C@](C[C@@H]2CCCc3ccccc32)(C(=O)NCCCNC(=O)c2ccc(-c3c4nc(c(-c5c(F)cccc5F)c5ccc([nH]5)c(-c5c(F)cccc5F)c5nc(c(-c6c(F)cccc6F)c6ccc3[nH]6)C=C5)C=C4)cc2)C1
REMARK SMILES IDX 22 1 21 2 20 3 18 4 19 5 6 7 3 8 4 9 81 10 5 11 2 12 1 13
REMARK SMILES IDX 7 14 8 15 9 16 17 17 10 18 12 19 16 20 11 21 13 22 15 23
REMARK SMILES IDX 14 24 23 25 24 26 25 27 26 29 27 30 28 31 80 32 29 33 79 34
REMARK SMILES IDX 30 35 31 36 32 37 73 38 33 39 78 40 72 41 74 42 34 43 77 44
REMARK SMILES IDX 71 45 70 46 35 48 61 49 44 50 60 51 45 52 48 53 59 54 75 55
REMARK SMILES IDX 46 56 47 57 58 59 76 60 49 61 36 62 37 63 42 64 38 65 39 66
REMARK SMILES IDX 41 67 43 68 40 69 62 70 63 71 68 72 64 73 65 74 67 75 69 76
REMARK SMILES IDX 66 77 50 78 51 79 56 80 52 81 53 82 55 83 57 84 54 85
REMARK H PARENT 20 6 24 28 74 47 48 58
REMARK Flexibility Score: inf
ROOT
ATOM      1  C   UNL A   1      33.879  28.293  25.852  1.00  0.00     0.042 C 
ENDROOT
BRANCH   1   2
ATOM      2  C   UNL A   1      33.088  27.163  25.233  1.00  0.00     0.117 C 
BRANCH   2   3
ATOM      3  N   UNL A   1      33.483  26.861  23.867  1.00  0.00    -0.356 N 
ATOM      4  C   UNL A   1      33.822  25.678  23.274  1.00  0.00     0.226 C 
ATOM      5  O   UNL A   1      34.047  25.724  22.063  1.00  0.00    -0.274 OA
ATOM      6  H   UNL A   1      33.511  27.642  23.269  1.00  0.00     0.163 HD
BRANCH   4   7
ATOM      7  C   UNL A   1      33.929  24.373  24.108  1.00  0.00     0.050 C 
ATOM      8  C   UNL A   1      35.994  23.520  25.154  1.00  0.00    -0.010 C 
ATOM      9  C   UNL A   1      36.093  23.256  23.661  1.00  0.00     0.005 C 
ATOM     10  C   UNL A   1      34.959  24.651  25.230  1.00  0.00     0.020 C 
ATOM     11  C   UNL A   1      34.626  23.281  23.234  1.00  0.00     0.017 C 
BRANCH   8  12
ATOM     12  C   UNL A   1      37.332  23.802  25.841  1.00  0.00     0.000 C 
ATOM     13  C   UNL A   1      38.242  22.580  25.873  1.00  0.00     0.004 C 
ENDBRANCH   8  12
BRANCH   7  14
ATOM     14  C   UNL A   1      32.458  23.958  24.465  1.00  0.00     0.025 C 
BRANCH  14  15
ATOM     15  C   UNL A   1      31.987  22.896  25.500  1.00  0.00     0.020 C 
ATOM     16  C   UNL A   1      32.050  23.203  26.999  1.00  0.00     0.009 C 
ATOM     17  C   UNL A   1      32.497  21.528  25.152  1.00  0.00    -0.042 A 
ATOM     18  C   UNL A   1      33.311  22.755  27.718  1.00  0.00     0.005 C 
ATOM     19  C   UNL A   1      33.505  20.918  25.901  1.00  0.00    -0.045 A 
ATOM     20  C   UNL A   1      31.996  20.897  23.999  1.00  0.00     0.004 A 
ATOM     21  C   UNL A   1      33.888  21.409  27.272  1.00  0.00     0.036 C 
ATOM     22  C   UNL A   1      34.113  19.765  25.384  1.00  0.00     0.004 A 
ATOM     23  C   UNL A   1      32.572  19.728  23.523  1.00  0.00     0.000 A 
ATOM     24  C   UNL A   1      33.662  19.186  24.193  1.00  0.00     0.000 A 
ENDBRANCH  14  15
ENDBRANCH   7  14
ENDBRANCH   4   7
ENDBRANCH   2   3
ENDBRANCH   1   2
BRANCH   1  25
ATOM     25  C   UNL A   1      33.569  28.529  27.317  1.00  0.00     0.118 C 
BRANCH  25  26
ATOM     26  N   UNL A   1      33.614  29.934  27.703  1.00  0.00    -0.352 N 
ATOM     27  C   UNL A   1      34.646  30.671  28.236  1.00  0.00     0.251 C 
ATOM     28  H   UNL A   1      32.778  30.433  27.562  1.00  0.00     0.163 HD
ATOM     29  O   UNL A   1      34.446  31.819  28.624  1.00  0.00    -0.269 OA
BRANCH  27  30
ATOM     30  C   UNL A   1      35.987  30.064  28.383  1.00  0.00     0.039 A 
ATOM     31  C   UNL A   1      36.888  30.139  27.319  1.00  0.00     0.014 A 
ATOM     32  C   UNL A   1      36.367  29.453  29.577  1.00  0.00     0.014 A 
ATOM     33  C   UNL A   1      38.197  29.682  27.490  1.00  0.00     0.010 A 
ATOM     34  C   UNL A   1      37.698  29.121  29.789  1.00  0.00     0.010 A 
ATOM     35  C   UNL A   1      38.627  29.215  28.743  1.00  0.00    -0.014 A 
BRANCH  35  36
ATOM     36  C   UNL A   1      40.028  28.785  28.981  1.00  0.00     0.031 A 
ATOM     37  C   UNL A   1      41.001  29.735  29.629  1.00  0.00     0.074 A 
ATOM     38  C   UNL A   1      40.446  27.574  28.558  1.00  0.00     0.049 A 
ATOM     39  N   UNL A   1      42.284  29.592  29.839  1.00  0.00    -0.248 NA
ATOM     40  C   UNL A   1      40.465  31.035  30.068  1.00  0.00     0.031 C 
ATOM     41  C   UNL A   1      39.618  26.579  27.874  1.00  0.00     0.029 A 
ATOM     42  N   UNL A   1      41.681  26.979  28.636  1.00  0.00    -0.354 N 
ATOM     43  C   UNL A   1      42.706  30.784  30.415  1.00  0.00     0.074 A 
ATOM     44  C   UNL A   1      41.562  31.667  30.454  1.00  0.00     0.031 C 
ATOM     45  C   UNL A   1      40.357  25.486  27.627  1.00  0.00     0.029 A 
ATOM     46  C   UNL A   1      41.721  25.718  28.092  1.00  0.00     0.049 A 
ATOM     47  H   UNL A   1      42.463  27.414  29.044  1.00  0.00     0.167 HD
ATOM     48  C   UNL A   1      43.928  31.106  30.903  1.00  0.00     0.037 A 
ATOM     49  C   UNL A   1      42.745  24.851  27.974  1.00  0.00     0.037 A 
ATOM     50  C   UNL A   1      45.058  30.216  30.891  1.00  0.00     0.049 A 
ATOM     51  C   UNL A   1      44.098  25.240  28.505  1.00  0.00     0.074 A 
ATOM     52  C   UNL A   1      46.326  30.428  31.400  1.00  0.00     0.029 A 
ATOM     53  N   UNL A   1      45.052  28.941  30.345  1.00  0.00    -0.354 N 
ATOM     54  N   UNL A   1      44.467  26.348  29.101  1.00  0.00    -0.248 NA
ATOM     55  C   UNL A   1      45.177  24.254  28.351  1.00  0.00     0.031 C 
ATOM     56  C   UNL A   1      47.103  29.300  31.121  1.00  0.00     0.029 A 
ATOM     57  C   UNL A   1      46.301  28.361  30.490  1.00  0.00     0.049 A 
ATOM     58  H   UNL A   1      44.276  28.512  29.917  1.00  0.00     0.167 HD
ATOM     59  C   UNL A   1      45.806  26.176  29.430  1.00  0.00     0.074 A 
ATOM     60  C   UNL A   1      46.181  24.853  28.975  1.00  0.00     0.031 C 
ATOM     61  C   UNL A   1      46.650  27.036  30.051  1.00  0.00     0.037 A 
BRANCH  48  62
ATOM     62  C   UNL A   1      44.097  32.472  31.503  1.00  0.00     0.057 A 
ATOM     63  C   UNL A   1      43.865  32.712  32.864  1.00  0.00     0.134 A 
ATOM     64  C   UNL A   1      44.527  33.551  30.722  1.00  0.00     0.134 A 
ATOM     65  F   UNL A   1      43.437  31.726  33.667  1.00  0.00    -0.206 F 
ATOM     66  C   UNL A   1      44.027  33.982  33.420  1.00  0.00     0.040 A 
ATOM     67  C   UNL A   1      44.723  34.818  31.273  1.00  0.00     0.040 A 
ATOM     68  F   UNL A   1      44.772  33.390  29.412  1.00  0.00    -0.206 F 
ATOM     69  C   UNL A   1      44.465  35.038  32.624  1.00  0.00     0.006 A 
ENDBRANCH  48  62
BRANCH  49  70
ATOM     70  C   UNL A   1      42.535  23.518  27.349  1.00  0.00     0.057 A 
ATOM     71  C   UNL A   1      42.213  22.400  28.128  1.00  0.00     0.134 A 
ATOM     72  C   UNL A   1      42.686  23.319  25.972  1.00  0.00     0.134 A 
ATOM     73  F   UNL A   1      42.073  22.521  29.456  1.00  0.00    -0.206 F 
ATOM     74  C   UNL A   1      42.078  21.129  27.566  1.00  0.00     0.040 A 
ATOM     75  C   UNL A   1      42.525  22.060  25.392  1.00  0.00     0.040 A 
ATOM     76  F   UNL A   1      42.986  24.350  25.167  1.00  0.00    -0.206 F 
ATOM     77  C   UNL A   1      42.231  20.957  26.193  1.00  0.00     0.006 A 
ENDBRANCH  49  70
BRANCH  61  78
ATOM     78  C   UNL A   1      48.045  26.552  30.329  1.00  0.00     0.057 A 
ATOM     79  C   UNL A   1      48.375  25.867  31.505  1.00  0.00     0.134 A 
ATOM     80  C   UNL A   1      49.060  26.741  29.383  1.00  0.00     0.134 A 
ATOM     81  F   UNL A   1      47.451  25.664  32.456  1.00  0.00    -0.206 F 
ATOM     82  C   UNL A   1      49.672  25.410  31.741  1.00  0.00     0.040 A 
ATOM     83  C   UNL A   1      50.353  26.261  29.594  1.00  0.00     0.040 A 
ATOM     84  F   UNL A   1      48.809  27.381  28.230  1.00  0.00    -0.206 F 
ATOM     85  C   UNL A   1      50.664  25.600  30.779  1.00  0.00     0.006 A 
ENDBRANCH  61  78
ENDBRANCH  35  36
ENDBRANCH  27  30
ENDBRANCH  25  26
ENDBRANCH   1  25
TORSDOF 13
ENDMDL
MODEL 2
REMARK VINA RESULT:     -11.7      2.995      8.108
REMARK SMILES CC[C@@H]1CC[C@](C[C@@H]2CCCc3ccccc32)(C(=O)NCCCNC(=O)c2ccc(-c3c4nc(c(-c5c(F)cccc5F)c5ccc([nH]5)c(-c5c(F)cccc5F)c5nc(c(-c6c(F)cccc6F)c6ccc3[nH]6)C=C5)C=C4)cc2)C1
REMARK SMILES IDX 22 1 21 2 20 3 18 4 19 5 6 7 3 8 4 9 81 10 5 11 2 12 1 13
REMARK SMILES IDX 7 14 8 15 9 16 17 17 10 18 12 19 16 20 11 21 13 22 15 23
REMARK SMILES IDX 14 24 23 25 24 26 25 27 26 29 27 30 28 31 80 32 29 33 79 34
REMARK SMILES IDX 30 35 31 36 32 37 73 38 33 39 78 40 72 41 74 42 34 43 77 44
REMARK SMILES IDX 71 45 70 46 35 48 61 49 44 50 60 51 45 52 48 53 59 54 75 55
REMARK SMILES IDX 46 56 47 57 58 59 76 60 49 61 36 62 37 63 42 64 38 65 39 66
REMARK SMILES IDX 41 67 43 68 40 69 62 70 63 71 68 72 64 73 65 74 67 75 69 76
REMARK SMILES IDX 66 77 50 78 51 79 56 80 52 81 53 82 55 83 57 84 54 85
REMARK H PARENT 20 6 24 28 74 47 48 58
REMARK Flexibility Score: inf
ROOT
ATOM      1  C   UNL A   1      35.914  23.343  26.072  1.00  0.00     0.042 C 
ENDROOT
BRANCH   1   2
ATOM      2  C   UNL A   1      34.593  23.681  25.421  1.00  0.00     0.117 C 
BRANCH   2   3
ATOM      3  N   UNL A   1      33.468  23.641  26.341  1.00  0.00    -0.356 N 
ATOM      4  C   UNL A   1      32.412  24.492  26.500  1.00  0.00     0.226 C 
ATOM      5  O   UNL A   1      31.564  24.155  27.329  1.00  0.00    -0.274 OA
ATOM      6  H   UNL A   1      33.469  22.871  26.953  1.00  0.00     0.163 HD
BRANCH   4   7
ATOM      7  C   UNL A   1      32.323  25.811  25.685  1.00  0.00     0.050 C 
ATOM      8  C   UNL A   1      33.077  28.023  26.473  1.00  0.00    -0.010 C 
ATOM      9  C   UNL A   1      31.775  27.702  27.186  1.00  0.00     0.005 C 
ATOM     10  C   UNL A   1      33.581  26.637  26.047  1.00  0.00     0.020 C 
ATOM     11  C   UNL A   1      31.147  26.668  26.253  1.00  0.00     0.017 C 
BRANCH   8  12
ATOM     12  C   UNL A   1      34.062  28.860  27.292  1.00  0.00     0.000 C 
ATOM     13  C   UNL A   1      33.860  30.359  27.096  1.00  0.00     0.004 C 
ENDBRANCH   8  12
BRANCH   7  14
ATOM     14  C   UNL A   1      32.050  25.389  24.198  1.00  0.00     0.025 C 
BRANCH  14  15
ATOM     15  C   UNL A   1      32.149  26.270  22.920  1.00  0.00     0.020 C 
ATOM     16  C   UNL A   1      33.519  26.636  22.341  1.00  0.00     0.009 C 
ATOM     17  C   UNL A   1      31.201  27.433  22.980  1.00  0.00    -0.042 A 
ATOM     18  C   UNL A   1      34.107  27.957  22.807  1.00  0.00     0.005 C 
ATOM     19  C   UNL A   1      31.663  28.736  23.172  1.00  0.00    -0.045 A 
ATOM     20  C   UNL A   1      29.818  27.176  22.922  1.00  0.00     0.004 A 
ATOM     21  C   UNL A   1      33.110  29.106  22.978  1.00  0.00     0.036 C 
ATOM     22  C   UNL A   1      30.728  29.735  23.474  1.00  0.00     0.004 A 
ATOM     23  C   UNL A   1      28.899  28.185  23.173  1.00  0.00     0.000 A 
ATOM     24  C   UNL A   1      29.357  29.457  23.493  1.00  0.00     0.000 A 
ENDBRANCH  14  15
ENDBRANCH   7  14
ENDBRANCH   4   7
ENDBRANCH   2   3
ENDBRANCH   1   2
BRANCH   1  25
ATOM     25  C   UNL A   1      37.120  23.626  25.198  1.00  0.00     0.118 C 
BRANCH  25  26
ATOM     26  N   UNL A   1      38.269  22.778  25.496  1.00  0.00    -0.352 N 
ATOM     27  C   UNL A   1      39.415  23.060  26.202  1.00  0.00     0.251 C 
ATOM     28  H   UNL A   1      38.216  21.864  25.136  1.00  0.00     0.163 HD
ATOM     29  O   UNL A   1      40.336  22.247  26.229  1.00  0.00    -0.269 OA
BRANCH  27  30
ATOM     30  C   UNL A   1      39.555  24.360  26.892  1.00  0.00     0.039 A 
ATOM     31  C   UNL A   1      39.062  24.498  28.191  1.00  0.00     0.014 A 
ATOM     32  C   UNL A   1      40.200  25.430  26.274  1.00  0.00     0.014 A 
ATOM     33  C   UNL A   1      39.300  25.679  28.897  1.00  0.00     0.010 A 
ATOM     34  C   UNL A   1      40.550  26.548  27.019  1.00  0.00     0.010 A 
ATOM     35  C   UNL A   1      40.090  26.695  28.335  1.00  0.00    -0.014 A 
BRANCH  35  36
ATOM     36  C   UNL A   1      40.421  27.936  29.081  1.00  0.00     0.031 A 
ATOM     37  C   UNL A   1      41.766  28.070  29.746  1.00  0.00     0.074 A 
ATOM     38  C   UNL A   1      39.498  28.909  29.220  1.00  0.00     0.049 A 
ATOM     39  N   UNL A   1      42.216  29.023  30.521  1.00  0.00    -0.248 NA
ATOM     40  C   UNL A   1      42.720  26.966  29.541  1.00  0.00     0.031 C 
ATOM     41  C   UNL A   1      38.143  28.882  28.668  1.00  0.00     0.029 A 
ATOM     42  N   UNL A   1      39.561  30.111  29.881  1.00  0.00    -0.354 N 
ATOM     43  C   UNL A   1      43.491  28.626  30.905  1.00  0.00     0.074 A 
ATOM     44  C   UNL A   1      43.716  27.314  30.341  1.00  0.00     0.031 C 
ATOM     45  C   UNL A   1      37.516  30.028  28.981  1.00  0.00     0.029 A 
ATOM     46  C   UNL A   1      38.406  30.850  29.795  1.00  0.00     0.049 A 
ATOM     47  H   UNL A   1      40.360  30.416  30.368  1.00  0.00     0.167 HD
ATOM     48  C   UNL A   1      44.410  29.306  31.631  1.00  0.00     0.037 A 
ATOM     49  C   UNL A   1      38.097  32.050  30.321  1.00  0.00     0.037 A 
ATOM     50  C   UNL A   1      44.197  30.624  32.165  1.00  0.00     0.049 A 
ATOM     51  C   UNL A   1      39.128  32.776  31.142  1.00  0.00     0.074 A 
ATOM     52  C   UNL A   1      45.079  31.417  32.876  1.00  0.00     0.029 A 
ATOM     53  N   UNL A   1      43.018  31.343  32.042  1.00  0.00    -0.354 N 
ATOM     54  N   UNL A   1      40.351  32.415  31.446  1.00  0.00    -0.248 NA
ATOM     55  C   UNL A   1      38.737  34.084  31.689  1.00  0.00     0.031 C 
ATOM     56  C   UNL A   1      44.419  32.600  33.224  1.00  0.00     0.029 A 
ATOM     57  C   UNL A   1      43.144  32.567  32.680  1.00  0.00     0.049 A 
ATOM     58  H   UNL A   1      42.211  31.031  31.572  1.00  0.00     0.167 HD
ATOM     59  C   UNL A   1      40.887  33.463  32.182  1.00  0.00     0.074 A 
ATOM     60  C   UNL A   1      39.860  34.480  32.270  1.00  0.00     0.031 C 
ATOM     61  C   UNL A   1      42.119  33.575  32.737  1.00  0.00     0.037 A 
BRANCH  48  62
ATOM     62  C   UNL A   1      45.733  28.638  31.874  1.00  0.00     0.057 A 
ATOM     63  C   UNL A   1      45.955  27.831  32.999  1.00  0.00     0.134 A 
ATOM     64  C   UNL A   1      46.785  28.776  30.962  1.00  0.00     0.134 A 
ATOM     65  F   UNL A   1      44.993  27.668  33.921  1.00  0.00    -0.206 F 
ATOM     66  C   UNL A   1      47.184  27.208  33.221  1.00  0.00     0.040 A 
ATOM     67  C   UNL A   1      48.009  28.133  31.156  1.00  0.00     0.040 A 
ATOM     68  F   UNL A   1      46.639  29.530  29.862  1.00  0.00    -0.206 F 
ATOM     69  C   UNL A   1      48.213  27.352  32.293  1.00  0.00     0.006 A 
ENDBRANCH  48  62
BRANCH  49  70
ATOM     70  C   UNL A   1      36.764  32.661  30.074  1.00  0.00     0.057 A 
ATOM     71  C   UNL A   1      36.564  33.547  29.007  1.00  0.00     0.134 A 
ATOM     72  C   UNL A   1      35.672  32.406  30.910  1.00  0.00     0.134 A 
ATOM     73  F   UNL A   1      37.577  33.846  28.181  1.00  0.00    -0.206 F 
ATOM     74  C   UNL A   1      35.338  34.180  28.801  1.00  0.00     0.040 A 
ATOM     75  C   UNL A   1      34.431  33.009  30.698  1.00  0.00     0.040 A 
ATOM     76  F   UNL A   1      35.793  31.561  31.945  1.00  0.00    -0.206 F 
ATOM     77  C   UNL A   1      34.264  33.908  29.646  1.00  0.00     0.006 A 
ENDBRANCH  49  70
BRANCH  61  78
ATOM     78  C   UNL A   1      42.446  34.863  33.437  1.00  0.00     0.057 A 
ATOM     79  C   UNL A   1      42.177  35.061  34.797  1.00  0.00     0.134 A 
ATOM     80  C   UNL A   1      43.078  35.904  32.744  1.00  0.00     0.134 A 
ATOM     81  F   UNL A   1      41.563  34.108  35.514  1.00  0.00    -0.206 F 
ATOM     82  C   UNL A   1      42.502  36.258  35.437  1.00  0.00     0.040 A 
ATOM     83  C   UNL A   1      43.435  37.093  33.380  1.00  0.00     0.040 A 
ATOM     84  F   UNL A   1      43.373  35.776  31.441  1.00  0.00    -0.206 F 
ATOM     85  C   UNL A   1      43.140  37.275  34.728  1.00  0.00     0.006 A 
ENDBRANCH  61  78
ENDBRANCH  35  36
ENDBRANCH  27  30
ENDBRANCH  25  26
ENDBRANCH   1  25
TORSDOF 13
ENDMDL
MODEL 3
REMARK VINA RESULT:     -11.7      0.624      2.167
REMARK SMILES CC[C@@H]1CC[C@](C[C@@H]2CCCc3ccccc32)(C(=O)NCCCNC(=O)c2ccc(-c3c4nc(c(-c5c(F)cccc5F)c5ccc([nH]5)c(-c5c(F)cccc5F)c5nc(c(-c6c(F)cccc6F)c6ccc3[nH]6)C=C5)C=C4)cc2)C1
REMARK SMILES IDX 22 1 21 2 20 3 18 4 19 5 6 7 3 8 4 9 81 10 5 11 2 12 1 13
REMARK SMILES IDX 7 14 8 15 9 16 17 17 10 18 12 19 16 20 11 21 13 22 15 23
REMARK SMILES IDX 14 24 23 25 24 26 25 27 26 29 27 30 28 31 80 32 29 33 79 34
REMARK SMILES IDX 30 35 31 36 32 37 73 38 33 39 78 40 72 41 74 42 34 43 77 44
REMARK SMILES IDX 71 45 70 46 35 48 61 49 44 50 60 51 45 52 48 53 59 54 75 55
REMARK SMILES IDX 46 56 47 57 58 59 76 60 49 61 36 62 37 63 42 64 38 65 39 66
REMARK SMILES IDX 41 67 43 68 40 69 62 70 63 71 68 72 64 73 65 74 67 75 69 76
REMARK SMILES IDX 66 77 50 78 51 79 56 80 52 81 53 82 55 83 57 84 54 85
REMARK H PARENT 20 6 24 28 74 47 48 58
REMARK Flexibility Score: inf
ROOT
ATOM      1  C   UNL A   1      33.769  28.571  25.492  1.00  0.00     0.042 C 
ENDROOT
BRANCH   1   2
ATOM      2  C   UNL A   1      32.777  27.647  24.824  1.00  0.00     0.117 C 
BRANCH   2   3
ATOM      3  N   UNL A   1      33.164  27.261  23.477  1.00  0.00    -0.356 N 
ATOM      4  C   UNL A   1      33.500  26.043  22.958  1.00  0.00     0.226 C 
ATOM      5  O   UNL A   1      33.718  26.013  21.744  1.00  0.00    -0.274 OA
ATOM      6  H   UNL A   1      33.188  28.002  22.830  1.00  0.00     0.163 HD
BRANCH   4   7
ATOM      7  C   UNL A   1      33.614  24.793  23.871  1.00  0.00     0.050 C 
ATOM      8  C   UNL A   1      32.614  22.588  23.396  1.00  0.00    -0.010 C 
ATOM      9  C   UNL A   1      31.494  23.516  23.832  1.00  0.00     0.005 C 
ATOM     10  C   UNL A   1      33.701  23.566  22.929  1.00  0.00     0.020 C 
ATOM     11  C   UNL A   1      32.253  24.590  24.610  1.00  0.00     0.017 C 
BRANCH   8  12
ATOM     12  C   UNL A   1      32.200  21.526  22.375  1.00  0.00     0.000 C 
ATOM     13  C   UNL A   1      32.195  20.120  22.964  1.00  0.00     0.004 C 
ENDBRANCH   8  12
BRANCH   7  14
ATOM     14  C   UNL A   1      34.771  25.097  24.888  1.00  0.00     0.025 C 
BRANCH  14  15
ATOM     15  C   UNL A   1      35.728  24.084  25.580  1.00  0.00     0.020 C 
ATOM     16  C   UNL A   1      37.027  23.658  24.891  1.00  0.00     0.009 C 
ATOM     17  C   UNL A   1      34.970  22.935  26.180  1.00  0.00    -0.042 A 
ATOM     18  C   UNL A   1      36.951  22.394  24.051  1.00  0.00     0.005 C 
ATOM     19  C   UNL A   1      35.020  21.660  25.614  1.00  0.00    -0.045 A 
ATOM     20  C   UNL A   1      34.134  23.184  27.284  1.00  0.00     0.004 A 
ATOM     21  C   UNL A   1      36.080  21.271  24.617  1.00  0.00     0.036 C 
ATOM     22  C   UNL A   1      34.102  20.699  26.059  1.00  0.00     0.004 A 
ATOM     23  C   UNL A   1      33.263  22.209  27.749  1.00  0.00     0.000 A 
ATOM     24  C   UNL A   1      33.217  20.978  27.105  1.00  0.00     0.000 A 
ENDBRANCH  14  15
ENDBRANCH   7  14
ENDBRANCH   4   7
ENDBRANCH   2   3
ENDBRANCH   1   2
BRANCH   1  25
ATOM     25  C   UNL A   1      33.677  28.580  27.005  1.00  0.00     0.118 C 
BRANCH  25  26
ATOM     26  N   UNL A   1      33.663  29.920  27.581  1.00  0.00    -0.352 N 
ATOM     27  C   UNL A   1      34.647  30.600  28.259  1.00  0.00     0.251 C 
ATOM     28  H   UNL A   1      32.820  30.414  27.467  1.00  0.00     0.163 HD
ATOM     29  O   UNL A   1      34.396  31.680  28.789  1.00  0.00    -0.269 OA
BRANCH  27  30
ATOM     30  C   UNL A   1      35.997  30.010  28.388  1.00  0.00     0.039 A 
ATOM     31  C   UNL A   1      36.907  30.154  27.339  1.00  0.00     0.014 A 
ATOM     32  C   UNL A   1      36.377  29.345  29.554  1.00  0.00     0.014 A 
ATOM     33  C   UNL A   1      38.222  29.711  27.500  1.00  0.00     0.010 A 
ATOM     34  C   UNL A   1      37.712  29.026  29.763  1.00  0.00     0.010 A 
ATOM     35  C   UNL A   1      38.649  29.189  28.732  1.00  0.00    -0.014 A 
BRANCH  35  36
ATOM     36  C   UNL A   1      40.055  28.771  28.963  1.00  0.00     0.031 A 
ATOM     37  C   UNL A   1      41.021  29.729  29.608  1.00  0.00     0.074 A 
ATOM     38  C   UNL A   1      40.482  27.566  28.535  1.00  0.00     0.049 A 
ATOM     39  N   UNL A   1      42.307  29.597  29.812  1.00  0.00    -0.248 NA
ATOM     40  C   UNL A   1      40.476  31.023  30.053  1.00  0.00     0.031 C 
ATOM     41  C   UNL A   1      39.660  26.565  27.852  1.00  0.00     0.029 A 
ATOM     42  N   UNL A   1      41.722  26.981  28.605  1.00  0.00    -0.354 N 
ATOM     43  C   UNL A   1      42.721  30.792  30.389  1.00  0.00     0.074 A 
ATOM     44  C   UNL A   1      41.569  31.663  30.436  1.00  0.00     0.031 C 
ATOM     45  C   UNL A   1      40.408  25.479  27.599  1.00  0.00     0.029 A 
ATOM     46  C   UNL A   1      41.772  25.722  28.057  1.00  0.00     0.049 A 
ATOM     47  H   UNL A   1      42.503  27.423  29.011  1.00  0.00     0.167 HD
ATOM     48  C   UNL A   1      43.942  31.124  30.871  1.00  0.00     0.037 A 
ATOM     49  C   UNL A   1      42.803  24.865  27.932  1.00  0.00     0.037 A 
ATOM     50  C   UNL A   1      45.080  30.244  30.852  1.00  0.00     0.049 A 
ATOM     51  C   UNL A   1      44.155  25.266  28.458  1.00  0.00     0.074 A 
ATOM     52  C   UNL A   1      46.349  30.467  31.355  1.00  0.00     0.029 A 
ATOM     53  N   UNL A   1      45.083  28.971  30.303  1.00  0.00    -0.354 N 
ATOM     54  N   UNL A   1      44.517  26.375  29.056  1.00  0.00    -0.248 NA
ATOM     55  C   UNL A   1      45.243  24.290  28.297  1.00  0.00     0.031 C 
ATOM     56  C   UNL A   1      47.135  29.347  31.070  1.00  0.00     0.029 A 
ATOM     57  C   UNL A   1      46.339  28.403  30.440  1.00  0.00     0.049 A 
ATOM     58  H   UNL A   1      44.309  28.536  29.878  1.00  0.00     0.167 HD
ATOM     59  C   UNL A   1      45.859  26.215  29.377  1.00  0.00     0.074 A 
ATOM     60  C   UNL A   1      46.244  24.897  28.917  1.00  0.00     0.031 C 
ATOM     61  C   UNL A   1      46.698  27.081  29.997  1.00  0.00     0.037 A 
BRANCH  48  62
ATOM     62  C   UNL A   1      44.101  32.490  31.474  1.00  0.00     0.057 A 
ATOM     63  C   UNL A   1      44.472  33.598  30.700  1.00  0.00     0.134 A 
ATOM     64  C   UNL A   1      43.851  32.709  32.833  1.00  0.00     0.134 A 
ATOM     65  F   UNL A   1      44.742  33.456  29.393  1.00  0.00    -0.206 F 
ATOM     66  C   UNL A   1      44.616  34.867  31.261  1.00  0.00     0.040 A 
ATOM     67  C   UNL A   1      43.960  33.980  33.401  1.00  0.00     0.040 A 
ATOM     68  F   UNL A   1      43.487  31.693  33.632  1.00  0.00    -0.206 F 
ATOM     69  C   UNL A   1      44.351  35.062  32.615  1.00  0.00     0.006 A 
ENDBRANCH  48  62
BRANCH  49  70
ATOM     70  C   UNL A   1      42.603  23.532  27.305  1.00  0.00     0.057 A 
ATOM     71  C   UNL A   1      42.181  22.434  28.066  1.00  0.00     0.134 A 
ATOM     72  C   UNL A   1      42.860  23.312  25.947  1.00  0.00     0.134 A 
ATOM     73  F   UNL A   1      41.936  22.576  29.377  1.00  0.00    -0.206 F 
ATOM     74  C   UNL A   1      42.053  21.162  27.507  1.00  0.00     0.040 A 
ATOM     75  C   UNL A   1      42.707  22.051  25.369  1.00  0.00     0.040 A 
ATOM     76  F   UNL A   1      43.259  24.322  25.160  1.00  0.00    -0.206 F 
ATOM     77  C   UNL A   1      42.313  20.968  26.152  1.00  0.00     0.006 A 
ENDBRANCH  49  70
BRANCH  61  78
ATOM     78  C   UNL A   1      48.098  26.610  30.267  1.00  0.00     0.057 A 
ATOM     79  C   UNL A   1      48.441  25.928  31.441  1.00  0.00     0.134 A 
ATOM     80  C   UNL A   1      49.107  26.809  29.315  1.00  0.00     0.134 A 
ATOM     81  F   UNL A   1      47.525  25.717  32.397  1.00  0.00    -0.206 F 
ATOM     82  C   UNL A   1      49.744  25.482  31.669  1.00  0.00     0.040 A 
ATOM     83  C   UNL A   1      50.405  26.340  29.518  1.00  0.00     0.040 A 
ATOM     84  F   UNL A   1      48.843  27.446  28.164  1.00  0.00    -0.206 F 
ATOM     85  C   UNL A   1      50.728  25.682  30.702  1.00  0.00     0.006 A 
ENDBRANCH  61  78
ENDBRANCH  35  36
ENDBRANCH  27  30
ENDBRANCH  25  26
ENDBRANCH   1  25
TORSDOF 13
ENDMDL
