MODEL 1
REMARK VINA RESULT:     -11.2      0.000      0.000
REMARK SMILES COc1cc(OC)c([C@H]2CC[NH2+][C@H]2C(=O)NCCCNC(=O)c2ccc(-c3c4nc(c(-c5c(F)cccc5F)c5ccc([nH]5)c(-c5c(F)cccc5F)c5nc(c(-c6c(F)cccc6F)c6ccc3[nH]6)C=C5)C=C4)cc2)cc1OC
REMARK SMILES IDX 18 1 17 2 16 3 14 4 15 5 13 7 9 8 10 9 11 10 12 11 8 14 3 15
REMARK SMILES IDX 4 16 78 17 5 18 77 19 2 20 1 21 79 22 80 23 6 24 7 25 19 26
REMARK SMILES IDX 20 27 21 28 22 30 23 31 24 32 76 33 25 34 75 35 26 36 27 37
REMARK SMILES IDX 28 38 69 39 29 40 74 41 68 42 70 43 30 44 73 45 67 46 66 47
REMARK SMILES IDX 31 49 57 50 40 51 56 52 41 53 44 54 55 55 71 56 42 57 43 58
REMARK SMILES IDX 54 60 72 61 45 62 32 63 33 64 38 65 34 66 35 67 37 68 39 69
REMARK SMILES IDX 36 70 58 71 59 72 64 73 60 74 61 75 63 76 65 77 62 78 46 79
REMARK SMILES IDX 47 80 52 81 48 82 49 83 51 84 53 85 50 86
REMARK H PARENT 16 6 12 12 12 13 20 29 70 48 44 59
REMARK Flexibility Score: inf
ROOT
ATOM      1  C   UNL A   1      37.310  19.552  24.987  1.00  0.00     0.042 C 
ENDROOT
BRANCH   1   2
ATOM      2  C   UNL A   1      36.093  20.447  24.771  1.00  0.00     0.118 C 
BRANCH   2   3
ATOM      3  N   UNL A   1      35.617  21.083  25.982  1.00  0.00    -0.351 N 
ATOM      4  C   UNL A   1      34.410  21.139  26.601  1.00  0.00     0.278 C 
ATOM      5  O   UNL A   1      34.402  21.724  27.693  1.00  0.00    -0.268 OA
ATOM      6  H   UNL A   1      36.319  21.583  26.458  1.00  0.00     0.163 HD
BRANCH   4   7
ATOM      7  C   UNL A   1      33.101  20.525  26.051  1.00  0.00     0.280 C 
ATOM      8  C   UNL A   1      32.202  21.309  25.061  1.00  0.00     0.097 C 
ATOM      9  C   UNL A   1      32.456  20.562  23.746  1.00  0.00     0.076 C 
ATOM     10  C   UNL A   1      32.717  19.129  24.167  1.00  0.00     0.262 C 
ATOM     11  N   UNL A   1      33.373  19.182  25.468  1.00  0.00    -0.335 N 
ATOM     12  H   UNL A   1      34.378  19.048  25.356  1.00  0.00     0.346 HD
ATOM     13  H   UNL A   1      33.019  18.447  26.079  1.00  0.00     0.346 HD
BRANCH   8  14
ATOM     14  C   UNL A   1      32.252  22.829  25.021  1.00  0.00     0.008 A 
ATOM     15  C   UNL A   1      32.184  25.663  24.772  1.00  0.00     0.164 A 
ATOM     16  C   UNL A   1      31.616  25.040  25.881  1.00  0.00     0.097 A 
ATOM     17  C   UNL A   1      32.883  24.894  23.844  1.00  0.00     0.161 A 
ATOM     18  C   UNL A   1      31.684  23.645  26.015  1.00  0.00     0.126 A 
ATOM     19  C   UNL A   1      32.946  23.501  23.999  1.00  0.00     0.058 A 
BRANCH  15  20
ATOM     20  O   UNL A   1      32.165  27.026  24.657  1.00  0.00    -0.493 OA
ATOM     21  C   UNL A   1      30.868  27.525  24.330  1.00  0.00     0.278 C 
ENDBRANCH  15  20
BRANCH  17  22
ATOM     22  O   UNL A   1      33.577  25.379  22.767  1.00  0.00    -0.493 OA
ATOM     23  C   UNL A   1      32.803  25.533  21.582  1.00  0.00     0.278 C 
ENDBRANCH  17  22
BRANCH  18  24
ATOM     24  O   UNL A   1      31.168  23.124  27.172  1.00  0.00    -0.496 OA
ATOM     25  C   UNL A   1      29.742  23.013  27.078  1.00  0.00     0.278 C 
ENDBRANCH  18  24
ENDBRANCH   8  14
ENDBRANCH   4   7
ENDBRANCH   2   3
ENDBRANCH   1   2
BRANCH   1  26
ATOM     26  C   UNL A   1      38.557  20.269  25.492  1.00  0.00     0.118 C 
BRANCH  26  27
ATOM     27  N   UNL A   1      39.681  19.361  25.668  1.00  0.00    -0.352 N 
ATOM     28  C   UNL A   1      40.980  19.610  26.013  1.00  0.00     0.251 C 
ATOM     29  H   UNL A   1      39.471  18.411  25.513  1.00  0.00     0.163 HD
ATOM     30  O   UNL A   1      41.819  18.712  25.866  1.00  0.00    -0.269 OA
BRANCH  28  31
ATOM     31  C   UNL A   1      41.413  20.916  26.556  1.00  0.00     0.039 A 
ATOM     32  C   UNL A   1      41.255  21.156  27.926  1.00  0.00     0.014 A 
ATOM     33  C   UNL A   1      41.881  21.941  25.726  1.00  0.00     0.014 A 
ATOM     34  C   UNL A   1      41.599  22.397  28.468  1.00  0.00     0.010 A 
ATOM     35  C   UNL A   1      42.278  23.162  26.276  1.00  0.00     0.010 A 
ATOM     36  C   UNL A   1      42.130  23.406  27.650  1.00  0.00    -0.014 A 
BRANCH  36  37
ATOM     37  C   UNL A   1      42.523  24.719  28.221  1.00  0.00     0.031 A 
ATOM     38  C   UNL A   1      41.497  25.793  28.453  1.00  0.00     0.074 A 
ATOM     39  C   UNL A   1      43.821  24.967  28.485  1.00  0.00     0.049 A 
ATOM     40  N   UNL A   1      41.662  27.009  28.910  1.00  0.00    -0.248 NA
ATOM     41  C   UNL A   1      40.107  25.469  28.100  1.00  0.00     0.031 C 
ATOM     42  C   UNL A   1      44.923  24.035  28.250  1.00  0.00     0.029 A 
ATOM     43  N   UNL A   1      44.430  26.086  28.995  1.00  0.00    -0.354 N 
ATOM     44  C   UNL A   1      40.407  27.602  28.877  1.00  0.00     0.074 A 
ATOM     45  C   UNL A   1      39.495  26.623  28.322  1.00  0.00     0.031 C 
ATOM     46  C   UNL A   1      46.074  24.615  28.625  1.00  0.00     0.029 A 
ATOM     47  C   UNL A   1      45.793  25.965  29.106  1.00  0.00     0.049 A 
ATOM     48  H   UNL A   1      43.938  26.897  29.257  1.00  0.00     0.167 HD
ATOM     49  C   UNL A   1      40.042  28.841  29.286  1.00  0.00     0.037 A 
ATOM     50  C   UNL A   1      46.716  26.842  29.545  1.00  0.00     0.037 A 
ATOM     51  C   UNL A   1      40.936  29.801  29.879  1.00  0.00     0.049 A 
ATOM     52  C   UNL A   1      46.281  28.191  30.040  1.00  0.00     0.074 A 
ATOM     53  C   UNL A   1      40.639  31.042  30.416  1.00  0.00     0.029 A 
ATOM     54  N   UNL A   1      42.305  29.627  30.010  1.00  0.00    -0.354 N 
ATOM     55  N   UNL A   1      45.077  28.706  30.081  1.00  0.00    -0.248 NA
ATOM     56  C   UNL A   1      47.334  29.077  30.558  1.00  0.00     0.031 C 
ATOM     57  C   UNL A   1      41.834  31.634  30.841  1.00  0.00     0.029 A 
ATOM     58  C   UNL A   1      42.871  30.748  30.598  1.00  0.00     0.049 A 
ATOM     59  H   UNL A   1      42.803  28.826  29.726  1.00  0.00     0.167 HD
ATOM     60  C   UNL A   1      45.223  29.969  30.637  1.00  0.00     0.074 A 
ATOM     61  C   UNL A   1      46.631  30.136  30.935  1.00  0.00     0.031 C 
ATOM     62  C   UNL A   1      44.274  30.907  30.876  1.00  0.00     0.037 A 
BRANCH  49  63
ATOM     63  C   UNL A   1      38.605  29.230  29.103  1.00  0.00     0.057 A 
ATOM     64  C   UNL A   1      37.692  29.207  30.164  1.00  0.00     0.134 A 
ATOM     65  C   UNL A   1      38.135  29.657  27.854  1.00  0.00     0.134 A 
ATOM     66  F   UNL A   1      38.076  28.797  31.382  1.00  0.00    -0.206 F 
ATOM     67  C   UNL A   1      36.354  29.567  29.984  1.00  0.00     0.040 A 
ATOM     68  C   UNL A   1      36.806  30.040  27.667  1.00  0.00     0.040 A 
ATOM     69  F   UNL A   1      38.960  29.708  26.798  1.00  0.00    -0.206 F 
ATOM     70  C   UNL A   1      35.910  29.989  28.732  1.00  0.00     0.006 A 
ENDBRANCH  49  63
BRANCH  50  71
ATOM     71  C   UNL A   1      48.145  26.452  29.554  1.00  0.00     0.057 A 
ATOM     72  C   UNL A   1      48.697  25.763  30.639  1.00  0.00     0.134 A 
ATOM     73  C   UNL A   1      48.983  26.735  28.470  1.00  0.00     0.134 A 
ATOM     74  F   UNL A   1      47.944  25.479  31.712  1.00  0.00    -0.206 F 
ATOM     75  C   UNL A   1      50.037  25.373  30.649  1.00  0.00     0.040 A 
ATOM     76  C   UNL A   1      50.320  26.338  28.458  1.00  0.00     0.040 A 
ATOM     77  F   UNL A   1      48.506  27.388  27.398  1.00  0.00    -0.206 F 
ATOM     78  C   UNL A   1      50.851  25.656  29.553  1.00  0.00     0.006 A 
ENDBRANCH  50  71
BRANCH  62  79
ATOM     79  C   UNL A   1      44.732  32.196  31.490  1.00  0.00     0.057 A 
ATOM     80  C   UNL A   1      44.804  32.361  32.879  1.00  0.00     0.134 A 
ATOM     81  C   UNL A   1      45.129  33.272  30.687  1.00  0.00     0.134 A 
ATOM     82  F   UNL A   1      44.424  31.371  33.701  1.00  0.00    -0.206 F 
ATOM     83  C   UNL A   1      45.236  33.560  33.449  1.00  0.00     0.040 A 
ATOM     84  C   UNL A   1      45.582  34.468  31.245  1.00  0.00     0.040 A 
ATOM     85  F   UNL A   1      45.088  33.175  29.350  1.00  0.00    -0.206 F 
ATOM     86  C   UNL A   1      45.631  34.616  32.630  1.00  0.00     0.006 A 
ENDBRANCH  62  79
ENDBRANCH  36  37
ENDBRANCH  28  31
ENDBRANCH  26  27
ENDBRANCH   1  26
TORSDOF 14
ENDMDL
MODEL 2
REMARK VINA RESULT:     -11.1      0.470      6.265
REMARK SMILES COc1cc(OC)c([C@H]2CC[NH2+][C@H]2C(=O)NCCCNC(=O)c2ccc(-c3c4nc(c(-c5c(F)cccc5F)c5ccc([nH]5)c(-c5c(F)cccc5F)c5nc(c(-c6c(F)cccc6F)c6ccc3[nH]6)C=C5)C=C4)cc2)cc1OC
REMARK SMILES IDX 18 1 17 2 16 3 14 4 15 5 13 7 9 8 10 9 11 10 12 11 8 14 3 15
REMARK SMILES IDX 4 16 78 17 5 18 77 19 2 20 1 21 79 22 80 23 6 24 7 25 19 26
REMARK SMILES IDX 20 27 21 28 22 30 23 31 24 32 76 33 25 34 75 35 26 36 27 37
REMARK SMILES IDX 28 38 69 39 29 40 74 41 68 42 70 43 30 44 73 45 67 46 66 47
REMARK SMILES IDX 31 49 57 50 40 51 56 52 41 53 44 54 55 55 71 56 42 57 43 58
REMARK SMILES IDX 54 60 72 61 45 62 32 63 33 64 38 65 34 66 35 67 37 68 39 69
REMARK SMILES IDX 36 70 58 71 59 72 64 73 60 74 61 75 63 76 65 77 62 78 46 79
REMARK SMILES IDX 47 80 52 81 48 82 49 83 51 84 53 85 50 86
REMARK H PARENT 16 6 12 12 12 13 20 29 70 48 44 59
REMARK Flexibility Score: inf
ROOT
ATOM      1  C   UNL A   1      37.328  19.471  25.004  1.00  0.00     0.042 C 
ENDROOT
BRANCH   1   2
ATOM      2  C   UNL A   1      36.100  20.348  24.773  1.00  0.00     0.118 C 
BRANCH   2   3
ATOM      3  N   UNL A   1      35.637  21.026  25.966  1.00  0.00    -0.351 N 
ATOM      4  C   UNL A   1      34.432  21.122  26.584  1.00  0.00     0.278 C 
ATOM      5  O   UNL A   1      34.436  21.736  27.660  1.00  0.00    -0.268 OA
ATOM      6  H   UNL A   1      36.349  21.525  26.428  1.00  0.00     0.163 HD
BRANCH   4   7
ATOM      7  C   UNL A   1      33.111  20.518  26.050  1.00  0.00     0.280 C 
ATOM      8  C   UNL A   1      32.262  21.261  24.987  1.00  0.00     0.097 C 
ATOM      9  C   UNL A   1      32.512  20.412  23.735  1.00  0.00     0.076 C 
ATOM     10  C   UNL A   1      32.709  19.005  24.264  1.00  0.00     0.262 C 
ATOM     11  N   UNL A   1      33.342  19.128  25.571  1.00  0.00    -0.335 N 
ATOM     12  H   UNL A   1      34.343  18.949  25.492  1.00  0.00     0.346 HD
ATOM     13  H   UNL A   1      32.948  18.452  26.225  1.00  0.00     0.346 HD
BRANCH   8  14
ATOM     14  C   UNL A   1      32.371  22.772  24.839  1.00  0.00     0.008 A 
ATOM     15  C   UNL A   1      32.403  25.583  24.399  1.00  0.00     0.164 A 
ATOM     16  C   UNL A   1      31.881  25.061  25.581  1.00  0.00     0.097 A 
ATOM     17  C   UNL A   1      33.012  24.723  23.487  1.00  0.00     0.161 A 
ATOM     18  C   UNL A   1      31.900  23.677  25.807  1.00  0.00     0.126 A 
ATOM     19  C   UNL A   1      33.027  23.343  23.734  1.00  0.00     0.058 A 
BRANCH  15  20
ATOM     20  O   UNL A   1      32.433  26.935  24.192  1.00  0.00    -0.493 OA
ATOM     21  C   UNL A   1      33.544  27.558  24.836  1.00  0.00     0.278 C 
ENDBRANCH  15  20
BRANCH  17  22
ATOM     22  O   UNL A   1      33.656  25.104  22.340  1.00  0.00    -0.493 OA
ATOM     23  C   UNL A   1      32.794  25.438  21.257  1.00  0.00     0.278 C 
ENDBRANCH  17  22
BRANCH  18  24
ATOM     24  O   UNL A   1      31.437  23.257  27.026  1.00  0.00    -0.496 OA
ATOM     25  C   UNL A   1      30.011  23.114  26.995  1.00  0.00     0.278 C 
ENDBRANCH  18  24
ENDBRANCH   8  14
ENDBRANCH   4   7
ENDBRANCH   2   3
ENDBRANCH   1   2
BRANCH   1  26
ATOM     26  C   UNL A   1      38.599  20.225  25.374  1.00  0.00     0.118 C 
BRANCH  26  27
ATOM     27  N   UNL A   1      39.710  19.328  25.656  1.00  0.00    -0.352 N 
ATOM     28  C   UNL A   1      40.986  19.593  26.066  1.00  0.00     0.251 C 
ATOM     29  H   UNL A   1      39.508  18.372  25.532  1.00  0.00     0.163 HD
ATOM     30  O   UNL A   1      41.832  18.691  26.009  1.00  0.00    -0.269 OA
BRANCH  28  31
ATOM     31  C   UNL A   1      41.389  20.924  26.574  1.00  0.00     0.039 A 
ATOM     32  C   UNL A   1      41.151  21.224  27.920  1.00  0.00     0.014 A 
ATOM     33  C   UNL A   1      41.906  21.910  25.728  1.00  0.00     0.014 A 
ATOM     34  C   UNL A   1      41.464  22.489  28.425  1.00  0.00     0.010 A 
ATOM     35  C   UNL A   1      42.272  23.155  26.245  1.00  0.00     0.010 A 
ATOM     36  C   UNL A   1      42.044  23.461  27.595  1.00  0.00    -0.014 A 
BRANCH  36  37
ATOM     37  C   UNL A   1      42.404  24.799  28.129  1.00  0.00     0.031 A 
ATOM     38  C   UNL A   1      43.815  25.104  28.550  1.00  0.00     0.074 A 
ATOM     39  C   UNL A   1      41.444  25.731  28.288  1.00  0.00     0.049 A 
ATOM     40  N   UNL A   1      44.304  26.202  29.070  1.00  0.00    -0.248 NA
ATOM     41  C   UNL A   1      44.801  24.024  28.392  1.00  0.00     0.031 C 
ATOM     42  C   UNL A   1      40.027  25.545  27.976  1.00  0.00     0.029 A 
ATOM     43  N   UNL A   1      41.517  27.016  28.764  1.00  0.00    -0.354 N 
ATOM     44  C   UNL A   1      45.644  25.939  29.322  1.00  0.00     0.074 A 
ATOM     45  C   UNL A   1      45.884  24.566  28.931  1.00  0.00     0.031 C 
ATOM     46  C   UNL A   1      39.365  26.678  28.260  1.00  0.00     0.029 A 
ATOM     47  C   UNL A   1      40.306  27.661  28.791  1.00  0.00     0.049 A 
ATOM     48  H   UNL A   1      42.358  27.435  29.058  1.00  0.00     0.167 HD
ATOM     49  C   UNL A   1      46.593  26.769  29.818  1.00  0.00     0.037 A 
ATOM     50  C   UNL A   1      39.984  28.903  29.198  1.00  0.00     0.037 A 
ATOM     51  C   UNL A   1      46.369  28.148  30.167  1.00  0.00     0.049 A 
ATOM     52  C   UNL A   1      41.062  29.822  29.697  1.00  0.00     0.074 A 
ATOM     53  C   UNL A   1      47.290  29.095  30.581  1.00  0.00     0.029 A 
ATOM     54  N   UNL A   1      45.134  28.777  30.144  1.00  0.00    -0.354 N 
ATOM     55  N   UNL A   1      42.342  29.585  29.851  1.00  0.00    -0.248 NA
ATOM     56  C   UNL A   1      40.651  31.182  30.071  1.00  0.00     0.031 C 
ATOM     57  C   UNL A   1      46.607  30.288  30.843  1.00  0.00     0.029 A 
ATOM     58  C   UNL A   1      45.265  30.093  30.559  1.00  0.00     0.049 A 
ATOM     59  H   UNL A   1      44.288  28.352  29.873  1.00  0.00     0.167 HD
ATOM     60  C   UNL A   1      42.891  30.767  30.328  1.00  0.00     0.074 A 
ATOM     61  C   UNL A   1      41.808  31.725  30.422  1.00  0.00     0.031 C 
ATOM     62  C   UNL A   1      44.178  31.032  30.661  1.00  0.00     0.037 A 
BRANCH  49  63
ATOM     63  C   UNL A   1      47.968  26.202  30.016  1.00  0.00     0.057 A 
ATOM     64  C   UNL A   1      48.913  26.180  28.983  1.00  0.00     0.134 A 
ATOM     65  C   UNL A   1      48.357  25.695  31.261  1.00  0.00     0.134 A 
ATOM     66  F   UNL A   1      48.598  26.639  27.763  1.00  0.00    -0.206 F 
ATOM     67  C   UNL A   1      50.189  25.646  29.174  1.00  0.00     0.040 A 
ATOM     68  C   UNL A   1      49.638  25.180  31.471  1.00  0.00     0.040 A 
ATOM     69  F   UNL A   1      47.501  25.694  32.294  1.00  0.00    -0.206 F 
ATOM     70  C   UNL A   1      50.555  25.148  30.423  1.00  0.00     0.006 A 
ENDBRANCH  49  63
BRANCH  50  71
ATOM     71  C   UNL A   1      38.575  29.352  29.124  1.00  0.00     0.057 A 
ATOM     72  C   UNL A   1      38.013  29.768  27.912  1.00  0.00     0.134 A 
ATOM     73  C   UNL A   1      37.752  29.352  30.255  1.00  0.00     0.134 A 
ATOM     74  F   UNL A   1      38.760  29.802  26.799  1.00  0.00    -0.206 F 
ATOM     75  C   UNL A   1      36.681  30.173  27.828  1.00  0.00     0.040 A 
ATOM     76  C   UNL A   1      36.414  29.739  30.184  1.00  0.00     0.040 A 
ATOM     77  F   UNL A   1      38.235  28.958  31.444  1.00  0.00    -0.206 F 
ATOM     78  C   UNL A   1      35.876  30.154  28.966  1.00  0.00     0.006 A 
ENDBRANCH  50  71
BRANCH  62  79
ATOM     79  C   UNL A   1      44.481  32.413  31.158  1.00  0.00     0.057 A 
ATOM     80  C   UNL A   1      44.456  32.723  32.524  1.00  0.00     0.134 A 
ATOM     81  C   UNL A   1      44.827  33.436  30.266  1.00  0.00     0.134 A 
ATOM     82  F   UNL A   1      44.118  31.789  33.425  1.00  0.00    -0.206 F 
ATOM     83  C   UNL A   1      44.744  34.009  32.985  1.00  0.00     0.040 A 
ATOM     84  C   UNL A   1      45.137  34.720  30.717  1.00  0.00     0.040 A 
ATOM     85  F   UNL A   1      44.875  33.202  28.947  1.00  0.00    -0.206 F 
ATOM     86  C   UNL A   1      45.090  35.010  32.079  1.00  0.00     0.006 A 
ENDBRANCH  62  79
ENDBRANCH  36  37
ENDBRANCH  28  31
ENDBRANCH  26  27
ENDBRANCH   1  26
TORSDOF 14
ENDMDL
MODEL 3
REMARK VINA RESULT:     -11.1      2.648      7.644
REMARK SMILES COc1cc(OC)c([C@H]2CC[NH2+][C@H]2C(=O)NCCCNC(=O)c2ccc(-c3c4nc(c(-c5c(F)cccc5F)c5ccc([nH]5)c(-c5c(F)cccc5F)c5nc(c(-c6c(F)cccc6F)c6ccc3[nH]6)C=C5)C=C4)cc2)cc1OC
REMARK SMILES IDX 18 1 17 2 16 3 14 4 15 5 13 7 9 8 10 9 11 10 12 11 8 14 3 15
REMARK SMILES IDX 4 16 78 17 5 18 77 19 2 20 1 21 79 22 80 23 6 24 7 25 19 26
REMARK SMILES IDX 20 27 21 28 22 30 23 31 24 32 76 33 25 34 75 35 26 36 27 37
REMARK SMILES IDX 28 38 69 39 29 40 74 41 68 42 70 43 30 44 73 45 67 46 66 47
REMARK SMILES IDX 31 49 57 50 40 51 56 52 41 53 44 54 55 55 71 56 42 57 43 58
REMARK SMILES IDX 54 60 72 61 45 62 32 63 33 64 38 65 34 66 35 67 37 68 39 69
REMARK SMILES IDX 36 70 58 71 59 72 64 73 60 74 61 75 63 76 65 77 62 78 46 79
REMARK SMILES IDX 47 80 52 81 48 82 49 83 51 84 53 85 50 86
REMARK H PARENT 16 6 12 12 12 13 20 29 70 48 44 59
REMARK Flexibility Score: inf
ROOT
ATOM      1  C   UNL A   1      32.423  28.035  27.028  1.00  0.00     0.042 C 
ENDROOT
BRANCH   1   2
ATOM      2  C   UNL A   1      31.895  28.314  25.623  1.00  0.00     0.118 C 
BRANCH   2   3
ATOM      3  N   UNL A   1      32.939  28.518  24.640  1.00  0.00    -0.351 N 
ATOM      4  C   UNL A   1      32.943  28.657  23.289  1.00  0.00     0.278 C 
ATOM      5  O   UNL A   1      34.046  28.906  22.785  1.00  0.00    -0.268 OA
ATOM      6  H   UNL A   1      33.839  28.566  25.035  1.00  0.00     0.163 HD
BRANCH   4   7
ATOM      7  C   UNL A   1      31.694  28.541  22.381  1.00  0.00     0.280 C 
ATOM      8  C   UNL A   1      30.858  27.236  22.331  1.00  0.00     0.097 C 
ATOM      9  C   UNL A   1      29.590  27.646  23.088  1.00  0.00     0.076 C 
ATOM     10  C   UNL A   1      29.427  29.122  22.785  1.00  0.00     0.262 C 
ATOM     11  N   UNL A   1      30.768  29.677  22.642  1.00  0.00    -0.335 N 
ATOM     12  H   UNL A   1      31.039  30.158  23.499  1.00  0.00     0.346 HD
ATOM     13  H   UNL A   1      30.798  30.348  21.875  1.00  0.00     0.346 HD
BRANCH   8  14
ATOM     14  C   UNL A   1      31.494  25.905  22.704  1.00  0.00     0.008 A 
ATOM     15  C   UNL A   1      32.482  23.310  23.329  1.00  0.00     0.164 A 
ATOM     16  C   UNL A   1      32.986  24.011  22.236  1.00  0.00     0.097 A 
ATOM     17  C   UNL A   1      31.572  23.938  24.178  1.00  0.00     0.161 A 
ATOM     18  C   UNL A   1      32.520  25.304  21.953  1.00  0.00     0.126 A 
ATOM     19  C   UNL A   1      31.124  25.234  23.882  1.00  0.00     0.058 A 
BRANCH  15  20
ATOM     20  O   UNL A   1      32.965  22.069  23.639  1.00  0.00    -0.493 OA
ATOM     21  C   UNL A   1      34.242  22.127  24.275  1.00  0.00     0.278 C 
ENDBRANCH  15  20
BRANCH  17  22
ATOM     22  O   UNL A   1      31.074  23.413  25.341  1.00  0.00    -0.493 OA
ATOM     23  C   UNL A   1      31.687  23.911  26.526  1.00  0.00     0.278 C 
ENDBRANCH  17  22
BRANCH  18  24
ATOM     24  O   UNL A   1      33.124  25.949  20.907  1.00  0.00    -0.496 OA
ATOM     25  C   UNL A   1      32.602  25.474  19.659  1.00  0.00     0.278 C 
ENDBRANCH  18  24
ENDBRANCH   8  14
ENDBRANCH   4   7
ENDBRANCH   2   3
ENDBRANCH   1   2
BRANCH   1  26
ATOM     26  C   UNL A   1      33.821  28.572  27.311  1.00  0.00     0.118 C 
BRANCH  26  27
ATOM     27  N   UNL A   1      33.795  29.940  27.806  1.00  0.00    -0.352 N 
ATOM     28  C   UNL A   1      34.737  30.657  28.490  1.00  0.00     0.251 C 
ATOM     29  H   UNL A   1      32.962  30.430  27.617  1.00  0.00     0.163 HD
ATOM     30  O   UNL A   1      34.406  31.724  29.022  1.00  0.00    -0.269 OA
BRANCH  28  31
ATOM     31  C   UNL A   1      36.138  30.197  28.614  1.00  0.00     0.039 A 
ATOM     32  C   UNL A   1      36.579  29.726  29.856  1.00  0.00     0.014 A 
ATOM     33  C   UNL A   1      37.047  30.310  27.557  1.00  0.00     0.014 A 
ATOM     34  C   UNL A   1      37.910  29.337  30.030  1.00  0.00     0.010 A 
ATOM     35  C   UNL A   1      38.363  29.867  27.714  1.00  0.00     0.010 A 
ATOM     36  C   UNL A   1      38.810  29.387  28.955  1.00  0.00    -0.014 A 
BRANCH  36  37
ATOM     37  C   UNL A   1      40.219  28.950  29.123  1.00  0.00     0.031 A 
ATOM     38  C   UNL A   1      41.251  29.887  29.686  1.00  0.00     0.074 A 
ATOM     39  C   UNL A   1      40.585  27.719  28.717  1.00  0.00     0.049 A 
ATOM     40  N   UNL A   1      42.533  29.690  29.871  1.00  0.00    -0.248 NA
ATOM     41  C   UNL A   1      40.790  31.231  30.065  1.00  0.00     0.031 C 
ATOM     42  C   UNL A   1      39.697  26.734  28.099  1.00  0.00     0.029 A 
ATOM     43  N   UNL A   1      41.807  27.094  28.752  1.00  0.00    -0.354 N 
ATOM     44  C   UNL A   1      43.034  30.887  30.365  1.00  0.00     0.074 A 
ATOM     45  C   UNL A   1      41.925  31.818  30.417  1.00  0.00     0.031 C 
ATOM     46  C   UNL A   1      40.400  25.625  27.822  1.00  0.00     0.029 A 
ATOM     47  C   UNL A   1      41.790  25.827  28.223  1.00  0.00     0.049 A 
ATOM     48  H   UNL A   1      42.617  27.513  29.120  1.00  0.00     0.167 HD
ATOM     49  C   UNL A   1      44.298  31.183  30.754  1.00  0.00     0.037 A 
ATOM     50  C   UNL A   1      42.780  24.928  28.075  1.00  0.00     0.037 A 
ATOM     51  C   UNL A   1      45.393  30.249  30.745  1.00  0.00     0.049 A 
ATOM     52  C   UNL A   1      44.162  25.259  28.561  1.00  0.00     0.074 A 
ATOM     53  C   UNL A   1      46.683  30.426  31.215  1.00  0.00     0.029 A 
ATOM     54  N   UNL A   1      45.327  28.961  30.237  1.00  0.00    -0.354 N 
ATOM     55  N   UNL A   1      44.602  26.368  29.103  1.00  0.00    -0.248 NA
ATOM     56  C   UNL A   1      45.182  24.210  28.421  1.00  0.00     0.031 C 
ATOM     57  C   UNL A   1      47.408  29.256  30.960  1.00  0.00     0.029 A 
ATOM     58  C   UNL A   1      46.560  28.339  30.361  1.00  0.00     0.049 A 
ATOM     59  H   UNL A   1      44.523  28.548  29.846  1.00  0.00     0.167 HD
ATOM     60  C   UNL A   1      45.944  26.149  29.379  1.00  0.00     0.074 A 
ATOM     61  C   UNL A   1      46.243  24.794  28.961  1.00  0.00     0.031 C 
ATOM     62  C   UNL A   1      46.848  26.997  29.928  1.00  0.00     0.037 A 
BRANCH  49  63
ATOM     63  C   UNL A   1      44.564  32.583  31.224  1.00  0.00     0.057 A 
ATOM     64  C   UNL A   1      44.415  32.952  32.566  1.00  0.00     0.134 A 
ATOM     65  C   UNL A   1      44.996  33.566  30.325  1.00  0.00     0.134 A 
ATOM     66  F   UNL A   1      43.992  32.060  33.474  1.00  0.00    -0.206 F 
ATOM     67  C   UNL A   1      44.661  34.258  32.995  1.00  0.00     0.040 A 
ATOM     68  C   UNL A   1      45.266  34.869  30.746  1.00  0.00     0.040 A 
ATOM     69  F   UNL A   1      45.164  33.275  29.026  1.00  0.00    -0.206 F 
ATOM     70  C   UNL A   1      45.091  35.220  32.082  1.00  0.00     0.006 A 
ENDBRANCH  49  63
BRANCH  50  71
ATOM     71  C   UNL A   1      42.485  23.614  27.457  1.00  0.00     0.057 A 
ATOM     72  C   UNL A   1      42.567  23.434  26.072  1.00  0.00     0.134 A 
ATOM     73  C   UNL A   1      42.141  22.505  28.238  1.00  0.00     0.134 A 
ATOM     74  F   UNL A   1      42.877  24.466  25.275  1.00  0.00    -0.206 F 
ATOM     75  C   UNL A   1      42.311  22.195  25.483  1.00  0.00     0.040 A 
ATOM     76  C   UNL A   1      41.899  21.257  27.664  1.00  0.00     0.040 A 
ATOM     77  F   UNL A   1      42.054  22.617  29.572  1.00  0.00    -0.206 F 
ATOM     78  C   UNL A   1      41.981  21.101  26.281  1.00  0.00     0.006 A 
ENDBRANCH  50  71
BRANCH  62  79
ATOM     79  C   UNL A   1      48.244  26.480  30.105  1.00  0.00     0.057 A 
ATOM     80  C   UNL A   1      49.224  26.664  29.121  1.00  0.00     0.134 A 
ATOM     81  C   UNL A   1      48.620  25.817  31.280  1.00  0.00     0.134 A 
ATOM     82  F   UNL A   1      48.921  27.279  27.969  1.00  0.00    -0.206 F 
ATOM     83  C   UNL A   1      50.525  26.187  29.290  1.00  0.00     0.040 A 
ATOM     84  C   UNL A   1      49.922  25.354  31.469  1.00  0.00     0.040 A 
ATOM     85  F   UNL A   1      47.729  25.615  32.262  1.00  0.00    -0.206 F 
ATOM     86  C   UNL A   1      50.878  25.534  30.470  1.00  0.00     0.006 A 
ENDBRANCH  62  79
ENDBRANCH  36  37
ENDBRANCH  28  31
ENDBRANCH  26  27
ENDBRANCH   1  26
TORSDOF 14
ENDMDL
