MODEL 1
REMARK VINA RESULT:     -11.5      0.000      0.000
REMARK SMILES C[C@H]1OCC[C@H]1c1nnnn1CCC(=O)NCCCNC(=O)c1ccc(-c2c3nc(c(-c4c(F)cccc4F)c4ccc([nH]4)c(-c4c(F)cccc4F)c4nc(c(-c5c(F)cccc5F)c5ccc2[nH]5)C=C4)C=C3)cc1
REMARK SMILES IDX 17 1 16 2 14 3 15 4 13 6 12 7 11 8 7 9 8 10 9 11 10 12 6 13
REMARK SMILES IDX 1 14 2 15 3 16 4 17 5 18 18 19 19 20 20 21 21 22 22 24 23 25
REMARK SMILES IDX 24 26 76 27 25 28 75 29 26 30 27 31 28 32 69 33 29 34 74 35
REMARK SMILES IDX 68 36 70 37 30 38 73 39 67 40 66 41 31 43 57 44 40 45 56 46
REMARK SMILES IDX 41 47 44 48 55 49 71 50 42 51 43 52 54 54 72 55 45 56 32 57
REMARK SMILES IDX 33 58 38 59 34 60 35 61 37 62 39 63 36 64 58 65 59 66 64 67
REMARK SMILES IDX 60 68 61 69 63 70 65 71 62 72 46 73 47 74 52 75 48 76 49 77
REMARK SMILES IDX 51 78 53 79 50 80
REMARK H PARENT 16 5 20 23 70 42 44 53
REMARK Flexibility Score: inf
ROOT
ATOM      1  C   UNL A   1      31.564  30.436  25.979  1.00  0.00     0.117 C 
ENDROOT
BRANCH   1   2
ATOM      2  N   UNL A   1      31.028  30.125  24.654  1.00  0.00    -0.356 N 
ATOM      3  C   UNL A   1      30.960  28.933  23.997  1.00  0.00     0.221 C 
ATOM      4  O   UNL A   1      30.612  28.917  22.816  1.00  0.00    -0.275 OA
ATOM      5  H   UNL A   1      30.661  30.895  24.161  1.00  0.00     0.163 HD
BRANCH   3   6
ATOM      6  C   UNL A   1      31.258  27.645  24.728  1.00  0.00     0.124 C 
BRANCH   6   7
ATOM      7  C   UNL A   1      30.247  26.544  24.445  1.00  0.00     0.158 C 
BRANCH   7   8
ATOM      8  N   UNL A   1      30.410  25.337  25.220  1.00  0.00    -0.229 N 
ATOM      9  C   UNL A   1      31.038  24.149  24.917  1.00  0.00     0.157 A 
ATOM     10  N   UNL A   1      30.864  23.339  25.943  1.00  0.00    -0.113 NA
ATOM     11  N   UNL A   1      30.306  24.092  26.941  1.00  0.00    -0.024 NA
ATOM     12  N   UNL A   1      30.071  25.329  26.523  1.00  0.00    -0.045 NA
BRANCH   9  13
ATOM     13  C   UNL A   1      31.927  23.914  23.740  1.00  0.00     0.090 C 
ATOM     14  C   UNL A   1      33.769  24.900  25.341  1.00  0.00     0.039 C 
ATOM     15  C   UNL A   1      33.423  24.102  24.087  1.00  0.00     0.126 C 
ATOM     16  O   UNL A   1      34.011  22.793  24.234  1.00  0.00    -0.378 OA
ATOM     17  C   UNL A   1      32.971  21.818  24.132  1.00  0.00     0.161 C 
ATOM     18  C   UNL A   1      31.908  22.463  23.268  1.00  0.00     0.043 C 
ENDBRANCH   9  13
ENDBRANCH   7   8
ENDBRANCH   6   7
ENDBRANCH   3   6
ENDBRANCH   1   2
BRANCH   1  19
ATOM     19  C   UNL A   1      31.321  31.895  26.352  1.00  0.00     0.042 C 
BRANCH  19  20
ATOM     20  C   UNL A   1      32.386  32.474  27.245  1.00  0.00     0.118 C 
BRANCH  20  21
ATOM     21  N   UNL A   1      32.222  33.891  27.576  1.00  0.00    -0.352 N 
ATOM     22  C   UNL A   1      32.964  34.637  28.484  1.00  0.00     0.251 C 
ATOM     23  H   UNL A   1      31.505  34.369  27.101  1.00  0.00     0.163 HD
ATOM     24  O   UNL A   1      32.558  35.734  28.875  1.00  0.00    -0.269 OA
BRANCH  22  25
ATOM     25  C   UNL A   1      34.243  34.092  28.986  1.00  0.00     0.039 A 
ATOM     26  C   UNL A   1      34.420  33.510  30.243  1.00  0.00     0.014 A 
ATOM     27  C   UNL A   1      35.303  34.109  28.099  1.00  0.00     0.014 A 
ATOM     28  C   UNL A   1      35.674  32.968  30.541  1.00  0.00     0.010 A 
ATOM     29  C   UNL A   1      36.267  33.166  28.218  1.00  0.00     0.010 A 
ATOM     30  C   UNL A   1      36.606  32.831  29.502  1.00  0.00    -0.014 A 
BRANCH  30  31
ATOM     31  C   UNL A   1      37.959  32.326  29.651  1.00  0.00     0.031 A 
ATOM     32  C   UNL A   1      38.116  30.933  29.201  1.00  0.00     0.074 A 
ATOM     33  C   UNL A   1      39.019  33.129  29.920  1.00  0.00     0.049 A 
ATOM     34  N   UNL A   1      38.272  29.889  29.941  1.00  0.00    -0.248 NA
ATOM     35  C   UNL A   1      37.891  30.640  27.778  1.00  0.00     0.031 C 
ATOM     36  C   UNL A   1      39.078  34.597  30.031  1.00  0.00     0.029 A 
ATOM     37  N   UNL A   1      40.326  32.782  30.066  1.00  0.00    -0.354 N 
ATOM     38  C   UNL A   1      38.399  28.827  29.056  1.00  0.00     0.074 A 
ATOM     39  C   UNL A   1      37.940  29.307  27.779  1.00  0.00     0.031 C 
ATOM     40  C   UNL A   1      40.366  35.012  30.002  1.00  0.00     0.029 A 
ATOM     41  C   UNL A   1      41.224  33.846  30.051  1.00  0.00     0.049 A 
ATOM     42  H   UNL A   1      40.615  31.848  30.176  1.00  0.00     0.167 HD
ATOM     43  C   UNL A   1      39.128  27.729  29.394  1.00  0.00     0.037 A 
ATOM     44  C   UNL A   1      42.578  33.753  30.054  1.00  0.00     0.037 A 
ATOM     45  C   UNL A   1      39.411  27.712  30.810  1.00  0.00     0.049 A 
ATOM     46  C   UNL A   1      42.918  32.390  30.539  1.00  0.00     0.074 A 
ATOM     47  C   UNL A   1      38.635  27.701  31.953  1.00  0.00     0.029 A 
ATOM     48  N   UNL A   1      40.658  28.133  31.209  1.00  0.00    -0.354 N 
ATOM     49  N   UNL A   1      42.685  31.979  31.756  1.00  0.00    -0.248 NA
ATOM     50  C   UNL A   1      43.045  31.341  29.539  1.00  0.00     0.031 C 
ATOM     51  C   UNL A   1      39.304  28.576  32.858  1.00  0.00     0.029 A 
ATOM     52  C   UNL A   1      40.487  29.005  32.253  1.00  0.00     0.049 A 
ATOM     53  H   UNL A   1      41.517  27.858  30.816  1.00  0.00     0.167 HD
ATOM     54  C   UNL A   1      42.215  30.680  31.609  1.00  0.00     0.074 A 
ATOM     55  C   UNL A   1      42.525  30.319  30.226  1.00  0.00     0.031 C 
ATOM     56  C   UNL A   1      41.356  30.130  32.517  1.00  0.00     0.037 A 
BRANCH  43  57
ATOM     57  C   UNL A   1      39.911  26.895  28.416  1.00  0.00     0.057 A 
ATOM     58  C   UNL A   1      40.827  27.534  27.564  1.00  0.00     0.134 A 
ATOM     59  C   UNL A   1      39.604  25.561  28.077  1.00  0.00     0.134 A 
ATOM     60  F   UNL A   1      41.191  28.808  27.775  1.00  0.00    -0.206 F 
ATOM     61  C   UNL A   1      41.335  26.919  26.415  1.00  0.00     0.040 A 
ATOM     62  C   UNL A   1      40.148  24.920  26.963  1.00  0.00     0.040 A 
ATOM     63  F   UNL A   1      38.688  24.842  28.735  1.00  0.00    -0.206 F 
ATOM     64  C   UNL A   1      40.989  25.609  26.107  1.00  0.00     0.006 A 
ENDBRANCH  43  57
BRANCH  44  65
ATOM     65  C   UNL A   1      43.559  34.616  29.353  1.00  0.00     0.057 A 
ATOM     66  C   UNL A   1      43.788  34.502  27.975  1.00  0.00     0.134 A 
ATOM     67  C   UNL A   1      44.087  35.764  29.971  1.00  0.00     0.134 A 
ATOM     68  F   UNL A   1      43.289  33.465  27.286  1.00  0.00    -0.206 F 
ATOM     69  C   UNL A   1      44.485  35.480  27.249  1.00  0.00     0.040 A 
ATOM     70  C   UNL A   1      44.784  36.748  29.259  1.00  0.00     0.040 A 
ATOM     71  F   UNL A   1      43.864  36.014  31.269  1.00  0.00    -0.206 F 
ATOM     72  C   UNL A   1      44.975  36.615  27.890  1.00  0.00     0.006 A 
ENDBRANCH  44  65
BRANCH  56  73
ATOM     73  C   UNL A   1      41.110  30.873  33.804  1.00  0.00     0.057 A 
ATOM     74  C   UNL A   1      40.072  31.798  33.998  1.00  0.00     0.134 A 
ATOM     75  C   UNL A   1      41.835  30.495  34.939  1.00  0.00     0.134 A 
ATOM     76  F   UNL A   1      39.264  32.155  32.994  1.00  0.00    -0.206 F 
ATOM     77  C   UNL A   1      39.786  32.337  35.257  1.00  0.00     0.040 A 
ATOM     78  C   UNL A   1      41.541  31.001  36.207  1.00  0.00     0.040 A 
ATOM     79  F   UNL A   1      42.808  29.575  34.841  1.00  0.00    -0.206 F 
ATOM     80  C   UNL A   1      40.516  31.930  36.369  1.00  0.00     0.006 A 
ENDBRANCH  56  73
ENDBRANCH  30  31
ENDBRANCH  22  25
ENDBRANCH  20  21
ENDBRANCH  19  20
ENDBRANCH   1  19
TORSDOF 13
ENDMDL
MODEL 2
REMARK VINA RESULT:     -11.3      5.071      9.827
REMARK SMILES C[C@H]1OCC[C@H]1c1nnnn1CCC(=O)NCCCNC(=O)c1ccc(-c2c3nc(c(-c4c(F)cccc4F)c4ccc([nH]4)c(-c4c(F)cccc4F)c4nc(c(-c5c(F)cccc5F)c5ccc2[nH]5)C=C4)C=C3)cc1
REMARK SMILES IDX 17 1 16 2 14 3 15 4 13 6 12 7 11 8 7 9 8 10 9 11 10 12 6 13
REMARK SMILES IDX 1 14 2 15 3 16 4 17 5 18 18 19 19 20 20 21 21 22 22 24 23 25
REMARK SMILES IDX 24 26 76 27 25 28 75 29 26 30 27 31 28 32 69 33 29 34 74 35
REMARK SMILES IDX 68 36 70 37 30 38 73 39 67 40 66 41 31 43 57 44 40 45 56 46
REMARK SMILES IDX 41 47 44 48 55 49 71 50 42 51 43 52 54 54 72 55 45 56 32 57
REMARK SMILES IDX 33 58 38 59 34 60 35 61 37 62 39 63 36 64 58 65 59 66 64 67
REMARK SMILES IDX 60 68 61 69 63 70 65 71 62 72 46 73 47 74 52 75 48 76 49 77
REMARK SMILES IDX 51 78 53 79 50 80
REMARK H PARENT 16 5 20 23 70 42 44 53
REMARK Flexibility Score: inf
ROOT
ATOM      1  C   UNL A   1      43.082  19.585  26.190  1.00  0.00     0.117 C 
ENDROOT
BRANCH   1   2
ATOM      2  N   UNL A   1      43.495  19.027  24.903  1.00  0.00    -0.356 N 
ATOM      3  C   UNL A   1      44.703  19.085  24.273  1.00  0.00     0.221 C 
ATOM      4  O   UNL A   1      44.796  18.679  23.113  1.00  0.00    -0.275 OA
ATOM      5  H   UNL A   1      42.794  18.533  24.417  1.00  0.00     0.163 HD
BRANCH   3   6
ATOM      6  C   UNL A   1      45.920  19.592  25.010  1.00  0.00     0.124 C 
BRANCH   6   7
ATOM      7  C   UNL A   1      46.249  21.045  24.701  1.00  0.00     0.158 C 
BRANCH   7   8
ATOM      8  N   UNL A   1      45.152  21.973  24.843  1.00  0.00    -0.229 N 
ATOM      9  C   UNL A   1      44.874  22.896  25.828  1.00  0.00     0.157 A 
ATOM     10  N   UNL A   1      43.724  23.463  25.522  1.00  0.00    -0.113 NA
ATOM     11  N   UNL A   1      43.402  23.032  24.263  1.00  0.00    -0.024 NA
ATOM     12  N   UNL A   1      44.296  22.157  23.821  1.00  0.00    -0.045 NA
BRANCH   9  13
ATOM     13  C   UNL A   1      45.813  23.316  26.911  1.00  0.00     0.090 C 
ATOM     14  C   UNL A   1      46.808  24.845  25.014  1.00  0.00     0.039 C 
ATOM     15  C   UNL A   1      46.675  24.534  26.502  1.00  0.00     0.126 C 
ATOM     16  O   UNL A   1      46.117  25.703  27.137  1.00  0.00    -0.378 OA
ATOM     17  C   UNL A   1      44.909  25.323  27.800  1.00  0.00     0.161 C 
ATOM     18  C   UNL A   1      45.089  23.859  28.140  1.00  0.00     0.043 C 
ENDBRANCH   9  13
ENDBRANCH   7   8
ENDBRANCH   6   7
ENDBRANCH   3   6
ENDBRANCH   1   2
BRANCH   1  19
ATOM     19  C   UNL A   1      41.569  19.756  26.265  1.00  0.00     0.042 C 
BRANCH  19  20
ATOM     20  C   UNL A   1      41.134  21.174  26.525  1.00  0.00     0.118 C 
BRANCH  20  21
ATOM     21  N   UNL A   1      39.806  21.524  26.015  1.00  0.00    -0.352 N 
ATOM     22  C   UNL A   1      39.013  22.601  26.394  1.00  0.00     0.251 C 
ATOM     23  H   UNL A   1      39.433  20.929  25.325  1.00  0.00     0.163 HD
ATOM     24  O   UNL A   1      37.816  22.634  26.101  1.00  0.00    -0.269 OA
BRANCH  22  25
ATOM     25  C   UNL A   1      39.623  23.705  27.166  1.00  0.00     0.039 A 
ATOM     26  C   UNL A   1      40.906  23.674  27.718  1.00  0.00     0.014 A 
ATOM     27  C   UNL A   1      38.876  24.862  27.271  1.00  0.00     0.014 A 
ATOM     28  C   UNL A   1      41.371  24.829  28.354  1.00  0.00     0.010 A 
ATOM     29  C   UNL A   1      39.520  26.043  27.412  1.00  0.00     0.010 A 
ATOM     30  C   UNL A   1      40.634  26.013  28.208  1.00  0.00    -0.014 A 
BRANCH  30  31
ATOM     31  C   UNL A   1      40.958  27.284  28.834  1.00  0.00     0.031 A 
ATOM     32  C   UNL A   1      42.069  27.992  28.176  1.00  0.00     0.074 A 
ATOM     33  C   UNL A   1      40.154  27.879  29.749  1.00  0.00     0.049 A 
ATOM     34  N   UNL A   1      43.270  28.136  28.619  1.00  0.00    -0.248 NA
ATOM     35  C   UNL A   1      41.876  28.434  26.787  1.00  0.00     0.031 C 
ATOM     36  C   UNL A   1      38.824  27.472  30.236  1.00  0.00     0.029 A 
ATOM     37  N   UNL A   1      40.337  29.065  30.390  1.00  0.00    -0.354 N 
ATOM     38  C   UNL A   1      43.927  28.894  27.660  1.00  0.00     0.074 A 
ATOM     39  C   UNL A   1      43.105  28.855  26.480  1.00  0.00     0.031 C 
ATOM     40  C   UNL A   1      38.243  28.492  30.907  1.00  0.00     0.029 A 
ATOM     41  C   UNL A   1      39.216  29.556  31.055  1.00  0.00     0.049 A 
ATOM     42  H   UNL A   1      41.198  29.541  30.385  1.00  0.00     0.167 HD
ATOM     43  C   UNL A   1      44.957  29.711  28.011  1.00  0.00     0.037 A 
ATOM     44  C   UNL A   1      39.107  30.767  31.657  1.00  0.00     0.037 A 
ATOM     45  C   UNL A   1      45.424  29.411  29.344  1.00  0.00     0.049 A 
ATOM     46  C   UNL A   1      40.489  31.262  31.889  1.00  0.00     0.074 A 
ATOM     47  C   UNL A   1      45.944  28.288  29.958  1.00  0.00     0.029 A 
ATOM     48  N   UNL A   1      44.993  30.228  30.363  1.00  0.00    -0.354 N 
ATOM     49  N   UNL A   1      41.327  30.700  32.717  1.00  0.00    -0.248 NA
ATOM     50  C   UNL A   1      41.094  32.062  30.835  1.00  0.00     0.031 C 
ATOM     51  C   UNL A   1      45.352  28.272  31.255  1.00  0.00     0.029 A 
ATOM     52  C   UNL A   1      44.573  29.423  31.391  1.00  0.00     0.049 A 
ATOM     53  H   UNL A   1      44.986  31.212  30.355  1.00  0.00     0.167 HD
ATOM     54  C   UNL A   1      42.547  30.714  32.053  1.00  0.00     0.074 A 
ATOM     55  C   UNL A   1      42.355  31.628  30.928  1.00  0.00     0.031 C 
ATOM     56  C   UNL A   1      43.497  29.762  32.295  1.00  0.00     0.037 A 
BRANCH  43  57
ATOM     57  C   UNL A   1      45.276  31.016  27.332  1.00  0.00     0.057 A 
ATOM     58  C   UNL A   1      46.573  31.218  26.831  1.00  0.00     0.134 A 
ATOM     59  C   UNL A   1      44.471  32.172  27.403  1.00  0.00     0.134 A 
ATOM     60  F   UNL A   1      47.437  30.198  26.725  1.00  0.00    -0.206 F 
ATOM     61  C   UNL A   1      47.059  32.489  26.503  1.00  0.00     0.040 A 
ATOM     62  C   UNL A   1      44.929  33.436  27.027  1.00  0.00     0.040 A 
ATOM     63  F   UNL A   1      43.244  32.166  27.935  1.00  0.00    -0.206 F 
ATOM     64  C   UNL A   1      46.237  33.604  26.609  1.00  0.00     0.006 A 
ENDBRANCH  43  57
BRANCH  44  65
ATOM     65  C   UNL A   1      37.921  31.655  31.726  1.00  0.00     0.057 A 
ATOM     66  C   UNL A   1      37.371  32.239  30.577  1.00  0.00     0.134 A 
ATOM     67  C   UNL A   1      37.131  31.722  32.888  1.00  0.00     0.134 A 
ATOM     68  F   UNL A   1      38.027  32.189  29.408  1.00  0.00    -0.206 F 
ATOM     69  C   UNL A   1      36.102  32.839  30.577  1.00  0.00     0.040 A 
ATOM     70  C   UNL A   1      35.865  32.318  32.903  1.00  0.00     0.040 A 
ATOM     71  F   UNL A   1      37.525  31.132  34.025  1.00  0.00    -0.206 F 
ATOM     72  C   UNL A   1      35.339  32.868  31.741  1.00  0.00     0.006 A 
ENDBRANCH  44  65
BRANCH  56  73
ATOM     73  C   UNL A   1      43.292  28.834  33.463  1.00  0.00     0.057 A 
ATOM     74  C   UNL A   1      42.644  27.592  33.383  1.00  0.00     0.134 A 
ATOM     75  C   UNL A   1      43.942  29.127  34.667  1.00  0.00     0.134 A 
ATOM     76  F   UNL A   1      42.070  27.181  32.246  1.00  0.00    -0.206 F 
ATOM     77  C   UNL A   1      42.624  26.695  34.456  1.00  0.00     0.040 A 
ATOM     78  C   UNL A   1      43.956  28.229  35.736  1.00  0.00     0.040 A 
ATOM     79  F   UNL A   1      44.628  30.273  34.801  1.00  0.00    -0.206 F 
ATOM     80  C   UNL A   1      43.291  27.010  35.636  1.00  0.00     0.006 A 
ENDBRANCH  56  73
ENDBRANCH  30  31
ENDBRANCH  22  25
ENDBRANCH  20  21
ENDBRANCH  19  20
ENDBRANCH   1  19
TORSDOF 13
ENDMDL
MODEL 3
REMARK VINA RESULT:     -11.3      4.100      9.129
REMARK SMILES C[C@H]1OCC[C@H]1c1nnnn1CCC(=O)NCCCNC(=O)c1ccc(-c2c3nc(c(-c4c(F)cccc4F)c4ccc([nH]4)c(-c4c(F)cccc4F)c4nc(c(-c5c(F)cccc5F)c5ccc2[nH]5)C=C4)C=C3)cc1
REMARK SMILES IDX 17 1 16 2 14 3 15 4 13 6 12 7 11 8 7 9 8 10 9 11 10 12 6 13
REMARK SMILES IDX 1 14 2 15 3 16 4 17 5 18 18 19 19 20 20 21 21 22 22 24 23 25
REMARK SMILES IDX 24 26 76 27 25 28 75 29 26 30 27 31 28 32 69 33 29 34 74 35
REMARK SMILES IDX 68 36 70 37 30 38 73 39 67 40 66 41 31 43 57 44 40 45 56 46
REMARK SMILES IDX 41 47 44 48 55 49 71 50 42 51 43 52 54 54 72 55 45 56 32 57
REMARK SMILES IDX 33 58 38 59 34 60 35 61 37 62 39 63 36 64 58 65 59 66 64 67
REMARK SMILES IDX 60 68 61 69 63 70 65 71 62 72 46 73 47 74 52 75 48 76 49 77
REMARK SMILES IDX 51 78 53 79 50 80
REMARK H PARENT 16 5 20 23 70 42 44 53
REMARK Flexibility Score: inf
ROOT
ATOM      1  C   UNL A   1      37.287  20.803  25.243  1.00  0.00     0.117 C 
ENDROOT
BRANCH   1   2
ATOM      2  N   UNL A   1      36.974  21.916  24.347  1.00  0.00    -0.356 N 
ATOM      3  C   UNL A   1      35.770  22.475  24.035  1.00  0.00     0.221 C 
ATOM      4  O   UNL A   1      35.711  23.307  23.129  1.00  0.00    -0.275 OA
ATOM      5  H   UNL A   1      37.752  22.323  23.899  1.00  0.00     0.163 HD
BRANCH   3   6
ATOM      6  C   UNL A   1      34.537  22.113  24.828  1.00  0.00     0.124 C 
BRANCH   6   7
ATOM      7  C   UNL A   1      34.497  22.758  26.206  1.00  0.00     0.158 C 
BRANCH   7   8
ATOM      8  N   UNL A   1      33.303  23.513  26.503  1.00  0.00    -0.229 N 
ATOM      9  C   UNL A   1      32.981  24.828  26.249  1.00  0.00     0.157 A 
ATOM     10  N   UNL A   1      31.789  25.048  26.766  1.00  0.00    -0.113 NA
ATOM     11  N   UNL A   1      31.305  23.829  27.158  1.00  0.00    -0.024 NA
ATOM     12  N   UNL A   1      32.206  22.877  26.955  1.00  0.00    -0.045 NA
BRANCH   9  13
ATOM     13  C   UNL A   1      33.752  25.753  25.365  1.00  0.00     0.090 C 
ATOM     14  C   UNL A   1      32.261  24.679  23.481  1.00  0.00     0.039 C 
ATOM     15  C   UNL A   1      33.171  25.817  23.932  1.00  0.00     0.126 C 
ATOM     16  O   UNL A   1      32.419  27.042  23.816  1.00  0.00    -0.378 OA
ATOM     17  C   UNL A   1      32.383  27.674  25.098  1.00  0.00     0.161 C 
ATOM     18  C   UNL A   1      33.642  27.211  25.800  1.00  0.00     0.043 C 
ENDBRANCH   9  13
ENDBRANCH   7   8
ENDBRANCH   6   7
ENDBRANCH   3   6
ENDBRANCH   1   2
BRANCH   1  19
ATOM     19  C   UNL A   1      38.637  20.179  24.909  1.00  0.00     0.042 C 
BRANCH  19  20
ATOM     20  C   UNL A   1      39.425  19.760  26.122  1.00  0.00     0.118 C 
BRANCH  20  21
ATOM     21  N   UNL A   1      40.651  19.009  25.842  1.00  0.00    -0.352 N 
ATOM     22  C   UNL A   1      41.949  19.503  25.789  1.00  0.00     0.251 C 
ATOM     23  H   UNL A   1      40.543  18.046  25.673  1.00  0.00     0.163 HD
ATOM     24  O   UNL A   1      42.853  18.839  25.278  1.00  0.00    -0.269 OA
BRANCH  22  25
ATOM     25  C   UNL A   1      42.231  20.845  26.344  1.00  0.00     0.039 A 
ATOM     26  C   UNL A   1      42.641  21.946  25.589  1.00  0.00     0.014 A 
ATOM     27  C   UNL A   1      41.992  21.008  27.695  1.00  0.00     0.014 A 
ATOM     28  C   UNL A   1      42.791  23.170  26.249  1.00  0.00     0.010 A 
ATOM     29  C   UNL A   1      41.655  22.236  28.153  1.00  0.00     0.010 A 
ATOM     30  C   UNL A   1      42.308  23.284  27.561  1.00  0.00    -0.014 A 
BRANCH  30  31
ATOM     31  C   UNL A   1      42.420  24.468  28.395  1.00  0.00     0.031 A 
ATOM     32  C   UNL A   1      41.309  25.416  28.214  1.00  0.00     0.074 A 
ATOM     33  C   UNL A   1      43.302  24.565  29.421  1.00  0.00     0.049 A 
ATOM     34  N   UNL A   1      41.348  26.554  27.611  1.00  0.00    -0.248 NA
ATOM     35  C   UNL A   1      39.957  24.971  28.585  1.00  0.00     0.031 C 
ATOM     36  C   UNL A   1      44.228  23.553  29.960  1.00  0.00     0.029 A 
ATOM     37  N   UNL A   1      43.491  25.605  30.277  1.00  0.00    -0.354 N 
ATOM     38  C   UNL A   1      40.068  27.078  27.731  1.00  0.00     0.074 A 
ATOM     39  C   UNL A   1      39.220  25.986  28.131  1.00  0.00     0.031 C 
ATOM     40  C   UNL A   1      44.700  23.952  31.163  1.00  0.00     0.029 A 
ATOM     41  C   UNL A   1      44.259  25.312  31.401  1.00  0.00     0.049 A 
ATOM     42  H   UNL A   1      43.113  26.499  30.114  1.00  0.00     0.167 HD
ATOM     43  C   UNL A   1      39.871  28.424  27.754  1.00  0.00     0.037 A 
ATOM     44  C   UNL A   1      44.485  26.136  32.456  1.00  0.00     0.037 A 
ATOM     45  C   UNL A   1      41.054  29.128  27.320  1.00  0.00     0.049 A 
ATOM     46  C   UNL A   1      44.178  27.516  32.000  1.00  0.00     0.074 A 
ATOM     47  C   UNL A   1      41.807  29.134  26.161  1.00  0.00     0.029 A 
ATOM     48  N   UNL A   1      41.864  29.661  28.294  1.00  0.00    -0.354 N 
ATOM     49  N   UNL A   1      44.876  28.150  31.096  1.00  0.00    -0.248 NA
ATOM     50  C   UNL A   1      42.812  27.987  32.178  1.00  0.00     0.031 C 
ATOM     51  C   UNL A   1      43.160  29.200  26.604  1.00  0.00     0.029 A 
ATOM     52  C   UNL A   1      43.157  29.314  27.996  1.00  0.00     0.049 A 
ATOM     53  H   UNL A   1      41.570  30.195  29.067  1.00  0.00     0.167 HD
ATOM     54  C   UNL A   1      43.933  28.794  30.306  1.00  0.00     0.074 A 
ATOM     55  C   UNL A   1      42.684  28.713  31.062  1.00  0.00     0.031 C 
ATOM     56  C   UNL A   1      44.177  29.065  28.989  1.00  0.00     0.037 A 
BRANCH  43  57
ATOM     57  C   UNL A   1      38.778  29.109  28.530  1.00  0.00     0.057 A 
ATOM     58  C   UNL A   1      38.654  28.842  29.904  1.00  0.00     0.134 A 
ATOM     59  C   UNL A   1      37.682  29.778  27.946  1.00  0.00     0.134 A 
ATOM     60  F   UNL A   1      39.625  28.200  30.571  1.00  0.00    -0.206 F 
ATOM     61  C   UNL A   1      37.493  29.146  30.623  1.00  0.00     0.040 A 
ATOM     62  C   UNL A   1      36.542  30.135  28.668  1.00  0.00     0.040 A 
ATOM     63  F   UNL A   1      37.605  30.030  26.635  1.00  0.00    -0.206 F 
ATOM     64  C   UNL A   1      36.429  29.788  30.003  1.00  0.00     0.006 A 
ENDBRANCH  43  57
BRANCH  44  65
ATOM     65  C   UNL A   1      44.608  25.779  33.889  1.00  0.00     0.057 A 
ATOM     66  C   UNL A   1      43.480  25.608  34.704  1.00  0.00     0.134 A 
ATOM     67  C   UNL A   1      45.826  25.321  34.422  1.00  0.00     0.134 A 
ATOM     68  F   UNL A   1      42.264  25.972  34.270  1.00  0.00    -0.206 F 
ATOM     69  C   UNL A   1      43.556  24.999  35.967  1.00  0.00     0.040 A 
ATOM     70  C   UNL A   1      45.917  24.714  35.680  1.00  0.00     0.040 A 
ATOM     71  F   UNL A   1      46.955  25.366  33.700  1.00  0.00    -0.206 F 
ATOM     72  C   UNL A   1      44.777  24.539  36.454  1.00  0.00     0.006 A 
ENDBRANCH  44  65
BRANCH  56  73
ATOM     73  C   UNL A   1      45.576  28.863  28.470  1.00  0.00     0.057 A 
ATOM     74  C   UNL A   1      46.033  27.682  27.865  1.00  0.00     0.134 A 
ATOM     75  C   UNL A   1      46.430  29.970  28.411  1.00  0.00     0.134 A 
ATOM     76  F   UNL A   1      45.256  26.596  27.788  1.00  0.00    -0.206 F 
ATOM     77  C   UNL A   1      47.288  27.601  27.252  1.00  0.00     0.040 A 
ATOM     78  C   UNL A   1      47.673  29.912  27.777  1.00  0.00     0.040 A 
ATOM     79  F   UNL A   1      46.040  31.148  28.922  1.00  0.00    -0.206 F 
ATOM     80  C   UNL A   1      48.109  28.723  27.198  1.00  0.00     0.006 A 
ENDBRANCH  56  73
ENDBRANCH  30  31
ENDBRANCH  22  25
ENDBRANCH  20  21
ENDBRANCH  19  20
ENDBRANCH   1  19
TORSDOF 13
ENDMDL
