MODEL 1
REMARK VINA RESULT:     -11.1      0.000      0.000
REMARK SMILES C[C@H]1C[NH+](CC[C@@H]2CCC[C@]2([NH3+])C(=O)NCCCNC(=O)c2ccc(-c3c4nc(c(-c5c(F)cccc5F)c5ccc([nH]5)c(-c5c(F)cccc5F)c5nc(c(-c6c(F)cccc6F)c6ccc3[nH]6)C=C5)C=C4)cc2)C[C@H](C)O1
REMARK SMILES IDX 16 1 15 2 13 3 14 4 11 6 7 7 8 8 9 9 10 10 6 11 5 12 4 13
REMARK SMILES IDX 1 14 2 15 3 16 79 17 77 18 76 19 78 21 12 22 17 26 18 27
REMARK SMILES IDX 19 28 20 29 21 31 22 32 23 33 75 34 24 35 74 36 25 37 26 38
REMARK SMILES IDX 27 39 68 40 28 41 73 42 67 43 69 44 29 45 72 46 66 47 65 48
REMARK SMILES IDX 30 50 56 51 39 52 55 53 40 54 43 55 54 56 70 57 41 58 42 59
REMARK SMILES IDX 53 61 71 62 44 63 31 64 32 65 37 66 33 67 34 68 36 69 38 70
REMARK SMILES IDX 35 71 57 72 58 73 63 74 59 75 60 76 62 77 64 78 61 79 45 80
REMARK SMILES IDX 46 81 51 82 47 83 48 84 50 85 52 86 49 87
REMARK H PARENT 15 5 4 20 12 23 12 24 12 25 19 30 69 49 43 60
REMARK Flexibility Score: inf
ROOT
ATOM      1  C   UNL A   1      32.431  29.135  24.970  1.00  0.00     0.118 C 
ENDROOT
BRANCH   1   2
ATOM      2  N   UNL A   1      31.325  28.106  24.979  1.00  0.00    -0.351 N 
ATOM      3  C   UNL A   1      31.256  26.879  25.613  1.00  0.00     0.281 C 
ATOM      4  O   UNL A   1      30.777  26.921  26.757  1.00  0.00    -0.268 OA
ATOM      5  H   UNL A   1      30.530  28.345  24.449  1.00  0.00     0.163 HD
BRANCH   3   6
ATOM      6  C   UNL A   1      31.548  25.426  24.938  1.00  0.00     0.177 C 
ATOM      7  C   UNL A   1      32.438  24.356  25.571  1.00  0.00     0.066 C 
ATOM      8  C   UNL A   1      33.842  24.981  25.441  1.00  0.00     0.011 C 
ATOM      9  C   UNL A   1      33.814  25.704  24.082  1.00  0.00     0.008 C 
ATOM     10  C   UNL A   1      32.359  25.688  23.641  1.00  0.00     0.079 C 
BRANCH   7  11
ATOM     11  C   UNL A   1      32.085  23.610  26.871  1.00  0.00     0.072 C 
BRANCH  11  12
ATOM     12  C   UNL A   1      33.019  22.574  27.512  1.00  0.00     0.262 C 
BRANCH  12  13
ATOM     13  N   UNL A   1      33.874  21.585  26.861  1.00  0.00    -0.331 N 
ATOM     14  C   UNL A   1      33.233  18.900  24.207  1.00  0.00     0.045 C 
ATOM     15  C   UNL A   1      33.765  20.226  24.732  1.00  0.00     0.170 C 
ATOM     16  C   UNL A   1      33.243  20.468  26.170  1.00  0.00     0.294 C 
ATOM     17  O   UNL A   1      35.191  20.112  24.674  1.00  0.00    -0.364 OA
ATOM     18  C   UNL A   1      35.861  21.263  25.166  1.00  0.00     0.170 C 
ATOM     19  C   UNL A   1      35.271  21.766  26.509  1.00  0.00     0.294 C 
ATOM     20  H   UNL A   1      34.078  21.455  27.852  1.00  0.00     0.348 HD
ATOM     21  C   UNL A   1      36.024  22.326  24.075  1.00  0.00     0.045 C 
ENDBRANCH  12  13
ENDBRANCH  11  12
ENDBRANCH   7  11
BRANCH   6  22
ATOM     22  N   UNL A   1      30.339  24.799  24.376  1.00  0.00    -0.345 N 
ATOM     23  H   UNL A   1      30.038  25.318  23.551  1.00  0.00     0.345 HD
ATOM     24  H   UNL A   1      29.596  24.808  25.074  1.00  0.00     0.345 HD
ATOM     25  H   UNL A   1      30.547  23.836  24.114  1.00  0.00     0.345 HD
ENDBRANCH   6  22
ENDBRANCH   3   6
ENDBRANCH   1   2
BRANCH   1  26
ATOM     26  C   UNL A   1      33.663  28.697  25.793  1.00  0.00     0.042 C 
BRANCH  26  27
ATOM     27  C   UNL A   1      33.572  28.788  27.311  1.00  0.00     0.118 C 
BRANCH  27  28
ATOM     28  N   UNL A   1      33.637  30.133  27.876  1.00  0.00    -0.352 N 
ATOM     29  C   UNL A   1      34.708  30.803  28.441  1.00  0.00     0.251 C 
ATOM     30  H   UNL A   1      32.792  30.639  27.851  1.00  0.00     0.163 HD
ATOM     31  O   UNL A   1      34.538  31.935  28.897  1.00  0.00    -0.269 OA
BRANCH  29  32
ATOM     32  C   UNL A   1      36.050  30.169  28.557  1.00  0.00     0.039 A 
ATOM     33  C   UNL A   1      36.926  30.192  27.463  1.00  0.00     0.014 A 
ATOM     34  C   UNL A   1      36.468  29.564  29.741  1.00  0.00     0.014 A 
ATOM     35  C   UNL A   1      38.237  29.707  27.596  1.00  0.00     0.010 A 
ATOM     36  C   UNL A   1      37.800  29.199  29.910  1.00  0.00     0.010 A 
ATOM     37  C   UNL A   1      38.703  29.254  28.839  1.00  0.00    -0.014 A 
BRANCH  37  38
ATOM     38  C   UNL A   1      40.109  28.807  29.055  1.00  0.00     0.031 A 
ATOM     39  C   UNL A   1      41.117  29.760  29.649  1.00  0.00     0.074 A 
ATOM     40  C   UNL A   1      40.511  27.590  28.630  1.00  0.00     0.049 A 
ATOM     41  N   UNL A   1      42.411  29.625  29.787  1.00  0.00    -0.248 NA
ATOM     42  C   UNL A   1      40.604  31.063  30.106  1.00  0.00     0.031 C 
ATOM     43  C   UNL A   1      39.660  26.593  27.978  1.00  0.00     0.029 A 
ATOM     44  N   UNL A   1      41.747  26.991  28.668  1.00  0.00    -0.354 N 
ATOM     45  C   UNL A   1      42.866  30.831  30.310  1.00  0.00     0.074 A 
ATOM     46  C   UNL A   1      41.721  31.710  30.397  1.00  0.00     0.031 C 
ATOM     47  C   UNL A   1      40.387  25.498  27.708  1.00  0.00     0.029 A 
ATOM     48  C   UNL A   1      41.767  25.727  28.126  1.00  0.00     0.049 A 
ATOM     49  H   UNL A   1      42.543  27.426  29.049  1.00  0.00     0.167 HD
ATOM     50  C   UNL A   1      44.113  31.168  30.716  1.00  0.00     0.037 A 
ATOM     51  C   UNL A   1      42.782  24.854  27.978  1.00  0.00     0.037 A 
ATOM     52  C   UNL A   1      45.238  30.273  30.680  1.00  0.00     0.049 A 
ATOM     53  C   UNL A   1      44.154  25.238  28.464  1.00  0.00     0.074 A 
ATOM     54  C   UNL A   1      46.527  30.489  31.134  1.00  0.00     0.029 A 
ATOM     55  N   UNL A   1      45.202  28.984  30.169  1.00  0.00    -0.354 N 
ATOM     56  N   UNL A   1      44.552  26.360  29.016  1.00  0.00    -0.248 NA
ATOM     57  C   UNL A   1      45.218  24.234  28.313  1.00  0.00     0.031 C 
ATOM     58  C   UNL A   1      47.283  29.342  30.862  1.00  0.00     0.029 A 
ATOM     59  C   UNL A   1      46.451  28.397  30.284  1.00  0.00     0.049 A 
ATOM     60  H   UNL A   1      44.408  28.551  29.782  1.00  0.00     0.167 HD
ATOM     61  C   UNL A   1      45.900  26.185  29.304  1.00  0.00     0.074 A 
ATOM     62  C   UNL A   1      46.247  24.845  28.881  1.00  0.00     0.031 C 
ATOM     63  C   UNL A   1      46.773  27.055  29.868  1.00  0.00     0.037 A 
BRANCH  50  64
ATOM     64  C   UNL A   1      44.316  32.556  31.255  1.00  0.00     0.057 A 
ATOM     65  C   UNL A   1      44.156  32.852  32.616  1.00  0.00     0.134 A 
ATOM     66  C   UNL A   1      44.698  33.605  30.409  1.00  0.00     0.134 A 
ATOM     67  F   UNL A   1      43.780  31.897  33.480  1.00  0.00    -0.206 F 
ATOM     68  C   UNL A   1      44.331  34.147  33.109  1.00  0.00     0.040 A 
ATOM     69  C   UNL A   1      44.908  34.897  30.897  1.00  0.00     0.040 A 
ATOM     70  F   UNL A   1      44.878  33.394  29.097  1.00  0.00    -0.206 F 
ATOM     71  C   UNL A   1      44.715  35.173  32.249  1.00  0.00     0.006 A 
ENDBRANCH  50  64
BRANCH  51  72
ATOM     72  C   UNL A   1      42.541  23.517  27.374  1.00  0.00     0.057 A 
ATOM     73  C   UNL A   1      42.204  22.416  28.170  1.00  0.00     0.134 A 
ATOM     74  C   UNL A   1      42.651  23.302  25.994  1.00  0.00     0.134 A 
ATOM     75  F   UNL A   1      42.102  22.552  29.501  1.00  0.00    -0.206 F 
ATOM     76  C   UNL A   1      42.008  21.146  27.623  1.00  0.00     0.040 A 
ATOM     77  C   UNL A   1      42.431  22.044  25.430  1.00  0.00     0.040 A 
ATOM     78  F   UNL A   1      42.962  24.316  25.173  1.00  0.00    -0.206 F 
ATOM     79  C   UNL A   1      42.117  20.958  26.247  1.00  0.00     0.006 A 
ENDBRANCH  51  72
BRANCH  63  80
ATOM     80  C   UNL A   1      48.175  26.575  30.094  1.00  0.00     0.057 A 
ATOM     81  C   UNL A   1      48.550  25.911  31.269  1.00  0.00     0.134 A 
ATOM     82  C   UNL A   1      49.152  26.738  29.103  1.00  0.00     0.134 A 
ATOM     83  F   UNL A   1      47.664  25.732  32.262  1.00  0.00    -0.206 F 
ATOM     84  C   UNL A   1      49.852  25.444  31.460  1.00  0.00     0.040 A 
ATOM     85  C   UNL A   1      50.449  26.251  29.270  1.00  0.00     0.040 A 
ATOM     86  F   UNL A   1      48.856  27.356  27.950  1.00  0.00    -0.206 F 
ATOM     87  C   UNL A   1      50.803  25.608  30.454  1.00  0.00     0.006 A 
ENDBRANCH  63  80
ENDBRANCH  37  38
ENDBRANCH  29  32
ENDBRANCH  27  28
ENDBRANCH  26  27
ENDBRANCH   1  26
TORSDOF 14
ENDMDL
MODEL 2
REMARK VINA RESULT:     -11.0      1.838      7.606
REMARK SMILES C[C@H]1C[NH+](CC[C@@H]2CCC[C@]2([NH3+])C(=O)NCCCNC(=O)c2ccc(-c3c4nc(c(-c5c(F)cccc5F)c5ccc([nH]5)c(-c5c(F)cccc5F)c5nc(c(-c6c(F)cccc6F)c6ccc3[nH]6)C=C5)C=C4)cc2)C[C@H](C)O1
REMARK SMILES IDX 16 1 15 2 13 3 14 4 11 6 7 7 8 8 9 9 10 10 6 11 5 12 4 13
REMARK SMILES IDX 1 14 2 15 3 16 79 17 77 18 76 19 78 21 12 22 17 26 18 27
REMARK SMILES IDX 19 28 20 29 21 31 22 32 23 33 75 34 24 35 74 36 25 37 26 38
REMARK SMILES IDX 27 39 68 40 28 41 73 42 67 43 69 44 29 45 72 46 66 47 65 48
REMARK SMILES IDX 30 50 56 51 39 52 55 53 40 54 43 55 54 56 70 57 41 58 42 59
REMARK SMILES IDX 53 61 71 62 44 63 31 64 32 65 37 66 33 67 34 68 36 69 38 70
REMARK SMILES IDX 35 71 57 72 58 73 63 74 59 75 60 76 62 77 64 78 61 79 45 80
REMARK SMILES IDX 46 81 51 82 47 83 48 84 50 85 52 86 49 87
REMARK H PARENT 15 5 4 20 12 23 12 24 12 25 19 30 69 49 43 60
REMARK Flexibility Score: inf
ROOT
ATOM      1  C   UNL A   1      36.360  19.545  24.861  1.00  0.00     0.118 C 
ENDROOT
BRANCH   1   2
ATOM      2  N   UNL A   1      35.042  20.059  25.389  1.00  0.00    -0.351 N 
ATOM      3  C   UNL A   1      34.456  21.305  25.260  1.00  0.00     0.281 C 
ATOM      4  O   UNL A   1      33.727  21.426  24.264  1.00  0.00    -0.268 OA
ATOM      5  H   UNL A   1      34.519  19.406  25.908  1.00  0.00     0.163 HD
BRANCH   3   6
ATOM      6  C   UNL A   1      34.481  22.502  26.364  1.00  0.00     0.177 C 
ATOM      7  C   UNL A   1      33.521  23.693  26.351  1.00  0.00     0.066 C 
ATOM      8  C   UNL A   1      33.997  24.482  25.114  1.00  0.00     0.011 C 
ATOM      9  C   UNL A   1      35.528  24.323  25.125  1.00  0.00     0.008 C 
ATOM     10  C   UNL A   1      35.820  23.261  26.174  1.00  0.00     0.079 C 
BRANCH   7  11
ATOM     11  C   UNL A   1      32.007  23.574  26.608  1.00  0.00     0.072 C 
BRANCH  11  12
ATOM     12  C   UNL A   1      30.955  24.103  25.623  1.00  0.00     0.262 C 
BRANCH  12  13
ATOM     13  N   UNL A   1      30.520  25.478  25.399  1.00  0.00    -0.331 N 
ATOM     14  C   UNL A   1      32.013  28.886  26.303  1.00  0.00     0.045 C 
ATOM     15  C   UNL A   1      31.639  27.745  25.368  1.00  0.00     0.170 C 
ATOM     16  C   UNL A   1      31.127  26.538  26.193  1.00  0.00     0.294 C 
ATOM     17  O   UNL A   1      30.639  28.281  24.496  1.00  0.00    -0.364 OA
ATOM     18  C   UNL A   1      30.143  27.329  23.566  1.00  0.00     0.170 C 
ATOM     19  C   UNL A   1      29.810  25.968  24.230  1.00  0.00     0.294 C 
ATOM     20  H   UNL A   1      29.690  25.030  25.790  1.00  0.00     0.348 HD
ATOM     21  C   UNL A   1      31.023  27.257  22.314  1.00  0.00     0.045 C 
ENDBRANCH  12  13
ENDBRANCH  11  12
ENDBRANCH   7  11
BRANCH   6  22
ATOM     22  N   UNL A   1      34.644  22.010  27.743  1.00  0.00    -0.345 N 
ATOM     23  H   UNL A   1      34.574  22.793  28.394  1.00  0.00     0.345 HD
ATOM     24  H   UNL A   1      35.558  21.568  27.840  1.00  0.00     0.345 HD
ATOM     25  H   UNL A   1      33.913  21.330  27.950  1.00  0.00     0.345 HD
ENDBRANCH   6  22
ENDBRANCH   3   6
ENDBRANCH   1   2
BRANCH   1  26
ATOM     26  C   UNL A   1      37.411  20.664  24.682  1.00  0.00     0.042 C 
BRANCH  26  27
ATOM     27  C   UNL A   1      38.534  20.754  25.706  1.00  0.00     0.118 C 
BRANCH  27  28
ATOM     28  N   UNL A   1      39.566  19.723  25.616  1.00  0.00    -0.352 N 
ATOM     29  C   UNL A   1      40.899  19.774  25.985  1.00  0.00     0.251 C 
ATOM     30  H   UNL A   1      39.268  18.864  25.238  1.00  0.00     0.163 HD
ATOM     31  O   UNL A   1      41.616  18.792  25.789  1.00  0.00    -0.269 OA
BRANCH  29  32
ATOM     32  C   UNL A   1      41.500  21.006  26.567  1.00  0.00     0.039 A 
ATOM     33  C   UNL A   1      41.979  22.013  25.717  1.00  0.00     0.014 A 
ATOM     34  C   UNL A   1      41.583  21.193  27.946  1.00  0.00     0.014 A 
ATOM     35  C   UNL A   1      42.436  23.229  26.249  1.00  0.00     0.010 A 
ATOM     36  C   UNL A   1      41.917  22.440  28.465  1.00  0.00     0.010 A 
ATOM     37  C   UNL A   1      42.358  23.474  27.629  1.00  0.00    -0.014 A 
BRANCH  37  38
ATOM     38  C   UNL A   1      42.752  24.777  28.236  1.00  0.00     0.031 A 
ATOM     39  C   UNL A   1      41.709  25.844  28.465  1.00  0.00     0.074 A 
ATOM     40  C   UNL A   1      44.050  25.049  28.490  1.00  0.00     0.049 A 
ATOM     41  N   UNL A   1      41.858  27.088  28.842  1.00  0.00    -0.248 NA
ATOM     42  C   UNL A   1      40.312  25.473  28.182  1.00  0.00     0.031 C 
ATOM     43  C   UNL A   1      45.171  24.136  28.255  1.00  0.00     0.029 A 
ATOM     44  N   UNL A   1      44.648  26.181  28.987  1.00  0.00    -0.354 N 
ATOM     45  C   UNL A   1      40.587  27.650  28.808  1.00  0.00     0.074 A 
ATOM     46  C   UNL A   1      39.690  26.634  28.305  1.00  0.00     0.031 C 
ATOM     47  C   UNL A   1      46.312  24.729  28.636  1.00  0.00     0.029 A 
ATOM     48  C   UNL A   1      46.015  26.080  29.103  1.00  0.00     0.049 A 
ATOM     49  H   UNL A   1      44.145  26.989  29.238  1.00  0.00     0.167 HD
ATOM     50  C   UNL A   1      40.191  28.886  29.195  1.00  0.00     0.037 A 
ATOM     51  C   UNL A   1      46.925  26.976  29.531  1.00  0.00     0.037 A 
ATOM     52  C   UNL A   1      41.075  29.877  29.748  1.00  0.00     0.049 A 
ATOM     53  C   UNL A   1      46.460  28.334  29.984  1.00  0.00     0.074 A 
ATOM     54  C   UNL A   1      40.766  31.133  30.238  1.00  0.00     0.029 A 
ATOM     55  N   UNL A   1      42.445  29.715  29.893  1.00  0.00    -0.354 N 
ATOM     56  N   UNL A   1      45.244  28.826  30.006  1.00  0.00    -0.248 NA
ATOM     57  C   UNL A   1      47.490  29.259  30.477  1.00  0.00     0.031 C 
ATOM     58  C   UNL A   1      41.955  31.747  30.646  1.00  0.00     0.029 A 
ATOM     59  C   UNL A   1      42.997  30.853  30.454  1.00  0.00     0.049 A 
ATOM     60  H   UNL A   1      42.950  28.910  29.636  1.00  0.00     0.167 HD
ATOM     61  C   UNL A   1      45.360  30.103  30.541  1.00  0.00     0.074 A 
ATOM     62  C   UNL A   1      46.761  30.302  30.846  1.00  0.00     0.031 C 
ATOM     63  C   UNL A   1      44.394  31.028  30.761  1.00  0.00     0.037 A 
BRANCH  50  64
ATOM     64  C   UNL A   1      38.733  29.225  29.052  1.00  0.00     0.057 A 
ATOM     65  C   UNL A   1      38.178  29.598  27.820  1.00  0.00     0.134 A 
ATOM     66  C   UNL A   1      37.869  29.156  30.153  1.00  0.00     0.134 A 
ATOM     67  F   UNL A   1      38.950  29.695  26.727  1.00  0.00    -0.206 F 
ATOM     68  C   UNL A   1      36.826  29.926  27.696  1.00  0.00     0.040 A 
ATOM     69  C   UNL A   1      36.509  29.451  30.034  1.00  0.00     0.040 A 
ATOM     70  F   UNL A   1      38.330  28.799  31.361  1.00  0.00    -0.206 F 
ATOM     71  C   UNL A   1      35.986  29.847  28.804  1.00  0.00     0.006 A 
ENDBRANCH  50  64
BRANCH  51  72
ATOM     72  C   UNL A   1      48.367  26.613  29.587  1.00  0.00     0.057 A 
ATOM     73  C   UNL A   1      49.233  26.936  28.535  1.00  0.00     0.134 A 
ATOM     74  C   UNL A   1      48.912  25.927  30.679  1.00  0.00     0.134 A 
ATOM     75  F   UNL A   1      48.768  27.576  27.452  1.00  0.00    -0.206 F 
ATOM     76  C   UNL A   1      50.581  26.573  28.556  1.00  0.00     0.040 A 
ATOM     77  C   UNL A   1      50.264  25.581  30.726  1.00  0.00     0.040 A 
ATOM     78  F   UNL A   1      48.139  25.594  31.724  1.00  0.00    -0.206 F 
ATOM     79  C   UNL A   1      51.101  25.897  29.657  1.00  0.00     0.006 A 
ENDBRANCH  51  72
BRANCH  63  80
ATOM     80  C   UNL A   1      44.811  32.322  31.393  1.00  0.00     0.057 A 
ATOM     81  C   UNL A   1      45.186  33.433  30.627  1.00  0.00     0.134 A 
ATOM     82  C   UNL A   1      44.793  32.472  32.786  1.00  0.00     0.134 A 
ATOM     83  F   UNL A   1      45.236  33.351  29.288  1.00  0.00    -0.206 F 
ATOM     84  C   UNL A   1      45.548  34.642  31.225  1.00  0.00     0.040 A 
ATOM     85  C   UNL A   1      45.125  33.684  33.394  1.00  0.00     0.040 A 
ATOM     86  F   UNL A   1      44.432  31.450  33.577  1.00  0.00    -0.206 F 
ATOM     87  C   UNL A   1      45.510  34.771  32.612  1.00  0.00     0.006 A 
ENDBRANCH  63  80
ENDBRANCH  37  38
ENDBRANCH  29  32
ENDBRANCH  27  28
ENDBRANCH  26  27
ENDBRANCH   1  26
TORSDOF 14
ENDMDL
MODEL 3
REMARK VINA RESULT:     -11.0      1.873      7.804
REMARK SMILES C[C@H]1C[NH+](CC[C@@H]2CCC[C@]2([NH3+])C(=O)NCCCNC(=O)c2ccc(-c3c4nc(c(-c5c(F)cccc5F)c5ccc([nH]5)c(-c5c(F)cccc5F)c5nc(c(-c6c(F)cccc6F)c6ccc3[nH]6)C=C5)C=C4)cc2)C[C@H](C)O1
REMARK SMILES IDX 16 1 15 2 13 3 14 4 11 6 7 7 8 8 9 9 10 10 6 11 5 12 4 13
REMARK SMILES IDX 1 14 2 15 3 16 79 17 77 18 76 19 78 21 12 22 17 26 18 27
REMARK SMILES IDX 19 28 20 29 21 31 22 32 23 33 75 34 24 35 74 36 25 37 26 38
REMARK SMILES IDX 27 39 68 40 28 41 73 42 67 43 69 44 29 45 72 46 66 47 65 48
REMARK SMILES IDX 30 50 56 51 39 52 55 53 40 54 43 55 54 56 70 57 41 58 42 59
REMARK SMILES IDX 53 61 71 62 44 63 31 64 32 65 37 66 33 67 34 68 36 69 38 70
REMARK SMILES IDX 35 71 57 72 58 73 63 74 59 75 60 76 62 77 64 78 61 79 45 80
REMARK SMILES IDX 46 81 51 82 47 83 48 84 50 85 52 86 49 87
REMARK H PARENT 15 5 4 20 12 23 12 24 12 25 19 30 69 49 43 60
REMARK Flexibility Score: inf
ROOT
ATOM      1  C   UNL A   1      36.540  19.126  24.994  1.00  0.00     0.118 C 
ENDROOT
BRANCH   1   2
ATOM      2  N   UNL A   1      35.283  19.941  25.188  1.00  0.00    -0.351 N 
ATOM      3  C   UNL A   1      35.072  21.300  25.041  1.00  0.00     0.281 C 
ATOM      4  O   UNL A   1      34.724  21.643  23.900  1.00  0.00    -0.268 OA
ATOM      5  H   UNL A   1      34.491  19.425  25.462  1.00  0.00     0.163 HD
BRANCH   3   6
ATOM      6  C   UNL A   1      35.046  22.407  26.235  1.00  0.00     0.177 C 
ATOM      7  C   UNL A   1      34.386  23.781  26.108  1.00  0.00     0.066 C 
ATOM      8  C   UNL A   1      35.322  24.502  25.117  1.00  0.00     0.011 C 
ATOM      9  C   UNL A   1      36.730  24.006  25.490  1.00  0.00     0.008 C 
ATOM     10  C   UNL A   1      36.513  22.857  26.462  1.00  0.00     0.079 C 
BRANCH   7  11
ATOM     11  C   UNL A   1      32.866  23.991  25.967  1.00  0.00     0.072 C 
BRANCH  11  12
ATOM     12  C   UNL A   1      32.199  25.361  26.145  1.00  0.00     0.262 C 
BRANCH  12  13
ATOM     13  N   UNL A   1      32.514  26.625  25.487  1.00  0.00    -0.331 N 
ATOM     14  C   UNL A   1      30.457  29.074  23.382  1.00  0.00     0.045 C 
ATOM     15  C   UNL A   1      31.182  28.597  24.631  1.00  0.00     0.170 C 
ATOM     16  C   UNL A   1      31.608  27.118  24.457  1.00  0.00     0.294 C 
ATOM     17  O   UNL A   1      32.299  29.479  24.781  1.00  0.00    -0.364 OA
ATOM     18  C   UNL A   1      33.119  29.154  25.894  1.00  0.00     0.170 C 
ATOM     19  C   UNL A   1      33.432  27.638  25.980  1.00  0.00     0.294 C 
ATOM     20  H   UNL A   1      33.265  26.008  25.179  1.00  0.00     0.348 HD
ATOM     21  C   UNL A   1      32.595  29.796  27.183  1.00  0.00     0.045 C 
ENDBRANCH  12  13
ENDBRANCH  11  12
ENDBRANCH   7  11
BRANCH   6  22
ATOM     22  N   UNL A   1      34.735  21.826  27.552  1.00  0.00    -0.345 N 
ATOM     23  H   UNL A   1      33.743  21.593  27.596  1.00  0.00     0.345 HD
ATOM     24  H   UNL A   1      34.959  22.501  28.283  1.00  0.00     0.345 HD
ATOM     25  H   UNL A   1      35.289  20.981  27.689  1.00  0.00     0.345 HD
ENDBRANCH   6  22
ENDBRANCH   3   6
ENDBRANCH   1   2
BRANCH   1  26
ATOM     26  C   UNL A   1      37.771  19.995  24.651  1.00  0.00     0.042 C 
BRANCH  26  27
ATOM     27  C   UNL A   1      38.827  20.188  25.731  1.00  0.00     0.118 C 
BRANCH  27  28
ATOM     28  N   UNL A   1      39.950  19.255  25.701  1.00  0.00    -0.352 N 
ATOM     29  C   UNL A   1      41.271  19.452  26.066  1.00  0.00     0.251 C 
ATOM     30  H   UNL A   1      39.736  18.352  25.373  1.00  0.00     0.163 HD
ATOM     31  O   UNL A   1      42.078  18.531  25.927  1.00  0.00    -0.269 OA
BRANCH  29  32
ATOM     32  C   UNL A   1      41.752  20.766  26.575  1.00  0.00     0.039 A 
ATOM     33  C   UNL A   1      42.253  21.718  25.676  1.00  0.00     0.014 A 
ATOM     34  C   UNL A   1      41.699  21.083  27.931  1.00  0.00     0.014 A 
ATOM     35  C   UNL A   1      42.595  23.003  26.125  1.00  0.00     0.010 A 
ATOM     36  C   UNL A   1      41.919  22.390  28.355  1.00  0.00     0.010 A 
ATOM     37  C   UNL A   1      42.379  23.368  27.463  1.00  0.00    -0.014 A 
BRANCH  37  38
ATOM     38  C   UNL A   1      42.648  24.744  27.972  1.00  0.00     0.031 A 
ATOM     39  C   UNL A   1      44.043  25.124  28.406  1.00  0.00     0.074 A 
ATOM     40  C   UNL A   1      41.635  25.619  28.142  1.00  0.00     0.049 A 
ATOM     41  N   UNL A   1      44.461  26.208  29.008  1.00  0.00    -0.248 NA
ATOM     42  C   UNL A   1      45.101  24.126  28.176  1.00  0.00     0.031 C 
ATOM     43  C   UNL A   1      40.228  25.362  27.828  1.00  0.00     0.029 A 
ATOM     44  N   UNL A   1      41.630  26.900  28.639  1.00  0.00    -0.354 N 
ATOM     45  C   UNL A   1      45.815  26.006  29.256  1.00  0.00     0.074 A 
ATOM     46  C   UNL A   1      46.131  24.669  28.805  1.00  0.00     0.031 C 
ATOM     47  C   UNL A   1      39.504  26.458  28.107  1.00  0.00     0.029 A 
ATOM     48  C   UNL A   1      40.385  27.482  28.661  1.00  0.00     0.049 A 
ATOM     49  H   UNL A   1      42.444  27.359  28.949  1.00  0.00     0.167 HD
ATOM     50  C   UNL A   1      46.724  26.865  29.776  1.00  0.00     0.037 A 
ATOM     51  C   UNL A   1      39.995  28.700  29.085  1.00  0.00     0.037 A 
ATOM     52  C   UNL A   1      46.419  28.214  30.172  1.00  0.00     0.049 A 
ATOM     53  C   UNL A   1      41.026  29.649  29.633  1.00  0.00     0.074 A 
ATOM     54  C   UNL A   1      47.279  29.189  30.643  1.00  0.00     0.029 A 
ATOM     55  N   UNL A   1      45.153  28.778  30.132  1.00  0.00    -0.354 N 
ATOM     56  N   UNL A   1      42.315  29.464  29.799  1.00  0.00    -0.248 NA
ATOM     57  C   UNL A   1      40.553  30.979  30.045  1.00  0.00     0.031 C 
ATOM     58  C   UNL A   1      46.526  30.335  30.924  1.00  0.00     0.029 A 
ATOM     59  C   UNL A   1      45.206  30.086  30.582  1.00  0.00     0.049 A 
ATOM     60  H   UNL A   1      44.338  28.318  29.828  1.00  0.00     0.167 HD
ATOM     61  C   UNL A   1      42.808  30.660  30.306  1.00  0.00     0.074 A 
ATOM     62  C   UNL A   1      41.685  31.568  30.404  1.00  0.00     0.031 C 
ATOM     63  C   UNL A   1      44.077  30.979  30.660  1.00  0.00     0.037 A 
BRANCH  50  64
ATOM     64  C   UNL A   1      48.137  26.375  29.925  1.00  0.00     0.057 A 
ATOM     65  C   UNL A   1      48.583  25.746  31.096  1.00  0.00     0.134 A 
ATOM     66  C   UNL A   1      49.057  26.511  28.878  1.00  0.00     0.134 A 
ATOM     67  F   UNL A   1      47.757  25.593  32.142  1.00  0.00    -0.206 F 
ATOM     68  C   UNL A   1      49.901  25.306  31.234  1.00  0.00     0.040 A 
ATOM     69  C   UNL A   1      50.369  26.046  28.993  1.00  0.00     0.040 A 
ATOM     70  F   UNL A   1      48.698  27.095  27.724  1.00  0.00    -0.206 F 
ATOM     71  C   UNL A   1      50.797  25.450  30.177  1.00  0.00     0.006 A 
ENDBRANCH  50  64
BRANCH  51  72
ATOM     72  C   UNL A   1      38.569  29.110  28.980  1.00  0.00     0.057 A 
ATOM     73  C   UNL A   1      38.046  29.599  27.777  1.00  0.00     0.134 A 
ATOM     74  C   UNL A   1      37.700  29.038  30.076  1.00  0.00     0.134 A 
ATOM     75  F   UNL A   1      38.832  29.710  26.696  1.00  0.00    -0.206 F 
ATOM     76  C   UNL A   1      36.719  30.021  27.671  1.00  0.00     0.040 A 
ATOM     77  C   UNL A   1      36.364  29.432  29.977  1.00  0.00     0.040 A 
ATOM     78  F   UNL A   1      38.134  28.572  31.256  1.00  0.00    -0.206 F 
ATOM     79  C   UNL A   1      35.872  29.933  28.773  1.00  0.00     0.006 A 
ENDBRANCH  51  72
BRANCH  63  80
ATOM     80  C   UNL A   1      44.326  32.375  31.148  1.00  0.00     0.057 A 
ATOM     81  C   UNL A   1      44.291  32.700  32.510  1.00  0.00     0.134 A 
ATOM     82  C   UNL A   1      44.651  33.396  30.246  1.00  0.00     0.134 A 
ATOM     83  F   UNL A   1      43.975  31.769  33.424  1.00  0.00    -0.206 F 
ATOM     84  C   UNL A   1      44.550  33.997  32.956  1.00  0.00     0.040 A 
ATOM     85  C   UNL A   1      44.939  34.690  30.682  1.00  0.00     0.040 A 
ATOM     86  F   UNL A   1      44.712  33.149  28.929  1.00  0.00    -0.206 F 
ATOM     87  C   UNL A   1      44.882  34.994  32.041  1.00  0.00     0.006 A 
ENDBRANCH  63  80
ENDBRANCH  37  38
ENDBRANCH  29  32
ENDBRANCH  27  28
ENDBRANCH  26  27
ENDBRANCH   1  26
TORSDOF 14
ENDMDL
