MODEL 1
REMARK VINA RESULT:     -12.4      0.000      0.000
REMARK SMILES Cc1cc(F)cc(N[C@H](C(=O)NCCCNC(=O)c2ccc(-c3c4nc(c(-c5c(F)cccc5F)c5ccc([nH]5)c(-c5c(F)cccc5F)c5nc(c(-c6c(F)cccc6F)c6ccc3[nH]6)C=C5)C=C4)cc2)c2cc(C)cc(C)c2)c1
REMARK SMILES IDX 14 1 13 2 12 3 10 4 11 5 9 7 8 8 7 10 1 11 2 12 3 13 81 14
REMARK SMILES IDX 4 15 5 16 6 17 73 18 74 19 80 20 75 21 78 22 76 23 77 24
REMARK SMILES IDX 79 25 15 26 16 27 17 28 18 30 19 31 20 32 72 33 21 34 71 35
REMARK SMILES IDX 22 36 23 37 24 38 65 39 25 40 70 41 64 42 66 43 26 44 69 45
REMARK SMILES IDX 63 46 62 47 27 49 53 50 36 51 52 52 37 53 40 54 51 55 67 56
REMARK SMILES IDX 38 57 39 58 50 60 68 61 41 62 28 63 29 64 34 65 30 66 31 67
REMARK SMILES IDX 33 68 35 69 32 70 54 71 55 72 60 73 56 74 57 75 59 76 61 77
REMARK SMILES IDX 58 78 42 79 43 80 48 81 44 82 45 83 47 84 49 85 46 86
REMARK H PARENT 12 6 8 9 16 29 66 48 40 59
REMARK Flexibility Score: inf
ROOT
ATOM      1  C   UNL A   1      37.511  20.001  24.822  1.00  0.00     0.042 C 
ENDROOT
BRANCH   1   2
ATOM      2  C   UNL A   1      36.370  20.999  24.814  1.00  0.00     0.117 C 
BRANCH   2   3
ATOM      3  N   UNL A   1      35.817  21.248  26.128  1.00  0.00    -0.354 N 
ATOM      4  C   UNL A   1      34.631  21.823  26.484  1.00  0.00     0.247 C 
ATOM      5  O   UNL A   1      34.412  21.844  27.703  1.00  0.00    -0.272 OA
ATOM      6  H   UNL A   1      36.381  20.958  26.880  1.00  0.00     0.163 HD
BRANCH   4   7
ATOM      7  C   UNL A   1      33.682  22.523  25.467  1.00  0.00     0.200 C 
BRANCH   7   8
ATOM      8  N   UNL A   1      32.611  21.678  24.873  1.00  0.00    -0.370 N 
ATOM      9  H   UNL A   1      31.725  22.108  24.858  1.00  0.00     0.161 HD
BRANCH   8  10
ATOM     10  C   UNL A   1      32.627  20.404  24.338  1.00  0.00     0.038 A 
ATOM     11  C   UNL A   1      32.773  16.816  25.716  1.00  0.00     0.044 C 
ATOM     12  C   UNL A   1      32.682  17.969  24.764  1.00  0.00    -0.046 A 
ATOM     13  C   UNL A   1      32.538  17.715  23.402  1.00  0.00     0.042 A 
ATOM     14  C   UNL A   1      32.758  19.305  25.212  1.00  0.00     0.029 A 
ATOM     15  C   UNL A   1      32.410  18.779  22.535  1.00  0.00     0.125 A 
ATOM     16  F   UNL A   1      32.260  18.554  21.222  1.00  0.00    -0.207 F 
ATOM     17  C   UNL A   1      32.417  20.089  23.002  1.00  0.00     0.065 A 
ENDBRANCH   8  10
ENDBRANCH   7   8
BRANCH   7  18
ATOM     18  C   UNL A   1      33.118  23.860  25.935  1.00  0.00    -0.016 A 
ATOM     19  C   UNL A   1      31.763  23.986  26.266  1.00  0.00     0.009 A 
ATOM     20  C   UNL A   1      33.895  25.025  25.864  1.00  0.00     0.009 A 
ATOM     21  C   UNL A   1      31.128  25.225  26.208  1.00  0.00    -0.051 A 
ATOM     22  C   UNL A   1      33.302  26.286  26.006  1.00  0.00    -0.051 A 
ATOM     23  C   UNL A   1      29.640  25.274  26.017  1.00  0.00     0.044 C 
ATOM     24  C   UNL A   1      31.908  26.377  26.099  1.00  0.00     0.006 A 
ATOM     25  C   UNL A   1      34.127  27.535  25.935  1.00  0.00     0.044 C 
ENDBRANCH   7  18
ENDBRANCH   4   7
ENDBRANCH   2   3
ENDBRANCH   1   2
BRANCH   1  26
ATOM     26  C   UNL A   1      38.691  20.407  25.686  1.00  0.00     0.118 C 
BRANCH  26  27
ATOM     27  N   UNL A   1      39.749  19.407  25.733  1.00  0.00    -0.352 N 
ATOM     28  C   UNL A   1      41.077  19.537  26.065  1.00  0.00     0.251 C 
ATOM     29  H   UNL A   1      39.470  18.495  25.488  1.00  0.00     0.163 HD
ATOM     30  O   UNL A   1      41.850  18.598  25.893  1.00  0.00    -0.269 OA
BRANCH  28  31
ATOM     31  C   UNL A   1      41.587  20.821  26.590  1.00  0.00     0.039 A 
ATOM     32  C   UNL A   1      42.100  21.765  25.698  1.00  0.00     0.014 A 
ATOM     33  C   UNL A   1      41.535  21.107  27.954  1.00  0.00     0.014 A 
ATOM     34  C   UNL A   1      42.471  23.028  26.167  1.00  0.00     0.010 A 
ATOM     35  C   UNL A   1      41.784  22.400  28.399  1.00  0.00     0.010 A 
ATOM     36  C   UNL A   1      42.267  23.373  27.512  1.00  0.00    -0.014 A 
BRANCH  36  37
ATOM     37  C   UNL A   1      42.564  24.736  28.024  1.00  0.00     0.031 A 
ATOM     38  C   UNL A   1      43.970  25.094  28.430  1.00  0.00     0.074 A 
ATOM     39  C   UNL A   1      41.562  25.623  28.199  1.00  0.00     0.049 A 
ATOM     40  N   UNL A   1      44.417  26.192  28.984  1.00  0.00    -0.248 NA
ATOM     41  C   UNL A   1      45.006  24.068  28.219  1.00  0.00     0.031 C 
ATOM     42  C   UNL A   1      40.150  25.381  27.896  1.00  0.00     0.029 A 
ATOM     43  N   UNL A   1      41.579  26.907  28.683  1.00  0.00    -0.354 N 
ATOM     44  C   UNL A   1      45.771  25.977  29.212  1.00  0.00     0.074 A 
ATOM     45  C   UNL A   1      46.064  24.626  28.788  1.00  0.00     0.031 C 
ATOM     46  C   UNL A   1      39.443  26.490  28.167  1.00  0.00     0.029 A 
ATOM     47  C   UNL A   1      40.341  27.505  28.709  1.00  0.00     0.049 A 
ATOM     48  H   UNL A   1      42.401  27.358  28.984  1.00  0.00     0.167 HD
ATOM     49  C   UNL A   1      46.693  26.835  29.706  1.00  0.00     0.037 A 
ATOM     50  C   UNL A   1      39.972  28.729  29.131  1.00  0.00     0.037 A 
ATOM     51  C   UNL A   1      46.409  28.194  30.077  1.00  0.00     0.049 A 
ATOM     52  C   UNL A   1      41.022  29.663  29.673  1.00  0.00     0.074 A 
ATOM     53  C   UNL A   1      47.290  29.171  30.502  1.00  0.00     0.029 A 
ATOM     54  N   UNL A   1      45.147  28.767  30.068  1.00  0.00    -0.354 N 
ATOM     55  N   UNL A   1      42.313  29.473  29.799  1.00  0.00    -0.248 NA
ATOM     56  C   UNL A   1      40.562  30.981  30.129  1.00  0.00     0.031 C 
ATOM     57  C   UNL A   1      46.554  30.321  30.804  1.00  0.00     0.029 A 
ATOM     58  C   UNL A   1      45.223  30.077  30.510  1.00  0.00     0.049 A 
ATOM     59  H   UNL A   1      44.320  28.311  29.788  1.00  0.00     0.167 HD
ATOM     60  C   UNL A   1      42.822  30.661  30.310  1.00  0.00     0.074 A 
ATOM     61  C   UNL A   1      41.704  31.566  30.458  1.00  0.00     0.031 C 
ATOM     62  C   UNL A   1      44.102  30.973  30.629  1.00  0.00     0.037 A 
BRANCH  49  63
ATOM     63  C   UNL A   1      48.100  26.338  29.868  1.00  0.00     0.057 A 
ATOM     64  C   UNL A   1      49.054  26.460  28.848  1.00  0.00     0.134 A 
ATOM     65  C   UNL A   1      48.523  25.789  31.085  1.00  0.00     0.134 A 
ATOM     66  F   UNL A   1      48.712  26.966  27.654  1.00  0.00    -0.206 F 
ATOM     67  C   UNL A   1      50.372  26.036  29.027  1.00  0.00     0.040 A 
ATOM     68  C   UNL A   1      49.845  25.388  31.285  1.00  0.00     0.040 A 
ATOM     69  F   UNL A   1      47.663  25.647  32.104  1.00  0.00    -0.206 F 
ATOM     70  C   UNL A   1      50.773  25.509  30.252  1.00  0.00     0.006 A 
ENDBRANCH  49  63
BRANCH  50  71
ATOM     71  C   UNL A   1      38.553  29.165  29.046  1.00  0.00     0.057 A 
ATOM     72  C   UNL A   1      38.030  29.691  27.858  1.00  0.00     0.134 A 
ATOM     73  C   UNL A   1      37.699  29.114  30.155  1.00  0.00     0.134 A 
ATOM     74  F   UNL A   1      38.801  29.785  26.764  1.00  0.00    -0.206 F 
ATOM     75  C   UNL A   1      36.726  30.182  27.784  1.00  0.00     0.040 A 
ATOM     76  C   UNL A   1      36.383  29.575  30.087  1.00  0.00     0.040 A 
ATOM     77  F   UNL A   1      38.133  28.614  31.321  1.00  0.00    -0.206 F 
ATOM     78  C   UNL A   1      35.897  30.123  28.902  1.00  0.00     0.006 A 
ENDBRANCH  50  71
BRANCH  62  79
ATOM     79  C   UNL A   1      44.371  32.367  31.116  1.00  0.00     0.057 A 
ATOM     80  C   UNL A   1      44.642  33.422  30.236  1.00  0.00     0.134 A 
ATOM     81  C   UNL A   1      44.311  32.664  32.483  1.00  0.00     0.134 A 
ATOM     82  F   UNL A   1      44.725  33.201  28.915  1.00  0.00    -0.206 F 
ATOM     83  C   UNL A   1      44.871  34.717  30.701  1.00  0.00     0.040 A 
ATOM     84  C   UNL A   1      44.507  33.960  32.958  1.00  0.00     0.040 A 
ATOM     85  F   UNL A   1      44.044  31.701  33.379  1.00  0.00    -0.206 F 
ATOM     86  C   UNL A   1      44.796  34.990  32.066  1.00  0.00     0.006 A 
ENDBRANCH  62  79
ENDBRANCH  36  37
ENDBRANCH  28  31
ENDBRANCH  26  27
ENDBRANCH   1  26
TORSDOF 13
ENDMDL
MODEL 2
REMARK VINA RESULT:     -12.4      4.194      9.108
REMARK SMILES Cc1cc(F)cc(N[C@H](C(=O)NCCCNC(=O)c2ccc(-c3c4nc(c(-c5c(F)cccc5F)c5ccc([nH]5)c(-c5c(F)cccc5F)c5nc(c(-c6c(F)cccc6F)c6ccc3[nH]6)C=C5)C=C4)cc2)c2cc(C)cc(C)c2)c1
REMARK SMILES IDX 14 1 13 2 12 3 10 4 11 5 9 7 8 8 7 10 1 11 2 12 3 13 81 14
REMARK SMILES IDX 4 15 5 16 6 17 73 18 74 19 80 20 75 21 78 22 76 23 77 24
REMARK SMILES IDX 79 25 15 26 16 27 17 28 18 30 19 31 20 32 72 33 21 34 71 35
REMARK SMILES IDX 22 36 23 37 24 38 65 39 25 40 70 41 64 42 66 43 26 44 69 45
REMARK SMILES IDX 63 46 62 47 27 49 53 50 36 51 52 52 37 53 40 54 51 55 67 56
REMARK SMILES IDX 38 57 39 58 50 60 68 61 41 62 28 63 29 64 34 65 30 66 31 67
REMARK SMILES IDX 33 68 35 69 32 70 54 71 55 72 60 73 56 74 57 75 59 76 61 77
REMARK SMILES IDX 58 78 42 79 43 80 48 81 44 82 45 83 47 84 49 85 46 86
REMARK H PARENT 12 6 8 9 16 29 66 48 40 59
REMARK Flexibility Score: inf
ROOT
ATOM      1  C   UNL A   1      31.474  31.361  26.392  1.00  0.00     0.042 C 
ENDROOT
BRANCH   1   2
ATOM      2  C   UNL A   1      31.751  29.958  25.888  1.00  0.00     0.117 C 
BRANCH   2   3
ATOM      3  N   UNL A   1      32.761  29.910  24.853  1.00  0.00    -0.354 N 
ATOM      4  C   UNL A   1      33.006  28.951  23.912  1.00  0.00     0.247 C 
ATOM      5  O   UNL A   1      33.916  29.226  23.119  1.00  0.00    -0.272 OA
ATOM      6  H   UNL A   1      33.364  30.687  24.821  1.00  0.00     0.163 HD
BRANCH   4   7
ATOM      7  C   UNL A   1      32.304  27.561  23.907  1.00  0.00     0.200 C 
BRANCH   7   8
ATOM      8  N   UNL A   1      31.119  27.423  23.019  1.00  0.00    -0.370 N 
ATOM      9  H   UNL A   1      31.204  26.708  22.346  1.00  0.00     0.161 HD
BRANCH   8  10
ATOM     10  C   UNL A   1      29.921  28.109  22.960  1.00  0.00     0.038 A 
ATOM     11  C   UNL A   1      28.629  31.299  21.243  1.00  0.00     0.044 C 
ATOM     12  C   UNL A   1      28.670  30.037  22.048  1.00  0.00    -0.046 A 
ATOM     13  C   UNL A   1      27.495  29.568  22.633  1.00  0.00     0.042 A 
ATOM     14  C   UNL A   1      29.871  29.323  22.245  1.00  0.00     0.029 A 
ATOM     15  C   UNL A   1      27.529  28.382  23.336  1.00  0.00     0.125 A 
ATOM     16  F   UNL A   1      26.407  27.909  23.898  1.00  0.00    -0.207 F 
ATOM     17  C   UNL A   1      28.708  27.656  23.462  1.00  0.00     0.065 A 
ENDBRANCH   8  10
ENDBRANCH   7   8
BRANCH   7  18
ATOM     18  C   UNL A   1      33.243  26.370  23.745  1.00  0.00    -0.016 A 
ATOM     19  C   UNL A   1      33.170  25.555  22.608  1.00  0.00     0.009 A 
ATOM     20  C   UNL A   1      34.063  25.960  24.805  1.00  0.00     0.009 A 
ATOM     21  C   UNL A   1      33.625  24.238  22.646  1.00  0.00    -0.051 A 
ATOM     22  C   UNL A   1      34.698  24.712  24.772  1.00  0.00    -0.051 A 
ATOM     23  C   UNL A   1      33.063  23.244  21.671  1.00  0.00     0.044 C 
ATOM     24  C   UNL A   1      34.409  23.827  23.725  1.00  0.00     0.006 A 
ATOM     25  C   UNL A   1      35.578  24.268  25.901  1.00  0.00     0.044 C 
ENDBRANCH   7  18
ENDBRANCH   4   7
ENDBRANCH   2   3
ENDBRANCH   1   2
BRANCH   1  26
ATOM     26  C   UNL A   1      32.693  32.080  26.941  1.00  0.00     0.118 C 
BRANCH  26  27
ATOM     27  N   UNL A   1      32.409  33.430  27.408  1.00  0.00    -0.352 N 
ATOM     28  C   UNL A   1      33.090  34.218  28.306  1.00  0.00     0.251 C 
ATOM     29  H   UNL A   1      31.604  33.843  27.021  1.00  0.00     0.163 HD
ATOM     30  O   UNL A   1      32.602  35.278  28.691  1.00  0.00    -0.269 OA
BRANCH  28  31
ATOM     31  C   UNL A   1      34.391  33.770  28.846  1.00  0.00     0.039 A 
ATOM     32  C   UNL A   1      34.424  33.068  30.052  1.00  0.00     0.014 A 
ATOM     33  C   UNL A   1      35.576  34.018  28.152  1.00  0.00     0.014 A 
ATOM     34  C   UNL A   1      35.631  32.534  30.509  1.00  0.00     0.010 A 
ATOM     35  C   UNL A   1      36.750  33.384  28.541  1.00  0.00     0.010 A 
ATOM     36  C   UNL A   1      36.794  32.643  29.731  1.00  0.00    -0.014 A 
BRANCH  36  37
ATOM     37  C   UNL A   1      38.074  32.009  30.142  1.00  0.00     0.031 A 
ATOM     38  C   UNL A   1      39.000  32.734  31.083  1.00  0.00     0.074 A 
ATOM     39  C   UNL A   1      38.439  30.824  29.612  1.00  0.00     0.049 A 
ATOM     40  N   UNL A   1      40.198  32.396  31.489  1.00  0.00    -0.248 NA
ATOM     41  C   UNL A   1      38.535  34.029  31.610  1.00  0.00     0.031 C 
ATOM     42  C   UNL A   1      37.656  30.046  28.649  1.00  0.00     0.029 A 
ATOM     43  N   UNL A   1      39.569  30.068  29.803  1.00  0.00    -0.354 N 
ATOM     44  C   UNL A   1      40.636  33.444  32.289  1.00  0.00     0.074 A 
ATOM     45  C   UNL A   1      39.602  34.455  32.270  1.00  0.00     0.031 C 
ATOM     46  C   UNL A   1      38.312  28.910  28.362  1.00  0.00     0.029 A 
ATOM     47  C   UNL A   1      39.582  28.899  29.080  1.00  0.00     0.049 A 
ATOM     48  H   UNL A   1      40.302  30.339  30.402  1.00  0.00     0.167 HD
ATOM     49  C   UNL A   1      41.784  33.546  32.998  1.00  0.00     0.037 A 
ATOM     50  C   UNL A   1      40.517  27.934  28.999  1.00  0.00     0.037 A 
ATOM     51  C   UNL A   1      42.787  32.517  33.056  1.00  0.00     0.049 A 
ATOM     52  C   UNL A   1      41.784  28.074  29.800  1.00  0.00     0.074 A 
ATOM     53  C   UNL A   1      43.942  32.485  33.815  1.00  0.00     0.029 A 
ATOM     54  N   UNL A   1      42.751  31.339  32.326  1.00  0.00    -0.354 N 
ATOM     55  N   UNL A   1      42.143  29.031  30.621  1.00  0.00    -0.248 NA
ATOM     56  C   UNL A   1      42.774  26.997  29.665  1.00  0.00     0.031 C 
ATOM     57  C   UNL A   1      44.636  31.312  33.502  1.00  0.00     0.029 A 
ATOM     58  C   UNL A   1      43.882  30.587  32.594  1.00  0.00     0.049 A 
ATOM     59  H   UNL A   1      42.030  31.076  31.708  1.00  0.00     0.167 HD
ATOM     60  C   UNL A   1      43.379  28.652  31.129  1.00  0.00     0.074 A 
ATOM     61  C   UNL A   1      43.701  27.373  30.534  1.00  0.00     0.031 C 
ATOM     62  C   UNL A   1      44.176  29.304  32.009  1.00  0.00     0.037 A 
BRANCH  49  63
ATOM     63  C   UNL A   1      42.021  34.807  33.776  1.00  0.00     0.057 A 
ATOM     64  C   UNL A   1      41.580  34.959  35.098  1.00  0.00     0.134 A 
ATOM     65  C   UNL A   1      42.757  35.859  33.216  1.00  0.00     0.134 A 
ATOM     66  F   UNL A   1      40.860  33.995  35.689  1.00  0.00    -0.206 F 
ATOM     67  C   UNL A   1      41.847  36.120  35.827  1.00  0.00     0.040 A 
ATOM     68  C   UNL A   1      43.055  37.012  33.945  1.00  0.00     0.040 A 
ATOM     69  F   UNL A   1      43.213  35.777  31.957  1.00  0.00    -0.206 F 
ATOM     70  C   UNL A   1      42.596  37.145  35.254  1.00  0.00     0.006 A 
ENDBRANCH  49  63
BRANCH  50  71
ATOM     71  C   UNL A   1      40.298  26.736  28.146  1.00  0.00     0.057 A 
ATOM     72  C   UNL A   1      40.890  26.635  26.880  1.00  0.00     0.134 A 
ATOM     73  C   UNL A   1      39.457  25.690  28.547  1.00  0.00     0.134 A 
ATOM     74  F   UNL A   1      41.690  27.612  26.429  1.00  0.00    -0.206 F 
ATOM     75  C   UNL A   1      40.628  25.557  26.032  1.00  0.00     0.040 A 
ATOM     76  C   UNL A   1      39.210  24.592  27.720  1.00  0.00     0.040 A 
ATOM     77  F   UNL A   1      38.866  25.720  29.749  1.00  0.00    -0.206 F 
ATOM     78  C   UNL A   1      39.786  24.530  26.453  1.00  0.00     0.006 A 
ENDBRANCH  50  71
BRANCH  62  79
ATOM     79  C   UNL A   1      45.447  28.623  32.425  1.00  0.00     0.057 A 
ATOM     80  C   UNL A   1      46.659  28.839  31.758  1.00  0.00     0.134 A 
ATOM     81  C   UNL A   1      45.464  27.774  33.539  1.00  0.00     0.134 A 
ATOM     82  F   UNL A   1      46.708  29.631  30.677  1.00  0.00    -0.206 F 
ATOM     83  C   UNL A   1      47.837  28.214  32.168  1.00  0.00     0.040 A 
ATOM     84  C   UNL A   1      46.642  27.168  33.977  1.00  0.00     0.040 A 
ATOM     85  F   UNL A   1      44.339  27.533  34.231  1.00  0.00    -0.206 F 
ATOM     86  C   UNL A   1      47.831  27.382  33.286  1.00  0.00     0.006 A 
ENDBRANCH  62  79
ENDBRANCH  36  37
ENDBRANCH  28  31
ENDBRANCH  26  27
ENDBRANCH   1  26
TORSDOF 13
ENDMDL
MODEL 3
REMARK VINA RESULT:     -12.3      0.416      6.111
REMARK SMILES Cc1cc(F)cc(N[C@H](C(=O)NCCCNC(=O)c2ccc(-c3c4nc(c(-c5c(F)cccc5F)c5ccc([nH]5)c(-c5c(F)cccc5F)c5nc(c(-c6c(F)cccc6F)c6ccc3[nH]6)C=C5)C=C4)cc2)c2cc(C)cc(C)c2)c1
REMARK SMILES IDX 14 1 13 2 12 3 10 4 11 5 9 7 8 8 7 10 1 11 2 12 3 13 81 14
REMARK SMILES IDX 4 15 5 16 6 17 73 18 74 19 80 20 75 21 78 22 76 23 77 24
REMARK SMILES IDX 79 25 15 26 16 27 17 28 18 30 19 31 20 32 72 33 21 34 71 35
REMARK SMILES IDX 22 36 23 37 24 38 65 39 25 40 70 41 64 42 66 43 26 44 69 45
REMARK SMILES IDX 63 46 62 47 27 49 53 50 36 51 52 52 37 53 40 54 51 55 67 56
REMARK SMILES IDX 38 57 39 58 50 60 68 61 41 62 28 63 29 64 34 65 30 66 31 67
REMARK SMILES IDX 33 68 35 69 32 70 54 71 55 72 60 73 56 74 57 75 59 76 61 77
REMARK SMILES IDX 58 78 42 79 43 80 48 81 44 82 45 83 47 84 49 85 46 86
REMARK H PARENT 12 6 8 9 16 29 66 48 40 59
REMARK Flexibility Score: inf
ROOT
ATOM      1  C   UNL A   1      37.399  20.405  24.947  1.00  0.00     0.042 C 
ENDROOT
BRANCH   1   2
ATOM      2  C   UNL A   1      36.341  21.491  24.954  1.00  0.00     0.117 C 
BRANCH   2   3
ATOM      3  N   UNL A   1      35.785  21.742  26.266  1.00  0.00    -0.354 N 
ATOM      4  C   UNL A   1      34.565  22.244  26.619  1.00  0.00     0.247 C 
ATOM      5  O   UNL A   1      34.358  22.288  27.839  1.00  0.00    -0.272 OA
ATOM      6  H   UNL A   1      36.375  21.516  27.020  1.00  0.00     0.163 HD
BRANCH   4   7
ATOM      7  C   UNL A   1      33.560  22.845  25.592  1.00  0.00     0.200 C 
BRANCH   7   8
ATOM      8  N   UNL A   1      32.494  21.932  25.099  1.00  0.00    -0.370 N 
ATOM      9  H   UNL A   1      31.581  22.278  25.223  1.00  0.00     0.161 HD
BRANCH   8  10
ATOM     10  C   UNL A   1      32.546  20.688  24.499  1.00  0.00     0.038 A 
ATOM     11  C   UNL A   1      32.800  17.039  25.687  1.00  0.00     0.044 C 
ATOM     12  C   UNL A   1      32.673  18.237  24.797  1.00  0.00    -0.046 A 
ATOM     13  C   UNL A   1      32.534  18.049  23.423  1.00  0.00     0.042 A 
ATOM     14  C   UNL A   1      32.711  19.549  25.314  1.00  0.00     0.029 A 
ATOM     15  C   UNL A   1      32.373  19.153  22.613  1.00  0.00     0.125 A 
ATOM     16  F   UNL A   1      32.227  18.992  21.290  1.00  0.00    -0.207 F 
ATOM     17  C   UNL A   1      32.343  20.437  23.148  1.00  0.00     0.065 A 
ENDBRANCH   8  10
ENDBRANCH   7   8
BRANCH   7  18
ATOM     18  C   UNL A   1      32.973  24.196  25.987  1.00  0.00    -0.016 A 
ATOM     19  C   UNL A   1      31.594  24.344  26.185  1.00  0.00     0.009 A 
ATOM     20  C   UNL A   1      33.770  25.349  25.978  1.00  0.00     0.009 A 
ATOM     21  C   UNL A   1      30.986  25.591  26.051  1.00  0.00    -0.051 A 
ATOM     22  C   UNL A   1      33.185  26.620  26.047  1.00  0.00    -0.051 A 
ATOM     23  C   UNL A   1      29.524  25.656  25.717  1.00  0.00     0.044 C 
ATOM     24  C   UNL A   1      31.789  26.731  26.004  1.00  0.00     0.006 A 
ATOM     25  C   UNL A   1      34.031  27.856  26.040  1.00  0.00     0.044 C 
ENDBRANCH   7  18
ENDBRANCH   4   7
ENDBRANCH   2   3
ENDBRANCH   1   2
BRANCH   1  26
ATOM     26  C   UNL A   1      38.676  20.773  25.682  1.00  0.00     0.118 C 
BRANCH  26  27
ATOM     27  N   UNL A   1      39.673  19.711  25.679  1.00  0.00    -0.352 N 
ATOM     28  C   UNL A   1      41.008  19.750  26.005  1.00  0.00     0.251 C 
ATOM     29  H   UNL A   1      39.340  18.828  25.399  1.00  0.00     0.163 HD
ATOM     30  O   UNL A   1      41.725  18.776  25.788  1.00  0.00    -0.269 OA
BRANCH  28  31
ATOM     31  C   UNL A   1      41.596  20.980  26.577  1.00  0.00     0.039 A 
ATOM     32  C   UNL A   1      42.116  21.950  25.718  1.00  0.00     0.014 A 
ATOM     33  C   UNL A   1      41.610  21.190  27.956  1.00  0.00     0.014 A 
ATOM     34  C   UNL A   1      42.561  23.168  26.240  1.00  0.00     0.010 A 
ATOM     35  C   UNL A   1      41.935  22.444  28.460  1.00  0.00     0.010 A 
ATOM     36  C   UNL A   1      42.425  23.445  27.609  1.00  0.00    -0.014 A 
BRANCH  36  37
ATOM     37  C   UNL A   1      42.803  24.762  28.182  1.00  0.00     0.031 A 
ATOM     38  C   UNL A   1      41.747  25.814  28.404  1.00  0.00     0.074 A 
ATOM     39  C   UNL A   1      44.099  25.043  28.429  1.00  0.00     0.049 A 
ATOM     40  N   UNL A   1      41.883  27.052  28.805  1.00  0.00    -0.248 NA
ATOM     41  C   UNL A   1      40.355  25.435  28.101  1.00  0.00     0.031 C 
ATOM     42  C   UNL A   1      45.224  24.130  28.206  1.00  0.00     0.029 A 
ATOM     43  N   UNL A   1      44.692  26.182  28.913  1.00  0.00    -0.354 N 
ATOM     44  C   UNL A   1      40.608  27.603  28.772  1.00  0.00     0.074 A 
ATOM     45  C   UNL A   1      39.717  26.584  28.263  1.00  0.00     0.031 C 
ATOM     46  C   UNL A   1      46.362  24.732  28.585  1.00  0.00     0.029 A 
ATOM     47  C   UNL A   1      46.058  26.087  29.032  1.00  0.00     0.049 A 
ATOM     48  H   UNL A   1      44.185  26.991  29.154  1.00  0.00     0.167 HD
ATOM     49  C   UNL A   1      40.209  28.837  29.158  1.00  0.00     0.037 A 
ATOM     50  C   UNL A   1      46.963  26.996  29.446  1.00  0.00     0.037 A 
ATOM     51  C   UNL A   1      41.088  29.830  29.712  1.00  0.00     0.049 A 
ATOM     52  C   UNL A   1      46.488  28.360  29.869  1.00  0.00     0.074 A 
ATOM     53  C   UNL A   1      40.767  31.077  30.217  1.00  0.00     0.029 A 
ATOM     54  N   UNL A   1      42.461  29.686  29.836  1.00  0.00    -0.354 N 
ATOM     55  N   UNL A   1      45.267  28.834  29.916  1.00  0.00    -0.248 NA
ATOM     56  C   UNL A   1      47.519  29.314  30.300  1.00  0.00     0.031 C 
ATOM     57  C   UNL A   1      41.954  31.713  30.594  1.00  0.00     0.029 A 
ATOM     58  C   UNL A   1      43.006  30.837  30.381  1.00  0.00     0.049 A 
ATOM     59  H   UNL A   1      42.973  28.886  29.576  1.00  0.00     0.167 HD
ATOM     60  C   UNL A   1      45.380  30.124  30.419  1.00  0.00     0.074 A 
ATOM     61  C   UNL A   1      46.785  30.353  30.673  1.00  0.00     0.031 C 
ATOM     62  C   UNL A   1      44.406  31.038  30.648  1.00  0.00     0.037 A 
BRANCH  49  63
ATOM     63  C   UNL A   1      38.758  29.187  29.001  1.00  0.00     0.057 A 
ATOM     64  C   UNL A   1      38.214  29.569  27.767  1.00  0.00     0.134 A 
ATOM     65  C   UNL A   1      37.880  29.079  30.088  1.00  0.00     0.134 A 
ATOM     66  F   UNL A   1      39.001  29.704  26.690  1.00  0.00    -0.206 F 
ATOM     67  C   UNL A   1      36.853  29.848  27.624  1.00  0.00     0.040 A 
ATOM     68  C   UNL A   1      36.513  29.327  29.950  1.00  0.00     0.040 A 
ATOM     69  F   UNL A   1      38.333  28.714  31.296  1.00  0.00    -0.206 F 
ATOM     70  C   UNL A   1      35.997  29.716  28.715  1.00  0.00     0.006 A 
ENDBRANCH  49  63
BRANCH  50  71
ATOM     71  C   UNL A   1      48.409  26.653  29.502  1.00  0.00     0.057 A 
ATOM     72  C   UNL A   1      49.260  26.939  28.427  1.00  0.00     0.134 A 
ATOM     73  C   UNL A   1      48.966  25.990  30.603  1.00  0.00     0.134 A 
ATOM     74  F   UNL A   1      48.784  27.556  27.335  1.00  0.00    -0.206 F 
ATOM     75  C   UNL A   1      50.600  26.550  28.428  1.00  0.00     0.040 A 
ATOM     76  C   UNL A   1      50.312  25.621  30.629  1.00  0.00     0.040 A 
ATOM     77  F   UNL A   1      48.209  25.694  31.669  1.00  0.00    -0.206 F 
ATOM     78  C   UNL A   1      51.130  25.889  29.534  1.00  0.00     0.006 A 
ENDBRANCH  50  71
BRANCH  62  79
ATOM     79  C   UNL A   1      44.819  32.348  31.254  1.00  0.00     0.057 A 
ATOM     80  C   UNL A   1      45.153  33.458  30.468  1.00  0.00     0.134 A 
ATOM     81  C   UNL A   1      44.837  32.512  32.645  1.00  0.00     0.134 A 
ATOM     82  F   UNL A   1      45.168  33.364  29.130  1.00  0.00    -0.206 F 
ATOM     83  C   UNL A   1      45.517  34.676  31.044  1.00  0.00     0.040 A 
ATOM     84  C   UNL A   1      45.167  33.733  33.232  1.00  0.00     0.040 A 
ATOM     85  F   UNL A   1      44.515  31.492  33.456  1.00  0.00    -0.206 F 
ATOM     86  C   UNL A   1      45.516  34.817  32.432  1.00  0.00     0.006 A 
ENDBRANCH  62  79
ENDBRANCH  36  37
ENDBRANCH  28  31
ENDBRANCH  26  27
ENDBRANCH   1  26
TORSDOF 13
ENDMDL
