MODEL 1
REMARK VINA RESULT:     -13.2      0.000      0.000
REMARK SMILES O=C(NCCCNC(=O)c1ccccc1/N=C/c1coc2ccccc2c1=O)c1ccc(-c2c3nc(c(-c4c(F)cccc4F)c4ccc([nH]4)c(-c4c(F)cccc4F)c4nc(c(-c5c(F)cccc5F)c5ccc2[nH]5)C=C4)C=C3)cc1
REMARK SMILES IDX 5 1 4 2 3 3 1 4 2 5 29 7 30 8 82 9 31 10 81 11 32 12 33 13
REMARK SMILES IDX 34 14 75 15 35 16 80 17 74 18 76 19 36 20 79 21 73 22 72 23
REMARK SMILES IDX 37 25 63 26 46 27 62 28 47 29 50 30 61 31 77 32 48 33 49 34
REMARK SMILES IDX 60 36 78 37 51 38 38 39 39 40 44 41 40 42 41 43 43 44 45 45
REMARK SMILES IDX 42 46 64 47 65 48 70 49 66 50 67 51 69 52 71 53 68 54 52 55
REMARK SMILES IDX 53 56 58 57 54 58 55 59 57 60 59 61 56 62 6 63 7 64 8 65
REMARK SMILES IDX 9 67 10 68 11 69 15 70 12 71 14 72 13 73 16 74 17 75 18 76
REMARK SMILES IDX 19 77 27 78 20 79 26 80 28 81 21 82 25 83 22 84 24 85 23 86
REMARK H PARENT 3 6 76 24 50 35 7 66
REMARK Flexibility Score: inf
ROOT
ATOM      1  C   UNL A   1      32.509  29.032  27.141  1.00  0.00     0.042 C 
ENDROOT
BRANCH   1   2
ATOM      2  C   UNL A   1      33.972  29.438  27.288  1.00  0.00     0.118 C 
BRANCH   2   3
ATOM      3  N   UNL A   1      34.254  30.533  28.202  1.00  0.00    -0.352 N 
ATOM      4  O   UNL A   1      35.542  31.926  29.446  1.00  0.00    -0.269 OA
ATOM      5  C   UNL A   1      35.458  30.907  28.765  1.00  0.00     0.251 C 
ATOM      6  H   UNL A   1      33.478  31.084  28.455  1.00  0.00     0.163 HD
BRANCH   5   7
ATOM      7  C   UNL A   1      36.648  30.026  28.653  1.00  0.00     0.039 A 
ATOM      8  C   UNL A   1      37.152  29.304  29.735  1.00  0.00     0.014 A 
ATOM      9  C   UNL A   1      37.322  29.992  27.425  1.00  0.00     0.014 A 
ATOM     10  C   UNL A   1      38.424  28.739  29.652  1.00  0.00     0.010 A 
ATOM     11  C   UNL A   1      38.564  29.358  27.319  1.00  0.00     0.010 A 
ATOM     12  C   UNL A   1      39.162  28.801  28.457  1.00  0.00    -0.014 A 
BRANCH  12  13
ATOM     13  C   UNL A   1      40.583  28.366  28.459  1.00  0.00     0.031 A 
ATOM     14  C   UNL A   1      40.952  26.961  28.052  1.00  0.00     0.074 A 
ATOM     15  C   UNL A   1      41.557  29.256  28.724  1.00  0.00     0.049 A 
ATOM     16  N   UNL A   1      42.141  26.435  27.885  1.00  0.00    -0.248 NA
ATOM     17  C   UNL A   1      39.847  26.019  27.808  1.00  0.00     0.031 C 
ATOM     18  C   UNL A   1      41.343  30.643  29.139  1.00  0.00     0.029 A 
ATOM     19  N   UNL A   1      42.921  29.141  28.625  1.00  0.00    -0.354 N 
ATOM     20  C   UNL A   1      41.927  25.099  27.571  1.00  0.00     0.074 A 
ATOM     21  C   UNL A   1      40.495  24.891  27.558  1.00  0.00     0.031 C 
ATOM     22  C   UNL A   1      42.527  31.275  29.168  1.00  0.00     0.029 A 
ATOM     23  C   UNL A   1      43.579  30.332  28.797  1.00  0.00     0.049 A 
ATOM     24  H   UNL A   1      43.380  28.288  28.449  1.00  0.00     0.167 HD
ATOM     25  C   UNL A   1      42.837  24.130  27.316  1.00  0.00     0.037 A 
ATOM     26  C   UNL A   1      44.878  30.642  28.633  1.00  0.00     0.037 A 
ATOM     27  C   UNL A   1      44.259  24.334  27.256  1.00  0.00     0.049 A 
ATOM     28  C   UNL A   1      45.855  29.584  28.223  1.00  0.00     0.074 A 
ATOM     29  C   UNL A   1      45.257  23.408  27.006  1.00  0.00     0.029 A 
ATOM     30  N   UNL A   1      44.880  25.560  27.418  1.00  0.00    -0.354 N 
ATOM     31  N   UNL A   1      45.639  28.319  27.959  1.00  0.00    -0.248 NA
ATOM     32  C   UNL A   1      47.261  29.996  28.094  1.00  0.00     0.031 C 
ATOM     33  C   UNL A   1      46.487  24.078  27.012  1.00  0.00     0.029 A 
ATOM     34  C   UNL A   1      46.247  25.420  27.259  1.00  0.00     0.049 A 
ATOM     35  H   UNL A   1      44.418  26.406  27.618  1.00  0.00     0.167 HD
ATOM     36  C   UNL A   1      46.878  27.782  27.644  1.00  0.00     0.074 A 
ATOM     37  C   UNL A   1      47.841  28.861  27.724  1.00  0.00     0.031 C 
ATOM     38  C   UNL A   1      47.190  26.501  27.334  1.00  0.00     0.037 A 
BRANCH  25  39
ATOM     39  C   UNL A   1      42.316  22.745  27.096  1.00  0.00     0.057 A 
ATOM     40  C   UNL A   1      42.268  22.170  25.821  1.00  0.00     0.134 A 
ATOM     41  C   UNL A   1      41.883  21.970  28.179  1.00  0.00     0.134 A 
ATOM     42  F   UNL A   1      42.653  22.872  24.745  1.00  0.00    -0.206 F 
ATOM     43  C   UNL A   1      41.798  20.870  25.630  1.00  0.00     0.040 A 
ATOM     44  C   UNL A   1      41.422  20.666  28.001  1.00  0.00     0.040 A 
ATOM     45  F   UNL A   1      41.905  22.469  29.424  1.00  0.00    -0.206 F 
ATOM     46  C   UNL A   1      41.378  20.112  26.723  1.00  0.00     0.006 A 
ENDBRANCH  25  39
BRANCH  26  47
ATOM     47  C   UNL A   1      45.313  32.047  28.789  1.00  0.00     0.057 A 
ATOM     48  C   UNL A   1      45.821  32.501  30.011  1.00  0.00     0.134 A 
ATOM     49  C   UNL A   1      45.257  32.953  27.726  1.00  0.00     0.134 A 
ATOM     50  F   UNL A   1      45.884  31.674  31.065  1.00  0.00    -0.206 F 
ATOM     51  C   UNL A   1      46.260  33.814  30.172  1.00  0.00     0.040 A 
ATOM     52  C   UNL A   1      45.702  34.267  27.871  1.00  0.00     0.040 A 
ATOM     53  F   UNL A   1      44.780  32.568  26.534  1.00  0.00    -0.206 F 
ATOM     54  C   UNL A   1      46.205  34.700  29.097  1.00  0.00     0.006 A 
ENDBRANCH  26  47
BRANCH  38  55
ATOM     55  C   UNL A   1      48.630  26.199  27.071  1.00  0.00     0.057 A 
ATOM     56  C   UNL A   1      49.487  25.819  28.109  1.00  0.00     0.134 A 
ATOM     57  C   UNL A   1      49.155  26.261  25.776  1.00  0.00     0.134 A 
ATOM     58  F   UNL A   1      49.038  25.752  29.372  1.00  0.00    -0.206 F 
ATOM     59  C   UNL A   1      50.826  25.515  27.869  1.00  0.00     0.040 A 
ATOM     60  C   UNL A   1      50.492  25.954  25.522  1.00  0.00     0.040 A 
ATOM     61  F   UNL A   1      48.380  26.623  24.743  1.00  0.00    -0.206 F 
ATOM     62  C   UNL A   1      51.332  25.579  26.571  1.00  0.00     0.006 A 
ENDBRANCH  38  55
ENDBRANCH  12  13
ENDBRANCH   5   7
ENDBRANCH   2   3
ENDBRANCH   1   2
BRANCH   1  63
ATOM     63  C   UNL A   1      31.780  29.520  25.898  1.00  0.00     0.118 C 
BRANCH  63  64
ATOM     64  N   UNL A   1      32.367  29.103  24.639  1.00  0.00    -0.352 N 
ATOM     65  C   UNL A   1      31.725  28.850  23.454  1.00  0.00     0.253 C 
ATOM     66  H   UNL A   1      33.345  28.987  24.635  1.00  0.00     0.163 HD
ATOM     67  O   UNL A   1      32.376  28.579  22.446  1.00  0.00    -0.269 OA
BRANCH  65  68
ATOM     68  C   UNL A   1      30.252  28.848  23.367  1.00  0.00     0.065 A 
ATOM     69  C   UNL A   1      29.642  30.068  23.029  1.00  0.00     0.016 A 
ATOM     70  C   UNL A   1      29.466  27.719  23.626  1.00  0.00     0.076 A 
ATOM     71  C   UNL A   1      28.255  30.154  22.900  1.00  0.00     0.001 A 
ATOM     72  C   UNL A   1      28.073  27.827  23.488  1.00  0.00     0.029 A 
ATOM     73  C   UNL A   1      27.468  29.030  23.126  1.00  0.00     0.002 A 
BRANCH  70  74
ATOM     74  N   UNL A   1      29.933  26.426  23.851  1.00  0.00    -0.255 NA
ATOM     75  C   UNL A   1      30.205  25.961  25.027  1.00  0.00     0.127 C 
BRANCH  75  76
ATOM     76  C   UNL A   1      30.584  24.533  25.063  1.00  0.00     0.076 A 
ATOM     77  C   UNL A   1      30.694  24.006  23.832  1.00  0.00     0.209 A 
ATOM     78  C   UNL A   1      31.602  24.087  26.045  1.00  0.00     0.201 A 
ATOM     79  O   UNL A   1      31.729  23.165  23.446  1.00  0.00    -0.463 OA
ATOM     80  C   UNL A   1      32.916  23.836  25.436  1.00  0.00     0.065 A 
ATOM     81  O   UNL A   1      31.403  24.069  27.251  1.00  0.00    -0.288 OA
ATOM     82  C   UNL A   1      32.918  23.415  24.105  1.00  0.00     0.137 A 
ATOM     83  C   UNL A   1      34.096  24.185  26.089  1.00  0.00     0.016 A 
ATOM     84  C   UNL A   1      34.115  23.335  23.405  1.00  0.00     0.048 A 
ATOM     85  C   UNL A   1      35.294  24.140  25.376  1.00  0.00     0.001 A 
ATOM     86  C   UNL A   1      35.303  23.719  24.039  1.00  0.00     0.004 A 
ENDBRANCH  75  76
ENDBRANCH  70  74
ENDBRANCH  65  68
ENDBRANCH  63  64
ENDBRANCH   1  63
TORSDOF 12
ENDMDL
MODEL 2
REMARK VINA RESULT:     -13.0      5.045      9.757
REMARK SMILES O=C(NCCCNC(=O)c1ccccc1/N=C/c1coc2ccccc2c1=O)c1ccc(-c2c3nc(c(-c4c(F)cccc4F)c4ccc([nH]4)c(-c4c(F)cccc4F)c4nc(c(-c5c(F)cccc5F)c5ccc2[nH]5)C=C4)C=C3)cc1
REMARK SMILES IDX 5 1 4 2 3 3 1 4 2 5 29 7 30 8 82 9 31 10 81 11 32 12 33 13
REMARK SMILES IDX 34 14 75 15 35 16 80 17 74 18 76 19 36 20 79 21 73 22 72 23
REMARK SMILES IDX 37 25 63 26 46 27 62 28 47 29 50 30 61 31 77 32 48 33 49 34
REMARK SMILES IDX 60 36 78 37 51 38 38 39 39 40 44 41 40 42 41 43 43 44 45 45
REMARK SMILES IDX 42 46 64 47 65 48 70 49 66 50 67 51 69 52 71 53 68 54 52 55
REMARK SMILES IDX 53 56 58 57 54 58 55 59 57 60 59 61 56 62 6 63 7 64 8 65
REMARK SMILES IDX 9 67 10 68 11 69 15 70 12 71 14 72 13 73 16 74 17 75 18 76
REMARK SMILES IDX 19 77 27 78 20 79 26 80 28 81 21 82 25 83 22 84 24 85 23 86
REMARK H PARENT 3 6 76 24 50 35 7 66
REMARK Flexibility Score: inf
ROOT
ATOM      1  C   UNL A   1      37.022  22.974  24.453  1.00  0.00     0.042 C 
ENDROOT
BRANCH   1   2
ATOM      2  C   UNL A   1      37.743  23.318  25.751  1.00  0.00     0.118 C 
BRANCH   2   3
ATOM      3  N   UNL A   1      39.165  23.019  25.806  1.00  0.00    -0.352 N 
ATOM      4  O   UNL A   1      41.309  23.221  26.520  1.00  0.00    -0.269 OA
ATOM      5  C   UNL A   1      40.164  23.665  26.506  1.00  0.00     0.251 C 
ATOM      6  H   UNL A   1      39.457  22.248  25.267  1.00  0.00     0.163 HD
BRANCH   5   7
ATOM      7  C   UNL A   1      39.900  24.972  27.162  1.00  0.00     0.039 A 
ATOM      8  C   UNL A   1      40.401  26.175  26.668  1.00  0.00     0.014 A 
ATOM      9  C   UNL A   1      39.181  24.964  28.365  1.00  0.00     0.014 A 
ATOM     10  C   UNL A   1      40.376  27.313  27.473  1.00  0.00     0.010 A 
ATOM     11  C   UNL A   1      39.088  26.125  29.138  1.00  0.00     0.010 A 
ATOM     12  C   UNL A   1      39.760  27.287  28.736  1.00  0.00    -0.014 A 
BRANCH  12  13
ATOM     13  C   UNL A   1      39.921  28.451  29.646  1.00  0.00     0.031 A 
ATOM     14  C   UNL A   1      38.879  29.541  29.682  1.00  0.00     0.074 A 
ATOM     15  C   UNL A   1      40.946  28.484  30.518  1.00  0.00     0.049 A 
ATOM     16  N   UNL A   1      38.791  30.573  30.486  1.00  0.00    -0.248 NA
ATOM     17  C   UNL A   1      37.800  29.474  28.682  1.00  0.00     0.031 C 
ATOM     18  C   UNL A   1      42.028  27.502  30.587  1.00  0.00     0.029 A 
ATOM     19  N   UNL A   1      41.209  29.348  31.551  1.00  0.00    -0.354 N 
ATOM     20  C   UNL A   1      37.687  31.299  30.058  1.00  0.00     0.074 A 
ATOM     21  C   UNL A   1      37.125  30.587  28.929  1.00  0.00     0.031 C 
ATOM     22  C   UNL A   1      42.785  27.764  31.664  1.00  0.00     0.029 A 
ATOM     23  C   UNL A   1      42.253  28.943  32.344  1.00  0.00     0.049 A 
ATOM     24  H   UNL A   1      40.698  30.176  31.707  1.00  0.00     0.167 HD
ATOM     25  C   UNL A   1      37.183  32.452  30.555  1.00  0.00     0.037 A 
ATOM     26  C   UNL A   1      42.706  29.439  33.509  1.00  0.00     0.037 A 
ATOM     27  C   UNL A   1      37.685  33.134  31.717  1.00  0.00     0.049 A 
ATOM     28  C   UNL A   1      42.054  30.643  34.116  1.00  0.00     0.074 A 
ATOM     29  C   UNL A   1      37.237  34.311  32.291  1.00  0.00     0.029 A 
ATOM     30  N   UNL A   1      38.732  32.678  32.498  1.00  0.00    -0.354 N 
ATOM     31  N   UNL A   1      41.029  31.332  33.681  1.00  0.00    -0.248 NA
ATOM     32  C   UNL A   1      42.626  31.142  35.376  1.00  0.00     0.031 C 
ATOM     33  C   UNL A   1      38.013  34.566  33.429  1.00  0.00     0.029 A 
ATOM     34  C   UNL A   1      38.937  33.541  33.561  1.00  0.00     0.049 A 
ATOM     35  H   UNL A   1      39.255  31.862  32.324  1.00  0.00     0.167 HD
ATOM     36  C   UNL A   1      40.839  32.351  34.604  1.00  0.00     0.074 A 
ATOM     37  C   UNL A   1      41.838  32.176  35.638  1.00  0.00     0.031 C 
ATOM     38  C   UNL A   1      39.928  33.352  34.583  1.00  0.00     0.037 A 
BRANCH  25  39
ATOM     39  C   UNL A   1      36.026  33.061  29.827  1.00  0.00     0.057 A 
ATOM     40  C   UNL A   1      34.714  32.937  30.295  1.00  0.00     0.134 A 
ATOM     41  C   UNL A   1      36.236  33.804  28.659  1.00  0.00     0.134 A 
ATOM     42  F   UNL A   1      34.452  32.223  31.400  1.00  0.00    -0.206 F 
ATOM     43  C   UNL A   1      33.645  33.527  29.620  1.00  0.00     0.040 A 
ATOM     44  C   UNL A   1      35.177  34.406  27.981  1.00  0.00     0.040 A 
ATOM     45  F   UNL A   1      37.473  33.955  28.162  1.00  0.00    -0.206 F 
ATOM     46  C   UNL A   1      33.876  34.268  28.461  1.00  0.00     0.006 A 
ENDBRANCH  25  39
BRANCH  26  47
ATOM     47  C   UNL A   1      43.801  28.741  34.216  1.00  0.00     0.057 A 
ATOM     48  C   UNL A   1      43.522  27.685  35.090  1.00  0.00     0.134 A 
ATOM     49  C   UNL A   1      45.140  29.091  34.018  1.00  0.00     0.134 A 
ATOM     50  F   UNL A   1      42.254  27.319  35.323  1.00  0.00    -0.206 F 
ATOM     51  C   UNL A   1      44.541  26.997  35.747  1.00  0.00     0.040 A 
ATOM     52  C   UNL A   1      46.170  28.405  34.661  1.00  0.00     0.040 A 
ATOM     53  F   UNL A   1      45.462  30.095  33.190  1.00  0.00    -0.206 F 
ATOM     54  C   UNL A   1      45.871  27.355  35.529  1.00  0.00     0.006 A 
ENDBRANCH  26  47
BRANCH  38  55
ATOM     55  C   UNL A   1      39.979  34.338  35.705  1.00  0.00     0.057 A 
ATOM     56  C   UNL A   1      40.732  35.513  35.596  1.00  0.00     0.134 A 
ATOM     57  C   UNL A   1      39.255  34.130  36.883  1.00  0.00     0.134 A 
ATOM     58  F   UNL A   1      41.453  35.759  34.492  1.00  0.00    -0.206 F 
ATOM     59  C   UNL A   1      40.768  36.448  36.630  1.00  0.00     0.040 A 
ATOM     60  C   UNL A   1      39.279  35.061  37.921  1.00  0.00     0.040 A 
ATOM     61  F   UNL A   1      38.519  33.020  37.042  1.00  0.00    -0.206 F 
ATOM     62  C   UNL A   1      40.038  36.224  37.796  1.00  0.00     0.006 A 
ENDBRANCH  38  55
ENDBRANCH  12  13
ENDBRANCH   5   7
ENDBRANCH   2   3
ENDBRANCH   1   2
BRANCH   1  63
ATOM     63  C   UNL A   1      35.984  21.864  24.513  1.00  0.00     0.118 C 
BRANCH  63  64
ATOM     64  N   UNL A   1      35.072  21.938  25.638  1.00  0.00    -0.352 N 
ATOM     65  C   UNL A   1      33.920  21.220  25.836  1.00  0.00     0.253 C 
ATOM     66  H   UNL A   1      35.309  22.581  26.345  1.00  0.00     0.163 HD
ATOM     67  O   UNL A   1      33.292  21.341  26.886  1.00  0.00    -0.269 OA
BRANCH  65  68
ATOM     68  C   UNL A   1      33.383  20.331  24.787  1.00  0.00     0.065 A 
ATOM     69  C   UNL A   1      33.676  18.963  24.915  1.00  0.00     0.016 A 
ATOM     70  C   UNL A   1      32.639  20.791  23.693  1.00  0.00     0.076 A 
ATOM     71  C   UNL A   1      33.188  18.045  23.983  1.00  0.00     0.001 A 
ATOM     72  C   UNL A   1      32.157  19.850  22.770  1.00  0.00     0.029 A 
ATOM     73  C   UNL A   1      32.424  18.489  22.909  1.00  0.00     0.002 A 
BRANCH  70  74
ATOM     74  N   UNL A   1      32.174  22.090  23.503  1.00  0.00    -0.255 NA
ATOM     75  C   UNL A   1      32.792  22.970  22.785  1.00  0.00     0.127 C 
BRANCH  75  76
ATOM     76  C   UNL A   1      32.080  24.255  22.619  1.00  0.00     0.076 A 
ATOM     77  C   UNL A   1      30.910  24.276  23.280  1.00  0.00     0.209 A 
ATOM     78  C   UNL A   1      32.860  25.516  22.657  1.00  0.00     0.201 A 
ATOM     79  O   UNL A   1      30.471  25.358  24.031  1.00  0.00    -0.463 OA
ATOM     80  C   UNL A   1      32.712  26.246  23.924  1.00  0.00     0.065 A 
ATOM     81  O   UNL A   1      33.651  25.837  21.782  1.00  0.00    -0.288 OA
ATOM     82  C   UNL A   1      31.498  26.091  24.596  1.00  0.00     0.137 A 
ATOM     83  C   UNL A   1      33.791  26.899  24.515  1.00  0.00     0.016 A 
ATOM     84  C   UNL A   1      31.348  26.596  25.881  1.00  0.00     0.048 A 
ATOM     85  C   UNL A   1      33.652  27.374  25.820  1.00  0.00     0.001 A 
ATOM     86  C   UNL A   1      32.437  27.221  26.500  1.00  0.00     0.004 A 
ENDBRANCH  75  76
ENDBRANCH  70  74
ENDBRANCH  65  68
ENDBRANCH  63  64
ENDBRANCH   1  63
TORSDOF 12
ENDMDL
MODEL 3
REMARK VINA RESULT:     -13.0      1.028      1.882
REMARK SMILES O=C(NCCCNC(=O)c1ccccc1/N=C/c1coc2ccccc2c1=O)c1ccc(-c2c3nc(c(-c4c(F)cccc4F)c4ccc([nH]4)c(-c4c(F)cccc4F)c4nc(c(-c5c(F)cccc5F)c5ccc2[nH]5)C=C4)C=C3)cc1
REMARK SMILES IDX 5 1 4 2 3 3 1 4 2 5 29 7 30 8 82 9 31 10 81 11 32 12 33 13
REMARK SMILES IDX 34 14 75 15 35 16 80 17 74 18 76 19 36 20 79 21 73 22 72 23
REMARK SMILES IDX 37 25 63 26 46 27 62 28 47 29 50 30 61 31 77 32 48 33 49 34
REMARK SMILES IDX 60 36 78 37 51 38 38 39 39 40 44 41 40 42 41 43 43 44 45 45
REMARK SMILES IDX 42 46 64 47 65 48 70 49 66 50 67 51 69 52 71 53 68 54 52 55
REMARK SMILES IDX 53 56 58 57 54 58 55 59 57 60 59 61 56 62 6 63 7 64 8 65
REMARK SMILES IDX 9 67 10 68 11 69 15 70 12 71 14 72 13 73 16 74 17 75 18 76
REMARK SMILES IDX 19 77 27 78 20 79 26 80 28 81 21 82 25 83 22 84 24 85 23 86
REMARK H PARENT 3 6 76 24 50 35 7 66
REMARK Flexibility Score: inf
ROOT
ATOM      1  C   UNL A   1      32.757  29.255  27.070  1.00  0.00     0.042 C 
ENDROOT
BRANCH   1   2
ATOM      2  C   UNL A   1      34.199  29.697  27.297  1.00  0.00     0.118 C 
BRANCH   2   3
ATOM      3  N   UNL A   1      34.430  30.627  28.390  1.00  0.00    -0.352 N 
ATOM      4  O   UNL A   1      35.645  31.775  29.925  1.00  0.00    -0.269 OA
ATOM      5  C   UNL A   1      35.595  30.878  29.086  1.00  0.00     0.251 C 
ATOM      6  H   UNL A   1      33.646  31.151  28.674  1.00  0.00     0.163 HD
BRANCH   5   7
ATOM      7  C   UNL A   1      36.779  29.997  28.917  1.00  0.00     0.039 A 
ATOM      8  C   UNL A   1      37.265  29.187  29.944  1.00  0.00     0.014 A 
ATOM      9  C   UNL A   1      37.465  30.052  27.697  1.00  0.00     0.014 A 
ATOM     10  C   UNL A   1      38.533  28.618  29.829  1.00  0.00     0.010 A 
ATOM     11  C   UNL A   1      38.702  29.417  27.553  1.00  0.00     0.010 A 
ATOM     12  C   UNL A   1      39.283  28.766  28.649  1.00  0.00    -0.014 A 
BRANCH  12  13
ATOM     13  C   UNL A   1      40.700  28.318  28.631  1.00  0.00     0.031 A 
ATOM     14  C   UNL A   1      41.053  26.921  28.186  1.00  0.00     0.074 A 
ATOM     15  C   UNL A   1      41.684  29.193  28.911  1.00  0.00     0.049 A 
ATOM     16  N   UNL A   1      42.236  26.388  27.997  1.00  0.00    -0.248 NA
ATOM     17  C   UNL A   1      39.938  25.996  27.926  1.00  0.00     0.031 C 
ATOM     18  C   UNL A   1      41.486  30.571  29.362  1.00  0.00     0.029 A 
ATOM     19  N   UNL A   1      43.046  29.067  28.800  1.00  0.00    -0.354 N 
ATOM     20  C   UNL A   1      42.008  25.062  27.651  1.00  0.00     0.074 A 
ATOM     21  C   UNL A   1      40.574  24.868  27.643  1.00  0.00     0.031 C 
ATOM     22  C   UNL A   1      42.676  31.191  29.400  1.00  0.00     0.029 A 
ATOM     23  C   UNL A   1      43.717  30.248  28.997  1.00  0.00     0.049 A 
ATOM     24  H   UNL A   1      43.496  28.215  28.599  1.00  0.00     0.167 HD
ATOM     25  C   UNL A   1      42.907  24.092  27.366  1.00  0.00     0.037 A 
ATOM     26  C   UNL A   1      45.017  30.550  28.832  1.00  0.00     0.037 A 
ATOM     27  C   UNL A   1      44.330  24.284  27.301  1.00  0.00     0.049 A 
ATOM     28  C   UNL A   1      45.982  29.493  28.390  1.00  0.00     0.074 A 
ATOM     29  C   UNL A   1      45.318  23.356  27.022  1.00  0.00     0.029 A 
ATOM     30  N   UNL A   1      44.964  25.500  27.490  1.00  0.00    -0.354 N 
ATOM     31  N   UNL A   1      45.752  28.238  28.095  1.00  0.00    -0.248 NA
ATOM     32  C   UNL A   1      47.391  29.895  28.261  1.00  0.00     0.031 C 
ATOM     33  C   UNL A   1      46.554  24.014  27.036  1.00  0.00     0.029 A 
ATOM     34  C   UNL A   1      46.329  25.351  27.318  1.00  0.00     0.049 A 
ATOM     35  H   UNL A   1      44.511  26.345  27.714  1.00  0.00     0.167 HD
ATOM     36  C   UNL A   1      46.984  27.697  27.758  1.00  0.00     0.074 A 
ATOM     37  C   UNL A   1      47.957  28.765  27.859  1.00  0.00     0.031 C 
ATOM     38  C   UNL A   1      47.282  26.422  27.414  1.00  0.00     0.037 A 
BRANCH  25  39
ATOM     39  C   UNL A   1      42.371  22.718  27.115  1.00  0.00     0.057 A 
ATOM     40  C   UNL A   1      42.309  22.176  25.826  1.00  0.00     0.134 A 
ATOM     41  C   UNL A   1      41.939  21.920  28.181  1.00  0.00     0.134 A 
ATOM     42  F   UNL A   1      42.693  22.902  24.766  1.00  0.00    -0.206 F 
ATOM     43  C   UNL A   1      41.826  20.885  25.605  1.00  0.00     0.040 A 
ATOM     44  C   UNL A   1      41.464  20.625  27.973  1.00  0.00     0.040 A 
ATOM     45  F   UNL A   1      41.974  22.387  29.438  1.00  0.00    -0.206 F 
ATOM     46  C   UNL A   1      41.407  20.104  26.682  1.00  0.00     0.006 A 
ENDBRANCH  25  39
BRANCH  26  47
ATOM     47  C   UNL A   1      45.466  31.946  29.021  1.00  0.00     0.057 A 
ATOM     48  C   UNL A   1      45.908  32.387  30.273  1.00  0.00     0.134 A 
ATOM     49  C   UNL A   1      45.489  32.857  27.961  1.00  0.00     0.134 A 
ATOM     50  F   UNL A   1      45.894  31.555  31.325  1.00  0.00    -0.206 F 
ATOM     51  C   UNL A   1      46.359  33.691  30.466  1.00  0.00     0.040 A 
ATOM     52  C   UNL A   1      45.948  34.162  28.138  1.00  0.00     0.040 A 
ATOM     53  F   UNL A   1      45.078  32.485  26.740  1.00  0.00    -0.206 F 
ATOM     54  C   UNL A   1      46.384  34.582  29.394  1.00  0.00     0.006 A 
ENDBRANCH  26  47
BRANCH  38  55
ATOM     55  C   UNL A   1      48.717  26.113  27.133  1.00  0.00     0.057 A 
ATOM     56  C   UNL A   1      49.251  26.276  25.851  1.00  0.00     0.134 A 
ATOM     57  C   UNL A   1      49.574  25.679  28.150  1.00  0.00     0.134 A 
ATOM     58  F   UNL A   1      48.472  26.682  24.836  1.00  0.00    -0.206 F 
ATOM     59  C   UNL A   1      50.594  26.010  25.585  1.00  0.00     0.040 A 
ATOM     60  C   UNL A   1      50.920  25.416  27.898  1.00  0.00     0.040 A 
ATOM     61  F   UNL A   1      49.115  25.503  29.398  1.00  0.00    -0.206 F 
ATOM     62  C   UNL A   1      51.433  25.581  26.612  1.00  0.00     0.006 A 
ENDBRANCH  38  55
ENDBRANCH  12  13
ENDBRANCH   5   7
ENDBRANCH   2   3
ENDBRANCH   1   2
BRANCH   1  63
ATOM     63  C   UNL A   1      32.006  29.912  25.922  1.00  0.00     0.118 C 
BRANCH  63  64
ATOM     64  N   UNL A   1      32.623  29.758  24.619  1.00  0.00    -0.352 N 
ATOM     65  C   UNL A   1      32.174  29.012  23.558  1.00  0.00     0.253 C 
ATOM     66  H   UNL A   1      33.465  30.249  24.478  1.00  0.00     0.163 HD
ATOM     67  O   UNL A   1      32.773  29.046  22.485  1.00  0.00    -0.269 OA
BRANCH  65  68
ATOM     68  C   UNL A   1      31.005  28.121  23.690  1.00  0.00     0.065 A 
ATOM     69  C   UNL A   1      29.761  28.661  23.323  1.00  0.00     0.016 A 
ATOM     70  C   UNL A   1      31.085  26.810  24.176  1.00  0.00     0.076 A 
ATOM     71  C   UNL A   1      28.604  27.883  23.391  1.00  0.00     0.001 A 
ATOM     72  C   UNL A   1      29.910  26.046  24.234  1.00  0.00     0.029 A 
ATOM     73  C   UNL A   1      28.678  26.571  23.844  1.00  0.00     0.002 A 
BRANCH  70  74
ATOM     74  N   UNL A   1      32.255  26.109  24.461  1.00  0.00    -0.255 NA
ATOM     75  C   UNL A   1      32.942  25.478  23.566  1.00  0.00     0.127 C 
BRANCH  75  76
ATOM     76  C   UNL A   1      34.209  24.889  24.050  1.00  0.00     0.076 A 
ATOM     77  C   UNL A   1      34.447  25.186  25.339  1.00  0.00     0.209 A 
ATOM     78  C   UNL A   1      34.562  23.510  23.635  1.00  0.00     0.201 A 
ATOM     79  O   UNL A   1      34.909  24.263  26.267  1.00  0.00    -0.463 OA
ATOM     80  C   UNL A   1      34.351  22.517  24.699  1.00  0.00     0.065 A 
ATOM     81  O   UNL A   1      34.859  23.214  22.486  1.00  0.00    -0.288 OA
ATOM     82  C   UNL A   1      34.497  22.969  26.012  1.00  0.00     0.137 A 
ATOM     83  C   UNL A   1      33.847  21.249  24.419  1.00  0.00     0.016 A 
ATOM     84  C   UNL A   1      34.138  22.146  27.072  1.00  0.00     0.048 A 
ATOM     85  C   UNL A   1      33.452  20.437  25.482  1.00  0.00     0.001 A 
ATOM     86  C   UNL A   1      33.595  20.885  26.801  1.00  0.00     0.004 A 
ENDBRANCH  75  76
ENDBRANCH  70  74
ENDBRANCH  65  68
ENDBRANCH  63  64
ENDBRANCH   1  63
TORSDOF 12
ENDMDL
