MODEL 1
REMARK VINA RESULT:     -10.2      0.000      0.000
REMARK SMILES CCOCC[C@@H]1CCC[C@@]1([NH2+]C1CC1)C(=O)NCCCNC(=O)c1ccc(-c2c3nc(c(-c4c(F)cccc4F)c4ccc([nH]4)c(-c4c(F)cccc4F)c4nc(c(-c5c(F)cccc5F)c5ccc2[nH]5)C=C4)C=C3)cc1
REMARK SMILES IDX 18 1 17 2 15 3 16 4 10 6 6 7 7 8 8 9 9 10 5 11 4 12 3 13
REMARK SMILES IDX 2 14 1 15 11 16 12 19 13 20 14 21 19 22 20 23 21 24 22 25
REMARK SMILES IDX 23 27 24 28 25 29 77 30 26 31 76 32 27 33 28 34 29 35 70 36
REMARK SMILES IDX 30 37 75 38 69 39 71 40 31 41 74 42 68 43 67 44 32 46 58 47
REMARK SMILES IDX 41 48 57 49 42 50 45 51 56 52 72 53 43 54 44 55 55 57 73 58
REMARK SMILES IDX 46 59 33 60 34 61 39 62 35 63 36 64 38 65 40 66 37 67 59 68
REMARK SMILES IDX 60 69 65 70 61 71 62 72 64 73 66 74 63 75 47 76 48 77 53 78
REMARK SMILES IDX 49 79 50 80 52 81 54 82 51 83
REMARK H PARENT 17 5 11 17 11 18 21 26 71 45 45 56
REMARK Flexibility Score: inf
ROOT
ATOM      1  C   UNL A   1      31.830  29.337  25.415  1.00  0.00     0.118 C 
ENDROOT
BRANCH   1   2
ATOM      2  N   UNL A   1      32.912  29.583  24.505  1.00  0.00    -0.351 N 
ATOM      3  C   UNL A   1      33.319  28.816  23.456  1.00  0.00     0.281 C 
ATOM      4  O   UNL A   1      34.204  29.325  22.755  1.00  0.00    -0.268 OA
ATOM      5  H   UNL A   1      33.424  30.409  24.659  1.00  0.00     0.163 HD
BRANCH   3   6
ATOM      6  C   UNL A   1      32.761  27.371  23.169  1.00  0.00     0.178 C 
ATOM      7  C   UNL A   1      31.323  27.242  22.520  1.00  0.00     0.063 C 
ATOM      8  C   UNL A   1      31.401  25.898  21.769  1.00  0.00     0.011 C 
ATOM      9  C   UNL A   1      32.843  25.679  21.357  1.00  0.00     0.008 C 
ATOM     10  C   UNL A   1      33.612  26.822  21.980  1.00  0.00     0.079 C 
BRANCH   7  11
ATOM     11  C   UNL A   1      30.070  27.238  23.437  1.00  0.00     0.039 C 
BRANCH  11  12
ATOM     12  C   UNL A   1      28.972  28.260  23.120  1.00  0.00     0.160 C 
BRANCH  12  13
ATOM     13  O   UNL A   1      29.254  29.041  21.962  1.00  0.00    -0.382 OA
BRANCH  13  14
ATOM     14  C   UNL A   1      29.236  30.453  22.130  1.00  0.00     0.156 C 
ATOM     15  C   UNL A   1      28.742  30.879  23.501  1.00  0.00     0.035 C 
ENDBRANCH  13  14
ENDBRANCH  12  13
ENDBRANCH  11  12
ENDBRANCH   7  11
BRANCH   6  16
ATOM     16  N   UNL A   1      32.847  26.526  24.390  1.00  0.00    -0.331 N 
ATOM     17  H   UNL A   1      32.013  25.938  24.417  1.00  0.00     0.347 HD
ATOM     18  H   UNL A   1      32.933  27.185  25.163  1.00  0.00     0.347 HD
BRANCH  16  19
ATOM     19  C   UNL A   1      34.013  25.645  24.510  1.00  0.00     0.183 C 
ATOM     20  C   UNL A   1      34.342  24.936  25.789  1.00  0.00     0.071 C 
ATOM     21  C   UNL A   1      33.741  24.169  24.649  1.00  0.00     0.071 C 
ENDBRANCH  16  19
ENDBRANCH   6  16
ENDBRANCH   3   6
ENDBRANCH   1   2
BRANCH   1  22
ATOM     22  C   UNL A   1      32.227  29.083  26.850  1.00  0.00     0.042 C 
BRANCH  22  23
ATOM     23  C   UNL A   1      33.680  29.417  27.138  1.00  0.00     0.118 C 
BRANCH  23  24
ATOM     24  N   UNL A   1      33.866  30.585  28.001  1.00  0.00    -0.352 N 
ATOM     25  C   UNL A   1      34.941  30.993  28.760  1.00  0.00     0.251 C 
ATOM     26  H   UNL A   1      33.086  31.183  28.046  1.00  0.00     0.163 HD
ATOM     27  O   UNL A   1      34.834  31.966  29.505  1.00  0.00    -0.269 OA
BRANCH  25  28
ATOM     28  C   UNL A   1      36.209  30.238  28.716  1.00  0.00     0.039 A 
ATOM     29  C   UNL A   1      36.992  30.260  27.559  1.00  0.00     0.014 A 
ATOM     30  C   UNL A   1      36.653  29.551  29.841  1.00  0.00     0.014 A 
ATOM     31  C   UNL A   1      38.276  29.706  27.581  1.00  0.00     0.010 A 
ATOM     32  C   UNL A   1      37.974  29.139  29.911  1.00  0.00     0.010 A 
ATOM     33  C   UNL A   1      38.803  29.207  28.781  1.00  0.00    -0.014 A 
BRANCH  33  34
ATOM     34  C   UNL A   1      40.199  28.714  28.915  1.00  0.00     0.031 A 
ATOM     35  C   UNL A   1      41.274  29.679  29.345  1.00  0.00     0.074 A 
ATOM     36  C   UNL A   1      40.527  27.466  28.527  1.00  0.00     0.049 A 
ATOM     37  N   UNL A   1      42.574  29.566  29.263  1.00  0.00    -0.248 NA
ATOM     38  C   UNL A   1      40.817  30.974  29.881  1.00  0.00     0.031 C 
ATOM     39  C   UNL A   1      39.595  26.442  28.051  1.00  0.00     0.029 A 
ATOM     40  N   UNL A   1      41.754  26.853  28.449  1.00  0.00    -0.354 N 
ATOM     41  C   UNL A   1      43.082  30.790  29.682  1.00  0.00     0.074 A 
ATOM     42  C   UNL A   1      41.953  31.648  29.964  1.00  0.00     0.031 C 
ATOM     43  C   UNL A   1      40.278  25.324  27.755  1.00  0.00     0.029 A 
ATOM     44  C   UNL A   1      41.701  25.568  27.965  1.00  0.00     0.049 A 
ATOM     45  H   UNL A   1      42.594  27.295  28.714  1.00  0.00     0.167 HD
ATOM     46  C   UNL A   1      44.373  31.158  29.844  1.00  0.00     0.037 A 
ATOM     47  C   UNL A   1      42.690  24.693  27.704  1.00  0.00     0.037 A 
ATOM     48  C   UNL A   1      45.490  30.278  29.639  1.00  0.00     0.049 A 
ATOM     49  C   UNL A   1      44.117  25.111  27.935  1.00  0.00     0.074 A 
ATOM     50  C   UNL A   1      46.836  30.532  29.827  1.00  0.00     0.029 A 
ATOM     51  N   UNL A   1      45.381  28.958  29.226  1.00  0.00    -0.354 N 
ATOM     52  N   UNL A   1      44.583  26.266  28.347  1.00  0.00    -0.248 NA
ATOM     53  C   UNL A   1      45.157  24.107  27.666  1.00  0.00     0.031 C 
ATOM     54  C   UNL A   1      47.546  29.368  29.515  1.00  0.00     0.029 A 
ATOM     55  C   UNL A   1      46.637  28.382  29.165  1.00  0.00     0.049 A 
ATOM     56  H   UNL A   1      44.537  28.501  29.009  1.00  0.00     0.167 HD
ATOM     57  C   UNL A   1      45.961  26.112  28.426  1.00  0.00     0.074 A 
ATOM     58  C   UNL A   1      46.257  24.755  28.020  1.00  0.00     0.031 C 
ATOM     59  C   UNL A   1      46.898  27.014  28.802  1.00  0.00     0.037 A 
BRANCH  46  60
ATOM     60  C   UNL A   1      44.641  32.565  30.291  1.00  0.00     0.057 A 
ATOM     61  C   UNL A   1      44.743  32.899  31.649  1.00  0.00     0.134 A 
ATOM     62  C   UNL A   1      44.824  33.592  29.357  1.00  0.00     0.134 A 
ATOM     63  F   UNL A   1      44.562  31.964  32.593  1.00  0.00    -0.206 F 
ATOM     64  C   UNL A   1      44.989  34.208  32.061  1.00  0.00     0.040 A 
ATOM     65  C   UNL A   1      45.098  34.901  29.758  1.00  0.00     0.040 A 
ATOM     66  F   UNL A   1      44.743  33.341  28.043  1.00  0.00    -0.206 F 
ATOM     67  C   UNL A   1      45.174  35.213  31.114  1.00  0.00     0.006 A 
ENDBRANCH  46  60
BRANCH  47  68
ATOM     68  C   UNL A   1      42.377  23.324  27.221  1.00  0.00     0.057 A 
ATOM     69  C   UNL A   1      42.013  22.315  28.120  1.00  0.00     0.134 A 
ATOM     70  C   UNL A   1      42.454  22.982  25.866  1.00  0.00     0.134 A 
ATOM     71  F   UNL A   1      41.941  22.577  29.434  1.00  0.00    -0.206 F 
ATOM     72  C   UNL A   1      41.765  21.009  27.696  1.00  0.00     0.040 A 
ATOM     73  C   UNL A   1      42.184  21.686  25.423  1.00  0.00     0.040 A 
ATOM     74  F   UNL A   1      42.789  23.905  24.952  1.00  0.00    -0.206 F 
ATOM     75  C   UNL A   1      41.847  20.693  26.341  1.00  0.00     0.006 A 
ENDBRANCH  47  68
BRANCH  59  76
ATOM     76  C   UNL A   1      48.320  26.547  28.871  1.00  0.00     0.057 A 
ATOM     77  C   UNL A   1      48.850  25.958  30.024  1.00  0.00     0.134 A 
ATOM     78  C   UNL A   1      49.142  26.625  27.740  1.00  0.00     0.134 A 
ATOM     79  F   UNL A   1      48.114  25.866  31.141  1.00  0.00    -0.206 F 
ATOM     80  C   UNL A   1      50.157  25.470  30.053  1.00  0.00     0.040 A 
ATOM     81  C   UNL A   1      50.442  26.122  27.750  1.00  0.00     0.040 A 
ATOM     82  F   UNL A   1      48.686  27.171  26.603  1.00  0.00    -0.206 F 
ATOM     83  C   UNL A   1      50.954  25.543  28.910  1.00  0.00     0.006 A 
ENDBRANCH  59  76
ENDBRANCH  33  34
ENDBRANCH  25  28
ENDBRANCH  23  24
ENDBRANCH  22  23
ENDBRANCH   1  22
TORSDOF 16
ENDMDL
MODEL 2
REMARK VINA RESULT:     -10.1      1.752      3.652
REMARK SMILES CCOCC[C@@H]1CCC[C@@]1([NH2+]C1CC1)C(=O)NCCCNC(=O)c1ccc(-c2c3nc(c(-c4c(F)cccc4F)c4ccc([nH]4)c(-c4c(F)cccc4F)c4nc(c(-c5c(F)cccc5F)c5ccc2[nH]5)C=C4)C=C3)cc1
REMARK SMILES IDX 18 1 17 2 15 3 16 4 10 6 6 7 7 8 8 9 9 10 5 11 4 12 3 13
REMARK SMILES IDX 2 14 1 15 11 16 12 19 13 20 14 21 19 22 20 23 21 24 22 25
REMARK SMILES IDX 23 27 24 28 25 29 77 30 26 31 76 32 27 33 28 34 29 35 70 36
REMARK SMILES IDX 30 37 75 38 69 39 71 40 31 41 74 42 68 43 67 44 32 46 58 47
REMARK SMILES IDX 41 48 57 49 42 50 45 51 56 52 72 53 43 54 44 55 55 57 73 58
REMARK SMILES IDX 46 59 33 60 34 61 39 62 35 63 36 64 38 65 40 66 37 67 59 68
REMARK SMILES IDX 60 69 65 70 61 71 62 72 64 73 66 74 63 75 47 76 48 77 53 78
REMARK SMILES IDX 49 79 50 80 52 81 54 82 51 83
REMARK H PARENT 17 5 11 17 11 18 21 26 71 45 45 56
REMARK Flexibility Score: inf
ROOT
ATOM      1  C   UNL A   1      33.611  27.090  25.688  1.00  0.00     0.118 C 
ENDROOT
BRANCH   1   2
ATOM      2  N   UNL A   1      33.655  26.776  24.288  1.00  0.00    -0.351 N 
ATOM      3  C   UNL A   1      33.702  25.547  23.703  1.00  0.00     0.281 C 
ATOM      4  O   UNL A   1      33.608  25.558  22.468  1.00  0.00    -0.268 OA
ATOM      5  H   UNL A   1      33.653  27.545  23.675  1.00  0.00     0.163 HD
BRANCH   3   6
ATOM      6  C   UNL A   1      33.910  24.210  24.509  1.00  0.00     0.178 C 
ATOM      7  C   UNL A   1      35.200  24.079  25.416  1.00  0.00     0.063 C 
ATOM      8  C   UNL A   1      34.755  23.086  26.510  1.00  0.00     0.011 C 
ATOM      9  C   UNL A   1      33.260  23.244  26.699  1.00  0.00     0.008 C 
ATOM     10  C   UNL A   1      32.825  24.223  25.632  1.00  0.00     0.079 C 
BRANCH   7  11
ATOM     11  C   UNL A   1      36.528  23.577  24.788  1.00  0.00     0.039 C 
BRANCH  11  12
ATOM     12  C   UNL A   1      37.664  23.219  25.754  1.00  0.00     0.160 C 
BRANCH  12  13
ATOM     13  O   UNL A   1      38.295  21.980  25.440  1.00  0.00    -0.382 OA
BRANCH  13  14
ATOM     14  C   UNL A   1      37.457  20.956  24.918  1.00  0.00     0.156 C 
ATOM     15  C   UNL A   1      38.088  19.577  25.001  1.00  0.00     0.035 C 
ENDBRANCH  13  14
ENDBRANCH  12  13
ENDBRANCH  11  12
ENDBRANCH   7  11
BRANCH   6  16
ATOM     16  N   UNL A   1      33.802  23.033  23.604  1.00  0.00    -0.331 N 
ATOM     17  H   UNL A   1      34.506  22.355  23.896  1.00  0.00     0.347 HD
ATOM     18  H   UNL A   1      33.932  23.409  22.665  1.00  0.00     0.347 HD
BRANCH  16  19
ATOM     19  C   UNL A   1      32.511  22.341  23.563  1.00  0.00     0.183 C 
ATOM     20  C   UNL A   1      32.154  21.394  22.457  1.00  0.00     0.071 C 
ATOM     21  C   UNL A   1      32.526  20.854  23.805  1.00  0.00     0.071 C 
ENDBRANCH  16  19
ENDBRANCH   6  16
ENDBRANCH   3   6
ENDBRANCH   1   2
BRANCH   1  22
ATOM     22  C   UNL A   1      33.745  28.553  26.035  1.00  0.00     0.042 C 
BRANCH  22  23
ATOM     23  C   UNL A   1      33.456  28.852  27.496  1.00  0.00     0.118 C 
BRANCH  23  24
ATOM     24  N   UNL A   1      33.718  30.239  27.886  1.00  0.00    -0.352 N 
ATOM     25  C   UNL A   1      34.869  30.860  28.320  1.00  0.00     0.251 C 
ATOM     26  H   UNL A   1      32.935  30.831  27.827  1.00  0.00     0.163 HD
ATOM     27  O   UNL A   1      34.831  32.028  28.702  1.00  0.00    -0.269 OA
BRANCH  25  28
ATOM     28  C   UNL A   1      36.141  30.111  28.371  1.00  0.00     0.039 A 
ATOM     29  C   UNL A   1      36.984  30.097  27.257  1.00  0.00     0.014 A 
ATOM     30  C   UNL A   1      36.527  29.467  29.542  1.00  0.00     0.014 A 
ATOM     31  C   UNL A   1      38.268  29.552  27.368  1.00  0.00     0.010 A 
ATOM     32  C   UNL A   1      37.844  29.067  29.697  1.00  0.00     0.010 A 
ATOM     33  C   UNL A   1      38.732  29.099  28.611  1.00  0.00    -0.014 A 
BRANCH  33  34
ATOM     34  C   UNL A   1      40.121  28.620  28.837  1.00  0.00     0.031 A 
ATOM     35  C   UNL A   1      41.150  29.590  29.357  1.00  0.00     0.074 A 
ATOM     36  C   UNL A   1      40.491  27.382  28.455  1.00  0.00     0.049 A 
ATOM     37  N   UNL A   1      42.454  29.493  29.367  1.00  0.00    -0.248 NA
ATOM     38  C   UNL A   1      40.640  30.871  29.878  1.00  0.00     0.031 C 
ATOM     39  C   UNL A   1      39.608  26.355  27.899  1.00  0.00     0.029 A 
ATOM     40  N   UNL A   1      41.728  26.785  28.455  1.00  0.00    -0.354 N 
ATOM     41  C   UNL A   1      42.916  30.716  29.839  1.00  0.00     0.074 A 
ATOM     42  C   UNL A   1      41.760  31.557  30.052  1.00  0.00     0.031 C 
ATOM     43  C   UNL A   1      40.324  25.250  27.635  1.00  0.00     0.029 A 
ATOM     44  C   UNL A   1      41.726  25.506  27.950  1.00  0.00     0.049 A 
ATOM     45  H   UNL A   1      42.541  27.231  28.786  1.00  0.00     0.167 HD
ATOM     46  C   UNL A   1      44.188  31.096  30.098  1.00  0.00     0.037 A 
ATOM     47  C   UNL A   1      42.742  24.647  27.747  1.00  0.00     0.037 A 
ATOM     48  C   UNL A   1      45.327  30.232  29.960  1.00  0.00     0.049 A 
ATOM     49  C   UNL A   1      44.143  25.077  28.086  1.00  0.00     0.074 A 
ATOM     50  C   UNL A   1      46.653  30.498  30.247  1.00  0.00     0.029 A 
ATOM     51  N   UNL A   1      45.265  28.918  29.521  1.00  0.00    -0.354 N 
ATOM     52  N   UNL A   1      44.565  26.231  28.547  1.00  0.00    -0.248 NA
ATOM     53  C   UNL A   1      45.211  24.089  27.876  1.00  0.00     0.031 C 
ATOM     54  C   UNL A   1      47.398  29.347  29.970  1.00  0.00     0.029 A 
ATOM     55  C   UNL A   1      46.528  28.357  29.541  1.00  0.00     0.049 A 
ATOM     56  H   UNL A   1      44.443  28.454  29.237  1.00  0.00     0.167 HD
ATOM     57  C   UNL A   1      45.935  26.091  28.722  1.00  0.00     0.074 A 
ATOM     58  C   UNL A   1      46.275  24.744  28.317  1.00  0.00     0.031 C 
ATOM     59  C   UNL A   1      46.832  26.998  29.177  1.00  0.00     0.037 A 
BRANCH  46  60
ATOM     60  C   UNL A   1      44.406  32.499  30.584  1.00  0.00     0.057 A 
ATOM     61  C   UNL A   1      44.399  32.813  31.949  1.00  0.00     0.134 A 
ATOM     62  C   UNL A   1      44.649  33.541  29.681  1.00  0.00     0.134 A 
ATOM     63  F   UNL A   1      44.157  31.863  32.864  1.00  0.00    -0.206 F 
ATOM     64  C   UNL A   1      44.599  34.119  32.398  1.00  0.00     0.040 A 
ATOM     65  C   UNL A   1      44.877  34.847  30.120  1.00  0.00     0.040 A 
ATOM     66  F   UNL A   1      44.672  33.308  28.361  1.00  0.00    -0.206 F 
ATOM     67  C   UNL A   1      44.846  35.140  31.482  1.00  0.00     0.006 A 
ENDBRANCH  46  60
BRANCH  47  68
ATOM     68  C   UNL A   1      42.480  23.283  27.222  1.00  0.00     0.057 A 
ATOM     69  C   UNL A   1      42.145  22.236  28.089  1.00  0.00     0.134 A 
ATOM     70  C   UNL A   1      42.581  22.982  25.859  1.00  0.00     0.134 A 
ATOM     71  F   UNL A   1      42.051  22.457  29.409  1.00  0.00    -0.206 F 
ATOM     72  C   UNL A   1      41.945  20.935  27.626  1.00  0.00     0.040 A 
ATOM     73  C   UNL A   1      42.360  21.690  25.377  1.00  0.00     0.040 A 
ATOM     74  F   UNL A   1      42.892  23.942  24.975  1.00  0.00    -0.206 F 
ATOM     75  C   UNL A   1      42.050  20.660  26.264  1.00  0.00     0.006 A 
ENDBRANCH  47  68
BRANCH  59  76
ATOM     76  C   UNL A   1      48.250  26.546  29.340  1.00  0.00     0.057 A 
ATOM     77  C   UNL A   1      49.213  26.757  28.347  1.00  0.00     0.134 A 
ATOM     78  C   UNL A   1      48.669  25.955  30.539  1.00  0.00     0.134 A 
ATOM     79  F   UNL A   1      48.870  27.307  27.173  1.00  0.00    -0.206 F 
ATOM     80  C   UNL A   1      50.545  26.387  28.537  1.00  0.00     0.040 A 
ATOM     81  C   UNL A   1      50.000  25.601  30.750  1.00  0.00     0.040 A 
ATOM     82  F   UNL A   1      47.793  25.736  31.532  1.00  0.00    -0.206 F 
ATOM     83  C   UNL A   1      50.943  25.815  29.746  1.00  0.00     0.006 A 
ENDBRANCH  59  76
ENDBRANCH  33  34
ENDBRANCH  25  28
ENDBRANCH  23  24
ENDBRANCH  22  23
ENDBRANCH   1  22
TORSDOF 16
ENDMDL
MODEL 3
REMARK VINA RESULT:     -10.1      2.847      6.519
REMARK SMILES CCOCC[C@@H]1CCC[C@@]1([NH2+]C1CC1)C(=O)NCCCNC(=O)c1ccc(-c2c3nc(c(-c4c(F)cccc4F)c4ccc([nH]4)c(-c4c(F)cccc4F)c4nc(c(-c5c(F)cccc5F)c5ccc2[nH]5)C=C4)C=C3)cc1
REMARK SMILES IDX 18 1 17 2 15 3 16 4 10 6 6 7 7 8 8 9 9 10 5 11 4 12 3 13
REMARK SMILES IDX 2 14 1 15 11 16 12 19 13 20 14 21 19 22 20 23 21 24 22 25
REMARK SMILES IDX 23 27 24 28 25 29 77 30 26 31 76 32 27 33 28 34 29 35 70 36
REMARK SMILES IDX 30 37 75 38 69 39 71 40 31 41 74 42 68 43 67 44 32 46 58 47
REMARK SMILES IDX 41 48 57 49 42 50 45 51 56 52 72 53 43 54 44 55 55 57 73 58
REMARK SMILES IDX 46 59 33 60 34 61 39 62 35 63 36 64 38 65 40 66 37 67 59 68
REMARK SMILES IDX 60 69 65 70 61 71 62 72 64 73 66 74 63 75 47 76 48 77 53 78
REMARK SMILES IDX 49 79 50 80 52 81 54 82 51 83
REMARK H PARENT 17 5 11 17 11 18 21 26 71 45 45 56
REMARK Flexibility Score: inf
ROOT
ATOM      1  C   UNL A   1      34.048  23.616  26.355  1.00  0.00     0.118 C 
ENDROOT
BRANCH   1   2
ATOM      2  N   UNL A   1      32.798  23.439  27.039  1.00  0.00    -0.351 N 
ATOM      3  C   UNL A   1      31.575  23.929  26.695  1.00  0.00     0.281 C 
ATOM      4  O   UNL A   1      30.638  23.521  27.394  1.00  0.00    -0.268 OA
ATOM      5  H   UNL A   1      32.830  22.896  27.859  1.00  0.00     0.163 HD
BRANCH   3   6
ATOM      6  C   UNL A   1      31.353  24.974  25.537  1.00  0.00     0.178 C 
ATOM      7  C   UNL A   1      31.141  24.426  24.068  1.00  0.00     0.063 C 
ATOM      8  C   UNL A   1      30.300  25.534  23.403  1.00  0.00     0.011 C 
ATOM      9  C   UNL A   1      29.472  26.200  24.483  1.00  0.00     0.008 C 
ATOM     10  C   UNL A   1      29.930  25.571  25.779  1.00  0.00     0.079 C 
BRANCH   7  11
ATOM     11  C   UNL A   1      32.379  24.128  23.179  1.00  0.00     0.039 C 
BRANCH  11  12
ATOM     12  C   UNL A   1      32.759  25.188  22.138  1.00  0.00     0.160 C 
BRANCH  12  13
ATOM     13  O   UNL A   1      33.584  26.222  22.669  1.00  0.00    -0.382 OA
BRANCH  13  14
ATOM     14  C   UNL A   1      33.201  27.557  22.367  1.00  0.00     0.156 C 
ATOM     15  C   UNL A   1      34.134  28.591  22.971  1.00  0.00     0.035 C 
ENDBRANCH  13  14
ENDBRANCH  12  13
ENDBRANCH  11  12
ENDBRANCH   7  11
BRANCH   6  16
ATOM     16  N   UNL A   1      32.429  26.002  25.548  1.00  0.00    -0.331 N 
ATOM     17  H   UNL A   1      32.414  26.472  24.643  1.00  0.00     0.347 HD
ATOM     18  H   UNL A   1      33.285  25.486  25.750  1.00  0.00     0.347 HD
BRANCH  16  19
ATOM     19  C   UNL A   1      32.353  27.035  26.585  1.00  0.00     0.183 C 
ATOM     20  C   UNL A   1      33.412  28.085  26.736  1.00  0.00     0.071 C 
ATOM     21  C   UNL A   1      32.092  28.446  26.124  1.00  0.00     0.071 C 
ENDBRANCH  16  19
ENDBRANCH   6  16
ENDBRANCH   3   6
ENDBRANCH   1   2
BRANCH   1  22
ATOM     22  C   UNL A   1      34.886  22.371  26.192  1.00  0.00     0.042 C 
BRANCH  22  23
ATOM     23  C   UNL A   1      36.046  22.551  25.228  1.00  0.00     0.118 C 
BRANCH  23  24
ATOM     24  N   UNL A   1      36.962  21.410  25.174  1.00  0.00    -0.352 N 
ATOM     25  C   UNL A   1      38.265  21.269  25.596  1.00  0.00     0.251 C 
ATOM     26  H   UNL A   1      36.578  20.602  24.764  1.00  0.00     0.163 HD
ATOM     27  O   UNL A   1      38.885  20.237  25.348  1.00  0.00    -0.269 OA
BRANCH  25  28
ATOM     28  C   UNL A   1      38.936  22.374  26.310  1.00  0.00     0.039 A 
ATOM     29  C   UNL A   1      40.025  22.104  27.144  1.00  0.00     0.014 A 
ATOM     30  C   UNL A   1      38.523  23.687  26.112  1.00  0.00     0.014 A 
ATOM     31  C   UNL A   1      40.775  23.162  27.667  1.00  0.00     0.010 A 
ATOM     32  C   UNL A   1      39.351  24.728  26.501  1.00  0.00     0.010 A 
ATOM     33  C   UNL A   1      40.486  24.481  27.288  1.00  0.00    -0.014 A 
BRANCH  33  34
ATOM     34  C   UNL A   1      41.309  25.647  27.702  1.00  0.00     0.031 A 
ATOM     35  C   UNL A   1      40.671  26.729  28.535  1.00  0.00     0.074 A 
ATOM     36  C   UNL A   1      42.561  25.808  27.229  1.00  0.00     0.049 A 
ATOM     37  N   UNL A   1      41.085  27.946  28.775  1.00  0.00    -0.248 NA
ATOM     38  C   UNL A   1      39.356  26.416  29.122  1.00  0.00     0.031 C 
ATOM     39  C   UNL A   1      43.286  24.860  26.381  1.00  0.00     0.029 A 
ATOM     40  N   UNL A   1      43.440  26.852  27.379  1.00  0.00    -0.354 N 
ATOM     41  C   UNL A   1      40.059  28.554  29.490  1.00  0.00     0.074 A 
ATOM     42  C   UNL A   1      38.984  27.595  29.596  1.00  0.00     0.031 C 
ATOM     43  C   UNL A   1      44.505  25.354  26.107  1.00  0.00     0.029 A 
ATOM     44  C   UNL A   1      44.629  26.676  26.711  1.00  0.00     0.049 A 
ATOM     45  H   UNL A   1      43.238  27.654  27.915  1.00  0.00     0.167 HD
ATOM     46  C   UNL A   1      40.027  29.792  30.033  1.00  0.00     0.037 A 
ATOM     47  C   UNL A   1      45.689  27.496  26.586  1.00  0.00     0.037 A 
ATOM     48  C   UNL A   1      41.128  30.715  29.994  1.00  0.00     0.049 A 
ATOM     49  C   UNL A   1      45.647  28.851  27.239  1.00  0.00     0.074 A 
ATOM     50  C   UNL A   1      41.221  31.973  30.558  1.00  0.00     0.029 A 
ATOM     51  N   UNL A   1      42.342  30.459  29.374  1.00  0.00    -0.354 N 
ATOM     52  N   UNL A   1      44.678  29.408  27.925  1.00  0.00    -0.248 NA
ATOM     53  C   UNL A   1      46.844  29.694  27.099  1.00  0.00     0.031 C 
ATOM     54  C   UNL A   1      42.490  32.487  30.270  1.00  0.00     0.029 A 
ATOM     55  C   UNL A   1      43.194  31.532  29.554  1.00  0.00     0.049 A 
ATOM     56  H   UNL A   1      42.563  29.636  28.880  1.00  0.00     0.167 HD
ATOM     57  C   UNL A   1      45.163  30.643  28.333  1.00  0.00     0.074 A 
ATOM     58  C   UNL A   1      46.511  30.756  27.818  1.00  0.00     0.031 C 
ATOM     59  C   UNL A   1      44.548  31.599  29.070  1.00  0.00     0.037 A 
BRANCH  46  60
ATOM     60  C   UNL A   1      38.770  30.206  30.740  1.00  0.00     0.057 A 
ATOM     61  C   UNL A   1      37.745  30.894  30.077  1.00  0.00     0.134 A 
ATOM     62  C   UNL A   1      38.570  29.892  32.090  1.00  0.00     0.134 A 
ATOM     63  F   UNL A   1      37.882  31.238  28.788  1.00  0.00    -0.206 F 
ATOM     64  C   UNL A   1      36.579  31.280  30.738  1.00  0.00     0.040 A 
ATOM     65  C   UNL A   1      37.395  30.249  32.755  1.00  0.00     0.040 A 
ATOM     66  F   UNL A   1      39.509  29.232  32.783  1.00  0.00    -0.206 F 
ATOM     67  C   UNL A   1      36.398  30.951  32.080  1.00  0.00     0.006 A 
ENDBRANCH  46  60
BRANCH  47  68
ATOM     68  C   UNL A   1      46.895  27.058  25.839  1.00  0.00     0.057 A 
ATOM     69  C   UNL A   1      47.905  26.328  26.477  1.00  0.00     0.134 A 
ATOM     70  C   UNL A   1      47.084  27.374  24.489  1.00  0.00     0.134 A 
ATOM     71  F   UNL A   1      47.791  26.012  27.776  1.00  0.00    -0.206 F 
ATOM     72  C   UNL A   1      49.071  25.951  25.809  1.00  0.00     0.040 A 
ATOM     73  C   UNL A   1      48.234  26.982  23.800  1.00  0.00     0.040 A 
ATOM     74  F   UNL A   1      46.150  28.064  23.817  1.00  0.00    -0.206 F 
ATOM     75  C   UNL A   1      49.236  26.276  24.465  1.00  0.00     0.006 A 
ENDBRANCH  47  68
BRANCH  59  76
ATOM     76  C   UNL A   1      45.347  32.813  29.432  1.00  0.00     0.057 A 
ATOM     77  C   UNL A   1      46.209  32.830  30.534  1.00  0.00     0.134 A 
ATOM     78  C   UNL A   1      45.302  33.954  28.620  1.00  0.00     0.134 A 
ATOM     79  F   UNL A   1      46.286  31.772  31.354  1.00  0.00    -0.206 F 
ATOM     80  C   UNL A   1      46.994  33.947  30.823  1.00  0.00     0.040 A 
ATOM     81  C   UNL A   1      46.097  35.068  28.886  1.00  0.00     0.040 A 
ATOM     82  F   UNL A   1      44.501  33.993  27.545  1.00  0.00    -0.206 F 
ATOM     83  C   UNL A   1      46.946  35.066  29.992  1.00  0.00     0.006 A 
ENDBRANCH  59  76
ENDBRANCH  33  34
ENDBRANCH  25  28
ENDBRANCH  23  24
ENDBRANCH  22  23
ENDBRANCH   1  22
TORSDOF 16
ENDMDL
