MODEL 1
REMARK VINA RESULT:     -12.8      0.000      0.000
REMARK SMILES O=C(NCCCNC(=O)c1[nH]ncc1C[N@H+]1CCC[C@@H](c2nc3ccccc3o2)C1)c1ccc(-c2c3nc(c(-c4c(F)cccc4F)c4ccc([nH]4)c(-c4c(F)cccc4F)c4nc(c(-c5c(F)cccc5F)c5ccc2[nH]5)C=C4)C=C3)cc1
REMARK SMILES IDX 5 1 4 2 3 3 1 4 2 5 31 7 32 8 84 9 33 10 83 11 34 12 35 13
REMARK SMILES IDX 36 14 77 15 37 16 82 17 76 18 78 19 38 20 81 21 75 22 74 23
REMARK SMILES IDX 39 25 65 26 48 27 64 28 49 29 52 30 63 31 79 32 50 33 51 34
REMARK SMILES IDX 62 36 80 37 53 38 40 39 41 40 46 41 42 42 43 43 45 44 47 45
REMARK SMILES IDX 44 46 66 47 67 48 72 49 68 50 69 51 71 52 73 53 70 54 54 55
REMARK SMILES IDX 55 56 60 57 56 58 57 59 59 60 61 61 58 62 6 63 7 64 8 65
REMARK SMILES IDX 9 67 10 68 11 69 14 70 12 71 13 73 15 74 16 75 17 76 30 77
REMARK SMILES IDX 18 79 20 80 19 81 21 82 22 83 29 84 23 85 28 86 24 87 27 88
REMARK SMILES IDX 25 89 26 90
REMARK H PARENT 3 6 78 24 52 35 7 66 11 72 16 78
REMARK Flexibility Score: inf
ROOT
ATOM      1  C   UNL A   1      33.055  29.128  26.897  1.00  0.00     0.042 C 
ENDROOT
BRANCH   1   2
ATOM      2  C   UNL A   1      34.483  29.180  27.427  1.00  0.00     0.118 C 
BRANCH   2   3
ATOM      3  N   UNL A   1      34.687  30.270  28.370  1.00  0.00    -0.352 N 
ATOM      4  O   UNL A   1      35.634  31.439  30.032  1.00  0.00    -0.269 OA
ATOM      5  C   UNL A   1      35.775  30.612  29.133  1.00  0.00     0.251 C 
ATOM      6  H   UNL A   1      33.910  30.865  28.479  1.00  0.00     0.163 HD
BRANCH   5   7
ATOM      7  C   UNL A   1      37.106  30.011  28.900  1.00  0.00     0.039 A 
ATOM      8  C   UNL A   1      37.702  30.021  27.637  1.00  0.00     0.014 A 
ATOM      9  C   UNL A   1      37.822  29.518  29.998  1.00  0.00     0.014 A 
ATOM     10  C   UNL A   1      38.955  29.445  27.452  1.00  0.00     0.010 A 
ATOM     11  C   UNL A   1      39.113  29.007  29.826  1.00  0.00     0.010 A 
ATOM     12  C   UNL A   1      39.682  28.953  28.546  1.00  0.00    -0.014 A 
BRANCH  12  13
ATOM     13  C   UNL A   1      41.073  28.481  28.336  1.00  0.00     0.031 A 
ATOM     14  C   UNL A   1      41.368  27.056  27.975  1.00  0.00     0.074 A 
ATOM     15  C   UNL A   1      42.076  29.372  28.449  1.00  0.00     0.049 A 
ATOM     16  N   UNL A   1      42.524  26.504  27.705  1.00  0.00    -0.248 NA
ATOM     17  C   UNL A   1      40.230  26.128  27.919  1.00  0.00     0.031 C 
ATOM     18  C   UNL A   1      41.917  30.778  28.828  1.00  0.00     0.029 A 
ATOM     19  N   UNL A   1      43.423  29.236  28.231  1.00  0.00    -0.354 N 
ATOM     20  C   UNL A   1      42.258  25.162  27.473  1.00  0.00     0.074 A 
ATOM     21  C   UNL A   1      40.831  24.979  27.639  1.00  0.00     0.031 C 
ATOM     22  C   UNL A   1      43.110  31.389  28.760  1.00  0.00     0.029 A 
ATOM     23  C   UNL A   1      44.120  30.410  28.372  1.00  0.00     0.049 A 
ATOM     24  H   UNL A   1      43.848  28.380  27.996  1.00  0.00     0.167 HD
ATOM     25  C   UNL A   1      43.125  24.175  27.146  1.00  0.00     0.037 A 
ATOM     26  C   UNL A   1      45.427  30.674  28.207  1.00  0.00     0.037 A 
ATOM     27  C   UNL A   1      44.535  24.361  26.931  1.00  0.00     0.049 A 
ATOM     28  C   UNL A   1      46.361  29.567  27.829  1.00  0.00     0.074 A 
ATOM     29  C   UNL A   1      45.473  23.439  26.496  1.00  0.00     0.029 A 
ATOM     30  N   UNL A   1      45.212  25.552  27.140  1.00  0.00    -0.354 N 
ATOM     31  N   UNL A   1      46.085  28.313  27.569  1.00  0.00    -0.248 NA
ATOM     32  C   UNL A   1      47.789  29.905  27.745  1.00  0.00     0.031 C 
ATOM     33  C   UNL A   1      46.724  24.069  26.465  1.00  0.00     0.029 A 
ATOM     34  C   UNL A   1      46.560  25.383  26.871  1.00  0.00     0.049 A 
ATOM     35  H   UNL A   1      44.796  26.394  27.435  1.00  0.00     0.167 HD
ATOM     36  C   UNL A   1      47.304  27.706  27.308  1.00  0.00     0.074 A 
ATOM     37  C   UNL A   1      48.319  28.735  27.416  1.00  0.00     0.031 C 
ATOM     38  C   UNL A   1      47.557  26.409  27.017  1.00  0.00     0.037 A 
BRANCH  25  39
ATOM     39  C   UNL A   1      42.570  22.793  27.001  1.00  0.00     0.057 A 
ATOM     40  C   UNL A   1      42.387  22.204  25.745  1.00  0.00     0.134 A 
ATOM     41  C   UNL A   1      42.261  22.030  28.133  1.00  0.00     0.134 A 
ATOM     42  F   UNL A   1      42.657  22.892  24.626  1.00  0.00    -0.206 F 
ATOM     43  C   UNL A   1      41.907  20.899  25.620  1.00  0.00     0.040 A 
ATOM     44  C   UNL A   1      41.787  20.722  28.020  1.00  0.00     0.040 A 
ATOM     45  F   UNL A   1      42.415  22.543  29.362  1.00  0.00    -0.206 F 
ATOM     46  C   UNL A   1      41.610  20.153  26.759  1.00  0.00     0.006 A 
ENDBRANCH  25  39
BRANCH  26  47
ATOM     47  C   UNL A   1      45.922  32.053  28.409  1.00  0.00     0.057 A 
ATOM     48  C   UNL A   1      45.937  32.972  27.355  1.00  0.00     0.134 A 
ATOM     49  C   UNL A   1      46.347  32.495  29.667  1.00  0.00     0.134 A 
ATOM     50  F   UNL A   1      45.551  32.596  26.128  1.00  0.00    -0.206 F 
ATOM     51  C   UNL A   1      46.359  34.288  27.546  1.00  0.00     0.040 A 
ATOM     52  C   UNL A   1      46.759  33.811  29.874  1.00  0.00     0.040 A 
ATOM     53  F   UNL A   1      46.348  31.655  30.713  1.00  0.00    -0.206 F 
ATOM     54  C   UNL A   1      46.765  34.711  28.811  1.00  0.00     0.006 A 
ENDBRANCH  26  47
BRANCH  38  55
ATOM     55  C   UNL A   1      48.991  26.030  26.839  1.00  0.00     0.057 A 
ATOM     56  C   UNL A   1      49.617  26.153  25.592  1.00  0.00     0.134 A 
ATOM     57  C   UNL A   1      49.753  25.551  27.911  1.00  0.00     0.134 A 
ATOM     58  F   UNL A   1      48.929  26.591  24.528  1.00  0.00    -0.206 F 
ATOM     59  C   UNL A   1      50.955  25.804  25.415  1.00  0.00     0.040 A 
ATOM     60  C   UNL A   1      51.096  25.208  27.747  1.00  0.00     0.040 A 
ATOM     61  F   UNL A   1      49.205  25.409  29.125  1.00  0.00    -0.206 F 
ATOM     62  C   UNL A   1      51.699  25.332  26.496  1.00  0.00     0.006 A 
ENDBRANCH  38  55
ENDBRANCH  12  13
ENDBRANCH   5   7
ENDBRANCH   2   3
ENDBRANCH   1   2
BRANCH   1  63
ATOM     63  C   UNL A   1      32.828  29.942  25.631  1.00  0.00     0.118 C 
BRANCH  63  64
ATOM     64  N   UNL A   1      33.578  29.429  24.493  1.00  0.00    -0.351 N 
ATOM     65  C   UNL A   1      33.141  28.718  23.408  1.00  0.00     0.269 C 
ATOM     66  H   UNL A   1      34.543  29.622  24.505  1.00  0.00     0.163 HD
ATOM     67  O   UNL A   1      33.979  28.141  22.717  1.00  0.00    -0.268 OA
BRANCH  65  68
ATOM     68  C   UNL A   1      31.737  28.619  23.148  1.00  0.00     0.131 A 
ATOM     69  N   UNL A   1      31.129  29.397  22.198  1.00  0.00    -0.272 N 
ATOM     70  C   UNL A   1      30.709  27.896  23.746  1.00  0.00     0.057 A 
ATOM     71  N   UNL A   1      29.839  29.103  22.000  1.00  0.00    -0.183 NA
ATOM     72  H   UNL A   1      31.600  30.110  21.707  1.00  0.00     0.190 HD
ATOM     73  C   UNL A   1      29.577  28.205  22.948  1.00  0.00     0.145 A 
BRANCH  70  74
ATOM     74  C   UNL A   1      30.770  26.969  24.917  1.00  0.00     0.303 C 
BRANCH  74  75
ATOM     75  N   UNL A   1      31.106  25.580  24.591  1.00  0.00    -0.330 N 
ATOM     76  C   UNL A   1      30.630  25.140  23.278  1.00  0.00     0.262 C 
ATOM     77  C   UNL A   1      32.520  25.255  24.799  1.00  0.00     0.275 C 
ATOM     78  H   UNL A   1      30.579  25.034  25.273  1.00  0.00     0.348 HD
ATOM     79  C   UNL A   1      30.812  23.626  23.126  1.00  0.00     0.062 C 
ATOM     80  C   UNL A   1      32.772  23.742  24.703  1.00  0.00     0.131 C 
ATOM     81  C   UNL A   1      32.263  23.201  23.363  1.00  0.00     0.025 C 
BRANCH  80  82
ATOM     82  C   UNL A   1      34.229  23.492  24.887  1.00  0.00     0.204 A 
ATOM     83  N   UNL A   1      35.117  24.256  25.497  1.00  0.00    -0.213 NA
ATOM     84  O   UNL A   1      34.694  22.263  24.496  1.00  0.00    -0.440 OA
ATOM     85  C   UNL A   1      36.240  23.472  25.540  1.00  0.00     0.109 A 
ATOM     86  C   UNL A   1      35.989  22.256  24.926  1.00  0.00     0.154 A 
ATOM     87  C   UNL A   1      37.502  23.704  26.100  1.00  0.00     0.032 A 
ATOM     88  C   UNL A   1      36.911  21.223  24.810  1.00  0.00     0.049 A 
ATOM     89  C   UNL A   1      38.460  22.683  26.011  1.00  0.00     0.003 A 
ATOM     90  C   UNL A   1      38.168  21.468  25.377  1.00  0.00     0.004 A 
ENDBRANCH  80  82
ENDBRANCH  74  75
ENDBRANCH  70  74
ENDBRANCH  65  68
ENDBRANCH  63  64
ENDBRANCH   1  63
TORSDOF 13
ENDMDL
MODEL 2
REMARK VINA RESULT:     -12.8      5.303     10.142
REMARK SMILES O=C(NCCCNC(=O)c1[nH]ncc1C[N@H+]1CCC[C@@H](c2nc3ccccc3o2)C1)c1ccc(-c2c3nc(c(-c4c(F)cccc4F)c4ccc([nH]4)c(-c4c(F)cccc4F)c4nc(c(-c5c(F)cccc5F)c5ccc2[nH]5)C=C4)C=C3)cc1
REMARK SMILES IDX 5 1 4 2 3 3 1 4 2 5 31 7 32 8 84 9 33 10 83 11 34 12 35 13
REMARK SMILES IDX 36 14 77 15 37 16 82 17 76 18 78 19 38 20 81 21 75 22 74 23
REMARK SMILES IDX 39 25 65 26 48 27 64 28 49 29 52 30 63 31 79 32 50 33 51 34
REMARK SMILES IDX 62 36 80 37 53 38 40 39 41 40 46 41 42 42 43 43 45 44 47 45
REMARK SMILES IDX 44 46 66 47 67 48 72 49 68 50 69 51 71 52 73 53 70 54 54 55
REMARK SMILES IDX 55 56 60 57 56 58 57 59 59 60 61 61 58 62 6 63 7 64 8 65
REMARK SMILES IDX 9 67 10 68 11 69 14 70 12 71 13 73 15 74 16 75 17 76 30 77
REMARK SMILES IDX 18 79 20 80 19 81 21 82 22 83 29 84 23 85 28 86 24 87 27 88
REMARK SMILES IDX 25 89 26 90
REMARK H PARENT 3 6 78 24 52 35 7 66 11 72 16 78
REMARK Flexibility Score: inf
ROOT
ATOM      1  C   UNL A   1      37.099  23.073  25.182  1.00  0.00     0.042 C 
ENDROOT
BRANCH   1   2
ATOM      2  C   UNL A   1      37.905  23.886  26.187  1.00  0.00     0.118 C 
BRANCH   2   3
ATOM      3  N   UNL A   1      39.333  23.622  26.100  1.00  0.00    -0.352 N 
ATOM      4  O   UNL A   1      41.537  24.031  26.155  1.00  0.00    -0.269 OA
ATOM      5  C   UNL A   1      40.414  24.337  26.551  1.00  0.00     0.251 C 
ATOM      6  H   UNL A   1      39.565  22.784  25.636  1.00  0.00     0.163 HD
BRANCH   5   7
ATOM      7  C   UNL A   1      40.258  25.462  27.499  1.00  0.00     0.039 A 
ATOM      8  C   UNL A   1      39.381  25.389  28.583  1.00  0.00     0.014 A 
ATOM      9  C   UNL A   1      41.091  26.579  27.357  1.00  0.00     0.014 A 
ATOM     10  C   UNL A   1      39.257  26.468  29.454  1.00  0.00     0.010 A 
ATOM     11  C   UNL A   1      41.021  27.631  28.277  1.00  0.00     0.010 A 
ATOM     12  C   UNL A   1      40.090  27.588  29.324  1.00  0.00    -0.014 A 
BRANCH  12  13
ATOM     13  C   UNL A   1      40.035  28.653  30.355  1.00  0.00     0.031 A 
ATOM     14  C   UNL A   1      39.015  29.751  30.291  1.00  0.00     0.074 A 
ATOM     15  C   UNL A   1      40.909  28.602  31.378  1.00  0.00     0.049 A 
ATOM     16  N   UNL A   1      38.803  30.721  31.144  1.00  0.00    -0.248 NA
ATOM     17  C   UNL A   1      38.127  29.775  29.121  1.00  0.00     0.031 C 
ATOM     18  C   UNL A   1      41.969  27.602  31.532  1.00  0.00     0.029 A 
ATOM     19  N   UNL A   1      41.029  29.389  32.494  1.00  0.00    -0.354 N 
ATOM     20  C   UNL A   1      37.778  31.484  30.604  1.00  0.00     0.074 A 
ATOM     21  C   UNL A   1      37.412  30.869  29.345  1.00  0.00     0.031 C 
ATOM     22  C   UNL A   1      42.594  27.801  32.702  1.00  0.00     0.029 A 
ATOM     23  C   UNL A   1      42.006  28.963  33.360  1.00  0.00     0.049 A 
ATOM     24  H   UNL A   1      40.471  30.182  32.658  1.00  0.00     0.167 HD
ATOM     25  C   UNL A   1      37.193  32.593  31.116  1.00  0.00     0.037 A 
ATOM     26  C   UNL A   1      42.387  29.450  34.553  1.00  0.00     0.037 A 
ATOM     27  C   UNL A   1      37.519  33.178  32.388  1.00  0.00     0.049 A 
ATOM     28  C   UNL A   1      41.711  30.668  35.102  1.00  0.00     0.074 A 
ATOM     29  C   UNL A   1      36.907  34.239  33.034  1.00  0.00     0.029 A 
ATOM     30  N   UNL A   1      38.551  32.752  33.209  1.00  0.00    -0.354 N 
ATOM     31  N   UNL A   1      40.712  31.349  34.599  1.00  0.00    -0.248 NA
ATOM     32  C   UNL A   1      42.231  31.197  36.371  1.00  0.00     0.031 C 
ATOM     33  C   UNL A   1      37.587  34.472  34.236  1.00  0.00     0.029 A 
ATOM     34  C   UNL A   1      38.613  33.547  34.341  1.00  0.00     0.049 A 
ATOM     35  H   UNL A   1      39.151  31.996  33.016  1.00  0.00     0.167 HD
ATOM     36  C   UNL A   1      40.493  32.399  35.478  1.00  0.00     0.074 A 
ATOM     37  C   UNL A   1      41.446  32.250  36.559  1.00  0.00     0.031 C 
ATOM     38  C   UNL A   1      39.589  33.403  35.387  1.00  0.00     0.037 A 
BRANCH  25  39
ATOM     39  C   UNL A   1      36.133  33.252  30.291  1.00  0.00     0.057 A 
ATOM     40  C   UNL A   1      36.454  34.054  29.190  1.00  0.00     0.134 A 
ATOM     41  C   UNL A   1      34.778  33.043  30.576  1.00  0.00     0.134 A 
ATOM     42  F   UNL A   1      37.735  34.298  28.877  1.00  0.00    -0.206 F 
ATOM     43  C   UNL A   1      35.459  34.633  28.401  1.00  0.00     0.040 A 
ATOM     44  C   UNL A   1      33.775  33.611  29.789  1.00  0.00     0.040 A 
ATOM     45  F   UNL A   1      34.412  32.286  31.620  1.00  0.00    -0.206 F 
ATOM     46  C   UNL A   1      34.115  34.408  28.698  1.00  0.00     0.006 A 
ENDBRANCH  25  39
BRANCH  26  47
ATOM     47  C   UNL A   1      43.473  28.778  35.299  1.00  0.00     0.057 A 
ATOM     48  C   UNL A   1      44.806  29.162  35.128  1.00  0.00     0.134 A 
ATOM     49  C   UNL A   1      43.198  27.770  36.230  1.00  0.00     0.134 A 
ATOM     50  F   UNL A   1      45.125  30.115  34.240  1.00  0.00    -0.206 F 
ATOM     51  C   UNL A   1      45.833  28.566  35.860  1.00  0.00     0.040 A 
ATOM     52  C   UNL A   1      44.213  27.175  36.978  1.00  0.00     0.040 A 
ATOM     53  F   UNL A   1      41.935  27.367  36.436  1.00  0.00    -0.206 F 
ATOM     54  C   UNL A   1      45.536  27.574  36.793  1.00  0.00     0.006 A 
ENDBRANCH  26  47
BRANCH  38  55
ATOM     55  C   UNL A   1      39.624  34.435  36.467  1.00  0.00     0.057 A 
ATOM     56  C   UNL A   1      40.364  35.614  36.310  1.00  0.00     0.134 A 
ATOM     57  C   UNL A   1      38.914  34.261  37.660  1.00  0.00     0.134 A 
ATOM     58  F   UNL A   1      41.076  35.824  35.193  1.00  0.00    -0.206 F 
ATOM     59  C   UNL A   1      40.402  36.584  37.310  1.00  0.00     0.040 A 
ATOM     60  C   UNL A   1      38.937  35.230  38.664  1.00  0.00     0.040 A 
ATOM     61  F   UNL A   1      38.192  33.151  37.866  1.00  0.00    -0.206 F 
ATOM     62  C   UNL A   1      39.685  36.394  38.490  1.00  0.00     0.006 A 
ENDBRANCH  38  55
ENDBRANCH  12  13
ENDBRANCH   5   7
ENDBRANCH   2   3
ENDBRANCH   1   2
BRANCH   1  63
ATOM     63  C   UNL A   1      36.491  21.799  25.754  1.00  0.00     0.118 C 
BRANCH  63  64
ATOM     64  N   UNL A   1      35.569  22.060  26.849  1.00  0.00    -0.351 N 
ATOM     65  C   UNL A   1      34.216  21.864  26.918  1.00  0.00     0.269 C 
ATOM     66  H   UNL A   1      35.979  22.434  27.662  1.00  0.00     0.163 HD
ATOM     67  O   UNL A   1      33.596  22.417  27.825  1.00  0.00    -0.268 OA
BRANCH  65  68
ATOM     68  C   UNL A   1      33.564  21.082  25.912  1.00  0.00     0.131 A 
ATOM     69  N   UNL A   1      33.091  19.825  26.180  1.00  0.00    -0.272 N 
ATOM     70  C   UNL A   1      33.337  21.280  24.554  1.00  0.00     0.057 A 
ATOM     71  N   UNL A   1      32.410  19.274  25.168  1.00  0.00    -0.183 NA
ATOM     72  H   UNL A   1      33.240  19.367  27.040  1.00  0.00     0.190 HD
ATOM     73  C   UNL A   1      32.571  20.147  24.175  1.00  0.00     0.145 A 
BRANCH  70  74
ATOM     74  C   UNL A   1      33.746  22.430  23.691  1.00  0.00     0.303 C 
BRANCH  74  75
ATOM     75  N   UNL A   1      32.801  23.549  23.659  1.00  0.00    -0.330 N 
ATOM     76  C   UNL A   1      31.404  23.160  23.866  1.00  0.00     0.262 C 
ATOM     77  C   UNL A   1      33.191  24.669  24.520  1.00  0.00     0.275 C 
ATOM     78  H   UNL A   1      32.854  23.888  22.699  1.00  0.00     0.348 HD
ATOM     79  C   UNL A   1      30.474  24.345  23.580  1.00  0.00     0.062 C 
ATOM     80  C   UNL A   1      32.325  25.912  24.257  1.00  0.00     0.131 C 
ATOM     81  C   UNL A   1      30.840  25.570  24.419  1.00  0.00     0.025 C 
BRANCH  80  82
ATOM     82  C   UNL A   1      32.753  26.993  25.189  1.00  0.00     0.204 A 
ATOM     83  N   UNL A   1      33.907  27.118  25.818  1.00  0.00    -0.213 NA
ATOM     84  O   UNL A   1      31.906  28.063  25.316  1.00  0.00    -0.440 OA
ATOM     85  C   UNL A   1      33.835  28.367  26.378  1.00  0.00     0.109 A 
ATOM     86  C   UNL A   1      32.613  28.947  26.079  1.00  0.00     0.154 A 
ATOM     87  C   UNL A   1      34.766  29.091  27.132  1.00  0.00     0.032 A 
ATOM     88  C   UNL A   1      32.221  30.217  26.480  1.00  0.00     0.049 A 
ATOM     89  C   UNL A   1      34.412  30.382  27.550  1.00  0.00     0.003 A 
ATOM     90  C   UNL A   1      33.164  30.932  27.231  1.00  0.00     0.004 A 
ENDBRANCH  80  82
ENDBRANCH  74  75
ENDBRANCH  70  74
ENDBRANCH  65  68
ENDBRANCH  63  64
ENDBRANCH   1  63
TORSDOF 13
ENDMDL
MODEL 3
REMARK VINA RESULT:     -12.6      1.870      2.458
REMARK SMILES O=C(NCCCNC(=O)c1[nH]ncc1C[N@H+]1CCC[C@@H](c2nc3ccccc3o2)C1)c1ccc(-c2c3nc(c(-c4c(F)cccc4F)c4ccc([nH]4)c(-c4c(F)cccc4F)c4nc(c(-c5c(F)cccc5F)c5ccc2[nH]5)C=C4)C=C3)cc1
REMARK SMILES IDX 5 1 4 2 3 3 1 4 2 5 31 7 32 8 84 9 33 10 83 11 34 12 35 13
REMARK SMILES IDX 36 14 77 15 37 16 82 17 76 18 78 19 38 20 81 21 75 22 74 23
REMARK SMILES IDX 39 25 65 26 48 27 64 28 49 29 52 30 63 31 79 32 50 33 51 34
REMARK SMILES IDX 62 36 80 37 53 38 40 39 41 40 46 41 42 42 43 43 45 44 47 45
REMARK SMILES IDX 44 46 66 47 67 48 72 49 68 50 69 51 71 52 73 53 70 54 54 55
REMARK SMILES IDX 55 56 60 57 56 58 57 59 59 60 61 61 58 62 6 63 7 64 8 65
REMARK SMILES IDX 9 67 10 68 11 69 14 70 12 71 13 73 15 74 16 75 17 76 30 77
REMARK SMILES IDX 18 79 20 80 19 81 21 82 22 83 29 84 23 85 28 86 24 87 27 88
REMARK SMILES IDX 25 89 26 90
REMARK H PARENT 3 6 78 24 52 35 7 66 11 72 16 78
REMARK Flexibility Score: inf
ROOT
ATOM      1  C   UNL A   1      34.029  28.106  25.893  1.00  0.00     0.042 C 
ENDROOT
BRANCH   1   2
ATOM      2  C   UNL A   1      33.613  28.405  27.328  1.00  0.00     0.118 C 
BRANCH   2   3
ATOM      3  N   UNL A   1      33.682  29.824  27.644  1.00  0.00    -0.352 N 
ATOM      4  O   UNL A   1      34.419  31.715  28.595  1.00  0.00    -0.269 OA
ATOM      5  C   UNL A   1      34.678  30.576  28.213  1.00  0.00     0.251 C 
ATOM      6  H   UNL A   1      32.873  30.334  27.407  1.00  0.00     0.163 HD
BRANCH   5   7
ATOM      7  C   UNL A   1      36.050  30.048  28.378  1.00  0.00     0.039 A 
ATOM      8  C   UNL A   1      37.008  30.175  27.369  1.00  0.00     0.014 A 
ATOM      9  C   UNL A   1      36.417  29.505  29.616  1.00  0.00     0.014 A 
ATOM     10  C   UNL A   1      38.290  29.664  27.556  1.00  0.00     0.010 A 
ATOM     11  C   UNL A   1      37.727  29.062  29.830  1.00  0.00     0.010 A 
ATOM     12  C   UNL A   1      38.669  29.124  28.794  1.00  0.00    -0.014 A 
BRANCH  12  13
ATOM     13  C   UNL A   1      40.082  28.726  29.006  1.00  0.00     0.031 A 
ATOM     14  C   UNL A   1      40.597  27.396  28.543  1.00  0.00     0.074 A 
ATOM     15  C   UNL A   1      40.912  29.601  29.604  1.00  0.00     0.049 A 
ATOM     16  N   UNL A   1      41.816  26.924  28.605  1.00  0.00    -0.248 NA
ATOM     17  C   UNL A   1      39.624  26.470  27.945  1.00  0.00     0.031 C 
ATOM     18  C   UNL A   1      40.520  30.912  30.128  1.00  0.00     0.029 A 
ATOM     19  N   UNL A   1      42.259  29.534  29.848  1.00  0.00    -0.354 N 
ATOM     20  C   UNL A   1      41.755  25.642  28.080  1.00  0.00     0.074 A 
ATOM     21  C   UNL A   1      40.376  25.403  27.707  1.00  0.00     0.031 C 
ATOM     22  C   UNL A   1      41.611  31.548  30.579  1.00  0.00     0.029 A 
ATOM     23  C   UNL A   1      42.769  30.677  30.412  1.00  0.00     0.049 A 
ATOM     24  H   UNL A   1      42.807  28.744  29.639  1.00  0.00     0.167 HD
ATOM     25  C   UNL A   1      42.759  24.748  27.918  1.00  0.00     0.037 A 
ATOM     26  C   UNL A   1      44.029  30.992  30.757  1.00  0.00     0.037 A 
ATOM     27  C   UNL A   1      44.138  24.998  28.240  1.00  0.00     0.049 A 
ATOM     28  C   UNL A   1      45.122  29.991  30.552  1.00  0.00     0.074 A 
ATOM     29  C   UNL A   1      45.239  24.189  28.013  1.00  0.00     0.029 A 
ATOM     30  N   UNL A   1      44.605  26.145  28.862  1.00  0.00    -0.354 N 
ATOM     31  N   UNL A   1      45.054  28.800  30.011  1.00  0.00    -0.248 NA
ATOM     32  C   UNL A   1      46.462  30.367  31.026  1.00  0.00     0.031 C 
ATOM     33  C   UNL A   1      46.371  24.838  28.523  1.00  0.00     0.029 A 
ATOM     34  C   UNL A   1      45.973  26.054  29.054  1.00  0.00     0.049 A 
ATOM     35  H   UNL A   1      44.047  26.911  29.128  1.00  0.00     0.167 HD
ATOM     36  C   UNL A   1      46.334  28.274  30.095  1.00  0.00     0.074 A 
ATOM     37  C   UNL A   1      47.166  29.286  30.715  1.00  0.00     0.031 C 
ATOM     38  C   UNL A   1      46.775  27.056  29.703  1.00  0.00     0.037 A 
BRANCH  25  39
ATOM     39  C   UNL A   1      42.400  23.404  27.366  1.00  0.00     0.057 A 
ATOM     40  C   UNL A   1      42.485  23.127  25.998  1.00  0.00     0.134 A 
ATOM     41  C   UNL A   1      42.009  22.367  28.221  1.00  0.00     0.134 A 
ATOM     42  F   UNL A   1      42.843  24.085  25.131  1.00  0.00    -0.206 F 
ATOM     43  C   UNL A   1      42.188  21.859  25.495  1.00  0.00     0.040 A 
ATOM     44  C   UNL A   1      41.717  21.093  27.731  1.00  0.00     0.040 A 
ATOM     45  F   UNL A   1      41.908  22.576  29.542  1.00  0.00    -0.206 F 
ATOM     46  C   UNL A   1      41.806  20.837  26.364  1.00  0.00     0.006 A 
ENDBRANCH  25  39
BRANCH  26  47
ATOM     47  C   UNL A   1      44.312  32.322  31.340  1.00  0.00     0.057 A 
ATOM     48  C   UNL A   1      44.683  33.397  30.528  1.00  0.00     0.134 A 
ATOM     49  C   UNL A   1      44.176  32.556  32.713  1.00  0.00     0.134 A 
ATOM     50  F   UNL A   1      44.838  33.224  29.208  1.00  0.00    -0.206 F 
ATOM     51  C   UNL A   1      44.908  34.667  31.063  1.00  0.00     0.040 A 
ATOM     52  C   UNL A   1      44.385  33.822  33.259  1.00  0.00     0.040 A 
ATOM     53  F   UNL A   1      43.819  31.559  33.537  1.00  0.00    -0.206 F 
ATOM     54  C   UNL A   1      44.752  34.882  32.432  1.00  0.00     0.006 A 
ENDBRANCH  26  47
BRANCH  38  55
ATOM     55  C   UNL A   1      48.211  26.744  29.975  1.00  0.00     0.057 A 
ATOM     56  C   UNL A   1      48.592  26.085  31.150  1.00  0.00     0.134 A 
ATOM     57  C   UNL A   1      49.214  27.091  29.063  1.00  0.00     0.134 A 
ATOM     58  F   UNL A   1      47.673  25.744  32.065  1.00  0.00    -0.206 F 
ATOM     59  C   UNL A   1      49.928  25.787  31.414  1.00  0.00     0.040 A 
ATOM     60  C   UNL A   1      50.553  26.790  29.313  1.00  0.00     0.040 A 
ATOM     61  F   UNL A   1      48.908  27.727  27.924  1.00  0.00    -0.206 F 
ATOM     62  C   UNL A   1      50.913  26.138  30.491  1.00  0.00     0.006 A 
ENDBRANCH  38  55
ENDBRANCH  12  13
ENDBRANCH   5   7
ENDBRANCH   2   3
ENDBRANCH   1   2
BRANCH   1  63
ATOM     63  C   UNL A   1      33.605  29.166  24.886  1.00  0.00     0.118 C 
BRANCH  63  64
ATOM     64  N   UNL A   1      34.156  28.931  23.559  1.00  0.00    -0.351 N 
ATOM     65  C   UNL A   1      33.529  28.523  22.412  1.00  0.00     0.269 C 
ATOM     66  H   UNL A   1      35.124  29.088  23.473  1.00  0.00     0.163 HD
ATOM     67  O   UNL A   1      34.226  28.113  21.486  1.00  0.00    -0.268 OA
BRANCH  65  68
ATOM     68  C   UNL A   1      32.099  28.530  22.349  1.00  0.00     0.131 A 
ATOM     69  N   UNL A   1      31.395  29.700  22.242  1.00  0.00    -0.272 N 
ATOM     70  C   UNL A   1      31.139  27.529  22.459  1.00  0.00     0.057 A 
ATOM     71  N   UNL A   1      30.077  29.527  22.080  1.00  0.00    -0.183 NA
ATOM     72  H   UNL A   1      31.819  30.588  22.281  1.00  0.00     0.190 HD
ATOM     73  C   UNL A   1      29.917  28.213  22.228  1.00  0.00     0.145 A 
BRANCH  70  74
ATOM     74  C   UNL A   1      31.330  26.067  22.708  1.00  0.00     0.303 C 
BRANCH  74  75
ATOM     75  N   UNL A   1      31.684  25.714  24.085  1.00  0.00    -0.330 N 
ATOM     76  C   UNL A   1      30.546  25.305  24.912  1.00  0.00     0.262 C 
ATOM     77  C   UNL A   1      32.797  24.766  24.178  1.00  0.00     0.275 C 
ATOM     78  H   UNL A   1      32.016  26.591  24.486  1.00  0.00     0.348 HD
ATOM     79  C   UNL A   1      30.970  25.189  26.380  1.00  0.00     0.062 C 
ATOM     80  C   UNL A   1      33.305  24.630  25.622  1.00  0.00     0.131 C 
ATOM     81  C   UNL A   1      32.155  24.238  26.556  1.00  0.00     0.025 C 
BRANCH  80  82
ATOM     82  C   UNL A   1      34.407  23.626  25.644  1.00  0.00     0.204 A 
ATOM     83  N   UNL A   1      34.354  22.349  25.311  1.00  0.00    -0.213 NA
ATOM     84  O   UNL A   1      35.664  24.102  25.914  1.00  0.00    -0.440 OA
ATOM     85  C   UNL A   1      35.667  21.957  25.333  1.00  0.00     0.109 A 
ATOM     86  C   UNL A   1      36.470  23.021  25.705  1.00  0.00     0.154 A 
ATOM     87  C   UNL A   1      36.263  20.726  25.030  1.00  0.00     0.032 A 
ATOM     88  C   UNL A   1      37.854  22.968  25.812  1.00  0.00     0.049 A 
ATOM     89  C   UNL A   1      37.660  20.633  25.118  1.00  0.00     0.003 A 
ATOM     90  C   UNL A   1      38.438  21.733  25.503  1.00  0.00     0.004 A 
ENDBRANCH  80  82
ENDBRANCH  74  75
ENDBRANCH  70  74
ENDBRANCH  65  68
ENDBRANCH  63  64
ENDBRANCH   1  63
TORSDOF 13
ENDMDL
