MODEL 1
REMARK VINA RESULT:     -12.1      0.000      0.000
REMARK SMILES O=C(NCCCNC(=O)c1ccc(F)cc1-c1ccc(F)c(Cl)c1)c1ccc(-c2c3nc(c(-c4c(F)cccc4F)c4ccc([nH]4)c(-c4c(F)cccc4F)c4nc(c(-c5c(F)cccc5F)c5ccc2[nH]5)C=C4)C=C3)cc1
REMARK SMILES IDX 4 1 3 2 1 3 2 4 25 6 26 7 78 8 27 9 77 10 28 11 29 12 30 13
REMARK SMILES IDX 71 14 31 15 76 16 70 17 72 18 32 19 75 20 69 21 68 22 33 24
REMARK SMILES IDX 59 25 42 26 58 27 43 28 46 29 57 30 73 31 44 32 45 33 56 35
REMARK SMILES IDX 74 36 47 37 34 38 35 39 40 40 36 41 37 42 39 43 41 44 38 45
REMARK SMILES IDX 60 46 61 47 66 48 62 49 63 50 65 51 67 52 64 53 48 54 49 55
REMARK SMILES IDX 54 56 50 57 51 58 53 59 55 60 52 61 5 62 6 63 7 64 8 65 9 67
REMARK SMILES IDX 10 68 11 69 16 70 12 71 15 72 13 73 14 74 17 75 18 76 24 77
REMARK SMILES IDX 19 78 22 79 20 80 23 81 21 82
REMARK H PARENT 3 5 72 23 46 34 7 66
REMARK Flexibility Score: inf
ROOT
ATOM      1  C   UNL A   1      38.910  20.148  25.757  1.00  0.00     0.118 C 
ENDROOT
BRANCH   1   2
ATOM      2  N   UNL A   1      40.016  19.203  25.838  1.00  0.00    -0.352 N 
ATOM      3  O   UNL A   1      42.138  18.464  25.892  1.00  0.00    -0.269 OA
ATOM      4  C   UNL A   1      41.360  19.405  26.037  1.00  0.00     0.251 C 
ATOM      5  H   UNL A   1      39.757  18.260  25.733  1.00  0.00     0.163 HD
BRANCH   4   6
ATOM      6  C   UNL A   1      41.887  20.739  26.397  1.00  0.00     0.039 A 
ATOM      7  C   UNL A   1      42.147  21.084  27.724  1.00  0.00     0.014 A 
ATOM      8  C   UNL A   1      42.174  21.650  25.376  1.00  0.00     0.014 A 
ATOM      9  C   UNL A   1      42.536  22.383  28.043  1.00  0.00     0.010 A 
ATOM     10  C   UNL A   1      42.653  22.924  25.689  1.00  0.00     0.010 A 
ATOM     11  C   UNL A   1      42.804  23.313  27.028  1.00  0.00    -0.014 A 
BRANCH  11  12
ATOM     12  C   UNL A   1      43.288  24.672  27.379  1.00  0.00     0.031 A 
ATOM     13  C   UNL A   1      42.335  25.731  27.855  1.00  0.00     0.074 A 
ATOM     14  C   UNL A   1      44.602  24.948  27.270  1.00  0.00     0.049 A 
ATOM     15  N   UNL A   1      42.578  26.981  28.164  1.00  0.00    -0.248 NA
ATOM     16  C   UNL A   1      40.924  25.341  28.002  1.00  0.00     0.031 C 
ATOM     17  C   UNL A   1      45.626  24.001  26.824  1.00  0.00     0.029 A 
ATOM     18  N   UNL A   1      45.304  26.097  27.529  1.00  0.00    -0.354 N 
ATOM     19  C   UNL A   1      41.353  27.530  28.519  1.00  0.00     0.074 A 
ATOM     20  C   UNL A   1      40.362  26.486  28.365  1.00  0.00     0.031 C 
ATOM     21  C   UNL A   1      46.826  24.595  26.875  1.00  0.00     0.029 A 
ATOM     22  C   UNL A   1      46.651  25.983  27.291  1.00  0.00     0.049 A 
ATOM     23  H   UNL A   1      44.882  26.925  27.854  1.00  0.00     0.167 HD
ATOM     24  C   UNL A   1      41.084  28.787  28.943  1.00  0.00     0.037 A 
ATOM     25  C   UNL A   1      47.637  26.895  27.372  1.00  0.00     0.037 A 
ATOM     26  C   UNL A   1      42.078  29.816  29.108  1.00  0.00     0.049 A 
ATOM     27  C   UNL A   1      47.308  28.295  27.799  1.00  0.00     0.074 A 
ATOM     28  C   UNL A   1      41.907  31.113  29.562  1.00  0.00     0.029 A 
ATOM     29  N   UNL A   1      43.428  29.670  28.821  1.00  0.00    -0.354 N 
ATOM     30  N   UNL A   1      46.148  28.797  28.145  1.00  0.00    -0.248 NA
ATOM     31  C   UNL A   1      48.417  29.257  27.838  1.00  0.00     0.031 C 
ATOM     32  C   UNL A   1      43.142  31.765  29.501  1.00  0.00     0.029 A 
ATOM     33  C   UNL A   1      44.095  30.858  29.064  1.00  0.00     0.049 A 
ATOM     34  H   UNL A   1      43.849  28.842  28.493  1.00  0.00     0.167 HD
ATOM     35  C   UNL A   1      46.388  30.126  28.465  1.00  0.00     0.074 A 
ATOM     36  C   UNL A   1      47.807  30.352  28.276  1.00  0.00     0.031 C 
ATOM     37  C   UNL A   1      45.509  31.070  28.879  1.00  0.00     0.037 A 
BRANCH  24  38
ATOM     38  C   UNL A   1      39.655  29.135  29.246  1.00  0.00     0.057 A 
ATOM     39  C   UNL A   1      39.148  28.997  30.545  1.00  0.00     0.134 A 
ATOM     40  C   UNL A   1      38.763  29.542  28.245  1.00  0.00     0.134 A 
ATOM     41  F   UNL A   1      39.944  28.602  31.549  1.00  0.00    -0.206 F 
ATOM     42  C   UNL A   1      37.805  29.243  30.836  1.00  0.00     0.040 A 
ATOM     43  C   UNL A   1      37.424  29.816  28.529  1.00  0.00     0.040 A 
ATOM     44  F   UNL A   1      39.186  29.703  26.982  1.00  0.00    -0.206 F 
ATOM     45  C   UNL A   1      36.940  29.657  29.826  1.00  0.00     0.006 A 
ENDBRANCH  24  38
BRANCH  25  46
ATOM     46  C   UNL A   1      49.025  26.490  27.043  1.00  0.00     0.057 A 
ATOM     47  C   UNL A   1      49.488  26.483  25.722  1.00  0.00     0.134 A 
ATOM     48  C   UNL A   1      49.896  26.034  28.036  1.00  0.00     0.134 A 
ATOM     49  F   UNL A   1      48.696  26.899  24.723  1.00  0.00    -0.206 F 
ATOM     50  C   UNL A   1      50.760  26.008  25.395  1.00  0.00     0.040 A 
ATOM     51  C   UNL A   1      51.179  25.578  27.728  1.00  0.00     0.040 A 
ATOM     52  F   UNL A   1      49.513  26.030  29.322  1.00  0.00    -0.206 F 
ATOM     53  C   UNL A   1      51.609  25.554  26.402  1.00  0.00     0.006 A 
ENDBRANCH  25  46
BRANCH  37  54
ATOM     54  C   UNL A   1      46.047  32.435  29.190  1.00  0.00     0.057 A 
ATOM     55  C   UNL A   1      46.149  33.404  28.184  1.00  0.00     0.134 A 
ATOM     56  C   UNL A   1      46.550  32.758  30.457  1.00  0.00     0.134 A 
ATOM     57  F   UNL A   1      45.693  33.153  26.948  1.00  0.00    -0.206 F 
ATOM     58  C   UNL A   1      46.752  34.639  28.421  1.00  0.00     0.040 A 
ATOM     59  C   UNL A   1      47.134  34.000  30.711  1.00  0.00     0.040 A 
ATOM     60  F   UNL A   1      46.471  31.876  31.464  1.00  0.00    -0.206 F 
ATOM     61  C   UNL A   1      47.249  34.939  29.688  1.00  0.00     0.006 A 
ENDBRANCH  37  54
ENDBRANCH  11  12
ENDBRANCH   4   6
ENDBRANCH   1   2
BRANCH   1  62
ATOM     62  C   UNL A   1      37.710  19.595  25.001  1.00  0.00     0.042 C 
BRANCH  62  63
ATOM     63  C   UNL A   1      36.668  20.640  24.626  1.00  0.00     0.118 C 
BRANCH  63  64
ATOM     64  N   UNL A   1      35.747  20.938  25.715  1.00  0.00    -0.352 N 
ATOM     65  C   UNL A   1      34.403  20.694  25.838  1.00  0.00     0.251 C 
ATOM     66  H   UNL A   1      36.157  21.388  26.489  1.00  0.00     0.163 HD
ATOM     67  O   UNL A   1      33.805  21.078  26.842  1.00  0.00    -0.269 OA
BRANCH  65  68
ATOM     68  C   UNL A   1      33.679  19.962  24.773  1.00  0.00     0.047 A 
ATOM     69  C   UNL A   1      33.677  18.555  24.832  1.00  0.00     0.017 A 
ATOM     70  C   UNL A   1      32.957  20.643  23.768  1.00  0.00    -0.003 A 
ATOM     71  C   UNL A   1      33.043  17.812  23.841  1.00  0.00     0.040 A 
ATOM     72  C   UNL A   1      32.322  19.865  22.780  1.00  0.00     0.048 A 
ATOM     73  C   UNL A   1      32.382  18.474  22.817  1.00  0.00     0.123 A 
ATOM     74  F   UNL A   1      31.778  17.764  21.857  1.00  0.00    -0.207 F 
BRANCH  70  75
ATOM     75  C   UNL A   1      32.801  22.108  23.726  1.00  0.00    -0.016 A 
ATOM     76  C   UNL A   1      33.644  22.922  22.952  1.00  0.00     0.012 A 
ATOM     77  C   UNL A   1      31.780  22.725  24.478  1.00  0.00     0.032 A 
ATOM     78  C   UNL A   1      33.481  24.311  22.937  1.00  0.00     0.041 A 
ATOM     79  C   UNL A   1      31.617  24.111  24.460  1.00  0.00     0.077 A 
ATOM     80  C   UNL A   1      32.469  24.897  23.692  1.00  0.00     0.141 A 
ATOM     81  Cl  UNL A   1      30.355  24.826  25.389  1.00  0.00    -0.081 Cl
ATOM     82  F   UNL A   1      32.330  26.231  23.660  1.00  0.00    -0.205 F 
ENDBRANCH  70  75
ENDBRANCH  65  68
ENDBRANCH  63  64
ENDBRANCH  62  63
ENDBRANCH   1  62
TORSDOF 11
ENDMDL
MODEL 2
REMARK VINA RESULT:     -12.1      1.179      2.074
REMARK SMILES O=C(NCCCNC(=O)c1ccc(F)cc1-c1ccc(F)c(Cl)c1)c1ccc(-c2c3nc(c(-c4c(F)cccc4F)c4ccc([nH]4)c(-c4c(F)cccc4F)c4nc(c(-c5c(F)cccc5F)c5ccc2[nH]5)C=C4)C=C3)cc1
REMARK SMILES IDX 4 1 3 2 1 3 2 4 25 6 26 7 78 8 27 9 77 10 28 11 29 12 30 13
REMARK SMILES IDX 71 14 31 15 76 16 70 17 72 18 32 19 75 20 69 21 68 22 33 24
REMARK SMILES IDX 59 25 42 26 58 27 43 28 46 29 57 30 73 31 44 32 45 33 56 35
REMARK SMILES IDX 74 36 47 37 34 38 35 39 40 40 36 41 37 42 39 43 41 44 38 45
REMARK SMILES IDX 60 46 61 47 66 48 62 49 63 50 65 51 67 52 64 53 48 54 49 55
REMARK SMILES IDX 54 56 50 57 51 58 53 59 55 60 52 61 5 62 6 63 7 64 8 65 9 67
REMARK SMILES IDX 10 68 11 69 16 70 12 71 15 72 13 73 14 74 17 75 18 76 24 77
REMARK SMILES IDX 19 78 22 79 20 80 23 81 21 82
REMARK H PARENT 3 5 72 23 46 34 7 66
REMARK Flexibility Score: inf
ROOT
ATOM      1  C   UNL A   1      38.820  20.031  25.942  1.00  0.00     0.118 C 
ENDROOT
BRANCH   1   2
ATOM      2  N   UNL A   1      40.014  19.200  25.863  1.00  0.00    -0.352 N 
ATOM      3  O   UNL A   1      42.197  18.678  25.750  1.00  0.00    -0.269 OA
ATOM      4  C   UNL A   1      41.340  19.509  26.043  1.00  0.00     0.251 C 
ATOM      5  H   UNL A   1      39.842  18.257  25.645  1.00  0.00     0.163 HD
BRANCH   4   6
ATOM      6  C   UNL A   1      41.754  20.834  26.556  1.00  0.00     0.039 A 
ATOM      7  C   UNL A   1      41.834  21.090  27.926  1.00  0.00     0.014 A 
ATOM      8  C   UNL A   1      42.115  21.829  25.643  1.00  0.00     0.014 A 
ATOM      9  C   UNL A   1      42.117  22.375  28.379  1.00  0.00     0.010 A 
ATOM     10  C   UNL A   1      42.489  23.095  26.100  1.00  0.00     0.010 A 
ATOM     11  C   UNL A   1      42.459  23.389  27.471  1.00  0.00    -0.014 A 
BRANCH  11  12
ATOM     12  C   UNL A   1      42.829  24.737  27.972  1.00  0.00     0.031 A 
ATOM     13  C   UNL A   1      41.775  25.767  28.266  1.00  0.00     0.074 A 
ATOM     14  C   UNL A   1      44.130  25.029  28.166  1.00  0.00     0.049 A 
ATOM     15  N   UNL A   1      41.922  27.004  28.668  1.00  0.00    -0.248 NA
ATOM     16  C   UNL A   1      40.374  25.358  28.082  1.00  0.00     0.031 C 
ATOM     17  C   UNL A   1      45.243  24.111  27.921  1.00  0.00     0.029 A 
ATOM     18  N   UNL A   1      44.736  26.173  28.617  1.00  0.00    -0.354 N 
ATOM     19  C   UNL A   1      40.639  27.527  28.764  1.00  0.00     0.074 A 
ATOM     20  C   UNL A   1      39.726  26.481  28.356  1.00  0.00     0.031 C 
ATOM     21  C   UNL A   1      46.392  24.713  28.258  1.00  0.00     0.029 A 
ATOM     22  C   UNL A   1      46.104  26.081  28.678  1.00  0.00     0.049 A 
ATOM     23  H   UNL A   1      44.238  26.983  28.872  1.00  0.00     0.167 HD
ATOM     24  C   UNL A   1      40.261  28.764  29.167  1.00  0.00     0.037 A 
ATOM     25  C   UNL A   1      47.032  26.998  29.010  1.00  0.00     0.037 A 
ATOM     26  C   UNL A   1      41.175  29.794  29.586  1.00  0.00     0.049 A 
ATOM     27  C   UNL A   1      46.591  28.377  29.406  1.00  0.00     0.074 A 
ATOM     28  C   UNL A   1      40.885  31.069  30.040  1.00  0.00     0.029 A 
ATOM     29  N   UNL A   1      42.557  29.672  29.598  1.00  0.00    -0.354 N 
ATOM     30  N   UNL A   1      45.374  28.853  29.507  1.00  0.00    -0.248 NA
ATOM     31  C   UNL A   1      47.647  29.347  29.726  1.00  0.00     0.031 C 
ATOM     32  C   UNL A   1      42.091  31.734  30.278  1.00  0.00     0.029 A 
ATOM     33  C   UNL A   1      43.132  30.855  30.028  1.00  0.00     0.049 A 
ATOM     34  H   UNL A   1      43.056  28.862  29.340  1.00  0.00     0.167 HD
ATOM     35  C   UNL A   1      45.514  30.170  29.922  1.00  0.00     0.074 A 
ATOM     36  C   UNL A   1      46.936  30.416  30.060  1.00  0.00     0.031 C 
ATOM     37  C   UNL A   1      44.549  31.088  30.168  1.00  0.00     0.037 A 
BRANCH  24  38
ATOM     38  C   UNL A   1      38.794  29.085  29.159  1.00  0.00     0.057 A 
ATOM     39  C   UNL A   1      38.176  29.569  27.999  1.00  0.00     0.134 A 
ATOM     40  C   UNL A   1      38.007  28.981  30.314  1.00  0.00     0.134 A 
ATOM     41  F   UNL A   1      38.873  29.703  26.861  1.00  0.00    -0.206 F 
ATOM     42  C   UNL A   1      36.831  29.944  27.988  1.00  0.00     0.040 A 
ATOM     43  C   UNL A   1      36.654  29.328  30.309  1.00  0.00     0.040 A 
ATOM     44  F   UNL A   1      38.534  28.516  31.456  1.00  0.00    -0.206 F 
ATOM     45  C   UNL A   1      36.066  29.820  29.145  1.00  0.00     0.006 A 
ENDBRANCH  24  38
BRANCH  25  46
ATOM     46  C   UNL A   1      48.465  26.620  28.980  1.00  0.00     0.057 A 
ATOM     47  C   UNL A   1      49.086  26.029  30.088  1.00  0.00     0.134 A 
ATOM     48  C   UNL A   1      49.262  26.905  27.868  1.00  0.00     0.134 A 
ATOM     49  F   UNL A   1      48.377  25.741  31.189  1.00  0.00    -0.206 F 
ATOM     50  C   UNL A   1      50.456  25.763  30.102  1.00  0.00     0.040 A 
ATOM     51  C   UNL A   1      50.629  26.622  27.858  1.00  0.00     0.040 A 
ATOM     52  F   UNL A   1      48.720  27.458  26.772  1.00  0.00    -0.206 F 
ATOM     53  C   UNL A   1      51.231  26.060  28.983  1.00  0.00     0.006 A 
ENDBRANCH  25  46
BRANCH  37  54
ATOM     54  C   UNL A   1      44.980  32.444  30.642  1.00  0.00     0.057 A 
ATOM     55  C   UNL A   1      45.104  32.711  32.012  1.00  0.00     0.134 A 
ATOM     56  C   UNL A   1      45.179  33.507  29.753  1.00  0.00     0.134 A 
ATOM     57  F   UNL A   1      44.917  31.736  32.914  1.00  0.00    -0.206 F 
ATOM     58  C   UNL A   1      45.389  33.992  32.481  1.00  0.00     0.040 A 
ATOM     59  C   UNL A   1      45.488  34.788  30.211  1.00  0.00     0.040 A 
ATOM     60  F   UNL A   1      45.085  33.312  28.429  1.00  0.00    -0.206 F 
ATOM     61  C   UNL A   1      45.581  35.037  31.579  1.00  0.00     0.006 A 
ENDBRANCH  37  54
ENDBRANCH  11  12
ENDBRANCH   4   6
ENDBRANCH   1   2
BRANCH   1  62
ATOM     62  C   UNL A   1      37.941  19.927  24.705  1.00  0.00     0.042 C 
BRANCH  62  63
ATOM     63  C   UNL A   1      36.972  21.089  24.523  1.00  0.00     0.118 C 
BRANCH  63  64
ATOM     64  N   UNL A   1      36.179  21.357  25.714  1.00  0.00    -0.352 N 
ATOM     65  C   UNL A   1      34.861  21.093  25.986  1.00  0.00     0.251 C 
ATOM     66  H   UNL A   1      36.669  21.802  26.444  1.00  0.00     0.163 HD
ATOM     67  O   UNL A   1      34.377  21.453  27.058  1.00  0.00    -0.269 OA
BRANCH  65  68
ATOM     68  C   UNL A   1      34.029  20.365  24.999  1.00  0.00     0.047 A 
ATOM     69  C   UNL A   1      33.971  18.963  25.100  1.00  0.00     0.017 A 
ATOM     70  C   UNL A   1      33.265  21.051  24.030  1.00  0.00    -0.003 A 
ATOM     71  C   UNL A   1      33.233  18.223  24.181  1.00  0.00     0.040 A 
ATOM     72  C   UNL A   1      32.525  20.277  23.114  1.00  0.00     0.048 A 
ATOM     73  C   UNL A   1      32.528  18.887  23.188  1.00  0.00     0.123 A 
ATOM     74  F   UNL A   1      31.824  18.179  22.297  1.00  0.00    -0.207 F 
BRANCH  70  75
ATOM     75  C   UNL A   1      33.169  22.520  23.955  1.00  0.00    -0.016 A 
ATOM     76  C   UNL A   1      34.053  23.282  23.173  1.00  0.00     0.012 A 
ATOM     77  C   UNL A   1      32.167  23.195  24.683  1.00  0.00     0.032 A 
ATOM     78  C   UNL A   1      33.947  24.676  23.128  1.00  0.00     0.041 A 
ATOM     79  C   UNL A   1      32.061  24.586  24.634  1.00  0.00     0.077 A 
ATOM     80  C   UNL A   1      32.952  25.319  23.859  1.00  0.00     0.141 A 
ATOM     81  Cl  UNL A   1      30.820  25.371  25.534  1.00  0.00    -0.081 Cl
ATOM     82  F   UNL A   1      32.868  26.657  23.797  1.00  0.00    -0.205 F 
ENDBRANCH  70  75
ENDBRANCH  65  68
ENDBRANCH  63  64
ENDBRANCH  62  63
ENDBRANCH   1  62
TORSDOF 11
ENDMDL
MODEL 3
REMARK VINA RESULT:     -12.1      3.407      7.452
REMARK SMILES O=C(NCCCNC(=O)c1ccc(F)cc1-c1ccc(F)c(Cl)c1)c1ccc(-c2c3nc(c(-c4c(F)cccc4F)c4ccc([nH]4)c(-c4c(F)cccc4F)c4nc(c(-c5c(F)cccc5F)c5ccc2[nH]5)C=C4)C=C3)cc1
REMARK SMILES IDX 4 1 3 2 1 3 2 4 25 6 26 7 78 8 27 9 77 10 28 11 29 12 30 13
REMARK SMILES IDX 71 14 31 15 76 16 70 17 72 18 32 19 75 20 69 21 68 22 33 24
REMARK SMILES IDX 59 25 42 26 58 27 43 28 46 29 57 30 73 31 44 32 45 33 56 35
REMARK SMILES IDX 74 36 47 37 34 38 35 39 40 40 36 41 37 42 39 43 41 44 38 45
REMARK SMILES IDX 60 46 61 47 66 48 62 49 63 50 65 51 67 52 64 53 48 54 49 55
REMARK SMILES IDX 54 56 50 57 51 58 53 59 55 60 52 61 5 62 6 63 7 64 8 65 9 67
REMARK SMILES IDX 10 68 11 69 16 70 12 71 15 72 13 73 14 74 17 75 18 76 24 77
REMARK SMILES IDX 19 78 22 79 20 80 23 81 21 82
REMARK H PARENT 3 5 72 23 46 34 7 66
REMARK Flexibility Score: inf
ROOT
ATOM      1  C   UNL A   1      33.605  28.249  27.281  1.00  0.00     0.118 C 
ENDROOT
BRANCH   1   2
ATOM      2  N   UNL A   1      33.555  29.681  27.544  1.00  0.00    -0.352 N 
ATOM      3  O   UNL A   1      34.159  31.678  28.379  1.00  0.00    -0.269 OA
ATOM      4  C   UNL A   1      34.488  30.530  28.086  1.00  0.00     0.251 C 
ATOM      5  H   UNL A   1      32.708  30.114  27.291  1.00  0.00     0.163 HD
BRANCH   4   6
ATOM      6  C   UNL A   1      35.872  30.079  28.347  1.00  0.00     0.039 A 
ATOM      7  C   UNL A   1      36.241  29.544  29.582  1.00  0.00     0.014 A 
ATOM      8  C   UNL A   1      36.811  30.149  27.314  1.00  0.00     0.014 A 
ATOM      9  C   UNL A   1      37.574  29.232  29.836  1.00  0.00     0.010 A 
ATOM     10  C   UNL A   1      38.131  29.749  27.540  1.00  0.00     0.010 A 
ATOM     11  C   UNL A   1      38.531  29.320  28.814  1.00  0.00    -0.014 A 
BRANCH  11  12
ATOM     12  C   UNL A   1      39.935  28.916  29.078  1.00  0.00     0.031 A 
ATOM     13  C   UNL A   1      40.882  29.838  29.792  1.00  0.00     0.074 A 
ATOM     14  C   UNL A   1      40.355  27.702  28.671  1.00  0.00     0.049 A 
ATOM     15  N   UNL A   1      42.151  29.664  30.068  1.00  0.00    -0.248 NA
ATOM     16  C   UNL A   1      40.339  31.125  30.254  1.00  0.00     0.031 C 
ATOM     17  C   UNL A   1      39.526  26.716  27.974  1.00  0.00     0.029 A 
ATOM     18  N   UNL A   1      41.574  27.086  28.790  1.00  0.00    -0.354 N 
ATOM     19  C   UNL A   1      42.561  30.823  30.714  1.00  0.00     0.074 A 
ATOM     20  C   UNL A   1      41.415  31.704  30.769  1.00  0.00     0.031 C 
ATOM     21  C   UNL A   1      40.249  25.608  27.758  1.00  0.00     0.029 A 
ATOM     22  C   UNL A   1      41.609  25.829  28.241  1.00  0.00     0.049 A 
ATOM     23  H   UNL A   1      42.350  27.506  29.227  1.00  0.00     0.167 HD
ATOM     24  C   UNL A   1      43.781  31.117  31.223  1.00  0.00     0.037 A 
ATOM     25  C   UNL A   1      42.625  24.955  28.113  1.00  0.00     0.037 A 
ATOM     26  C   UNL A   1      44.913  30.228  31.178  1.00  0.00     0.049 A 
ATOM     27  C   UNL A   1      43.980  25.322  28.641  1.00  0.00     0.074 A 
ATOM     28  C   UNL A   1      46.183  30.426  31.694  1.00  0.00     0.029 A 
ATOM     29  N   UNL A   1      44.917  28.977  30.579  1.00  0.00    -0.354 N 
ATOM     30  N   UNL A   1      44.350  26.415  29.263  1.00  0.00    -0.248 NA
ATOM     31  C   UNL A   1      45.058  24.344  28.446  1.00  0.00     0.031 C 
ATOM     32  C   UNL A   1      46.967  29.317  31.363  1.00  0.00     0.029 A 
ATOM     33  C   UNL A   1      46.171  28.403  30.691  1.00  0.00     0.049 A 
ATOM     34  H   UNL A   1      44.141  28.558  30.139  1.00  0.00     0.167 HD
ATOM     35  C   UNL A   1      45.697  26.251  29.552  1.00  0.00     0.074 A 
ATOM     36  C   UNL A   1      46.078  24.948  29.043  1.00  0.00     0.031 C 
ATOM     37  C   UNL A   1      46.538  27.103  30.186  1.00  0.00     0.037 A 
BRANCH  24  38
ATOM     38  C   UNL A   1      43.969  32.463  31.861  1.00  0.00     0.057 A 
ATOM     39  C   UNL A   1      43.688  32.653  33.221  1.00  0.00     0.134 A 
ATOM     40  C   UNL A   1      44.362  33.586  31.121  1.00  0.00     0.134 A 
ATOM     41  F   UNL A   1      43.297  31.624  33.986  1.00  0.00    -0.206 F 
ATOM     42  C   UNL A   1      43.784  33.911  33.819  1.00  0.00     0.040 A 
ATOM     43  C   UNL A   1      44.487  34.844  31.714  1.00  0.00     0.040 A 
ATOM     44  F   UNL A   1      44.656  33.472  29.817  1.00  0.00    -0.206 F 
ATOM     45  C   UNL A   1      44.188  35.010  33.064  1.00  0.00     0.006 A 
ENDBRANCH  24  38
BRANCH  25  46
ATOM     46  C   UNL A   1      42.375  23.648  27.458  1.00  0.00     0.057 A 
ATOM     47  C   UNL A   1      42.085  22.500  28.206  1.00  0.00     0.134 A 
ATOM     48  C   UNL A   1      42.490  23.504  26.072  1.00  0.00     0.134 A 
ATOM     49  F   UNL A   1      41.973  22.573  29.541  1.00  0.00    -0.206 F 
ATOM     50  C   UNL A   1      41.949  21.249  27.603  1.00  0.00     0.040 A 
ATOM     51  C   UNL A   1      42.332  22.263  25.453  1.00  0.00     0.040 A 
ATOM     52  F   UNL A   1      42.753  24.570  25.302  1.00  0.00    -0.206 F 
ATOM     53  C   UNL A   1      42.072  21.129  26.221  1.00  0.00     0.006 A 
ENDBRANCH  25  46
BRANCH  37  54
ATOM     54  C   UNL A   1      47.954  26.656  30.399  1.00  0.00     0.057 A 
ATOM     55  C   UNL A   1      48.928  26.891  29.419  1.00  0.00     0.134 A 
ATOM     56  C   UNL A   1      48.331  25.913  31.524  1.00  0.00     0.134 A 
ATOM     57  F   UNL A   1      48.627  27.589  28.314  1.00  0.00    -0.206 F 
ATOM     58  C   UNL A   1      50.221  26.385  29.542  1.00  0.00     0.040 A 
ATOM     59  C   UNL A   1      49.630  25.421  31.668  1.00  0.00     0.040 A 
ATOM     60  F   UNL A   1      47.447  25.664  32.502  1.00  0.00    -0.206 F 
ATOM     61  C   UNL A   1      50.575  25.646  30.668  1.00  0.00     0.006 A 
ENDBRANCH  37  54
ENDBRANCH  11  12
ENDBRANCH   4   6
ENDBRANCH   1   2
BRANCH   1  62
ATOM     62  C   UNL A   1      34.182  27.915  25.913  1.00  0.00     0.042 C 
BRANCH  62  63
ATOM     63  C   UNL A   1      33.617  28.751  24.772  1.00  0.00     0.118 C 
BRANCH  63  64
ATOM     64  N   UNL A   1      33.877  28.170  23.462  1.00  0.00    -0.352 N 
ATOM     65  C   UNL A   1      33.078  27.403  22.652  1.00  0.00     0.251 C 
ATOM     66  H   UNL A   1      34.773  28.357  23.098  1.00  0.00     0.163 HD
ATOM     67  O   UNL A   1      33.524  26.975  21.588  1.00  0.00    -0.269 OA
BRANCH  65  68
ATOM     68  C   UNL A   1      31.682  27.106  23.050  1.00  0.00     0.047 A 
ATOM     69  C   UNL A   1      30.709  28.093  22.809  1.00  0.00     0.017 A 
ATOM     70  C   UNL A   1      31.320  25.852  23.590  1.00  0.00    -0.003 A 
ATOM     71  C   UNL A   1      29.387  27.884  23.192  1.00  0.00     0.040 A 
ATOM     72  C   UNL A   1      29.975  25.667  23.966  1.00  0.00     0.048 A 
ATOM     73  C   UNL A   1      29.036  26.678  23.779  1.00  0.00     0.123 A 
ATOM     74  F   UNL A   1      27.768  26.476  24.157  1.00  0.00    -0.207 F 
BRANCH  70  75
ATOM     75  C   UNL A   1      32.259  24.726  23.740  1.00  0.00    -0.016 A 
ATOM     76  C   UNL A   1      32.476  23.798  22.708  1.00  0.00     0.012 A 
ATOM     77  C   UNL A   1      32.967  24.561  24.948  1.00  0.00     0.032 A 
ATOM     78  C   UNL A   1      33.364  22.732  22.881  1.00  0.00     0.041 A 
ATOM     79  C   UNL A   1      33.856  23.498  25.118  1.00  0.00     0.077 A 
ATOM     80  C   UNL A   1      34.049  22.588  24.084  1.00  0.00     0.141 A 
ATOM     81  Cl  UNL A   1      34.706  23.335  26.607  1.00  0.00    -0.081 Cl
ATOM     82  F   UNL A   1      34.898  21.559  24.225  1.00  0.00    -0.205 F 
ENDBRANCH  70  75
ENDBRANCH  65  68
ENDBRANCH  63  64
ENDBRANCH  62  63
ENDBRANCH   1  62
TORSDOF 11
ENDMDL
