MODEL 1
REMARK VINA RESULT:     -11.6      0.000      0.000
REMARK SMILES Cc1ccc([C@H](C)NC(=O)CC2(C(=O)NCCCNC(=O)c3ccc(-c4c5nc(c(-c6c(F)cccc6F)c6ccc([nH]6)c(-c6c(F)cccc6F)c6nc(c(-c7c(F)cccc7F)c7ccc4[nH]7)C=C6)C=C5)cc3)CCCC2)o1
REMARK SMILES IDX 16 1 15 2 13 3 14 4 12 6 76 7 79 8 77 9 78 10 11 11 9 12
REMARK SMILES IDX 8 13 10 15 6 16 7 17 5 18 1 19 2 20 3 21 80 22 4 23 17 24
REMARK SMILES IDX 18 25 19 26 20 27 21 29 22 30 23 31 75 32 24 33 74 34 25 35
REMARK SMILES IDX 26 36 27 37 68 38 28 39 73 40 67 41 69 42 29 43 72 44 66 45
REMARK SMILES IDX 65 46 30 48 56 49 39 50 55 51 40 52 43 53 54 54 70 55 41 56
REMARK SMILES IDX 42 57 53 59 71 60 44 61 31 62 32 63 37 64 33 65 34 66 36 67
REMARK SMILES IDX 38 68 35 69 57 70 58 71 63 72 59 73 60 74 62 75 64 76 61 77
REMARK SMILES IDX 45 78 46 79 51 80 47 81 48 82 50 83 52 84 49 85
REMARK H PARENT 15 5 8 14 19 28 69 47 43 58
REMARK Flexibility Score: inf
ROOT
ATOM      1  C   UNL A   1      36.662  20.605  24.882  1.00  0.00     0.117 C 
ENDROOT
BRANCH   1   2
ATOM      2  N   UNL A   1      35.404  20.101  25.383  1.00  0.00    -0.356 N 
ATOM      3  C   UNL A   1      34.132  20.528  25.208  1.00  0.00     0.226 C 
ATOM      4  O   UNL A   1      33.298  19.612  25.186  1.00  0.00    -0.274 OA
ATOM      5  H   UNL A   1      35.488  19.302  25.952  1.00  0.00     0.163 HD
BRANCH   3   6
ATOM      6  C   UNL A   1      33.670  22.000  25.108  1.00  0.00     0.058 C 
ATOM      7  C   UNL A   1      34.628  22.820  26.014  1.00  0.00     0.017 C 
ATOM      8  C   UNL A   1      32.286  22.409  25.633  1.00  0.00     0.017 C 
ATOM      9  C   UNL A   1      33.952  22.856  27.375  1.00  0.00     0.001 C 
ATOM     10  C   UNL A   1      32.466  22.949  27.058  1.00  0.00     0.001 C 
BRANCH   6  11
ATOM     11  C   UNL A   1      33.874  22.422  23.614  1.00  0.00     0.117 C 
BRANCH  11  12
ATOM     12  C   UNL A   1      32.662  22.551  22.692  1.00  0.00     0.221 C 
ATOM     13  N   UNL A   1      32.120  23.752  22.364  1.00  0.00    -0.346 N 
ATOM     14  H   UNL A   1      31.177  23.716  22.083  1.00  0.00     0.164 HD
ATOM     15  O   UNL A   1      32.094  21.537  22.275  1.00  0.00    -0.275 OA
BRANCH  13  16
ATOM     16  C   UNL A   1      32.701  25.077  22.362  1.00  0.00     0.145 C 
ATOM     17  C   UNL A   1      31.907  26.005  21.440  1.00  0.00     0.039 C 
BRANCH  16  18
ATOM     18  C   UNL A   1      32.854  25.658  23.727  1.00  0.00     0.126 A 
ATOM     19  C   UNL A   1      31.132  26.791  26.645  1.00  0.00     0.087 C 
ATOM     20  C   UNL A   1      32.170  26.453  25.652  1.00  0.00     0.101 A 
ATOM     21  C   UNL A   1      33.544  26.538  25.669  1.00  0.00     0.045 A 
ATOM     22  O   UNL A   1      31.739  25.938  24.462  1.00  0.00    -0.464 OA
ATOM     23  C   UNL A   1      33.986  26.020  24.433  1.00  0.00     0.048 A 
ENDBRANCH  16  18
ENDBRANCH  13  16
ENDBRANCH  11  12
ENDBRANCH   6  11
ENDBRANCH   3   6
ENDBRANCH   1   2
BRANCH   1  24
ATOM     24  C   UNL A   1      37.811  19.618  24.976  1.00  0.00     0.042 C 
BRANCH  24  25
ATOM     25  C   UNL A   1      39.023  20.141  25.733  1.00  0.00     0.118 C 
BRANCH  25  26
ATOM     26  N   UNL A   1      40.088  19.156  25.867  1.00  0.00    -0.352 N 
ATOM     27  C   UNL A   1      41.434  19.293  26.099  1.00  0.00     0.251 C 
ATOM     28  H   UNL A   1      39.788  18.223  25.776  1.00  0.00     0.163 HD
ATOM     29  O   UNL A   1      42.169  18.322  25.960  1.00  0.00    -0.269 OA
BRANCH  27  30
ATOM     30  C   UNL A   1      42.006  20.599  26.489  1.00  0.00     0.039 A 
ATOM     31  C   UNL A   1      42.396  21.493  25.487  1.00  0.00     0.014 A 
ATOM     32  C   UNL A   1      42.193  20.933  27.830  1.00  0.00     0.014 A 
ATOM     33  C   UNL A   1      42.896  22.749  25.836  1.00  0.00     0.010 A 
ATOM     34  C   UNL A   1      42.581  22.222  28.175  1.00  0.00     0.010 A 
ATOM     35  C   UNL A   1      42.950  23.140  27.183  1.00  0.00    -0.014 A 
BRANCH  35  36
ATOM     36  C   UNL A   1      43.398  24.498  27.582  1.00  0.00     0.031 A 
ATOM     37  C   UNL A   1      42.387  25.543  27.965  1.00  0.00     0.074 A 
ATOM     38  C   UNL A   1      44.706  24.811  27.518  1.00  0.00     0.049 A 
ATOM     39  N   UNL A   1      42.571  26.807  28.251  1.00  0.00    -0.248 NA
ATOM     40  C   UNL A   1      40.976  25.124  27.994  1.00  0.00     0.031 C 
ATOM     41  C   UNL A   1      45.777  23.901  27.103  1.00  0.00     0.029 A 
ATOM     42  N   UNL A   1      45.358  25.987  27.789  1.00  0.00    -0.354 N 
ATOM     43  C   UNL A   1      41.304  27.334  28.468  1.00  0.00     0.074 A 
ATOM     44  C   UNL A   1      40.356  26.271  28.218  1.00  0.00     0.031 C 
ATOM     45  C   UNL A   1      46.953  24.544  27.176  1.00  0.00     0.029 A 
ATOM     46  C   UNL A   1      46.717  25.920  27.598  1.00  0.00     0.049 A 
ATOM     47  H   UNL A   1      44.896  26.802  28.092  1.00  0.00     0.167 HD
ATOM     48  C   UNL A   1      40.963  28.582  28.866  1.00  0.00     0.037 A 
ATOM     49  C   UNL A   1      47.665  26.865  27.739  1.00  0.00     0.037 A 
ATOM     50  C   UNL A   1      41.913  29.625  29.144  1.00  0.00     0.049 A 
ATOM     51  C   UNL A   1      47.263  28.242  28.188  1.00  0.00     0.074 A 
ATOM     52  C   UNL A   1      41.678  30.901  29.623  1.00  0.00     0.029 A 
ATOM     53  N   UNL A   1      43.284  29.511  28.963  1.00  0.00    -0.354 N 
ATOM     54  N   UNL A   1      46.068  28.706  28.463  1.00  0.00    -0.248 NA
ATOM     55  C   UNL A   1      48.343  29.226  28.351  1.00  0.00     0.031 C 
ATOM     56  C   UNL A   1      42.902  31.576  29.684  1.00  0.00     0.029 A 
ATOM     57  C   UNL A   1      43.905  30.703  29.295  1.00  0.00     0.049 A 
ATOM     58  H   UNL A   1      43.747  28.703  28.644  1.00  0.00     0.167 HD
ATOM     59  C   UNL A   1      46.252  30.025  28.856  1.00  0.00     0.074 A 
ATOM     60  C   UNL A   1      47.677  30.282  28.797  1.00  0.00     0.031 C 
ATOM     61  C   UNL A   1      45.325  30.941  29.232  1.00  0.00     0.037 A 
BRANCH  48  62
ATOM     62  C   UNL A   1      39.499  28.880  29.024  1.00  0.00     0.057 A 
ATOM     63  C   UNL A   1      38.837  28.726  30.250  1.00  0.00     0.134 A 
ATOM     64  C   UNL A   1      38.742  29.342  27.939  1.00  0.00     0.134 A 
ATOM     65  F   UNL A   1      39.497  28.274  31.327  1.00  0.00    -0.206 F 
ATOM     66  C   UNL A   1      37.470  28.985  30.383  1.00  0.00     0.040 A 
ATOM     67  C   UNL A   1      37.383  29.636  28.067  1.00  0.00     0.040 A 
ATOM     68  F   UNL A   1      39.311  29.520  26.738  1.00  0.00    -0.206 F 
ATOM     69  C   UNL A   1      36.741  29.448  29.291  1.00  0.00     0.006 A 
ENDBRANCH  48  62
BRANCH  49  70
ATOM     70  C   UNL A   1      49.087  26.530  27.478  1.00  0.00     0.057 A 
ATOM     71  C   UNL A   1      49.891  25.971  28.478  1.00  0.00     0.134 A 
ATOM     72  C   UNL A   1      49.674  26.747  26.226  1.00  0.00     0.134 A 
ATOM     73  F   UNL A   1      49.391  25.753  29.703  1.00  0.00    -0.206 F 
ATOM     74  C   UNL A   1      51.231  25.654  28.248  1.00  0.00     0.040 A 
ATOM     75  C   UNL A   1      51.005  26.412  25.974  1.00  0.00     0.040 A 
ATOM     76  F   UNL A   1      48.954  27.271  25.222  1.00  0.00    -0.206 F 
ATOM     77  C   UNL A   1      51.790  25.869  26.989  1.00  0.00     0.006 A 
ENDBRANCH  49  70
BRANCH  61  78
ATOM     78  C   UNL A   1      45.826  32.296  29.640  1.00  0.00     0.057 A 
ATOM     79  C   UNL A   1      45.932  33.352  28.726  1.00  0.00     0.134 A 
ATOM     80  C   UNL A   1      46.164  32.557  30.974  1.00  0.00     0.134 A 
ATOM     81  F   UNL A   1      45.635  33.164  27.431  1.00  0.00    -0.206 F 
ATOM     82  C   UNL A   1      46.377  34.615  29.121  1.00  0.00     0.040 A 
ATOM     83  C   UNL A   1      46.583  33.823  31.385  1.00  0.00     0.040 A 
ATOM     84  F   UNL A   1      46.077  31.592  31.901  1.00  0.00    -0.206 F 
ATOM     85  C   UNL A   1      46.697  34.854  30.456  1.00  0.00     0.006 A 
ENDBRANCH  61  78
ENDBRANCH  35  36
ENDBRANCH  27  30
ENDBRANCH  25  26
ENDBRANCH  24  25
ENDBRANCH   1  24
TORSDOF 14
ENDMDL
MODEL 2
REMARK VINA RESULT:     -11.6      5.249     10.161
REMARK SMILES Cc1ccc([C@H](C)NC(=O)CC2(C(=O)NCCCNC(=O)c3ccc(-c4c5nc(c(-c6c(F)cccc6F)c6ccc([nH]6)c(-c6c(F)cccc6F)c6nc(c(-c7c(F)cccc7F)c7ccc4[nH]7)C=C6)C=C5)cc3)CCCC2)o1
REMARK SMILES IDX 16 1 15 2 13 3 14 4 12 6 76 7 79 8 77 9 78 10 11 11 9 12
REMARK SMILES IDX 8 13 10 15 6 16 7 17 5 18 1 19 2 20 3 21 80 22 4 23 17 24
REMARK SMILES IDX 18 25 19 26 20 27 21 29 22 30 23 31 75 32 24 33 74 34 25 35
REMARK SMILES IDX 26 36 27 37 68 38 28 39 73 40 67 41 69 42 29 43 72 44 66 45
REMARK SMILES IDX 65 46 30 48 56 49 39 50 55 51 40 52 43 53 54 54 70 55 41 56
REMARK SMILES IDX 42 57 53 59 71 60 44 61 31 62 32 63 37 64 33 65 34 66 36 67
REMARK SMILES IDX 38 68 35 69 57 70 58 71 63 72 59 73 60 74 62 75 64 76 61 77
REMARK SMILES IDX 45 78 46 79 51 80 47 81 48 82 50 83 52 84 49 85
REMARK H PARENT 15 5 8 14 19 28 69 47 43 58
REMARK Flexibility Score: inf
ROOT
ATOM      1  C   UNL A   1      31.544  30.759  26.074  1.00  0.00     0.117 C 
ENDROOT
BRANCH   1   2
ATOM      2  N   UNL A   1      31.019  30.465  24.760  1.00  0.00    -0.356 N 
ATOM      3  C   UNL A   1      30.789  29.291  24.127  1.00  0.00     0.226 C 
ATOM      4  O   UNL A   1      29.807  29.317  23.371  1.00  0.00    -0.274 OA
ATOM      5  H   UNL A   1      30.785  31.262  24.231  1.00  0.00     0.163 HD
BRANCH   3   6
ATOM      6  C   UNL A   1      31.658  28.016  24.227  1.00  0.00     0.058 C 
ATOM      7  C   UNL A   1      30.841  26.996  25.064  1.00  0.00     0.017 C 
ATOM      8  C   UNL A   1      33.001  28.057  24.970  1.00  0.00     0.017 C 
ATOM      9  C   UNL A   1      31.276  27.226  26.503  1.00  0.00     0.001 C 
ATOM     10  C   UNL A   1      32.759  27.557  26.401  1.00  0.00     0.001 C 
BRANCH   6  11
ATOM     11  C   UNL A   1      31.819  27.481  22.764  1.00  0.00     0.117 C 
BRANCH  11  12
ATOM     12  C   UNL A   1      33.169  26.931  22.304  1.00  0.00     0.221 C 
ATOM     13  N   UNL A   1      33.548  25.646  22.532  1.00  0.00    -0.346 N 
ATOM     14  H   UNL A   1      34.522  25.497  22.528  1.00  0.00     0.164 HD
ATOM     15  O   UNL A   1      33.990  27.680  21.768  1.00  0.00    -0.275 OA
BRANCH  13  16
ATOM     16  C   UNL A   1      32.755  24.462  22.781  1.00  0.00     0.145 C 
ATOM     17  C   UNL A   1      33.301  23.279  21.978  1.00  0.00     0.039 C 
BRANCH  16  18
ATOM     18  C   UNL A   1      32.625  24.130  24.229  1.00  0.00     0.126 A 
ATOM     19  C   UNL A   1      30.425  22.953  26.785  1.00  0.00     0.087 C 
ATOM     20  C   UNL A   1      31.590  23.476  26.047  1.00  0.00     0.101 A 
ATOM     21  C   UNL A   1      32.876  23.789  26.429  1.00  0.00     0.045 A 
ATOM     22  O   UNL A   1      31.423  23.702  24.711  1.00  0.00    -0.464 OA
ATOM     23  C   UNL A   1      33.545  24.204  25.258  1.00  0.00     0.048 A 
ENDBRANCH  16  18
ENDBRANCH  13  16
ENDBRANCH  11  12
ENDBRANCH   6  11
ENDBRANCH   3   6
ENDBRANCH   1   2
BRANCH   1  24
ATOM     24  C   UNL A   1      31.366  32.204  26.507  1.00  0.00     0.042 C 
BRANCH  24  25
ATOM     25  C   UNL A   1      32.568  32.790  27.231  1.00  0.00     0.118 C 
BRANCH  25  26
ATOM     26  N   UNL A   1      32.391  34.187  27.606  1.00  0.00    -0.352 N 
ATOM     27  C   UNL A   1      32.993  34.956  28.570  1.00  0.00     0.251 C 
ATOM     28  H   UNL A   1      31.716  34.664  27.072  1.00  0.00     0.163 HD
ATOM     29  O   UNL A   1      32.524  36.056  28.840  1.00  0.00    -0.269 OA
BRANCH  27  30
ATOM     30  C   UNL A   1      34.182  34.465  29.298  1.00  0.00     0.039 A 
ATOM     31  C   UNL A   1      34.009  33.875  30.554  1.00  0.00     0.014 A 
ATOM     32  C   UNL A   1      35.464  34.612  28.770  1.00  0.00     0.014 A 
ATOM     33  C   UNL A   1      35.114  33.364  31.237  1.00  0.00     0.010 A 
ATOM     34  C   UNL A   1      36.544  34.003  29.395  1.00  0.00     0.010 A 
ATOM     35  C   UNL A   1      36.385  33.384  30.642  1.00  0.00    -0.014 A 
BRANCH  35  36
ATOM     36  C   UNL A   1      37.565  32.775  31.306  1.00  0.00     0.031 A 
ATOM     37  C   UNL A   1      38.239  31.577  30.695  1.00  0.00     0.074 A 
ATOM     38  C   UNL A   1      37.975  33.249  32.497  1.00  0.00     0.049 A 
ATOM     39  N   UNL A   1      39.218  30.848  31.166  1.00  0.00    -0.248 NA
ATOM     40  C   UNL A   1      37.718  31.111  29.399  1.00  0.00     0.031 C 
ATOM     41  C   UNL A   1      37.366  34.368  33.220  1.00  0.00     0.029 A 
ATOM     42  N   UNL A   1      38.996  32.842  33.318  1.00  0.00    -0.354 N 
ATOM     43  C   UNL A   1      39.412  29.831  30.241  1.00  0.00     0.074 A 
ATOM     44  C   UNL A   1      38.407  29.997  29.214  1.00  0.00     0.031 C 
ATOM     45  C   UNL A   1      38.042  34.575  34.361  1.00  0.00     0.029 A 
ATOM     46  C   UNL A   1      39.102  33.579  34.472  1.00  0.00     0.049 A 
ATOM     47  H   UNL A   1      39.596  32.091  33.101  1.00  0.00     0.167 HD
ATOM     48  C   UNL A   1      40.357  28.862  30.233  1.00  0.00     0.037 A 
ATOM     49  C   UNL A   1      39.953  33.460  35.509  1.00  0.00     0.037 A 
ATOM     50  C   UNL A   1      41.373  28.722  31.241  1.00  0.00     0.049 A 
ATOM     51  C   UNL A   1      40.999  32.380  35.475  1.00  0.00     0.074 A 
ATOM     52  C   UNL A   1      42.422  27.822  31.290  1.00  0.00     0.029 A 
ATOM     53  N   UNL A   1      41.463  29.505  32.383  1.00  0.00    -0.354 N 
ATOM     54  N   UNL A   1      41.218  31.471  34.556  1.00  0.00    -0.248 NA
ATOM     55  C   UNL A   1      41.917  32.314  36.620  1.00  0.00     0.031 C 
ATOM     56  C   UNL A   1      43.117  28.027  32.487  1.00  0.00     0.029 A 
ATOM     57  C   UNL A   1      42.535  29.091  33.156  1.00  0.00     0.049 A 
ATOM     58  H   UNL A   1      40.855  30.244  32.611  1.00  0.00     0.167 HD
ATOM     59  C   UNL A   1      42.314  30.741  34.997  1.00  0.00     0.074 A 
ATOM     60  C   UNL A   1      42.723  31.324  36.259  1.00  0.00     0.031 C 
ATOM     61  C   UNL A   1      42.928  29.684  34.410  1.00  0.00     0.037 A 
BRANCH  48  62
ATOM     62  C   UNL A   1      40.332  27.882  29.094  1.00  0.00     0.057 A 
ATOM     63  C   UNL A   1      39.536  26.728  29.123  1.00  0.00     0.134 A 
ATOM     64  C   UNL A   1      41.103  28.101  27.945  1.00  0.00     0.134 A 
ATOM     65  F   UNL A   1      38.783  26.449  30.199  1.00  0.00    -0.206 F 
ATOM     66  C   UNL A   1      39.536  25.811  28.070  1.00  0.00     0.040 A 
ATOM     67  C   UNL A   1      41.086  27.209  26.871  1.00  0.00     0.040 A 
ATOM     68  F   UNL A   1      41.883  29.187  27.845  1.00  0.00    -0.206 F 
ATOM     69  C   UNL A   1      40.307  26.054  26.936  1.00  0.00     0.006 A 
ENDBRANCH  48  62
BRANCH  49  70
ATOM     70  C   UNL A   1      39.866  34.406  36.649  1.00  0.00     0.057 A 
ATOM     71  C   UNL A   1      39.146  34.080  37.803  1.00  0.00     0.134 A 
ATOM     72  C   UNL A   1      40.509  35.649  36.619  1.00  0.00     0.134 A 
ATOM     73  F   UNL A   1      38.497  32.910  37.886  1.00  0.00    -0.206 F 
ATOM     74  C   UNL A   1      39.053  34.962  38.882  1.00  0.00     0.040 A 
ATOM     75  C   UNL A   1      40.446  36.530  37.700  1.00  0.00     0.040 A 
ATOM     76  F   UNL A   1      41.224  36.017  35.546  1.00  0.00    -0.206 F 
ATOM     77  C   UNL A   1      39.711  36.190  38.834  1.00  0.00     0.006 A 
ENDBRANCH  49  70
BRANCH  61  78
ATOM     78  C   UNL A   1      44.125  29.110  35.110  1.00  0.00     0.057 A 
ATOM     79  C   UNL A   1      45.424  29.562  34.847  1.00  0.00     0.134 A 
ATOM     80  C   UNL A   1      43.969  28.125  36.094  1.00  0.00     0.134 A 
ATOM     81  F   UNL A   1      45.643  30.496  33.909  1.00  0.00    -0.206 F 
ATOM     82  C   UNL A   1      46.528  29.038  35.521  1.00  0.00     0.040 A 
ATOM     83  C   UNL A   1      45.062  27.613  36.793  1.00  0.00     0.040 A 
ATOM     84  F   UNL A   1      42.751  27.654  36.400  1.00  0.00    -0.206 F 
ATOM     85  C   UNL A   1      46.346  28.065  36.503  1.00  0.00     0.006 A 
ENDBRANCH  61  78
ENDBRANCH  35  36
ENDBRANCH  27  30
ENDBRANCH  25  26
ENDBRANCH  24  25
ENDBRANCH   1  24
TORSDOF 14
ENDMDL
MODEL 3
REMARK VINA RESULT:     -11.6      1.255      6.352
REMARK SMILES Cc1ccc([C@H](C)NC(=O)CC2(C(=O)NCCCNC(=O)c3ccc(-c4c5nc(c(-c6c(F)cccc6F)c6ccc([nH]6)c(-c6c(F)cccc6F)c6nc(c(-c7c(F)cccc7F)c7ccc4[nH]7)C=C6)C=C5)cc3)CCCC2)o1
REMARK SMILES IDX 16 1 15 2 13 3 14 4 12 6 76 7 79 8 77 9 78 10 11 11 9 12
REMARK SMILES IDX 8 13 10 15 6 16 7 17 5 18 1 19 2 20 3 21 80 22 4 23 17 24
REMARK SMILES IDX 18 25 19 26 20 27 21 29 22 30 23 31 75 32 24 33 74 34 25 35
REMARK SMILES IDX 26 36 27 37 68 38 28 39 73 40 67 41 69 42 29 43 72 44 66 45
REMARK SMILES IDX 65 46 30 48 56 49 39 50 55 51 40 52 43 53 54 54 70 55 41 56
REMARK SMILES IDX 42 57 53 59 71 60 44 61 31 62 32 63 37 64 33 65 34 66 36 67
REMARK SMILES IDX 38 68 35 69 57 70 58 71 63 72 59 73 60 74 62 75 64 76 61 77
REMARK SMILES IDX 45 78 46 79 51 80 47 81 48 82 50 83 52 84 49 85
REMARK H PARENT 15 5 8 14 19 28 69 47 43 58
REMARK Flexibility Score: inf
ROOT
ATOM      1  C   UNL A   1      36.676  20.475  24.746  1.00  0.00     0.117 C 
ENDROOT
BRANCH   1   2
ATOM      2  N   UNL A   1      35.422  19.971  25.257  1.00  0.00    -0.356 N 
ATOM      3  C   UNL A   1      34.157  20.442  25.157  1.00  0.00     0.226 C 
ATOM      4  O   UNL A   1      33.297  19.552  25.104  1.00  0.00    -0.274 OA
ATOM      5  H   UNL A   1      35.502  19.133  25.768  1.00  0.00     0.163 HD
BRANCH   3   6
ATOM      6  C   UNL A   1      33.735  21.929  25.173  1.00  0.00     0.058 C 
ATOM      7  C   UNL A   1      34.742  22.659  26.102  1.00  0.00     0.017 C 
ATOM      8  C   UNL A   1      32.379  22.337  25.767  1.00  0.00     0.017 C 
ATOM      9  C   UNL A   1      34.108  22.619  27.483  1.00  0.00     0.001 C 
ATOM     10  C   UNL A   1      32.616  22.773  27.219  1.00  0.00     0.001 C 
BRANCH   6  11
ATOM     11  C   UNL A   1      33.906  22.448  23.705  1.00  0.00     0.117 C 
BRANCH  11  12
ATOM     12  C   UNL A   1      32.684  22.562  22.795  1.00  0.00     0.221 C 
ATOM     13  N   UNL A   1      32.129  23.757  22.465  1.00  0.00    -0.346 N 
ATOM     14  H   UNL A   1      31.184  23.712  22.193  1.00  0.00     0.164 HD
ATOM     15  O   UNL A   1      32.119  21.541  22.390  1.00  0.00    -0.275 OA
BRANCH  13  16
ATOM     16  C   UNL A   1      32.702  25.086  22.448  1.00  0.00     0.145 C 
ATOM     17  C   UNL A   1      31.864  26.013  21.564  1.00  0.00     0.039 C 
BRANCH  16  18
ATOM     18  C   UNL A   1      32.905  25.660  23.809  1.00  0.00     0.126 A 
ATOM     19  C   UNL A   1      31.306  27.144  26.637  1.00  0.00     0.087 C 
ATOM     20  C   UNL A   1      32.303  26.606  25.692  1.00  0.00     0.101 A 
ATOM     21  C   UNL A   1      33.668  26.445  25.763  1.00  0.00     0.045 A 
ATOM     22  O   UNL A   1      31.832  26.150  24.494  1.00  0.00    -0.464 OA
ATOM     23  C   UNL A   1      34.056  25.830  24.554  1.00  0.00     0.048 A 
ENDBRANCH  16  18
ENDBRANCH  13  16
ENDBRANCH  11  12
ENDBRANCH   6  11
ENDBRANCH   3   6
ENDBRANCH   1   2
BRANCH   1  24
ATOM     24  C   UNL A   1      37.852  19.534  24.941  1.00  0.00     0.042 C 
BRANCH  24  25
ATOM     25  C   UNL A   1      38.979  20.111  25.785  1.00  0.00     0.118 C 
BRANCH  25  26
ATOM     26  N   UNL A   1      40.161  19.260  25.828  1.00  0.00    -0.352 N 
ATOM     27  C   UNL A   1      41.481  19.544  26.072  1.00  0.00     0.251 C 
ATOM     28  H   UNL A   1      39.979  18.309  25.648  1.00  0.00     0.163 HD
ATOM     29  O   UNL A   1      42.331  18.691  25.844  1.00  0.00    -0.269 OA
BRANCH  27  30
ATOM     30  C   UNL A   1      41.888  20.869  26.585  1.00  0.00     0.039 A 
ATOM     31  C   UNL A   1      42.300  21.848  25.675  1.00  0.00     0.014 A 
ATOM     32  C   UNL A   1      41.901  21.142  27.952  1.00  0.00     0.014 A 
ATOM     33  C   UNL A   1      42.645  23.120  26.135  1.00  0.00     0.010 A 
ATOM     34  C   UNL A   1      42.132  22.437  28.398  1.00  0.00     0.010 A 
ATOM     35  C   UNL A   1      42.520  23.438  27.497  1.00  0.00    -0.014 A 
BRANCH  35  36
ATOM     36  C   UNL A   1      42.800  24.804  28.006  1.00  0.00     0.031 A 
ATOM     37  C   UNL A   1      44.197  25.183  28.416  1.00  0.00     0.074 A 
ATOM     38  C   UNL A   1      41.785  25.671  28.176  1.00  0.00     0.049 A 
ATOM     39  N   UNL A   1      44.625  26.289  28.971  1.00  0.00    -0.248 NA
ATOM     40  C   UNL A   1      45.247  24.171  28.213  1.00  0.00     0.031 C 
ATOM     41  C   UNL A   1      40.377  25.400  27.871  1.00  0.00     0.029 A 
ATOM     42  N   UNL A   1      41.776  26.955  28.659  1.00  0.00    -0.354 N 
ATOM     43  C   UNL A   1      45.981  26.095  29.202  1.00  0.00     0.074 A 
ATOM     44  C   UNL A   1      46.292  24.745  28.789  1.00  0.00     0.031 C 
ATOM     45  C   UNL A   1      39.649  26.492  28.147  1.00  0.00     0.029 A 
ATOM     46  C   UNL A   1      40.527  27.524  28.689  1.00  0.00     0.049 A 
ATOM     47  H   UNL A   1      42.590  27.424  28.958  1.00  0.00     0.167 HD
ATOM     48  C   UNL A   1      46.891  26.972  29.689  1.00  0.00     0.037 A 
ATOM     49  C   UNL A   1      40.131  28.739  29.114  1.00  0.00     0.037 A 
ATOM     50  C   UNL A   1      46.581  28.324  30.068  1.00  0.00     0.049 A 
ATOM     51  C   UNL A   1      41.160  29.697  29.645  1.00  0.00     0.074 A 
ATOM     52  C   UNL A   1      47.440  29.317  30.502  1.00  0.00     0.029 A 
ATOM     53  N   UNL A   1      45.307  28.873  30.059  1.00  0.00    -0.354 N 
ATOM     54  N   UNL A   1      42.452  29.527  29.788  1.00  0.00    -0.248 NA
ATOM     55  C   UNL A   1      40.676  31.018  30.069  1.00  0.00     0.031 C 
ATOM     56  C   UNL A   1      46.679  30.451  30.806  1.00  0.00     0.029 A 
ATOM     57  C   UNL A   1      45.353  30.182  30.507  1.00  0.00     0.049 A 
ATOM     58  H   UNL A   1      44.490  28.401  29.777  1.00  0.00     0.167 HD
ATOM     59  C   UNL A   1      42.940  30.725  30.293  1.00  0.00     0.074 A 
ATOM     60  C   UNL A   1      41.806  31.618  30.417  1.00  0.00     0.031 C 
ATOM     61  C   UNL A   1      44.213  31.057  30.623  1.00  0.00     0.037 A 
BRANCH  48  62
ATOM     62  C   UNL A   1      48.305  26.489  29.835  1.00  0.00     0.057 A 
ATOM     63  C   UNL A   1      49.261  26.669  28.825  1.00  0.00     0.134 A 
ATOM     64  C   UNL A   1      48.724  25.846  31.008  1.00  0.00     0.134 A 
ATOM     65  F   UNL A   1      48.925  27.265  27.670  1.00  0.00    -0.206 F 
ATOM     66  C   UNL A   1      50.569  26.198  28.961  1.00  0.00     0.040 A 
ATOM     67  C   UNL A   1      50.037  25.399  31.169  1.00  0.00     0.040 A 
ATOM     68  F   UNL A   1      47.865  25.646  32.018  1.00  0.00    -0.206 F 
ATOM     69  C   UNL A   1      50.962  25.567  30.139  1.00  0.00     0.006 A 
ENDBRANCH  48  62
BRANCH  49  70
ATOM     70  C   UNL A   1      38.700  29.122  29.027  1.00  0.00     0.057 A 
ATOM     71  C   UNL A   1      38.152  29.596  27.829  1.00  0.00     0.134 A 
ATOM     72  C   UNL A   1      37.844  29.015  30.130  1.00  0.00     0.134 A 
ATOM     73  F   UNL A   1      38.925  29.734  26.742  1.00  0.00    -0.206 F 
ATOM     74  C   UNL A   1      36.809  29.964  27.734  1.00  0.00     0.040 A 
ATOM     75  C   UNL A   1      36.493  29.356  30.042  1.00  0.00     0.040 A 
ATOM     76  F   UNL A   1      38.305  28.559  31.303  1.00  0.00    -0.206 F 
ATOM     77  C   UNL A   1      35.973  29.838  28.843  1.00  0.00     0.006 A 
ENDBRANCH  49  70
BRANCH  61  78
ATOM     78  C   UNL A   1      44.451  32.453  31.121  1.00  0.00     0.057 A 
ATOM     79  C   UNL A   1      44.703  33.518  30.246  1.00  0.00     0.134 A 
ATOM     80  C   UNL A   1      44.381  32.742  32.490  1.00  0.00     0.134 A 
ATOM     81  F   UNL A   1      44.793  33.306  28.925  1.00  0.00    -0.206 F 
ATOM     82  C   UNL A   1      44.899  34.817  30.718  1.00  0.00     0.040 A 
ATOM     83  C   UNL A   1      44.548  34.041  32.970  1.00  0.00     0.040 A 
ATOM     84  F   UNL A   1      44.135  31.769  33.380  1.00  0.00    -0.206 F 
ATOM     85  C   UNL A   1      44.815  35.081  32.084  1.00  0.00     0.006 A 
ENDBRANCH  61  78
ENDBRANCH  35  36
ENDBRANCH  27  30
ENDBRANCH  25  26
ENDBRANCH  24  25
ENDBRANCH   1  24
TORSDOF 14
ENDMDL
