MODEL 1
REMARK VINA RESULT:     -12.2      0.000      0.000
REMARK SMILES CC[C@](C)(NC(=O)c1ccc2ccccc2c1O)C(=O)NCCCNC(=O)c1ccc(-c2c3nc(c(-c4c(F)cccc4F)c4ccc([nH]4)c(-c4c(F)cccc4F)c4nc(c(-c5c(F)cccc5F)c5ccc2[nH]5)C=C4)C=C3)cc1
REMARK SMILES IDX 22 1 21 2 19 3 20 4 3 6 4 7 2 8 1 9 5 10 6 11 7 13 8 14 9 15
REMARK SMILES IDX 17 16 10 17 16 18 11 19 15 20 12 21 14 22 13 23 18 24 23 26
REMARK SMILES IDX 24 27 25 28 26 29 27 31 28 32 29 33 81 34 30 35 80 36 31 37
REMARK SMILES IDX 32 38 33 39 74 40 34 41 79 42 73 43 75 44 35 45 78 46 72 47
REMARK SMILES IDX 71 48 36 50 62 51 45 52 61 53 46 54 49 55 60 56 76 57 47 58
REMARK SMILES IDX 48 59 59 61 77 62 50 63 37 64 38 65 43 66 39 67 40 68 42 69
REMARK SMILES IDX 44 70 41 71 63 72 64 73 69 74 65 75 66 76 68 77 70 78 67 79
REMARK SMILES IDX 51 80 52 81 57 82 53 83 54 84 56 85 58 86 55 87
REMARK H PARENT 21 5 5 12 18 25 25 30 75 49 49 60
REMARK Flexibility Score: inf
ROOT
ATOM      1  C   UNL A   1      36.222  21.175  24.965  1.00  0.00     0.117 C 
ENDROOT
BRANCH   1   2
ATOM      2  N   UNL A   1      35.297  20.984  26.078  1.00  0.00    -0.354 N 
ATOM      3  C   UNL A   1      34.147  21.590  26.525  1.00  0.00     0.245 C 
ATOM      4  O   UNL A   1      33.687  21.153  27.590  1.00  0.00    -0.272 OA
ATOM      5  H   UNL A   1      35.563  20.231  26.655  1.00  0.00     0.163 HD
BRANCH   3   6
ATOM      6  C   UNL A   1      33.428  22.711  25.755  1.00  0.00     0.116 C 
ATOM      7  C   UNL A   1      33.284  22.491  24.237  1.00  0.00     0.045 C 
BRANCH   6   8
ATOM      8  C   UNL A   1      34.316  23.984  25.972  1.00  0.00     0.035 C 
ATOM      9  C   UNL A   1      34.755  24.681  24.670  1.00  0.00     0.007 C 
ENDBRANCH   6   8
BRANCH   6  10
ATOM     10  N   UNL A   1      32.063  22.868  26.304  1.00  0.00    -0.338 N 
ATOM     11  C   UNL A   1      31.215  23.951  26.467  1.00  0.00     0.255 C 
ATOM     12  H   UNL A   1      31.676  22.021  26.622  1.00  0.00     0.164 HD
ATOM     13  O   UNL A   1      30.291  23.767  27.270  1.00  0.00    -0.269 OA
BRANCH  11  14
ATOM     14  C   UNL A   1      31.272  25.307  25.806  1.00  0.00     0.082 A 
ATOM     15  C   UNL A   1      31.794  26.349  26.588  1.00  0.00     0.018 A 
ATOM     16  C   UNL A   1      30.658  25.705  24.611  1.00  0.00     0.136 A 
ATOM     17  C   UNL A   1      31.702  27.696  26.184  1.00  0.00     0.010 A 
ATOM     18  C   UNL A   1      30.609  27.040  24.138  1.00  0.00     0.024 A 
ATOM     19  C   UNL A   1      31.109  28.056  24.960  1.00  0.00    -0.015 A 
ATOM     20  C   UNL A   1      30.010  27.385  22.900  1.00  0.00     0.012 A 
ATOM     21  C   UNL A   1      30.956  29.395  24.544  1.00  0.00     0.009 A 
ATOM     22  C   UNL A   1      29.892  28.706  22.488  1.00  0.00     0.001 A 
ATOM     23  C   UNL A   1      30.351  29.714  23.322  1.00  0.00     0.001 A 
BRANCH  16  24
ATOM     24  O   UNL A   1      29.882  24.856  23.892  1.00  0.00    -0.506 OA
ATOM     25  H   UNL A   1      30.277  24.233  23.316  1.00  0.00     0.293 HD
ENDBRANCH  16  24
ENDBRANCH  11  14
ENDBRANCH   6  10
ENDBRANCH   3   6
ENDBRANCH   1   2
BRANCH   1  26
ATOM     26  C   UNL A   1      37.539  20.384  24.823  1.00  0.00     0.042 C 
BRANCH  26  27
ATOM     27  C   UNL A   1      38.771  20.547  25.729  1.00  0.00     0.118 C 
BRANCH  27  28
ATOM     28  N   UNL A   1      39.833  19.573  25.591  1.00  0.00    -0.352 N 
ATOM     29  C   UNL A   1      41.143  19.676  26.006  1.00  0.00     0.251 C 
ATOM     30  H   UNL A   1      39.589  18.731  25.144  1.00  0.00     0.163 HD
ATOM     31  O   UNL A   1      41.912  18.727  25.861  1.00  0.00    -0.269 OA
BRANCH  29  32
ATOM     32  C   UNL A   1      41.662  20.941  26.584  1.00  0.00     0.039 A 
ATOM     33  C   UNL A   1      42.249  21.874  25.721  1.00  0.00     0.014 A 
ATOM     34  C   UNL A   1      41.614  21.205  27.957  1.00  0.00     0.014 A 
ATOM     35  C   UNL A   1      42.710  23.101  26.218  1.00  0.00     0.010 A 
ATOM     36  C   UNL A   1      42.057  22.443  28.449  1.00  0.00     0.010 A 
ATOM     37  C   UNL A   1      42.582  23.416  27.582  1.00  0.00    -0.014 A 
BRANCH  37  38
ATOM     38  C   UNL A   1      42.887  24.792  28.073  1.00  0.00     0.031 A 
ATOM     39  C   UNL A   1      44.277  25.208  28.471  1.00  0.00     0.074 A 
ATOM     40  C   UNL A   1      41.876  25.675  28.204  1.00  0.00     0.049 A 
ATOM     41  N   UNL A   1      44.691  26.357  28.948  1.00  0.00    -0.248 NA
ATOM     42  C   UNL A   1      45.336  24.202  28.322  1.00  0.00     0.031 C 
ATOM     43  C   UNL A   1      40.474  25.402  27.883  1.00  0.00     0.029 A 
ATOM     44  N   UNL A   1      41.865  26.975  28.653  1.00  0.00    -0.354 N 
ATOM     45  C   UNL A   1      46.057  26.216  29.159  1.00  0.00     0.074 A 
ATOM     46  C   UNL A   1      46.395  24.855  28.788  1.00  0.00     0.031 C 
ATOM     47  C   UNL A   1      39.743  26.498  28.136  1.00  0.00     0.029 A 
ATOM     48  C   UNL A   1      40.614  27.541  28.671  1.00  0.00     0.049 A 
ATOM     49  H   UNL A   1      42.679  27.454  28.934  1.00  0.00     0.167 HD
ATOM     50  C   UNL A   1      46.948  27.135  29.610  1.00  0.00     0.037 A 
ATOM     51  C   UNL A   1      40.202  28.757  29.083  1.00  0.00     0.037 A 
ATOM     52  C   UNL A   1      46.619  28.489  29.980  1.00  0.00     0.049 A 
ATOM     53  C   UNL A   1      41.204  29.741  29.618  1.00  0.00     0.074 A 
ATOM     54  C   UNL A   1      47.470  29.502  30.393  1.00  0.00     0.029 A 
ATOM     55  N   UNL A   1      45.338  29.019  29.998  1.00  0.00    -0.354 N 
ATOM     56  N   UNL A   1      42.502  29.613  29.745  1.00  0.00    -0.248 NA
ATOM     57  C   UNL A   1      40.683  31.042  30.064  1.00  0.00     0.031 C 
ATOM     58  C   UNL A   1      46.701  30.628  30.707  1.00  0.00     0.029 A 
ATOM     59  C   UNL A   1      45.373  30.333  30.444  1.00  0.00     0.049 A 
ATOM     60  H   UNL A   1      44.523  28.535  29.732  1.00  0.00     0.167 HD
ATOM     61  C   UNL A   1      42.954  30.818  30.268  1.00  0.00     0.074 A 
ATOM     62  C   UNL A   1      41.795  31.673  30.415  1.00  0.00     0.031 C 
ATOM     63  C   UNL A   1      44.217  31.180  30.595  1.00  0.00     0.037 A 
BRANCH  50  64
ATOM     64  C   UNL A   1      48.383  26.705  29.737  1.00  0.00     0.057 A 
ATOM     65  C   UNL A   1      48.860  26.057  30.884  1.00  0.00     0.134 A 
ATOM     66  C   UNL A   1      49.282  26.886  28.678  1.00  0.00     0.134 A 
ATOM     67  F   UNL A   1      48.050  25.853  31.934  1.00  0.00    -0.206 F 
ATOM     68  C   UNL A   1      50.186  25.631  30.984  1.00  0.00     0.040 A 
ATOM     69  C   UNL A   1      50.604  26.442  28.757  1.00  0.00     0.040 A 
ATOM     70  F   UNL A   1      48.888  27.484  27.544  1.00  0.00    -0.206 F 
ATOM     71  C   UNL A   1      51.060  25.817  29.916  1.00  0.00     0.006 A 
ENDBRANCH  50  64
BRANCH  51  72
ATOM     72  C   UNL A   1      38.764  29.115  29.009  1.00  0.00     0.057 A 
ATOM     73  C   UNL A   1      38.192  29.564  27.813  1.00  0.00     0.134 A 
ATOM     74  C   UNL A   1      37.931  29.030  30.131  1.00  0.00     0.134 A 
ATOM     75  F   UNL A   1      38.945  29.690  26.711  1.00  0.00    -0.206 F 
ATOM     76  C   UNL A   1      36.848  29.931  27.738  1.00  0.00     0.040 A 
ATOM     77  C   UNL A   1      36.579  29.368  30.064  1.00  0.00     0.040 A 
ATOM     78  F   UNL A   1      38.419  28.605  31.306  1.00  0.00    -0.206 F 
ATOM     79  C   UNL A   1      36.036  29.827  28.867  1.00  0.00     0.006 A 
ENDBRANCH  51  72
BRANCH  63  80
ATOM     80  C   UNL A   1      44.417  32.569  31.130  1.00  0.00     0.057 A 
ATOM     81  C   UNL A   1      44.397  32.840  32.504  1.00  0.00     0.134 A 
ATOM     82  C   UNL A   1      44.660  33.642  30.264  1.00  0.00     0.134 A 
ATOM     83  F   UNL A   1      44.154  31.860  33.387  1.00  0.00    -0.206 F 
ATOM     84  C   UNL A   1      44.589  34.133  32.996  1.00  0.00     0.040 A 
ATOM     85  C   UNL A   1      44.879  34.935  30.745  1.00  0.00     0.040 A 
ATOM     86  F   UNL A   1      44.698  33.452  28.936  1.00  0.00    -0.206 F 
ATOM     87  C   UNL A   1      44.838  35.184  32.115  1.00  0.00     0.006 A 
ENDBRANCH  63  80
ENDBRANCH  37  38
ENDBRANCH  29  32
ENDBRANCH  27  28
ENDBRANCH  26  27
ENDBRANCH   1  26
TORSDOF 14
ENDMDL
MODEL 2
REMARK VINA RESULT:     -12.2      4.391      9.011
REMARK SMILES CC[C@](C)(NC(=O)c1ccc2ccccc2c1O)C(=O)NCCCNC(=O)c1ccc(-c2c3nc(c(-c4c(F)cccc4F)c4ccc([nH]4)c(-c4c(F)cccc4F)c4nc(c(-c5c(F)cccc5F)c5ccc2[nH]5)C=C4)C=C3)cc1
REMARK SMILES IDX 22 1 21 2 19 3 20 4 3 6 4 7 2 8 1 9 5 10 6 11 7 13 8 14 9 15
REMARK SMILES IDX 17 16 10 17 16 18 11 19 15 20 12 21 14 22 13 23 18 24 23 26
REMARK SMILES IDX 24 27 25 28 26 29 27 31 28 32 29 33 81 34 30 35 80 36 31 37
REMARK SMILES IDX 32 38 33 39 74 40 34 41 79 42 73 43 75 44 35 45 78 46 72 47
REMARK SMILES IDX 71 48 36 50 62 51 45 52 61 53 46 54 49 55 60 56 76 57 47 58
REMARK SMILES IDX 48 59 59 61 77 62 50 63 37 64 38 65 43 66 39 67 40 68 42 69
REMARK SMILES IDX 44 70 41 71 63 72 64 73 69 74 65 75 66 76 68 77 70 78 67 79
REMARK SMILES IDX 51 80 52 81 57 82 53 83 54 84 56 85 58 86 55 87
REMARK H PARENT 21 5 5 12 18 25 25 30 75 49 49 60
REMARK Flexibility Score: inf
ROOT
ATOM      1  C   UNL A   1      31.715  30.130  25.790  1.00  0.00     0.117 C 
ENDROOT
BRANCH   1   2
ATOM      2  N   UNL A   1      31.296  29.962  24.401  1.00  0.00    -0.354 N 
ATOM      3  C   UNL A   1      31.439  28.996  23.434  1.00  0.00     0.245 C 
ATOM      4  O   UNL A   1      30.976  29.278  22.320  1.00  0.00    -0.272 OA
ATOM      5  H   UNL A   1      30.780  30.736  24.075  1.00  0.00     0.163 HD
BRANCH   3   6
ATOM      6  C   UNL A   1      32.089  27.627  23.696  1.00  0.00     0.116 C 
ATOM      7  C   UNL A   1      31.281  26.666  24.590  1.00  0.00     0.045 C 
BRANCH   6   8
ATOM      8  C   UNL A   1      33.432  27.951  24.433  1.00  0.00     0.035 C 
ATOM      9  C   UNL A   1      33.689  27.098  25.691  1.00  0.00     0.007 C 
ENDBRANCH   6   8
BRANCH   6  10
ATOM     10  N   UNL A   1      32.300  26.943  22.401  1.00  0.00    -0.338 N 
ATOM     11  C   UNL A   1      32.921  25.761  22.032  1.00  0.00     0.255 C 
ATOM     12  H   UNL A   1      31.918  27.435  21.639  1.00  0.00     0.164 HD
ATOM     13  O   UNL A   1      33.202  25.679  20.829  1.00  0.00    -0.269 OA
BRANCH  11  14
ATOM     14  C   UNL A   1      33.299  24.581  22.893  1.00  0.00     0.082 A 
ATOM     15  C   UNL A   1      34.651  24.496  23.260  1.00  0.00     0.018 A 
ATOM     16  C   UNL A   1      32.531  23.443  23.172  1.00  0.00     0.136 A 
ATOM     17  C   UNL A   1      35.183  23.342  23.868  1.00  0.00     0.010 A 
ATOM     18  C   UNL A   1      33.012  22.292  23.846  1.00  0.00     0.024 A 
ATOM     19  C   UNL A   1      34.374  22.229  24.165  1.00  0.00    -0.015 A 
ATOM     20  C   UNL A   1      32.182  21.181  24.141  1.00  0.00     0.012 A 
ATOM     21  C   UNL A   1      34.878  21.040  24.729  1.00  0.00     0.009 A 
ATOM     22  C   UNL A   1      32.687  20.026  24.724  1.00  0.00     0.001 A 
ATOM     23  C   UNL A   1      34.042  19.950  25.002  1.00  0.00     0.001 A 
BRANCH  16  24
ATOM     24  O   UNL A   1      31.294  23.270  22.642  1.00  0.00    -0.506 OA
ATOM     25  H   UNL A   1      31.058  23.709  21.849  1.00  0.00     0.293 HD
ENDBRANCH  16  24
ENDBRANCH  11  14
ENDBRANCH   6  10
ENDBRANCH   3   6
ENDBRANCH   1   2
BRANCH   1  26
ATOM     26  C   UNL A   1      31.543  31.453  26.565  1.00  0.00     0.042 C 
BRANCH  26  27
ATOM     27  C   UNL A   1      32.694  32.331  27.083  1.00  0.00     0.118 C 
BRANCH  27  28
ATOM     28  N   UNL A   1      32.364  33.671  27.522  1.00  0.00    -0.352 N 
ATOM     29  C   UNL A   1      33.077  34.490  28.371  1.00  0.00     0.251 C 
ATOM     30  H   UNL A   1      31.525  34.044  27.169  1.00  0.00     0.163 HD
ATOM     31  O   UNL A   1      32.683  35.633  28.601  1.00  0.00    -0.269 OA
BRANCH  29  32
ATOM     32  C   UNL A   1      34.296  33.996  29.061  1.00  0.00     0.039 A 
ATOM     33  C   UNL A   1      34.138  33.247  30.233  1.00  0.00     0.014 A 
ATOM     34  C   UNL A   1      35.581  34.288  28.595  1.00  0.00     0.014 A 
ATOM     35  C   UNL A   1      35.259  32.723  30.890  1.00  0.00     0.010 A 
ATOM     36  C   UNL A   1      36.702  33.744  29.243  1.00  0.00     0.010 A 
ATOM     37  C   UNL A   1      36.552  32.931  30.380  1.00  0.00    -0.014 A 
BRANCH  37  38
ATOM     38  C   UNL A   1      37.722  32.210  30.963  1.00  0.00     0.031 A 
ATOM     39  C   UNL A   1      38.415  31.092  30.232  1.00  0.00     0.074 A 
ATOM     40  C   UNL A   1      38.141  32.543  32.200  1.00  0.00     0.049 A 
ATOM     41  N   UNL A   1      39.422  30.349  30.623  1.00  0.00    -0.248 NA
ATOM     42  C   UNL A   1      37.906  30.760  28.896  1.00  0.00     0.031 C 
ATOM     43  C   UNL A   1      37.547  33.588  33.037  1.00  0.00     0.029 A 
ATOM     44  N   UNL A   1      39.155  32.034  32.977  1.00  0.00    -0.354 N 
ATOM     45  C   UNL A   1      39.669  29.459  29.585  1.00  0.00     0.074 A 
ATOM     46  C   UNL A   1      38.682  29.736  28.559  1.00  0.00     0.031 C 
ATOM     47  C   UNL A   1      38.209  33.648  34.203  1.00  0.00     0.029 A 
ATOM     48  C   UNL A   1      39.250  32.624  34.214  1.00  0.00     0.049 A 
ATOM     49  H   UNL A   1      39.755  31.314  32.676  1.00  0.00     0.167 HD
ATOM     50  C   UNL A   1      40.633  28.509  29.490  1.00  0.00     0.037 A 
ATOM     51  C   UNL A   1      40.071  32.368  35.252  1.00  0.00     0.037 A 
ATOM     52  C   UNL A   1      41.617  28.229  30.506  1.00  0.00     0.049 A 
ATOM     53  C   UNL A   1      41.102  31.281  35.136  1.00  0.00     0.074 A 
ATOM     54  C   UNL A   1      42.664  27.321  30.467  1.00  0.00     0.029 A 
ATOM     55  N   UNL A   1      41.671  28.840  31.750  1.00  0.00    -0.354 N 
ATOM     56  N   UNL A   1      41.366  30.497  34.121  1.00  0.00    -0.248 NA
ATOM     57  C   UNL A   1      41.953  31.045  36.313  1.00  0.00     0.031 C 
ATOM     58  C   UNL A   1      43.320  27.348  31.703  1.00  0.00     0.029 A 
ATOM     59  C   UNL A   1      42.713  28.306  32.497  1.00  0.00     0.049 A 
ATOM     60  H   UNL A   1      41.061  29.548  32.058  1.00  0.00     0.167 HD
ATOM     61  C   UNL A   1      42.421  29.690  34.527  1.00  0.00     0.074 A 
ATOM     62  C   UNL A   1      42.763  30.092  35.874  1.00  0.00     0.031 C 
ATOM     63  C   UNL A   1      43.047  28.704  33.840  1.00  0.00     0.037 A 
BRANCH  50  64
ATOM     64  C   UNL A   1      40.673  27.684  28.234  1.00  0.00     0.057 A 
ATOM     65  C   UNL A   1      41.415  28.082  27.114  1.00  0.00     0.134 A 
ATOM     66  C   UNL A   1      40.012  26.451  28.164  1.00  0.00     0.134 A 
ATOM     67  F   UNL A   1      42.070  29.253  27.115  1.00  0.00    -0.206 F 
ATOM     68  C   UNL A   1      41.475  27.297  25.961  1.00  0.00     0.040 A 
ATOM     69  C   UNL A   1      40.086  25.645  27.026  1.00  0.00     0.040 A 
ATOM     70  F   UNL A   1      39.298  26.000  29.207  1.00  0.00    -0.206 F 
ATOM     71  C   UNL A   1      40.815  26.071  25.918  1.00  0.00     0.006 A 
ENDBRANCH  50  64
BRANCH  51  72
ATOM     72  C   UNL A   1      39.950  33.157  36.504  1.00  0.00     0.057 A 
ATOM     73  C   UNL A   1      40.733  34.297  36.717  1.00  0.00     0.134 A 
ATOM     74  C   UNL A   1      39.061  32.785  37.519  1.00  0.00     0.134 A 
ATOM     75  F   UNL A   1      41.621  34.689  35.791  1.00  0.00    -0.206 F 
ATOM     76  C   UNL A   1      40.649  35.032  37.901  1.00  0.00     0.040 A 
ATOM     77  C   UNL A   1      38.947  33.525  38.697  1.00  0.00     0.040 A 
ATOM     78  F   UNL A   1      38.282  31.704  37.374  1.00  0.00    -0.206 F 
ATOM     79  C   UNL A   1      39.748  34.648  38.893  1.00  0.00     0.006 A 
ENDBRANCH  51  72
BRANCH  63  80
ATOM     80  C   UNL A   1      44.181  28.001  34.530  1.00  0.00     0.057 A 
ATOM     81  C   UNL A   1      43.982  26.824  35.263  1.00  0.00     0.134 A 
ATOM     82  C   UNL A   1      45.490  28.490  34.438  1.00  0.00     0.134 A 
ATOM     83  F   UNL A   1      42.751  26.310  35.403  1.00  0.00    -0.206 F 
ATOM     84  C   UNL A   1      45.041  26.171  35.897  1.00  0.00     0.040 A 
ATOM     85  C   UNL A   1      46.561  27.833  35.047  1.00  0.00     0.040 A 
ATOM     86  F   UNL A   1      45.752  29.611  33.748  1.00  0.00    -0.206 F 
ATOM     87  C   UNL A   1      46.336  26.672  35.785  1.00  0.00     0.006 A 
ENDBRANCH  63  80
ENDBRANCH  37  38
ENDBRANCH  29  32
ENDBRANCH  27  28
ENDBRANCH  26  27
ENDBRANCH   1  26
TORSDOF 14
ENDMDL
MODEL 3
REMARK VINA RESULT:     -12.2      0.808      6.232
REMARK SMILES CC[C@](C)(NC(=O)c1ccc2ccccc2c1O)C(=O)NCCCNC(=O)c1ccc(-c2c3nc(c(-c4c(F)cccc4F)c4ccc([nH]4)c(-c4c(F)cccc4F)c4nc(c(-c5c(F)cccc5F)c5ccc2[nH]5)C=C4)C=C3)cc1
REMARK SMILES IDX 22 1 21 2 19 3 20 4 3 6 4 7 2 8 1 9 5 10 6 11 7 13 8 14 9 15
REMARK SMILES IDX 17 16 10 17 16 18 11 19 15 20 12 21 14 22 13 23 18 24 23 26
REMARK SMILES IDX 24 27 25 28 26 29 27 31 28 32 29 33 81 34 30 35 80 36 31 37
REMARK SMILES IDX 32 38 33 39 74 40 34 41 79 42 73 43 75 44 35 45 78 46 72 47
REMARK SMILES IDX 71 48 36 50 62 51 45 52 61 53 46 54 49 55 60 56 76 57 47 58
REMARK SMILES IDX 48 59 59 61 77 62 50 63 37 64 38 65 43 66 39 67 40 68 42 69
REMARK SMILES IDX 44 70 41 71 63 72 64 73 69 74 65 75 66 76 68 77 70 78 67 79
REMARK SMILES IDX 51 80 52 81 57 82 53 83 54 84 56 85 58 86 55 87
REMARK H PARENT 21 5 5 12 18 25 25 30 75 49 49 60
REMARK Flexibility Score: inf
ROOT
ATOM      1  C   UNL A   1      36.279  21.100  25.068  1.00  0.00     0.117 C 
ENDROOT
BRANCH   1   2
ATOM      2  N   UNL A   1      35.507  21.103  26.308  1.00  0.00    -0.354 N 
ATOM      3  C   UNL A   1      34.318  21.645  26.732  1.00  0.00     0.245 C 
ATOM      4  O   UNL A   1      34.040  21.466  27.926  1.00  0.00    -0.272 OA
ATOM      5  H   UNL A   1      35.951  20.587  27.020  1.00  0.00     0.163 HD
BRANCH   3   6
ATOM      6  C   UNL A   1      33.350  22.396  25.800  1.00  0.00     0.116 C 
ATOM      7  C   UNL A   1      33.135  21.761  24.412  1.00  0.00     0.045 C 
BRANCH   6   8
ATOM      8  C   UNL A   1      34.004  23.803  25.586  1.00  0.00     0.035 C 
ATOM      9  C   UNL A   1      34.307  24.146  24.115  1.00  0.00     0.007 C 
ENDBRANCH   6   8
BRANCH   6  10
ATOM     10  N   UNL A   1      32.025  22.476  26.452  1.00  0.00    -0.338 N 
ATOM     11  C   UNL A   1      31.010  23.419  26.447  1.00  0.00     0.255 C 
ATOM     12  H   UNL A   1      31.822  21.691  27.011  1.00  0.00     0.164 HD
ATOM     13  O   UNL A   1      30.197  23.309  27.374  1.00  0.00    -0.269 OA
BRANCH  11  14
ATOM     14  C   UNL A   1      30.771  24.548  25.475  1.00  0.00     0.082 A 
ATOM     15  C   UNL A   1      30.590  24.176  24.134  1.00  0.00     0.018 A 
ATOM     16  C   UNL A   1      30.942  25.921  25.697  1.00  0.00     0.136 A 
ATOM     17  C   UNL A   1      30.580  25.129  23.096  1.00  0.00     0.010 A 
ATOM     18  C   UNL A   1      30.869  26.915  24.689  1.00  0.00     0.024 A 
ATOM     19  C   UNL A   1      30.721  26.504  23.359  1.00  0.00    -0.015 A 
ATOM     20  C   UNL A   1      31.009  28.297  24.973  1.00  0.00     0.012 A 
ATOM     21  C   UNL A   1      30.765  27.481  22.344  1.00  0.00     0.009 A 
ATOM     22  C   UNL A   1      31.021  29.253  23.966  1.00  0.00     0.001 A 
ATOM     23  C   UNL A   1      30.916  28.841  22.647  1.00  0.00     0.001 A 
BRANCH  16  24
ATOM     24  O   UNL A   1      31.390  26.400  26.884  1.00  0.00    -0.506 OA
ATOM     25  H   UNL A   1      31.082  26.029  27.687  1.00  0.00     0.293 HD
ENDBRANCH  16  24
ENDBRANCH  11  14
ENDBRANCH   6  10
ENDBRANCH   3   6
ENDBRANCH   1   2
BRANCH   1  26
ATOM     26  C   UNL A   1      37.591  20.306  24.898  1.00  0.00     0.042 C 
BRANCH  26  27
ATOM     27  C   UNL A   1      38.861  20.506  25.741  1.00  0.00     0.118 C 
BRANCH  27  28
ATOM     28  N   UNL A   1      39.886  19.487  25.653  1.00  0.00    -0.352 N 
ATOM     29  C   UNL A   1      41.193  19.553  26.087  1.00  0.00     0.251 C 
ATOM     30  H   UNL A   1      39.616  18.641  25.230  1.00  0.00     0.163 HD
ATOM     31  O   UNL A   1      41.926  18.570  25.986  1.00  0.00    -0.269 OA
BRANCH  29  32
ATOM     32  C   UNL A   1      41.753  20.816  26.631  1.00  0.00     0.039 A 
ATOM     33  C   UNL A   1      42.263  21.758  25.731  1.00  0.00     0.014 A 
ATOM     34  C   UNL A   1      41.815  21.067  28.005  1.00  0.00     0.014 A 
ATOM     35  C   UNL A   1      42.758  22.983  26.199  1.00  0.00     0.010 A 
ATOM     36  C   UNL A   1      42.292  22.303  28.470  1.00  0.00     0.010 A 
ATOM     37  C   UNL A   1      42.741  23.287  27.571  1.00  0.00    -0.014 A 
BRANCH  37  38
ATOM     38  C   UNL A   1      43.080  24.660  28.048  1.00  0.00     0.031 A 
ATOM     39  C   UNL A   1      42.023  25.700  28.300  1.00  0.00     0.074 A 
ATOM     40  C   UNL A   1      44.377  24.989  28.215  1.00  0.00     0.049 A 
ATOM     41  N   UNL A   1      42.165  26.946  28.684  1.00  0.00    -0.248 NA
ATOM     42  C   UNL A   1      40.629  25.292  28.087  1.00  0.00     0.031 C 
ATOM     43  C   UNL A   1      45.510  24.090  27.982  1.00  0.00     0.029 A 
ATOM     44  N   UNL A   1      44.966  26.168  28.608  1.00  0.00    -0.354 N 
ATOM     45  C   UNL A   1      40.882  27.475  28.756  1.00  0.00     0.074 A 
ATOM     46  C   UNL A   1      39.976  26.420  28.344  1.00  0.00     0.031 C 
ATOM     47  C   UNL A   1      46.652  24.746  28.242  1.00  0.00     0.029 A 
ATOM     48  C   UNL A   1      46.338  26.119  28.626  1.00  0.00     0.049 A 
ATOM     49  H   UNL A   1      44.451  26.971  28.853  1.00  0.00     0.167 HD
ATOM     50  C   UNL A   1      40.494  28.717  29.139  1.00  0.00     0.037 A 
ATOM     51  C   UNL A   1      47.251  27.071  28.905  1.00  0.00     0.037 A 
ATOM     52  C   UNL A   1      41.390  29.770  29.550  1.00  0.00     0.049 A 
ATOM     53  C   UNL A   1      46.795  28.451  29.286  1.00  0.00     0.074 A 
ATOM     54  C   UNL A   1      41.076  31.041  30.007  1.00  0.00     0.029 A 
ATOM     55  N   UNL A   1      42.774  29.685  29.541  1.00  0.00    -0.354 N 
ATOM     56  N   UNL A   1      45.575  28.913  29.416  1.00  0.00    -0.248 NA
ATOM     57  C   UNL A   1      47.844  29.445  29.561  1.00  0.00     0.031 C 
ATOM     58  C   UNL A   1      42.268  31.739  30.228  1.00  0.00     0.029 A 
ATOM     59  C   UNL A   1      43.327  30.889  29.954  1.00  0.00     0.049 A 
ATOM     60  H   UNL A   1      43.289  28.888  29.281  1.00  0.00     0.167 HD
ATOM     61  C   UNL A   1      45.709  30.239  29.805  1.00  0.00     0.074 A 
ATOM     62  C   UNL A   1      47.128  30.505  29.909  1.00  0.00     0.031 C 
ATOM     63  C   UNL A   1      44.740  31.153  30.052  1.00  0.00     0.037 A 
BRANCH  50  64
ATOM     64  C   UNL A   1      39.021  29.018  29.129  1.00  0.00     0.057 A 
ATOM     65  C   UNL A   1      38.241  28.921  30.288  1.00  0.00     0.134 A 
ATOM     66  C   UNL A   1      38.389  29.467  27.962  1.00  0.00     0.134 A 
ATOM     67  F   UNL A   1      38.785  28.496  31.439  1.00  0.00    -0.206 F 
ATOM     68  C   UNL A   1      36.880  29.233  30.281  1.00  0.00     0.040 A 
ATOM     69  C   UNL A   1      37.035  29.807  27.949  1.00  0.00     0.040 A 
ATOM     70  F   UNL A   1      39.081  29.600  26.820  1.00  0.00    -0.206 F 
ATOM     71  C   UNL A   1      36.275  29.684  29.110  1.00  0.00     0.006 A 
ENDBRANCH  50  64
BRANCH  51  72
ATOM     72  C   UNL A   1      48.699  26.753  28.832  1.00  0.00     0.057 A 
ATOM     73  C   UNL A   1      49.417  26.925  27.644  1.00  0.00     0.134 A 
ATOM     74  C   UNL A   1      49.394  26.259  29.942  1.00  0.00     0.134 A 
ATOM     75  F   UNL A   1      48.800  27.372  26.540  1.00  0.00    -0.206 F 
ATOM     76  C   UNL A   1      50.772  26.603  27.556  1.00  0.00     0.040 A 
ATOM     77  C   UNL A   1      50.755  25.957  29.875  1.00  0.00     0.040 A 
ATOM     78  F   UNL A   1      48.762  26.074  31.110  1.00  0.00    -0.206 F 
ATOM     79  C   UNL A   1      51.446  26.122  28.677  1.00  0.00     0.006 A 
ENDBRANCH  51  72
BRANCH  63  80
ATOM     80  C   UNL A   1      45.181  32.524  30.477  1.00  0.00     0.057 A 
ATOM     81  C   UNL A   1      45.378  33.556  29.551  1.00  0.00     0.134 A 
ATOM     82  C   UNL A   1      45.384  32.824  31.830  1.00  0.00     0.134 A 
ATOM     83  F   UNL A   1      45.215  33.332  28.238  1.00  0.00    -0.206 F 
ATOM     84  C   UNL A   1      45.783  34.831  29.953  1.00  0.00     0.040 A 
ATOM     85  C   UNL A   1      45.765  34.101  32.247  1.00  0.00     0.040 A 
ATOM     86  F   UNL A   1      45.208  31.883  32.771  1.00  0.00    -0.206 F 
ATOM     87  C   UNL A   1      45.970  35.108  31.306  1.00  0.00     0.006 A 
ENDBRANCH  63  80
ENDBRANCH  37  38
ENDBRANCH  29  32
ENDBRANCH  27  28
ENDBRANCH  26  27
ENDBRANCH   1  26
TORSDOF 14
ENDMDL
