MODEL 1
REMARK VINA RESULT:     -14.3      0.000      0.000
REMARK SMILES O=C(NCCCNC(=O)c1ccc(-c2c3nc(c(-c4c(F)cccc4F)c4ccc([nH]4)c(-c4c(F)cccc4F)c4nc(c(-c5c(F)cccc5F)c5ccc2[nH]5)C=C4)C=C3)cc1)c1ccc(NC(=O)[C@@H]2CC=CC[C@H]2C(=O)Nc2cccc([N+](=O)[O-])c2)cc1
REMARK SMILES IDX 1 1 2 2 3 3 64 5 65 6 90 7 66 8 89 9 67 10 68 11 69 12 70 14
REMARK SMILES IDX 71 15 72 16 76 17 73 18 75 19 74 20 77 21 78 22 79 23 80 25
REMARK SMILES IDX 81 26 88 27 82 28 84 29 83 30 85 31 86 32 87 33 4 34 5 35
REMARK SMILES IDX 6 36 7 37 8 38 9 40 10 41 11 42 63 43 12 44 62 45 13 46
REMARK SMILES IDX 14 47 15 48 56 49 16 50 61 51 55 52 57 53 17 54 60 55 54 56
REMARK SMILES IDX 53 57 18 59 44 60 27 61 43 62 28 63 31 64 42 65 58 66 29 67
REMARK SMILES IDX 30 68 41 70 59 71 32 72 19 73 20 74 25 75 21 76 22 77 24 78
REMARK SMILES IDX 26 79 23 80 45 81 46 82 51 83 47 84 48 85 50 86 52 87 49 88
REMARK SMILES IDX 33 89 34 90 39 91 35 92 36 93 38 94 40 95 37 96
REMARK H PARENT 3 4 68 13 79 24 7 39 57 58 31 69
REMARK Flexibility Score: inf
ROOT
ATOM      1  O   UNL A   1      34.932  28.694  27.182  1.00  0.00    -0.269 OA
ATOM      2  C   UNL A   1      33.824  28.926  26.712  1.00  0.00     0.251 C 
ATOM      3  N   UNL A   1      33.143  30.086  27.014  1.00  0.00    -0.352 N 
ATOM      4  H   UNL A   1      33.644  30.745  27.547  1.00  0.00     0.163 HD
ENDROOT
BRANCH   2   5
ATOM      5  C   UNL A   1      33.157  27.943  25.842  1.00  0.00     0.039 A 
ATOM      6  C   UNL A   1      32.425  26.913  26.422  1.00  0.00     0.016 A 
ATOM      7  C   UNL A   1      33.439  27.930  24.479  1.00  0.00     0.016 A 
ATOM      8  C   UNL A   1      32.194  25.753  25.691  1.00  0.00     0.027 A 
ATOM      9  C   UNL A   1      33.136  26.785  23.740  1.00  0.00     0.027 A 
ATOM     10  C   UNL A   1      32.590  25.648  24.363  1.00  0.00     0.041 A 
BRANCH  10  11
ATOM     11  N   UNL A   1      32.576  24.471  23.602  1.00  0.00    -0.326 N 
ATOM     12  C   UNL A   1      33.349  23.363  23.485  1.00  0.00     0.228 C 
ATOM     13  H   UNL A   1      31.802  24.440  22.993  1.00  0.00     0.169 HD
ATOM     14  O   UNL A   1      33.063  22.608  22.544  1.00  0.00    -0.274 OA
BRANCH  12  15
ATOM     15  C   UNL A   1      34.522  22.977  24.376  1.00  0.00     0.095 C 
ATOM     16  C   UNL A   1      35.848  23.607  23.923  1.00  0.00     0.041 C 
ATOM     17  C   UNL A   1      34.493  21.492  24.782  1.00  0.00     0.095 C 
ATOM     18  C   UNL A   1      37.076  22.798  24.203  1.00  0.00    -0.030 C 
ATOM     19  C   UNL A   1      35.836  20.879  25.224  1.00  0.00     0.041 C 
ATOM     20  C   UNL A   1      37.068  21.589  24.772  1.00  0.00    -0.030 C 
BRANCH  17  21
ATOM     21  C   UNL A   1      33.385  21.097  25.790  1.00  0.00     0.228 C 
ATOM     22  O   UNL A   1      33.072  21.905  26.675  1.00  0.00    -0.274 OA
ATOM     23  N   UNL A   1      32.598  19.979  25.666  1.00  0.00    -0.326 N 
ATOM     24  H   UNL A   1      31.782  19.985  26.218  1.00  0.00     0.169 HD
BRANCH  23  25
ATOM     25  C   UNL A   1      32.766  18.832  24.882  1.00  0.00     0.048 A 
ATOM     26  C   UNL A   1      32.476  18.888  23.517  1.00  0.00     0.026 A 
ATOM     27  C   UNL A   1      33.174  17.629  25.442  1.00  0.00     0.111 A 
ATOM     28  C   UNL A   1      32.767  17.794  22.693  1.00  0.00     0.009 A 
ATOM     29  C   UNL A   1      33.521  16.556  24.617  1.00  0.00     0.271 A 
ATOM     30  C   UNL A   1      33.327  16.636  23.235  1.00  0.00     0.086 A 
BRANCH  29  31
ATOM     31  N   UNL A   1      34.143  15.367  25.210  1.00  0.00     0.062 N 
ATOM     32  O   UNL A   1      33.412  14.402  25.469  1.00  0.00    -0.258 OA
ATOM     33  O   UNL A   1      35.370  15.388  25.385  1.00  0.00    -0.258 OA
ENDBRANCH  29  31
ENDBRANCH  23  25
ENDBRANCH  17  21
ENDBRANCH  12  15
ENDBRANCH  10  11
ENDBRANCH   2   5
BRANCH   3  34
ATOM     34  C   UNL A   1      31.780  30.476  26.650  1.00  0.00     0.118 C 
BRANCH  34  35
ATOM     35  C   UNL A   1      31.548  31.976  26.715  1.00  0.00     0.042 C 
BRANCH  35  36
ATOM     36  C   UNL A   1      32.728  32.751  27.271  1.00  0.00     0.118 C 
BRANCH  36  37
ATOM     37  N   UNL A   1      32.396  34.130  27.608  1.00  0.00    -0.352 N 
ATOM     38  C   UNL A   1      32.951  34.968  28.545  1.00  0.00     0.251 C 
ATOM     39  H   UNL A   1      31.661  34.522  27.083  1.00  0.00     0.163 HD
ATOM     40  O   UNL A   1      32.435  36.060  28.770  1.00  0.00    -0.269 OA
BRANCH  38  41
ATOM     41  C   UNL A   1      34.145  34.545  29.308  1.00  0.00     0.039 A 
ATOM     42  C   UNL A   1      33.973  33.998  30.583  1.00  0.00     0.014 A 
ATOM     43  C   UNL A   1      35.426  34.670  28.768  1.00  0.00     0.014 A 
ATOM     44  C   UNL A   1      35.077  33.499  31.277  1.00  0.00     0.010 A 
ATOM     45  C   UNL A   1      36.510  34.092  29.418  1.00  0.00     0.010 A 
ATOM     46  C   UNL A   1      36.347  33.498  30.678  1.00  0.00    -0.014 A 
BRANCH  46  47
ATOM     47  C   UNL A   1      37.525  32.891  31.342  1.00  0.00     0.031 A 
ATOM     48  C   UNL A   1      38.196  31.694  30.729  1.00  0.00     0.074 A 
ATOM     49  C   UNL A   1      37.935  33.356  32.539  1.00  0.00     0.049 A 
ATOM     50  N   UNL A   1      39.140  30.932  31.219  1.00  0.00    -0.248 NA
ATOM     51  C   UNL A   1      37.717  31.277  29.400  1.00  0.00     0.031 C 
ATOM     52  C   UNL A   1      37.343  34.484  33.261  1.00  0.00     0.029 A 
ATOM     53  N   UNL A   1      38.939  32.923  33.368  1.00  0.00    -0.354 N 
ATOM     54  C   UNL A   1      39.347  29.934  30.275  1.00  0.00     0.074 A 
ATOM     55  C   UNL A   1      38.403  30.161  29.204  1.00  0.00     0.031 C 
ATOM     56  C   UNL A   1      38.008  34.666  34.413  1.00  0.00     0.029 A 
ATOM     57  C   UNL A   1      39.043  33.646  34.531  1.00  0.00     0.049 A 
ATOM     58  H   UNL A   1      39.530  32.165  33.148  1.00  0.00     0.167 HD
ATOM     59  C   UNL A   1      40.257  28.932  30.289  1.00  0.00     0.037 A 
ATOM     60  C   UNL A   1      39.874  33.494  35.580  1.00  0.00     0.037 A 
ATOM     61  C   UNL A   1      41.225  28.732  31.333  1.00  0.00     0.049 A 
ATOM     62  C   UNL A   1      40.878  32.378  35.568  1.00  0.00     0.074 A 
ATOM     63  C   UNL A   1      42.230  27.783  31.409  1.00  0.00     0.029 A 
ATOM     64  N   UNL A   1      41.315  29.503  32.483  1.00  0.00    -0.354 N 
ATOM     65  N   UNL A   1      41.091  31.467  34.650  1.00  0.00    -0.248 NA
ATOM     66  C   UNL A   1      41.757  32.266  36.741  1.00  0.00     0.031 C 
ATOM     67  C   UNL A   1      42.912  27.964  32.617  1.00  0.00     0.029 A 
ATOM     68  C   UNL A   1      42.351  29.045  33.278  1.00  0.00     0.049 A 
ATOM     69  H   UNL A   1      40.729  30.264  32.700  1.00  0.00     0.167 HD
ATOM     70  C   UNL A   1      42.140  30.690  35.121  1.00  0.00     0.074 A 
ATOM     71  C   UNL A   1      42.528  31.241  36.403  1.00  0.00     0.031 C 
ATOM     72  C   UNL A   1      42.728  29.615  34.544  1.00  0.00     0.037 A 
BRANCH  59  73
ATOM     73  C   UNL A   1      40.253  27.983  29.129  1.00  0.00     0.057 A 
ATOM     74  C   UNL A   1      41.012  28.227  27.979  1.00  0.00     0.134 A 
ATOM     75  C   UNL A   1      39.502  26.802  29.174  1.00  0.00     0.134 A 
ATOM     76  F   UNL A   1      41.740  29.348  27.870  1.00  0.00    -0.206 F 
ATOM     77  C   UNL A   1      41.008  27.340  26.901  1.00  0.00     0.040 A 
ATOM     78  C   UNL A   1      39.508  25.896  28.111  1.00  0.00     0.040 A 
ATOM     79  F   UNL A   1      38.755  26.508  30.248  1.00  0.00    -0.206 F 
ATOM     80  C   UNL A   1      40.258  26.167  26.968  1.00  0.00     0.006 A 
ENDBRANCH  59  73
BRANCH  60  81
ATOM     81  C   UNL A   1      39.804  34.435  36.724  1.00  0.00     0.057 A 
ATOM     82  C   UNL A   1      40.517  35.639  36.703  1.00  0.00     0.134 A 
ATOM     83  C   UNL A   1      39.038  34.155  37.860  1.00  0.00     0.134 A 
ATOM     84  F   UNL A   1      41.285  35.950  35.648  1.00  0.00    -0.206 F 
ATOM     85  C   UNL A   1      40.483  36.526  37.779  1.00  0.00     0.040 A 
ATOM     86  C   UNL A   1      38.978  35.043  38.935  1.00  0.00     0.040 A 
ATOM     87  F   UNL A   1      38.329  33.020  37.936  1.00  0.00    -0.206 F 
ATOM     88  C   UNL A   1      39.708  36.230  38.898  1.00  0.00     0.006 A 
ENDBRANCH  60  81
BRANCH  72  89
ATOM     89  C   UNL A   1      43.872  28.986  35.279  1.00  0.00     0.057 A 
ATOM     90  C   UNL A   1      45.194  29.396  35.070  1.00  0.00     0.134 A 
ATOM     91  C   UNL A   1      43.643  27.988  36.234  1.00  0.00     0.134 A 
ATOM     92  F   UNL A   1      45.478  30.338  34.158  1.00  0.00    -0.206 F 
ATOM     93  C   UNL A   1      46.252  28.826  35.779  1.00  0.00     0.040 A 
ATOM     94  C   UNL A   1      44.691  27.425  36.963  1.00  0.00     0.040 A 
ATOM     95  F   UNL A   1      42.397  27.557  36.482  1.00  0.00    -0.206 F 
ATOM     96  C   UNL A   1      46.001  27.842  36.734  1.00  0.00     0.006 A 
ENDBRANCH  72  89
ENDBRANCH  46  47
ENDBRANCH  38  41
ENDBRANCH  36  37
ENDBRANCH  35  36
ENDBRANCH  34  35
ENDBRANCH   3  34
TORSDOF 15
ENDMDL
MODEL 2
REMARK VINA RESULT:     -14.3      4.655     10.280
REMARK SMILES O=C(NCCCNC(=O)c1ccc(-c2c3nc(c(-c4c(F)cccc4F)c4ccc([nH]4)c(-c4c(F)cccc4F)c4nc(c(-c5c(F)cccc5F)c5ccc2[nH]5)C=C4)C=C3)cc1)c1ccc(NC(=O)[C@@H]2CC=CC[C@H]2C(=O)Nc2cccc([N+](=O)[O-])c2)cc1
REMARK SMILES IDX 1 1 2 2 3 3 64 5 65 6 90 7 66 8 89 9 67 10 68 11 69 12 70 14
REMARK SMILES IDX 71 15 72 16 76 17 73 18 75 19 74 20 77 21 78 22 79 23 80 25
REMARK SMILES IDX 81 26 88 27 82 28 84 29 83 30 85 31 86 32 87 33 4 34 5 35
REMARK SMILES IDX 6 36 7 37 8 38 9 40 10 41 11 42 63 43 12 44 62 45 13 46
REMARK SMILES IDX 14 47 15 48 56 49 16 50 61 51 55 52 57 53 17 54 60 55 54 56
REMARK SMILES IDX 53 57 18 59 44 60 27 61 43 62 28 63 31 64 42 65 58 66 29 67
REMARK SMILES IDX 30 68 41 70 59 71 32 72 19 73 20 74 25 75 21 76 22 77 24 78
REMARK SMILES IDX 26 79 23 80 45 81 46 82 51 83 47 84 48 85 50 86 52 87 49 88
REMARK SMILES IDX 33 89 34 90 39 91 35 92 36 93 38 94 40 95 37 96
REMARK H PARENT 3 4 68 13 79 24 7 39 57 58 31 69
REMARK Flexibility Score: inf
ROOT
ATOM      1  O   UNL A   1      37.664  24.417  26.139  1.00  0.00    -0.269 OA
ATOM      2  C   UNL A   1      37.133  23.450  25.605  1.00  0.00     0.251 C 
ATOM      3  N   UNL A   1      37.849  22.310  25.306  1.00  0.00    -0.352 N 
ATOM      4  H   UNL A   1      38.777  22.294  25.635  1.00  0.00     0.163 HD
ENDROOT
BRANCH   2   5
ATOM      5  C   UNL A   1      35.713  23.493  25.218  1.00  0.00     0.039 A 
ATOM      6  C   UNL A   1      35.376  23.897  23.930  1.00  0.00     0.016 A 
ATOM      7  C   UNL A   1      34.731  23.338  26.191  1.00  0.00     0.016 A 
ATOM      8  C   UNL A   1      34.097  24.387  23.689  1.00  0.00     0.027 A 
ATOM      9  C   UNL A   1      33.432  23.768  25.911  1.00  0.00     0.027 A 
ATOM     10  C   UNL A   1      33.125  24.380  24.683  1.00  0.00     0.041 A 
BRANCH  10  11
ATOM     11  N   UNL A   1      31.877  25.016  24.602  1.00  0.00    -0.326 N 
ATOM     12  C   UNL A   1      31.370  26.234  24.915  1.00  0.00     0.228 C 
ATOM     13  H   UNL A   1      31.190  24.424  24.218  1.00  0.00     0.169 HD
ATOM     14  O   UNL A   1      30.136  26.336  24.833  1.00  0.00    -0.274 OA
BRANCH  12  15
ATOM     15  C   UNL A   1      32.156  27.458  25.363  1.00  0.00     0.095 C 
ATOM     16  C   UNL A   1      32.446  27.462  26.872  1.00  0.00     0.041 C 
ATOM     17  C   UNL A   1      31.674  28.753  24.685  1.00  0.00     0.095 C 
ATOM     18  C   UNL A   1      32.525  28.813  27.511  1.00  0.00    -0.030 C 
ATOM     19  C   UNL A   1      32.016  30.071  25.407  1.00  0.00     0.041 C 
ATOM     20  C   UNL A   1      32.327  29.965  26.863  1.00  0.00    -0.030 C 
BRANCH  17  21
ATOM     21  C   UNL A   1      32.011  28.884  23.178  1.00  0.00     0.228 C 
ATOM     22  O   UNL A   1      33.141  28.556  22.792  1.00  0.00    -0.274 OA
ATOM     23  N   UNL A   1      31.084  29.174  22.207  1.00  0.00    -0.326 N 
ATOM     24  H   UNL A   1      31.375  28.976  21.288  1.00  0.00     0.169 HD
BRANCH  23  25
ATOM     25  C   UNL A   1      29.794  29.705  22.312  1.00  0.00     0.048 A 
ATOM     26  C   UNL A   1      28.759  28.899  22.790  1.00  0.00     0.026 A 
ATOM     27  C   UNL A   1      29.514  31.005  21.911  1.00  0.00     0.111 A 
ATOM     28  C   UNL A   1      27.495  29.450  23.030  1.00  0.00     0.009 A 
ATOM     29  C   UNL A   1      28.272  31.574  22.203  1.00  0.00     0.271 A 
ATOM     30  C   UNL A   1      27.257  30.802  22.774  1.00  0.00     0.086 A 
BRANCH  29  31
ATOM     31  N   UNL A   1      28.064  33.006  21.959  1.00  0.00     0.062 N 
ATOM     32  O   UNL A   1      28.383  33.796  22.857  1.00  0.00    -0.258 OA
ATOM     33  O   UNL A   1      27.613  33.341  20.854  1.00  0.00    -0.258 OA
ENDBRANCH  29  31
ENDBRANCH  23  25
ENDBRANCH  17  21
ENDBRANCH  12  15
ENDBRANCH  10  11
ENDBRANCH   2   5
BRANCH   3  34
ATOM     34  C   UNL A   1      37.421  21.120  24.571  1.00  0.00     0.118 C 
BRANCH  34  35
ATOM     35  C   UNL A   1      38.202  19.872  24.943  1.00  0.00     0.042 C 
BRANCH  35  36
ATOM     36  C   UNL A   1      39.232  20.101  26.034  1.00  0.00     0.118 C 
BRANCH  36  37
ATOM     37  N   UNL A   1      40.373  19.198  25.939  1.00  0.00    -0.352 N 
ATOM     38  C   UNL A   1      41.713  19.447  26.117  1.00  0.00     0.251 C 
ATOM     39  H   UNL A   1      40.149  18.266  25.716  1.00  0.00     0.163 HD
ATOM     40  O   UNL A   1      42.536  18.573  25.858  1.00  0.00    -0.269 OA
BRANCH  38  41
ATOM     41  C   UNL A   1      42.168  20.775  26.583  1.00  0.00     0.039 A 
ATOM     42  C   UNL A   1      42.545  21.731  25.636  1.00  0.00     0.014 A 
ATOM     43  C   UNL A   1      42.209  21.084  27.944  1.00  0.00     0.014 A 
ATOM     44  C   UNL A   1      42.880  23.021  26.050  1.00  0.00     0.010 A 
ATOM     45  C   UNL A   1      42.453  22.391  28.348  1.00  0.00     0.010 A 
ATOM     46  C   UNL A   1      42.789  23.374  27.406  1.00  0.00    -0.014 A 
BRANCH  46  47
ATOM     47  C   UNL A   1      43.043  24.759  27.873  1.00  0.00     0.031 A 
ATOM     48  C   UNL A   1      44.439  25.184  28.231  1.00  0.00     0.074 A 
ATOM     49  C   UNL A   1      42.010  25.603  28.063  1.00  0.00     0.049 A 
ATOM     50  N   UNL A   1      44.850  26.292  28.792  1.00  0.00    -0.248 NA
ATOM     51  C   UNL A   1      45.515  24.217  27.952  1.00  0.00     0.031 C 
ATOM     52  C   UNL A   1      40.603  25.299  27.794  1.00  0.00     0.029 A 
ATOM     53  N   UNL A   1      41.985  26.888  28.544  1.00  0.00    -0.354 N 
ATOM     54  C   UNL A   1      46.221  26.146  28.958  1.00  0.00     0.074 A 
ATOM     55  C   UNL A   1      46.568  24.826  28.478  1.00  0.00     0.031 C 
ATOM     56  C   UNL A   1      39.856  26.374  28.094  1.00  0.00     0.029 A 
ATOM     57  C   UNL A   1      40.723  27.425  28.613  1.00  0.00     0.049 A 
ATOM     58  H   UNL A   1      42.796  27.378  28.813  1.00  0.00     0.167 HD
ATOM     59  C   UNL A   1      47.114  27.039  29.444  1.00  0.00     0.037 A 
ATOM     60  C   UNL A   1      40.312  28.628  29.058  1.00  0.00     0.037 A 
ATOM     61  C   UNL A   1      46.777  28.367  29.880  1.00  0.00     0.049 A 
ATOM     62  C   UNL A   1      41.324  29.603  29.588  1.00  0.00     0.074 A 
ATOM     63  C   UNL A   1      47.619  29.368  30.331  1.00  0.00     0.029 A 
ATOM     64  N   UNL A   1      45.490  28.883  29.909  1.00  0.00    -0.354 N 
ATOM     65  N   UNL A   1      42.623  29.467  29.700  1.00  0.00    -0.248 NA
ATOM     66  C   UNL A   1      40.812  30.898  30.057  1.00  0.00     0.031 C 
ATOM     67  C   UNL A   1      46.838  30.482  30.658  1.00  0.00     0.029 A 
ATOM     68  C   UNL A   1      45.514  30.183  30.381  1.00  0.00     0.049 A 
ATOM     69  H   UNL A   1      44.679  28.395  29.635  1.00  0.00     0.167 HD
ATOM     70  C   UNL A   1      43.086  30.664  30.229  1.00  0.00     0.074 A 
ATOM     71  C   UNL A   1      41.931  31.518  30.406  1.00  0.00     0.031 C 
ATOM     72  C   UNL A   1      44.355  31.022  30.539  1.00  0.00     0.037 A 
BRANCH  59  73
ATOM     73  C   UNL A   1      48.548  26.607  29.518  1.00  0.00     0.057 A 
ATOM     74  C   UNL A   1      49.443  26.857  28.471  1.00  0.00     0.134 A 
ATOM     75  C   UNL A   1      49.042  25.958  30.655  1.00  0.00     0.134 A 
ATOM     76  F   UNL A   1      49.026  27.460  27.348  1.00  0.00    -0.206 F 
ATOM     77  C   UNL A   1      50.778  26.455  28.544  1.00  0.00     0.040 A 
ATOM     78  C   UNL A   1      50.381  25.573  30.749  1.00  0.00     0.040 A 
ATOM     79  F   UNL A   1      48.237  25.692  31.694  1.00  0.00    -0.206 F 
ATOM     80  C   UNL A   1      51.252  25.817  29.687  1.00  0.00     0.006 A 
ENDBRANCH  59  73
BRANCH  60  81
ATOM     81  C   UNL A   1      38.874  28.987  29.005  1.00  0.00     0.057 A 
ATOM     82  C   UNL A   1      38.306  29.493  27.831  1.00  0.00     0.134 A 
ATOM     83  C   UNL A   1      38.039  28.841  30.118  1.00  0.00     0.134 A 
ATOM     84  F   UNL A   1      39.064  29.672  26.739  1.00  0.00    -0.206 F 
ATOM     85  C   UNL A   1      36.961  29.858  27.768  1.00  0.00     0.040 A 
ATOM     86  C   UNL A   1      36.687  29.183  30.064  1.00  0.00     0.040 A 
ATOM     87  F   UNL A   1      38.524  28.356  31.270  1.00  0.00    -0.206 F 
ATOM     88  C   UNL A   1      36.146  29.699  28.887  1.00  0.00     0.006 A 
ENDBRANCH  60  81
BRANCH  72  89
ATOM     89  C   UNL A   1      44.563  32.406  31.073  1.00  0.00     0.057 A 
ATOM     90  C   UNL A   1      44.769  33.497  30.222  1.00  0.00     0.134 A 
ATOM     91  C   UNL A   1      44.516  32.652  32.451  1.00  0.00     0.134 A 
ATOM     92  F   UNL A   1      44.838  33.322  28.895  1.00  0.00    -0.206 F 
ATOM     93  C   UNL A   1      44.932  34.789  30.725  1.00  0.00     0.040 A 
ATOM     94  C   UNL A   1      44.659  33.942  32.963  1.00  0.00     0.040 A 
ATOM     95  F   UNL A   1      44.316  31.647  33.316  1.00  0.00    -0.206 F 
ATOM     96  C   UNL A   1      44.871  35.015  32.099  1.00  0.00     0.006 A 
ENDBRANCH  72  89
ENDBRANCH  46  47
ENDBRANCH  38  41
ENDBRANCH  36  37
ENDBRANCH  35  36
ENDBRANCH  34  35
ENDBRANCH   3  34
TORSDOF 15
ENDMDL
MODEL 3
REMARK VINA RESULT:     -14.1      1.642      2.282
REMARK SMILES O=C(NCCCNC(=O)c1ccc(-c2c3nc(c(-c4c(F)cccc4F)c4ccc([nH]4)c(-c4c(F)cccc4F)c4nc(c(-c5c(F)cccc5F)c5ccc2[nH]5)C=C4)C=C3)cc1)c1ccc(NC(=O)[C@@H]2CC=CC[C@H]2C(=O)Nc2cccc([N+](=O)[O-])c2)cc1
REMARK SMILES IDX 1 1 2 2 3 3 64 5 65 6 90 7 66 8 89 9 67 10 68 11 69 12 70 14
REMARK SMILES IDX 71 15 72 16 76 17 73 18 75 19 74 20 77 21 78 22 79 23 80 25
REMARK SMILES IDX 81 26 88 27 82 28 84 29 83 30 85 31 86 32 87 33 4 34 5 35
REMARK SMILES IDX 6 36 7 37 8 38 9 40 10 41 11 42 63 43 12 44 62 45 13 46
REMARK SMILES IDX 14 47 15 48 56 49 16 50 61 51 55 52 57 53 17 54 60 55 54 56
REMARK SMILES IDX 53 57 18 59 44 60 27 61 43 62 28 63 31 64 42 65 58 66 29 67
REMARK SMILES IDX 30 68 41 70 59 71 32 72 19 73 20 74 25 75 21 76 22 77 24 78
REMARK SMILES IDX 26 79 23 80 45 81 46 82 51 83 47 84 48 85 50 86 52 87 49 88
REMARK SMILES IDX 33 89 34 90 39 91 35 92 36 93 38 94 40 95 37 96
REMARK H PARENT 3 4 68 13 79 24 7 39 57 58 31 69
REMARK Flexibility Score: inf
ROOT
ATOM      1  O   UNL A   1      29.963  29.664  22.701  1.00  0.00    -0.269 OA
ATOM      2  C   UNL A   1      30.649  29.339  23.663  1.00  0.00     0.251 C 
ATOM      3  N   UNL A   1      31.028  30.258  24.620  1.00  0.00    -0.352 N 
ATOM      4  H   UNL A   1      30.633  31.154  24.526  1.00  0.00     0.163 HD
ENDROOT
BRANCH   2   5
ATOM      5  C   UNL A   1      31.138  27.958  23.803  1.00  0.00     0.039 A 
ATOM      6  C   UNL A   1      32.388  27.627  23.291  1.00  0.00     0.016 A 
ATOM      7  C   UNL A   1      30.271  26.965  24.249  1.00  0.00     0.016 A 
ATOM      8  C   UNL A   1      32.665  26.298  22.992  1.00  0.00     0.027 A 
ATOM      9  C   UNL A   1      30.595  25.629  24.006  1.00  0.00     0.027 A 
ATOM     10  C   UNL A   1      31.758  25.288  23.292  1.00  0.00     0.041 A 
BRANCH  10  11
ATOM     11  N   UNL A   1      31.856  23.955  22.866  1.00  0.00    -0.326 N 
ATOM     12  C   UNL A   1      32.742  22.939  23.006  1.00  0.00     0.228 C 
ATOM     13  H   UNL A   1      31.078  23.688  22.325  1.00  0.00     0.169 HD
ATOM     14  O   UNL A   1      32.520  21.937  22.310  1.00  0.00    -0.274 OA
BRANCH  12  15
ATOM     15  C   UNL A   1      33.969  22.920  23.908  1.00  0.00     0.095 C 
ATOM     16  C   UNL A   1      35.148  23.718  23.330  1.00  0.00     0.041 C 
ATOM     17  C   UNL A   1      34.227  21.535  24.527  1.00  0.00     0.095 C 
ATOM     18  C   UNL A   1      36.508  23.209  23.689  1.00  0.00    -0.030 C 
ATOM     19  C   UNL A   1      35.664  21.261  25.014  1.00  0.00     0.041 C 
ATOM     20  C   UNL A   1      36.735  22.119  24.427  1.00  0.00    -0.030 C 
BRANCH  17  21
ATOM     21  C   UNL A   1      33.217  21.089  25.614  1.00  0.00     0.228 C 
ATOM     22  O   UNL A   1      32.897  21.898  26.495  1.00  0.00    -0.274 OA
ATOM     23  N   UNL A   1      32.513  19.910  25.570  1.00  0.00    -0.326 N 
ATOM     24  H   UNL A   1      31.735  19.873  26.173  1.00  0.00     0.169 HD
BRANCH  23  25
ATOM     25  C   UNL A   1      32.721  18.756  24.808  1.00  0.00     0.048 A 
ATOM     26  C   UNL A   1      32.432  18.775  23.443  1.00  0.00     0.026 A 
ATOM     27  C   UNL A   1      33.170  17.578  25.392  1.00  0.00     0.111 A 
ATOM     28  C   UNL A   1      32.761  17.676  22.640  1.00  0.00     0.009 A 
ATOM     29  C   UNL A   1      33.554  16.502  24.588  1.00  0.00     0.271 A 
ATOM     30  C   UNL A   1      33.360  16.548  23.204  1.00  0.00     0.086 A 
BRANCH  29  31
ATOM     31  N   UNL A   1      34.216  15.347  25.204  1.00  0.00     0.062 N 
ATOM     32  O   UNL A   1      33.520  14.359  25.471  1.00  0.00    -0.258 OA
ATOM     33  O   UNL A   1      35.440  15.417  25.390  1.00  0.00    -0.258 OA
ENDBRANCH  29  31
ENDBRANCH  23  25
ENDBRANCH  17  21
ENDBRANCH  12  15
ENDBRANCH  10  11
ENDBRANCH   2   5
BRANCH   3  34
ATOM     34  C   UNL A   1      31.933  30.084  25.756  1.00  0.00     0.118 C 
BRANCH  34  35
ATOM     35  C   UNL A   1      31.745  31.133  26.839  1.00  0.00     0.042 C 
BRANCH  35  36
ATOM     36  C   UNL A   1      32.924  32.078  26.982  1.00  0.00     0.118 C 
BRANCH  36  37
ATOM     37  N   UNL A   1      32.539  33.402  27.455  1.00  0.00    -0.352 N 
ATOM     38  C   UNL A   1      33.135  34.213  28.390  1.00  0.00     0.251 C 
ATOM     39  H   UNL A   1      31.727  33.773  27.039  1.00  0.00     0.163 HD
ATOM     40  O   UNL A   1      32.574  35.245  28.749  1.00  0.00    -0.269 OA
BRANCH  38  41
ATOM     41  C   UNL A   1      34.430  33.829  28.992  1.00  0.00     0.039 A 
ATOM     42  C   UNL A   1      34.434  32.977  30.100  1.00  0.00     0.014 A 
ATOM     43  C   UNL A   1      35.635  34.290  28.459  1.00  0.00     0.014 A 
ATOM     44  C   UNL A   1      35.648  32.522  30.618  1.00  0.00     0.010 A 
ATOM     45  C   UNL A   1      36.838  33.765  28.917  1.00  0.00     0.010 A 
ATOM     46  C   UNL A   1      36.857  32.874  29.999  1.00  0.00    -0.014 A 
BRANCH  46  47
ATOM     47  C   UNL A   1      38.159  32.334  30.461  1.00  0.00     0.031 A 
ATOM     48  C   UNL A   1      38.695  31.062  29.867  1.00  0.00     0.074 A 
ATOM     49  C   UNL A   1      38.813  32.934  31.476  1.00  0.00     0.049 A 
ATOM     50  N   UNL A   1      39.732  30.351  30.229  1.00  0.00    -0.248 NA
ATOM     51  C   UNL A   1      37.944  30.496  28.734  1.00  0.00     0.031 C 
ATOM     52  C   UNL A   1      38.378  34.149  32.167  1.00  0.00     0.029 A 
ATOM     53  N   UNL A   1      39.978  32.589  32.113  1.00  0.00    -0.354 N 
ATOM     54  C   UNL A   1      39.741  29.244  29.390  1.00  0.00     0.074 A 
ATOM     55  C   UNL A   1      38.584  29.354  28.529  1.00  0.00     0.031 C 
ATOM     56  C   UNL A   1      39.275  34.460  33.117  1.00  0.00     0.029 A 
ATOM     57  C   UNL A   1      40.324  33.446  33.129  1.00  0.00     0.049 A 
ATOM     58  H   UNL A   1      40.516  31.802  31.864  1.00  0.00     0.167 HD
ATOM     59  C   UNL A   1      40.644  28.237  29.328  1.00  0.00     0.037 A 
ATOM     60  C   UNL A   1      41.364  33.409  33.984  1.00  0.00     0.037 A 
ATOM     61  C   UNL A   1      41.818  28.150  30.153  1.00  0.00     0.049 A 
ATOM     62  C   UNL A   1      42.355  32.285  33.890  1.00  0.00     0.074 A 
ATOM     63  C   UNL A   1      42.826  27.203  30.124  1.00  0.00     0.029 A 
ATOM     64  N   UNL A   1      42.146  29.053  31.154  1.00  0.00    -0.354 N 
ATOM     65  N   UNL A   1      42.374  31.267  33.065  1.00  0.00    -0.248 NA
ATOM     66  C   UNL A   1      43.468  32.302  34.849  1.00  0.00     0.031 C 
ATOM     67  C   UNL A   1      43.752  27.518  31.124  1.00  0.00     0.029 A 
ATOM     68  C   UNL A   1      43.335  28.679  31.755  1.00  0.00     0.049 A 
ATOM     69  H   UNL A   1      41.611  29.843  31.400  1.00  0.00     0.167 HD
ATOM     70  C   UNL A   1      43.510  30.537  33.388  1.00  0.00     0.074 A 
ATOM     71  C   UNL A   1      44.159  31.233  34.478  1.00  0.00     0.031 C 
ATOM     72  C   UNL A   1      43.971  29.392  32.831  1.00  0.00     0.037 A 
BRANCH  59  73
ATOM     73  C   UNL A   1      40.399  27.155  28.320  1.00  0.00     0.057 A 
ATOM     74  C   UNL A   1      40.992  27.187  27.052  1.00  0.00     0.134 A 
ATOM     75  C   UNL A   1      39.585  26.060  28.629  1.00  0.00     0.134 A 
ATOM     76  F   UNL A   1      41.770  28.217  26.690  1.00  0.00    -0.206 F 
ATOM     77  C   UNL A   1      40.763  26.176  26.116  1.00  0.00     0.040 A 
ATOM     78  C   UNL A   1      39.368  25.031  27.710  1.00  0.00     0.040 A 
ATOM     79  F   UNL A   1      38.990  25.968  29.828  1.00  0.00    -0.206 F 
ATOM     80  C   UNL A   1      39.954  25.092  26.447  1.00  0.00     0.006 A 
ENDBRANCH  59  73
BRANCH  60  81
ATOM     81  C   UNL A   1      41.533  34.482  34.994  1.00  0.00     0.057 A 
ATOM     82  C   UNL A   1      40.943  34.374  36.258  1.00  0.00     0.134 A 
ATOM     83  C   UNL A   1      42.275  35.636  34.722  1.00  0.00     0.134 A 
ATOM     84  F   UNL A   1      40.203  33.299  36.567  1.00  0.00    -0.206 F 
ATOM     85  C   UNL A   1      41.071  35.383  37.212  1.00  0.00     0.040 A 
ATOM     86  C   UNL A   1      42.430  36.645  35.674  1.00  0.00     0.040 A 
ATOM     87  F   UNL A   1      42.869  35.794  33.530  1.00  0.00    -0.206 F 
ATOM     88  C   UNL A   1      41.821  36.521  36.922  1.00  0.00     0.006 A 
ENDBRANCH  60  81
BRANCH  72  89
ATOM     89  C   UNL A   1      45.255  28.839  33.371  1.00  0.00     0.057 A 
ATOM     90  C   UNL A   1      45.272  27.901  34.408  1.00  0.00     0.134 A 
ATOM     91  C   UNL A   1      46.483  29.221  32.816  1.00  0.00     0.134 A 
ATOM     92  F   UNL A   1      44.129  27.508  34.989  1.00  0.00    -0.206 F 
ATOM     93  C   UNL A   1      46.470  27.368  34.886  1.00  0.00     0.040 A 
ATOM     94  C   UNL A   1      47.686  28.680  33.272  1.00  0.00     0.040 A 
ATOM     95  F   UNL A   1      46.531  30.112  31.815  1.00  0.00    -0.206 F 
ATOM     96  C   UNL A   1      47.681  27.753  34.313  1.00  0.00     0.006 A 
ENDBRANCH  72  89
ENDBRANCH  46  47
ENDBRANCH  38  41
ENDBRANCH  36  37
ENDBRANCH  35  36
ENDBRANCH  34  35
ENDBRANCH   3  34
TORSDOF 15
ENDMDL
