MODEL 1
REMARK VINA RESULT:     -11.5      0.000      0.000
REMARK SMILES CC[C@H](C)[C@@H](Nc1ncnc2ccccc12)C(=O)NCCCNC(=O)c1ccc(-c2c3nc(c(-c4c(F)cccc4F)c4ccc([nH]4)c(-c4c(F)cccc4F)c4nc(c(-c5c(F)cccc5F)c5ccc2[nH]5)C=C4)C=C3)cc1
REMARK SMILES IDX 21 1 20 2 19 3 17 4 18 5 5 7 3 8 4 9 2 10 1 11 6 12 7 14
REMARK SMILES IDX 8 15 16 16 9 17 11 18 15 19 10 20 12 21 14 22 13 23 22 24
REMARK SMILES IDX 23 25 24 26 25 28 26 29 27 30 79 31 28 32 78 33 29 34 30 35
REMARK SMILES IDX 31 36 72 37 32 38 77 39 71 40 73 41 33 42 76 43 70 44 69 45
REMARK SMILES IDX 34 47 60 48 43 49 59 50 44 51 47 52 58 53 74 54 45 55 46 56
REMARK SMILES IDX 57 58 75 59 48 60 35 61 36 62 41 63 37 64 38 65 40 66 42 67
REMARK SMILES IDX 39 68 61 69 62 70 67 71 63 72 64 73 66 74 68 75 65 76 49 77
REMARK SMILES IDX 50 78 55 79 51 80 52 81 54 82 56 83 53 84
REMARK H PARENT 19 6 6 13 23 27 73 46 47 57
REMARK Flexibility Score: inf
ROOT
ATOM      1  C   UNL A   1      37.893  19.731  24.983  1.00  0.00     0.042 C 
ENDROOT
BRANCH   1   2
ATOM      2  C   UNL A   1      36.863  20.806  24.699  1.00  0.00     0.117 C 
BRANCH   2   3
ATOM      3  N   UNL A   1      35.860  20.852  25.747  1.00  0.00    -0.354 N 
ATOM      4  C   UNL A   1      34.502  20.874  25.655  1.00  0.00     0.242 C 
ATOM      5  O   UNL A   1      33.865  21.012  26.704  1.00  0.00    -0.273 OA
ATOM      6  H   UNL A   1      36.217  20.870  26.665  1.00  0.00     0.163 HD
BRANCH   4   7
ATOM      7  C   UNL A   1      33.780  20.773  24.288  1.00  0.00     0.173 C 
BRANCH   7   8
ATOM      8  C   UNL A   1      33.055  19.391  24.232  1.00  0.00     0.018 C 
ATOM      9  C   UNL A   1      32.188  19.167  22.987  1.00  0.00     0.010 C 
BRANCH   8  10
ATOM     10  C   UNL A   1      34.035  18.196  24.402  1.00  0.00     0.002 C 
ATOM     11  C   UNL A   1      33.977  17.144  23.300  1.00  0.00     0.004 C 
ENDBRANCH   8  10
ENDBRANCH   7   8
BRANCH   7  12
ATOM     12  N   UNL A   1      32.884  21.918  23.999  1.00  0.00    -0.358 N 
ATOM     13  H   UNL A   1      31.949  21.830  24.293  1.00  0.00     0.162 HD
BRANCH  12  14
ATOM     14  C   UNL A   1      33.222  23.094  23.360  1.00  0.00     0.137 A 
ATOM     15  N   UNL A   1      33.129  22.971  22.023  1.00  0.00    -0.219 NA
ATOM     16  C   UNL A   1      33.493  24.331  23.971  1.00  0.00     0.043 A 
ATOM     17  C   UNL A   1      33.187  24.096  21.305  1.00  0.00     0.224 A 
ATOM     18  C   UNL A   1      33.448  25.442  23.114  1.00  0.00     0.076 A 
ATOM     19  C   UNL A   1      33.766  24.546  25.347  1.00  0.00     0.014 A 
ATOM     20  N   UNL A   1      33.291  25.334  21.792  1.00  0.00    -0.236 NA
ATOM     21  C   UNL A   1      33.541  26.717  23.659  1.00  0.00     0.029 A 
ATOM     22  C   UNL A   1      33.858  25.833  25.872  1.00  0.00     0.001 A 
ATOM     23  C   UNL A   1      33.722  26.924  25.028  1.00  0.00     0.002 A 
ENDBRANCH  12  14
ENDBRANCH   7  12
ENDBRANCH   4   7
ENDBRANCH   2   3
ENDBRANCH   1   2
BRANCH   1  24
ATOM     24  C   UNL A   1      39.081  20.261  25.766  1.00  0.00     0.118 C 
BRANCH  24  25
ATOM     25  N   UNL A   1      40.177  19.302  25.828  1.00  0.00    -0.352 N 
ATOM     26  C   UNL A   1      41.505  19.530  26.087  1.00  0.00     0.251 C 
ATOM     27  H   UNL A   1      39.931  18.363  25.662  1.00  0.00     0.163 HD
ATOM     28  O   UNL A   1      42.342  18.652  25.897  1.00  0.00    -0.269 OA
BRANCH  26  29
ATOM     29  C   UNL A   1      41.915  20.856  26.583  1.00  0.00     0.039 A 
ATOM     30  C   UNL A   1      42.370  21.815  25.676  1.00  0.00     0.014 A 
ATOM     31  C   UNL A   1      41.809  21.156  27.943  1.00  0.00     0.014 A 
ATOM     32  C   UNL A   1      42.662  23.100  26.130  1.00  0.00     0.010 A 
ATOM     33  C   UNL A   1      41.996  22.460  28.373  1.00  0.00     0.010 A 
ATOM     34  C   UNL A   1      42.443  23.441  27.476  1.00  0.00    -0.014 A 
BRANCH  34  35
ATOM     35  C   UNL A   1      42.712  24.805  27.989  1.00  0.00     0.031 A 
ATOM     36  C   UNL A   1      44.102  25.167  28.430  1.00  0.00     0.074 A 
ATOM     37  C   UNL A   1      41.699  25.680  28.135  1.00  0.00     0.049 A 
ATOM     38  N   UNL A   1      44.529  26.258  29.013  1.00  0.00    -0.248 NA
ATOM     39  C   UNL A   1      45.146  24.150  28.222  1.00  0.00     0.031 C 
ATOM     40  C   UNL A   1      40.300  25.427  27.786  1.00  0.00     0.029 A 
ATOM     41  N   UNL A   1      41.692  26.958  28.634  1.00  0.00    -0.354 N 
ATOM     42  C   UNL A   1      45.879  26.047  29.260  1.00  0.00     0.074 A 
ATOM     43  C   UNL A   1      46.185  24.702  28.827  1.00  0.00     0.031 C 
ATOM     44  C   UNL A   1      39.575  26.523  28.062  1.00  0.00     0.029 A 
ATOM     45  C   UNL A   1      40.446  27.536  28.647  1.00  0.00     0.049 A 
ATOM     46  H   UNL A   1      42.503  27.417  28.953  1.00  0.00     0.167 HD
ATOM     47  C   UNL A   1      46.789  26.906  29.776  1.00  0.00     0.037 A 
ATOM     48  C   UNL A   1      40.052  28.743  29.094  1.00  0.00     0.037 A 
ATOM     49  C   UNL A   1      46.480  28.250  30.182  1.00  0.00     0.049 A 
ATOM     50  C   UNL A   1      41.077  29.679  29.674  1.00  0.00     0.074 A 
ATOM     51  C   UNL A   1      47.336  29.224  30.665  1.00  0.00     0.029 A 
ATOM     52  N   UNL A   1      45.209  28.809  30.157  1.00  0.00    -0.354 N 
ATOM     53  N   UNL A   1      42.364  29.493  29.844  1.00  0.00    -0.248 NA
ATOM     54  C   UNL A   1      40.597  30.994  30.117  1.00  0.00     0.031 C 
ATOM     55  C   UNL A   1      46.576  30.354  30.981  1.00  0.00     0.029 A 
ATOM     56  C   UNL A   1      45.256  30.107  30.639  1.00  0.00     0.049 A 
ATOM     57  H   UNL A   1      44.397  28.351  29.844  1.00  0.00     0.167 HD
ATOM     58  C   UNL A   1      42.853  30.677  30.383  1.00  0.00     0.074 A 
ATOM     59  C   UNL A   1      41.724  31.576  30.502  1.00  0.00     0.031 C 
ATOM     60  C   UNL A   1      44.121  30.992  30.742  1.00  0.00     0.037 A 
BRANCH  47  61
ATOM     61  C   UNL A   1      48.197  26.406  29.930  1.00  0.00     0.057 A 
ATOM     62  C   UNL A   1      49.150  26.541  28.910  1.00  0.00     0.134 A 
ATOM     63  C   UNL A   1      48.608  25.786  31.116  1.00  0.00     0.134 A 
ATOM     64  F   UNL A   1      48.819  27.114  27.742  1.00  0.00    -0.206 F 
ATOM     65  C   UNL A   1      50.446  26.041  29.049  1.00  0.00     0.040 A 
ATOM     66  C   UNL A   1      49.911  25.312  31.280  1.00  0.00     0.040 A 
ATOM     67  F   UNL A   1      47.752  25.627  32.137  1.00  0.00    -0.206 F 
ATOM     68  C   UNL A   1      50.831  25.430  30.239  1.00  0.00     0.006 A 
ENDBRANCH  47  61
BRANCH  48  69
ATOM     69  C   UNL A   1      38.627  29.142  28.985  1.00  0.00     0.057 A 
ATOM     70  C   UNL A   1      38.095  29.600  27.774  1.00  0.00     0.134 A 
ATOM     71  C   UNL A   1      37.759  29.069  30.083  1.00  0.00     0.134 A 
ATOM     72  F   UNL A   1      38.879  29.709  26.691  1.00  0.00    -0.206 F 
ATOM     73  C   UNL A   1      36.759  29.986  27.661  1.00  0.00     0.040 A 
ATOM     74  C   UNL A   1      36.415  29.426  29.977  1.00  0.00     0.040 A 
ATOM     75  F   UNL A   1      38.204  28.628  31.268  1.00  0.00    -0.206 F 
ATOM     76  C   UNL A   1      35.912  29.893  28.764  1.00  0.00     0.006 A 
ENDBRANCH  48  69
BRANCH  60  77
ATOM     77  C   UNL A   1      44.369  32.381  31.255  1.00  0.00     0.057 A 
ATOM     78  C   UNL A   1      44.341  32.686  32.622  1.00  0.00     0.134 A 
ATOM     79  C   UNL A   1      44.690  33.416  30.367  1.00  0.00     0.134 A 
ATOM     80  F   UNL A   1      44.028  31.743  33.523  1.00  0.00    -0.206 F 
ATOM     81  C   UNL A   1      44.603  33.976  33.085  1.00  0.00     0.040 A 
ATOM     82  C   UNL A   1      44.985  34.702  30.820  1.00  0.00     0.040 A 
ATOM     83  F   UNL A   1      44.744  33.189  29.046  1.00  0.00    -0.206 F 
ATOM     84  C   UNL A   1      44.935  34.987  32.183  1.00  0.00     0.006 A 
ENDBRANCH  60  77
ENDBRANCH  34  35
ENDBRANCH  26  29
ENDBRANCH  24  25
ENDBRANCH   1  24
TORSDOF 14
ENDMDL
MODEL 2
REMARK VINA RESULT:     -11.5      0.932      6.387
REMARK SMILES CC[C@H](C)[C@@H](Nc1ncnc2ccccc12)C(=O)NCCCNC(=O)c1ccc(-c2c3nc(c(-c4c(F)cccc4F)c4ccc([nH]4)c(-c4c(F)cccc4F)c4nc(c(-c5c(F)cccc5F)c5ccc2[nH]5)C=C4)C=C3)cc1
REMARK SMILES IDX 21 1 20 2 19 3 17 4 18 5 5 7 3 8 4 9 2 10 1 11 6 12 7 14
REMARK SMILES IDX 8 15 16 16 9 17 11 18 15 19 10 20 12 21 14 22 13 23 22 24
REMARK SMILES IDX 23 25 24 26 25 28 26 29 27 30 79 31 28 32 78 33 29 34 30 35
REMARK SMILES IDX 31 36 72 37 32 38 77 39 71 40 73 41 33 42 76 43 70 44 69 45
REMARK SMILES IDX 34 47 60 48 43 49 59 50 44 51 47 52 58 53 74 54 45 55 46 56
REMARK SMILES IDX 57 58 75 59 48 60 35 61 36 62 41 63 37 64 38 65 40 66 42 67
REMARK SMILES IDX 39 68 61 69 62 70 67 71 63 72 64 73 66 74 68 75 65 76 49 77
REMARK SMILES IDX 50 78 55 79 51 80 52 81 54 82 56 83 53 84
REMARK H PARENT 19 6 6 13 23 27 73 46 47 57
REMARK Flexibility Score: inf
ROOT
ATOM      1  C   UNL A   1      37.469  20.276  24.913  1.00  0.00     0.042 C 
ENDROOT
BRANCH   1   2
ATOM      2  C   UNL A   1      36.403  21.352  24.939  1.00  0.00     0.117 C 
BRANCH   2   3
ATOM      3  N   UNL A   1      35.476  21.136  26.035  1.00  0.00    -0.354 N 
ATOM      4  C   UNL A   1      34.159  20.795  26.009  1.00  0.00     0.242 C 
ATOM      5  O   UNL A   1      33.559  20.765  27.089  1.00  0.00    -0.273 OA
ATOM      6  H   UNL A   1      35.859  21.254  26.935  1.00  0.00     0.163 HD
BRANCH   4   7
ATOM      7  C   UNL A   1      33.423  20.497  24.678  1.00  0.00     0.173 C 
BRANCH   7   8
ATOM      8  C   UNL A   1      33.199  18.953  24.592  1.00  0.00     0.018 C 
ATOM      9  C   UNL A   1      32.129  18.512  23.586  1.00  0.00     0.010 C 
BRANCH   8  10
ATOM     10  C   UNL A   1      34.516  18.173  24.322  1.00  0.00     0.002 C 
ATOM     11  C   UNL A   1      34.360  16.892  23.511  1.00  0.00     0.004 C 
ENDBRANCH   8  10
ENDBRANCH   7   8
BRANCH   7  12
ATOM     12  N   UNL A   1      32.181  21.282  24.492  1.00  0.00    -0.358 N 
ATOM     13  H   UNL A   1      31.538  20.938  23.831  1.00  0.00     0.162 HD
BRANCH  12  14
ATOM     14  C   UNL A   1      31.829  22.446  25.146  1.00  0.00     0.137 A 
ATOM     15  N   UNL A   1      30.769  22.253  25.953  1.00  0.00    -0.219 NA
ATOM     16  C   UNL A   1      32.534  23.663  25.128  1.00  0.00     0.043 A 
ATOM     17  C   UNL A   1      30.485  23.227  26.824  1.00  0.00     0.224 A 
ATOM     18  C   UNL A   1      32.188  24.566  26.145  1.00  0.00     0.076 A 
ATOM     19  C   UNL A   1      33.557  24.027  24.216  1.00  0.00     0.014 A 
ATOM     20  N   UNL A   1      31.178  24.354  26.993  1.00  0.00    -0.236 NA
ATOM     21  C   UNL A   1      32.943  25.722  26.304  1.00  0.00     0.029 A 
ATOM     22  C   UNL A   1      34.301  25.191  24.392  1.00  0.00     0.001 A 
ATOM     23  C   UNL A   1      34.008  26.031  25.455  1.00  0.00     0.002 A 
ENDBRANCH  12  14
ENDBRANCH   7  12
ENDBRANCH   4   7
ENDBRANCH   2   3
ENDBRANCH   1   2
BRANCH   1  24
ATOM     24  C   UNL A   1      38.694  20.657  25.726  1.00  0.00     0.118 C 
BRANCH  24  25
ATOM     25  N   UNL A   1      39.689  19.592  25.764  1.00  0.00    -0.352 N 
ATOM     26  C   UNL A   1      41.027  19.674  26.055  1.00  0.00     0.251 C 
ATOM     27  H   UNL A   1      39.354  18.690  25.552  1.00  0.00     0.163 HD
ATOM     28  O   UNL A   1      41.776  18.726  25.839  1.00  0.00    -0.269 OA
BRANCH  26  29
ATOM     29  C   UNL A   1      41.556  20.931  26.614  1.00  0.00     0.039 A 
ATOM     30  C   UNL A   1      42.093  21.890  25.754  1.00  0.00     0.014 A 
ATOM     31  C   UNL A   1      41.482  21.168  27.989  1.00  0.00     0.014 A 
ATOM     32  C   UNL A   1      42.501  23.119  26.272  1.00  0.00     0.010 A 
ATOM     33  C   UNL A   1      41.787  22.426  28.484  1.00  0.00     0.010 A 
ATOM     34  C   UNL A   1      42.318  23.408  27.635  1.00  0.00    -0.014 A 
BRANCH  34  35
ATOM     35  C   UNL A   1      42.710  24.714  28.215  1.00  0.00     0.031 A 
ATOM     36  C   UNL A   1      41.664  25.776  28.416  1.00  0.00     0.074 A 
ATOM     37  C   UNL A   1      44.004  24.972  28.480  1.00  0.00     0.049 A 
ATOM     38  N   UNL A   1      41.809  27.019  28.798  1.00  0.00    -0.248 NA
ATOM     39  C   UNL A   1      40.275  25.399  28.108  1.00  0.00     0.031 C 
ATOM     40  C   UNL A   1      45.114  24.037  28.284  1.00  0.00     0.029 A 
ATOM     41  N   UNL A   1      44.606  26.108  28.959  1.00  0.00    -0.354 N 
ATOM     42  C   UNL A   1      40.536  27.573  28.753  1.00  0.00     0.074 A 
ATOM     43  C   UNL A   1      39.646  26.555  28.244  1.00  0.00     0.031 C 
ATOM     44  C   UNL A   1      46.258  24.631  28.658  1.00  0.00     0.029 A 
ATOM     45  C   UNL A   1      45.970  25.999  29.077  1.00  0.00     0.049 A 
ATOM     46  H   UNL A   1      44.108  26.924  29.194  1.00  0.00     0.167 HD
ATOM     47  C   UNL A   1      40.141  28.812  29.129  1.00  0.00     0.037 A 
ATOM     48  C   UNL A   1      46.884  26.906  29.468  1.00  0.00     0.037 A 
ATOM     49  C   UNL A   1      41.030  29.811  29.657  1.00  0.00     0.049 A 
ATOM     50  C   UNL A   1      46.425  28.281  29.871  1.00  0.00     0.074 A 
ATOM     51  C   UNL A   1      40.726  31.078  30.121  1.00  0.00     0.029 A 
ATOM     52  N   UNL A   1      42.403  29.655  29.785  1.00  0.00    -0.354 N 
ATOM     53  N   UNL A   1      45.210  28.775  29.886  1.00  0.00    -0.248 NA
ATOM     54  C   UNL A   1      47.461  29.221  30.318  1.00  0.00     0.031 C 
ATOM     55  C   UNL A   1      41.921  31.708  30.482  1.00  0.00     0.029 A 
ATOM     56  C   UNL A   1      42.963  30.813  30.300  1.00  0.00     0.049 A 
ATOM     57  H   UNL A   1      42.904  28.842  29.546  1.00  0.00     0.167 HD
ATOM     58  C   UNL A   1      45.331  30.071  30.374  1.00  0.00     0.074 A 
ATOM     59  C   UNL A   1      46.737  30.281  30.651  1.00  0.00     0.031 C 
ATOM     60  C   UNL A   1      44.366  31.000  30.578  1.00  0.00     0.037 A 
BRANCH  47  61
ATOM     61  C   UNL A   1      38.684  29.146  28.973  1.00  0.00     0.057 A 
ATOM     62  C   UNL A   1      38.146  29.573  27.750  1.00  0.00     0.134 A 
ATOM     63  C   UNL A   1      37.806  29.037  30.058  1.00  0.00     0.134 A 
ATOM     64  F   UNL A   1      38.934  29.713  26.673  1.00  0.00    -0.206 F 
ATOM     65  C   UNL A   1      36.799  29.916  27.624  1.00  0.00     0.040 A 
ATOM     66  C   UNL A   1      36.450  29.344  29.936  1.00  0.00     0.040 A 
ATOM     67  F   UNL A   1      38.250  28.629  31.257  1.00  0.00    -0.206 F 
ATOM     68  C   UNL A   1      35.946  29.795  28.717  1.00  0.00     0.006 A 
ENDBRANCH  47  61
BRANCH  48  69
ATOM     69  C   UNL A   1      48.320  26.534  29.521  1.00  0.00     0.057 A 
ATOM     70  C   UNL A   1      48.863  25.910  30.650  1.00  0.00     0.134 A 
ATOM     71  C   UNL A   1      49.182  26.782  28.444  1.00  0.00     0.134 A 
ATOM     72  F   UNL A   1      48.093  25.661  31.719  1.00  0.00    -0.206 F 
ATOM     73  C   UNL A   1      50.213  25.563  30.715  1.00  0.00     0.040 A 
ATOM     74  C   UNL A   1      50.527  26.415  28.486  1.00  0.00     0.040 A 
ATOM     75  F   UNL A   1      48.721  27.366  27.329  1.00  0.00    -0.206 F 
ATOM     76  C   UNL A   1      51.048  25.810  29.627  1.00  0.00     0.006 A 
ENDBRANCH  48  69
BRANCH  60  77
ATOM     77  C   UNL A   1      44.787  32.314  31.171  1.00  0.00     0.057 A 
ATOM     78  C   UNL A   1      44.848  32.520  32.555  1.00  0.00     0.134 A 
ATOM     79  C   UNL A   1      45.186  33.370  30.340  1.00  0.00     0.134 A 
ATOM     80  F   UNL A   1      44.469  31.554  33.404  1.00  0.00    -0.206 F 
ATOM     81  C   UNL A   1      45.271  33.738  33.091  1.00  0.00     0.040 A 
ATOM     82  C   UNL A   1      45.639  34.580  30.865  1.00  0.00     0.040 A 
ATOM     83  F   UNL A   1      45.161  33.234  29.006  1.00  0.00    -0.206 F 
ATOM     84  C   UNL A   1      45.676  34.769  32.244  1.00  0.00     0.006 A 
ENDBRANCH  60  77
ENDBRANCH  34  35
ENDBRANCH  26  29
ENDBRANCH  24  25
ENDBRANCH   1  24
TORSDOF 14
ENDMDL
MODEL 3
REMARK VINA RESULT:     -11.5      1.318      1.784
REMARK SMILES CC[C@H](C)[C@@H](Nc1ncnc2ccccc12)C(=O)NCCCNC(=O)c1ccc(-c2c3nc(c(-c4c(F)cccc4F)c4ccc([nH]4)c(-c4c(F)cccc4F)c4nc(c(-c5c(F)cccc5F)c5ccc2[nH]5)C=C4)C=C3)cc1
REMARK SMILES IDX 21 1 20 2 19 3 17 4 18 5 5 7 3 8 4 9 2 10 1 11 6 12 7 14
REMARK SMILES IDX 8 15 16 16 9 17 11 18 15 19 10 20 12 21 14 22 13 23 22 24
REMARK SMILES IDX 23 25 24 26 25 28 26 29 27 30 79 31 28 32 78 33 29 34 30 35
REMARK SMILES IDX 31 36 72 37 32 38 77 39 71 40 73 41 33 42 76 43 70 44 69 45
REMARK SMILES IDX 34 47 60 48 43 49 59 50 44 51 47 52 58 53 74 54 45 55 46 56
REMARK SMILES IDX 57 58 75 59 48 60 35 61 36 62 41 63 37 64 38 65 40 66 42 67
REMARK SMILES IDX 39 68 61 69 62 70 67 71 63 72 64 73 66 74 68 75 65 76 49 77
REMARK SMILES IDX 50 78 55 79 51 80 52 81 54 82 56 83 53 84
REMARK H PARENT 19 6 6 13 23 27 73 46 47 57
REMARK Flexibility Score: inf
ROOT
ATOM      1  C   UNL A   1      38.099  19.738  24.985  1.00  0.00     0.042 C 
ENDROOT
BRANCH   1   2
ATOM      2  C   UNL A   1      37.065  20.832  24.805  1.00  0.00     0.117 C 
BRANCH   2   3
ATOM      3  N   UNL A   1      35.761  20.392  25.266  1.00  0.00    -0.354 N 
ATOM      4  C   UNL A   1      34.670  21.123  25.625  1.00  0.00     0.242 C 
ATOM      5  O   UNL A   1      33.699  20.508  26.079  1.00  0.00    -0.273 OA
ATOM      6  H   UNL A   1      35.648  19.416  25.327  1.00  0.00     0.163 HD
BRANCH   4   7
ATOM      7  C   UNL A   1      34.656  22.669  25.512  1.00  0.00     0.173 C 
BRANCH   7   8
ATOM      8  C   UNL A   1      34.248  23.036  24.049  1.00  0.00     0.018 C 
ATOM      9  C   UNL A   1      35.423  23.301  23.099  1.00  0.00     0.010 C 
BRANCH   8  10
ATOM     10  C   UNL A   1      33.295  21.987  23.414  1.00  0.00     0.002 C 
ATOM     11  C   UNL A   1      31.921  22.513  23.013  1.00  0.00     0.004 C 
ENDBRANCH   8  10
ENDBRANCH   7   8
BRANCH   7  12
ATOM     12  N   UNL A   1      33.823  23.336  26.539  1.00  0.00    -0.358 N 
ATOM     13  H   UNL A   1      34.081  23.191  27.478  1.00  0.00     0.162 HD
BRANCH  12  14
ATOM     14  C   UNL A   1      32.722  24.140  26.320  1.00  0.00     0.137 A 
ATOM     15  N   UNL A   1      31.576  23.442  26.428  1.00  0.00    -0.219 NA
ATOM     16  C   UNL A   1      32.725  25.536  26.149  1.00  0.00     0.043 A 
ATOM     17  C   UNL A   1      30.441  24.146  26.485  1.00  0.00     0.224 A 
ATOM     18  C   UNL A   1      31.477  26.158  26.309  1.00  0.00     0.076 A 
ATOM     19  C   UNL A   1      33.856  26.345  25.869  1.00  0.00     0.014 A 
ATOM     20  N   UNL A   1      30.341  25.476  26.482  1.00  0.00    -0.236 NA
ATOM     21  C   UNL A   1      31.414  27.546  26.319  1.00  0.00     0.029 A 
ATOM     22  C   UNL A   1      33.771  27.735  25.882  1.00  0.00     0.001 A 
ATOM     23  C   UNL A   1      32.548  28.339  26.132  1.00  0.00     0.002 A 
ENDBRANCH  12  14
ENDBRANCH   7  12
ENDBRANCH   4   7
ENDBRANCH   2   3
ENDBRANCH   1   2
BRANCH   1  24
ATOM     24  C   UNL A   1      39.195  20.134  25.959  1.00  0.00     0.118 C 
BRANCH  24  25
ATOM     25  N   UNL A   1      40.332  19.223  25.914  1.00  0.00    -0.352 N 
ATOM     26  C   UNL A   1      41.666  19.505  26.069  1.00  0.00     0.251 C 
ATOM     27  H   UNL A   1      40.114  18.277  25.752  1.00  0.00     0.163 HD
ATOM     28  O   UNL A   1      42.521  18.668  25.795  1.00  0.00    -0.269 OA
BRANCH  26  29
ATOM     29  C   UNL A   1      42.059  20.841  26.552  1.00  0.00     0.039 A 
ATOM     30  C   UNL A   1      42.436  21.819  25.630  1.00  0.00     0.014 A 
ATOM     31  C   UNL A   1      42.014  21.130  27.918  1.00  0.00     0.014 A 
ATOM     32  C   UNL A   1      42.710  23.110  26.078  1.00  0.00     0.010 A 
ATOM     33  C   UNL A   1      42.181  22.437  28.347  1.00  0.00     0.010 A 
ATOM     34  C   UNL A   1      42.550  23.436  27.436  1.00  0.00    -0.014 A 
BRANCH  34  35
ATOM     35  C   UNL A   1      42.801  24.805  27.945  1.00  0.00     0.031 A 
ATOM     36  C   UNL A   1      44.188  25.188  28.381  1.00  0.00     0.074 A 
ATOM     37  C   UNL A   1      41.778  25.667  28.092  1.00  0.00     0.049 A 
ATOM     38  N   UNL A   1      44.601  26.286  28.959  1.00  0.00    -0.248 NA
ATOM     39  C   UNL A   1      45.245  24.185  28.172  1.00  0.00     0.031 C 
ATOM     40  C   UNL A   1      40.381  25.394  27.747  1.00  0.00     0.029 A 
ATOM     41  N   UNL A   1      41.754  26.946  28.587  1.00  0.00    -0.354 N 
ATOM     42  C   UNL A   1      45.955  26.094  29.203  1.00  0.00     0.074 A 
ATOM     43  C   UNL A   1      46.278  24.753  28.772  1.00  0.00     0.031 C 
ATOM     44  C   UNL A   1      39.642  26.480  28.022  1.00  0.00     0.029 A 
ATOM     45  C   UNL A   1      40.501  27.507  28.602  1.00  0.00     0.049 A 
ATOM     46  H   UNL A   1      42.559  27.417  28.902  1.00  0.00     0.167 HD
ATOM     47  C   UNL A   1      46.854  26.967  29.714  1.00  0.00     0.037 A 
ATOM     48  C   UNL A   1      40.091  28.709  29.047  1.00  0.00     0.037 A 
ATOM     49  C   UNL A   1      46.528  28.308  30.117  1.00  0.00     0.049 A 
ATOM     50  C   UNL A   1      41.105  29.660  29.621  1.00  0.00     0.074 A 
ATOM     51  C   UNL A   1      47.372  29.295  30.595  1.00  0.00     0.029 A 
ATOM     52  N   UNL A   1      45.250  28.849  30.095  1.00  0.00    -0.354 N 
ATOM     53  N   UNL A   1      42.395  29.493  29.788  1.00  0.00    -0.248 NA
ATOM     54  C   UNL A   1      40.608  30.970  30.063  1.00  0.00     0.031 C 
ATOM     55  C   UNL A   1      46.597  30.415  30.910  1.00  0.00     0.029 A 
ATOM     56  C   UNL A   1      45.280  30.149  30.573  1.00  0.00     0.049 A 
ATOM     57  H   UNL A   1      44.443  28.379  29.785  1.00  0.00     0.167 HD
ATOM     58  C   UNL A   1      42.869  30.684  30.323  1.00  0.00     0.074 A 
ATOM     59  C   UNL A   1      41.728  31.569  30.443  1.00  0.00     0.031 C 
ATOM     60  C   UNL A   1      44.134  31.018  30.677  1.00  0.00     0.037 A 
BRANCH  47  61
ATOM     61  C   UNL A   1      48.270  26.487  29.866  1.00  0.00     0.057 A 
ATOM     62  C   UNL A   1      49.234  26.687  28.867  1.00  0.00     0.134 A 
ATOM     63  C   UNL A   1      48.677  25.819  31.027  1.00  0.00     0.134 A 
ATOM     64  F   UNL A   1      48.908  27.308  27.722  1.00  0.00    -0.206 F 
ATOM     65  C   UNL A   1      50.537  26.206  29.001  1.00  0.00     0.040 A 
ATOM     66  C   UNL A   1      49.986  25.363  31.187  1.00  0.00     0.040 A 
ATOM     67  F   UNL A   1      47.810  25.597  32.027  1.00  0.00    -0.206 F 
ATOM     68  C   UNL A   1      50.918  25.547  30.167  1.00  0.00     0.006 A 
ENDBRANCH  47  61
BRANCH  48  69
ATOM     69  C   UNL A   1      38.660  29.089  28.942  1.00  0.00     0.057 A 
ATOM     70  C   UNL A   1      38.125  29.561  27.738  1.00  0.00     0.134 A 
ATOM     71  C   UNL A   1      37.790  28.980  30.035  1.00  0.00     0.134 A 
ATOM     72  F   UNL A   1      38.910  29.703  26.660  1.00  0.00    -0.206 F 
ATOM     73  C   UNL A   1      36.783  29.929  27.628  1.00  0.00     0.040 A 
ATOM     74  C   UNL A   1      36.441  29.318  29.932  1.00  0.00     0.040 A 
ATOM     75  F   UNL A   1      38.238  28.523  31.213  1.00  0.00    -0.206 F 
ATOM     76  C   UNL A   1      35.935  29.802  28.726  1.00  0.00     0.006 A 
ENDBRANCH  48  69
BRANCH  60  77
ATOM     77  C   UNL A   1      44.364  32.412  31.186  1.00  0.00     0.057 A 
ATOM     78  C   UNL A   1      44.346  32.718  32.552  1.00  0.00     0.134 A 
ATOM     79  C   UNL A   1      44.658  33.451  30.293  1.00  0.00     0.134 A 
ATOM     80  F   UNL A   1      44.060  31.771  33.458  1.00  0.00    -0.206 F 
ATOM     81  C   UNL A   1      44.592  34.013  33.011  1.00  0.00     0.040 A 
ATOM     82  C   UNL A   1      44.935  34.742  30.742  1.00  0.00     0.040 A 
ATOM     83  F   UNL A   1      44.700  33.224  28.972  1.00  0.00    -0.206 F 
ATOM     84  C   UNL A   1      44.896  35.028  32.105  1.00  0.00     0.006 A 
ENDBRANCH  60  77
ENDBRANCH  34  35
ENDBRANCH  26  29
ENDBRANCH  24  25
ENDBRANCH   1  24
TORSDOF 14
ENDMDL
