MODEL 1
REMARK VINA RESULT:     -11.6      0.000      0.000
REMARK SMILES CCN1/C(=[NH+]/C(=O)CCCC(=O)NCCCNC(=O)c2ccc(-c3c4nc(c(-c5c(F)cccc5F)c5ccc([nH]5)c(-c5c(F)cccc5F)c5nc(c(-c6c(F)cccc6F)c6ccc3[nH]6)C=C5)C=C4)cc2)S[C@H]2CS(=O)(=O)C[C@@H]21
REMARK SMILES IDX 14 1 13 2 11 3 12 4 10 6 9 7 8 8 6 9 3 10 4 11 81 12 5 13
REMARK SMILES IDX 74 14 75 15 80 16 76 18 77 19 7 20 78 21 79 22 2 23 1 24
REMARK SMILES IDX 15 25 16 26 17 27 18 28 19 30 20 31 21 32 73 33 22 34 72 35
REMARK SMILES IDX 23 36 24 37 25 38 66 39 26 40 71 41 65 42 67 43 27 44 70 45
REMARK SMILES IDX 64 46 63 47 28 49 54 50 37 51 53 52 38 53 41 54 52 55 68 56
REMARK SMILES IDX 39 57 40 58 51 60 69 61 42 62 29 63 30 64 35 65 31 66 32 67
REMARK SMILES IDX 34 68 36 69 33 70 55 71 56 72 61 73 57 74 58 75 60 76 62 77
REMARK SMILES IDX 59 78 43 79 44 80 49 81 45 82 46 83 48 84 50 85 47 86
REMARK H PARENT 13 5 5 17 17 29 67 48 41 59
REMARK Flexibility Score: inf
ROOT
ATOM      1  C   UNL A   1      36.726  20.546  24.847  1.00  0.00     0.117 C 
ENDROOT
BRANCH   1   2
ATOM      2  N   UNL A   1      35.483  19.865  25.145  1.00  0.00    -0.356 N 
ATOM      3  C   UNL A   1      34.199  20.282  24.978  1.00  0.00     0.220 C 
ATOM      4  O   UNL A   1      33.295  19.558  25.399  1.00  0.00    -0.275 OA
ATOM      5  H   UNL A   1      35.582  18.963  25.529  1.00  0.00     0.163 HD
BRANCH   3   6
ATOM      6  C   UNL A   1      33.891  21.578  24.253  1.00  0.00     0.100 C 
BRANCH   6   7
ATOM      7  C   UNL A   1      33.618  22.784  25.154  1.00  0.00     0.022 C 
BRANCH   7   8
ATOM      8  C   UNL A   1      33.867  24.179  24.582  1.00  0.00     0.128 C 
BRANCH   8   9
ATOM      9  C   UNL A   1      32.689  24.871  23.906  1.00  0.00     0.307 C 
ATOM     10  N   UNL A   1      31.512  28.327  24.006  1.00  0.00    -0.251 N 
ATOM     11  C   UNL A   1      31.577  26.926  24.020  1.00  0.00     0.314 C 
ATOM     12  C   UNL A   1      30.145  28.850  23.876  1.00  0.00     0.205 C 
ATOM     13  N   UNL A   1      32.670  26.239  24.028  1.00  0.00    -0.205 N 
ATOM     14  S   UNL A   1      29.920  26.273  23.988  1.00  0.00    -0.030 SA
ATOM     15  C   UNL A   1      29.400  27.746  23.106  1.00  0.00     0.120 C 
ATOM     16  C   UNL A   1      29.861  30.089  23.050  1.00  0.00     0.187 C 
ATOM     17  H   UNL A   1      33.526  26.716  24.127  1.00  0.00     0.316 HD
ATOM     18  C   UNL A   1      27.957  28.162  23.030  1.00  0.00     0.156 C 
ATOM     19  S   UNL A   1      28.125  29.898  22.604  1.00  0.00     0.155 S 
ATOM     20  O   UNL A   1      31.868  24.193  23.295  1.00  0.00    -0.247 OA
ATOM     21  O   UNL A   1      28.012  30.040  21.168  1.00  0.00    -0.229 OA
ATOM     22  O   UNL A   1      27.325  30.675  23.524  1.00  0.00    -0.229 OA
BRANCH  10  23
ATOM     23  C   UNL A   1      32.717  29.138  24.161  1.00  0.00     0.234 C 
ATOM     24  C   UNL A   1      33.253  29.284  25.574  1.00  0.00     0.054 C 
ENDBRANCH  10  23
ENDBRANCH   8   9
ENDBRANCH   7   8
ENDBRANCH   6   7
ENDBRANCH   3   6
ENDBRANCH   1   2
BRANCH   1  25
ATOM     25  C   UNL A   1      37.910  19.590  24.942  1.00  0.00     0.042 C 
BRANCH  25  26
ATOM     26  C   UNL A   1      38.988  20.056  25.904  1.00  0.00     0.118 C 
BRANCH  26  27
ATOM     27  N   UNL A   1      40.187  19.238  25.819  1.00  0.00    -0.352 N 
ATOM     28  C   UNL A   1      41.503  19.582  26.005  1.00  0.00     0.251 C 
ATOM     29  H   UNL A   1      40.032  18.292  25.595  1.00  0.00     0.163 HD
ATOM     30  O   UNL A   1      42.384  18.785  25.696  1.00  0.00    -0.269 OA
BRANCH  28  31
ATOM     31  C   UNL A   1      41.866  20.910  26.552  1.00  0.00     0.039 A 
ATOM     32  C   UNL A   1      42.171  21.943  25.661  1.00  0.00     0.014 A 
ATOM     33  C   UNL A   1      41.934  21.140  27.928  1.00  0.00     0.014 A 
ATOM     34  C   UNL A   1      42.485  23.213  26.149  1.00  0.00     0.010 A 
ATOM     35  C   UNL A   1      42.150  22.427  28.411  1.00  0.00     0.010 A 
ATOM     36  C   UNL A   1      42.442  23.475  27.528  1.00  0.00    -0.014 A 
BRANCH  36  37
ATOM     37  C   UNL A   1      42.720  24.832  28.065  1.00  0.00     0.031 A 
ATOM     38  C   UNL A   1      44.116  25.210  28.481  1.00  0.00     0.074 A 
ATOM     39  C   UNL A   1      41.706  25.703  28.233  1.00  0.00     0.049 A 
ATOM     40  N   UNL A   1      44.546  26.319  29.026  1.00  0.00    -0.248 NA
ATOM     41  C   UNL A   1      45.164  24.195  28.286  1.00  0.00     0.031 C 
ATOM     42  C   UNL A   1      40.301  25.439  27.919  1.00  0.00     0.029 A 
ATOM     43  N   UNL A   1      41.701  26.987  28.718  1.00  0.00    -0.354 N 
ATOM     44  C   UNL A   1      45.904  26.128  29.253  1.00  0.00     0.074 A 
ATOM     45  C   UNL A   1      46.215  24.777  28.842  1.00  0.00     0.031 C 
ATOM     46  C   UNL A   1      39.576  26.535  28.191  1.00  0.00     0.029 A 
ATOM     47  C   UNL A   1      40.454  27.564  28.736  1.00  0.00     0.049 A 
ATOM     48  H   UNL A   1      42.514  27.451  29.025  1.00  0.00     0.167 HD
ATOM     49  C   UNL A   1      46.814  27.007  29.734  1.00  0.00     0.037 A 
ATOM     50  C   UNL A   1      40.063  28.784  29.152  1.00  0.00     0.037 A 
ATOM     51  C   UNL A   1      46.506  28.360  30.116  1.00  0.00     0.049 A 
ATOM     52  C   UNL A   1      41.093  29.740  29.685  1.00  0.00     0.074 A 
ATOM     53  C   UNL A   1      47.367  29.350  30.555  1.00  0.00     0.029 A 
ATOM     54  N   UNL A   1      45.234  28.913  30.103  1.00  0.00    -0.354 N 
ATOM     55  N   UNL A   1      42.385  29.570  29.827  1.00  0.00    -0.248 NA
ATOM     56  C   UNL A   1      40.611  31.062  30.110  1.00  0.00     0.031 C 
ATOM     57  C   UNL A   1      46.609  30.486  30.855  1.00  0.00     0.029 A 
ATOM     58  C   UNL A   1      45.283  30.222  30.550  1.00  0.00     0.049 A 
ATOM     59  H   UNL A   1      44.416  28.443  29.818  1.00  0.00     0.167 HD
ATOM     60  C   UNL A   1      42.874  30.770  30.329  1.00  0.00     0.074 A 
ATOM     61  C   UNL A   1      41.741  31.664  30.452  1.00  0.00     0.031 C 
ATOM     62  C   UNL A   1      44.146  31.101  30.660  1.00  0.00     0.037 A 
BRANCH  49  63
ATOM     63  C   UNL A   1      48.234  26.533  29.869  1.00  0.00     0.057 A 
ATOM     64  C   UNL A   1      48.686  25.865  31.015  1.00  0.00     0.134 A 
ATOM     65  C   UNL A   1      49.152  26.718  28.828  1.00  0.00     0.134 A 
ATOM     66  F   UNL A   1      47.861  25.665  32.056  1.00  0.00    -0.206 F 
ATOM     67  C   UNL A   1      50.004  25.423  31.133  1.00  0.00     0.040 A 
ATOM     68  C   UNL A   1      50.467  26.255  28.922  1.00  0.00     0.040 A 
ATOM     69  F   UNL A   1      48.787  27.344  27.699  1.00  0.00    -0.206 F 
ATOM     70  C   UNL A   1      50.897  25.612  30.081  1.00  0.00     0.006 A 
ENDBRANCH  49  63
BRANCH  50  71
ATOM     71  C   UNL A   1      38.634  29.179  29.060  1.00  0.00     0.057 A 
ATOM     72  C   UNL A   1      38.092  29.652  27.861  1.00  0.00     0.134 A 
ATOM     73  C   UNL A   1      37.779  29.100  30.166  1.00  0.00     0.134 A 
ATOM     74  F   UNL A   1      38.864  29.767  26.769  1.00  0.00    -0.206 F 
ATOM     75  C   UNL A   1      36.759  30.055  27.767  1.00  0.00     0.040 A 
ATOM     76  C   UNL A   1      36.437  29.474  30.082  1.00  0.00     0.040 A 
ATOM     77  F   UNL A   1      38.235  28.646  31.344  1.00  0.00    -0.206 F 
ATOM     78  C   UNL A   1      35.925  29.961  28.880  1.00  0.00     0.006 A 
ENDBRANCH  50  71
BRANCH  62  79
ATOM     79  C   UNL A   1      44.385  32.498  31.151  1.00  0.00     0.057 A 
ATOM     80  C   UNL A   1      44.652  33.557  30.274  1.00  0.00     0.134 A 
ATOM     81  C   UNL A   1      44.310  32.795  32.519  1.00  0.00     0.134 A 
ATOM     82  F   UNL A   1      44.749  33.338  28.953  1.00  0.00    -0.206 F 
ATOM     83  C   UNL A   1      44.860  34.856  30.741  1.00  0.00     0.040 A 
ATOM     84  C   UNL A   1      44.487  34.094  32.995  1.00  0.00     0.040 A 
ATOM     85  F   UNL A   1      44.049  31.829  33.412  1.00  0.00    -0.206 F 
ATOM     86  C   UNL A   1      44.771  35.128  32.105  1.00  0.00     0.006 A 
ENDBRANCH  62  79
ENDBRANCH  36  37
ENDBRANCH  28  31
ENDBRANCH  26  27
ENDBRANCH  25  26
ENDBRANCH   1  25
TORSDOF 14
ENDMDL
MODEL 2
REMARK VINA RESULT:     -11.6      1.451      6.270
REMARK SMILES CCN1/C(=[NH+]/C(=O)CCCC(=O)NCCCNC(=O)c2ccc(-c3c4nc(c(-c5c(F)cccc5F)c5ccc([nH]5)c(-c5c(F)cccc5F)c5nc(c(-c6c(F)cccc6F)c6ccc3[nH]6)C=C5)C=C4)cc2)S[C@H]2CS(=O)(=O)C[C@@H]21
REMARK SMILES IDX 14 1 13 2 11 3 12 4 10 6 9 7 8 8 6 9 3 10 4 11 81 12 5 13
REMARK SMILES IDX 74 14 75 15 80 16 76 18 77 19 7 20 78 21 79 22 2 23 1 24
REMARK SMILES IDX 15 25 16 26 17 27 18 28 19 30 20 31 21 32 73 33 22 34 72 35
REMARK SMILES IDX 23 36 24 37 25 38 66 39 26 40 71 41 65 42 67 43 27 44 70 45
REMARK SMILES IDX 64 46 63 47 28 49 54 50 37 51 53 52 38 53 41 54 52 55 68 56
REMARK SMILES IDX 39 57 40 58 51 60 69 61 42 62 29 63 30 64 35 65 31 66 32 67
REMARK SMILES IDX 34 68 36 69 33 70 55 71 56 72 61 73 57 74 58 75 60 76 62 77
REMARK SMILES IDX 59 78 43 79 44 80 49 81 45 82 46 83 48 84 50 85 47 86
REMARK H PARENT 13 5 5 17 17 29 67 48 41 59
REMARK Flexibility Score: inf
ROOT
ATOM      1  C   UNL A   1      36.529  20.652  24.912  1.00  0.00     0.117 C 
ENDROOT
BRANCH   1   2
ATOM      2  N   UNL A   1      35.326  19.900  25.207  1.00  0.00    -0.356 N 
ATOM      3  C   UNL A   1      34.022  20.229  25.004  1.00  0.00     0.220 C 
ATOM      4  O   UNL A   1      33.158  19.461  25.429  1.00  0.00    -0.275 OA
ATOM      5  H   UNL A   1      35.475  19.018  25.620  1.00  0.00     0.163 HD
BRANCH   3   6
ATOM      6  C   UNL A   1      33.646  21.481  24.235  1.00  0.00     0.100 C 
BRANCH   6   7
ATOM      7  C   UNL A   1      32.988  22.586  25.064  1.00  0.00     0.022 C 
BRANCH   7   8
ATOM      8  C   UNL A   1      33.275  24.038  24.683  1.00  0.00     0.128 C 
BRANCH   8   9
ATOM      9  C   UNL A   1      32.157  24.807  23.991  1.00  0.00     0.307 C 
ATOM     10  N   UNL A   1      31.265  28.349  24.013  1.00  0.00    -0.251 N 
ATOM     11  C   UNL A   1      31.216  26.948  24.058  1.00  0.00     0.314 C 
ATOM     12  C   UNL A   1      29.945  28.979  23.870  1.00  0.00     0.205 C 
ATOM     13  N   UNL A   1      32.250  26.175  24.082  1.00  0.00    -0.205 N 
ATOM     14  S   UNL A   1      29.511  26.432  24.041  1.00  0.00    -0.030 SA
ATOM     15  C   UNL A   1      29.111  27.921  23.126  1.00  0.00     0.120 C 
ATOM     16  C   UNL A   1      29.761  30.217  23.016  1.00  0.00     0.187 C 
ATOM     17  H   UNL A   1      33.141  26.583  24.171  1.00  0.00     0.316 HD
ATOM     18  C   UNL A   1      27.707  28.452  23.040  1.00  0.00     0.156 C 
ATOM     19  S   UNL A   1      28.015  30.158  22.575  1.00  0.00     0.155 S 
ATOM     20  O   UNL A   1      31.282  24.185  23.396  1.00  0.00    -0.247 OA
ATOM     21  O   UNL A   1      27.911  30.276  21.136  1.00  0.00    -0.229 OA
ATOM     22  O   UNL A   1      27.282  31.018  23.477  1.00  0.00    -0.229 OA
BRANCH  10  23
ATOM     23  C   UNL A   1      32.532  29.063  24.150  1.00  0.00     0.234 C 
ATOM     24  C   UNL A   1      33.497  28.953  22.982  1.00  0.00     0.054 C 
ENDBRANCH  10  23
ENDBRANCH   8   9
ENDBRANCH   7   8
ENDBRANCH   6   7
ENDBRANCH   3   6
ENDBRANCH   1   2
BRANCH   1  25
ATOM     25  C   UNL A   1      37.747  19.736  24.865  1.00  0.00     0.042 C 
BRANCH  25  26
ATOM     26  C   UNL A   1      38.888  20.203  25.751  1.00  0.00     0.118 C 
BRANCH  26  27
ATOM     27  N   UNL A   1      39.932  19.197  25.874  1.00  0.00    -0.352 N 
ATOM     28  C   UNL A   1      41.279  19.349  26.090  1.00  0.00     0.251 C 
ATOM     29  H   UNL A   1      39.625  18.266  25.790  1.00  0.00     0.163 HD
ATOM     30  O   UNL A   1      42.021  18.378  25.967  1.00  0.00    -0.269 OA
BRANCH  28  31
ATOM     31  C   UNL A   1      41.843  20.671  26.447  1.00  0.00     0.039 A 
ATOM     32  C   UNL A   1      42.146  21.571  25.421  1.00  0.00     0.014 A 
ATOM     33  C   UNL A   1      42.099  21.022  27.775  1.00  0.00     0.014 A 
ATOM     34  C   UNL A   1      42.648  22.836  25.732  1.00  0.00     0.010 A 
ATOM     35  C   UNL A   1      42.506  22.315  28.089  1.00  0.00     0.010 A 
ATOM     36  C   UNL A   1      42.799  23.232  27.070  1.00  0.00    -0.014 A 
BRANCH  36  37
ATOM     37  C   UNL A   1      43.281  24.592  27.423  1.00  0.00     0.031 A 
ATOM     38  C   UNL A   1      42.305  25.649  27.867  1.00  0.00     0.074 A 
ATOM     39  C   UNL A   1      44.587  24.894  27.288  1.00  0.00     0.049 A 
ATOM     40  N   UNL A   1      42.522  26.906  28.158  1.00  0.00    -0.248 NA
ATOM     41  C   UNL A   1      40.892  25.247  27.968  1.00  0.00     0.031 C 
ATOM     42  C   UNL A   1      45.624  23.975  26.816  1.00  0.00     0.029 A 
ATOM     43  N   UNL A   1      45.264  26.063  27.527  1.00  0.00    -0.354 N 
ATOM     44  C   UNL A   1      41.277  27.445  28.459  1.00  0.00     0.074 A 
ATOM     45  C   UNL A   1      40.302  26.396  28.258  1.00  0.00     0.031 C 
ATOM     46  C   UNL A   1      46.809  24.604  26.829  1.00  0.00     0.029 A 
ATOM     47  C   UNL A   1      46.612  25.981  27.269  1.00  0.00     0.049 A 
ATOM     48  H   UNL A   1      44.827  26.883  27.853  1.00  0.00     0.167 HD
ATOM     49  C   UNL A   1      40.975  28.692  28.890  1.00  0.00     0.037 A 
ATOM     50  C   UNL A   1      47.578  26.914  27.370  1.00  0.00     0.037 A 
ATOM     51  C   UNL A   1      41.951  29.726  29.116  1.00  0.00     0.049 A 
ATOM     52  C   UNL A   1      47.216  28.293  27.848  1.00  0.00     0.074 A 
ATOM     53  C   UNL A   1      41.756  31.003  29.612  1.00  0.00     0.029 A 
ATOM     54  N   UNL A   1      43.308  29.598  28.860  1.00  0.00    -0.354 N 
ATOM     55  N   UNL A   1      46.045  28.767  28.198  1.00  0.00    -0.248 NA
ATOM     56  C   UNL A   1      48.313  29.265  27.953  1.00  0.00     0.031 C 
ATOM     57  C   UNL A   1      42.988  31.665  29.610  1.00  0.00     0.029 A 
ATOM     58  C   UNL A   1      43.959  30.782  29.164  1.00  0.00     0.049 A 
ATOM     59  H   UNL A   1      43.744  28.787  28.512  1.00  0.00     0.167 HD
ATOM     60  C   UNL A   1      46.268  30.081  28.590  1.00  0.00     0.074 A 
ATOM     61  C   UNL A   1      47.689  30.323  28.451  1.00  0.00     0.031 C 
ATOM     62  C   UNL A   1      45.376  31.004  29.026  1.00  0.00     0.037 A 
BRANCH  49  63
ATOM     63  C   UNL A   1      39.528  29.007  29.152  1.00  0.00     0.057 A 
ATOM     64  C   UNL A   1      38.962  28.877  30.427  1.00  0.00     0.134 A 
ATOM     65  C   UNL A   1      38.700  29.474  28.124  1.00  0.00     0.134 A 
ATOM     66  F   UNL A   1      39.696  28.423  31.455  1.00  0.00    -0.206 F 
ATOM     67  C   UNL A   1      37.619  29.174  30.664  1.00  0.00     0.040 A 
ATOM     68  C   UNL A   1      37.363  29.802  28.354  1.00  0.00     0.040 A 
ATOM     69  F   UNL A   1      39.179  29.627  26.879  1.00  0.00    -0.206 F 
ATOM     70  C   UNL A   1      36.817  29.645  29.627  1.00  0.00     0.006 A 
ENDBRANCH  49  63
BRANCH  50  71
ATOM     71  C   UNL A   1      48.983  26.570  27.033  1.00  0.00     0.057 A 
ATOM     72  C   UNL A   1      49.463  26.696  25.725  1.00  0.00     0.134 A 
ATOM     73  C   UNL A   1      49.876  26.102  28.005  1.00  0.00     0.134 A 
ATOM     74  F   UNL A   1      48.651  27.123  24.746  1.00  0.00    -0.206 F 
ATOM     75  C   UNL A   1      50.772  26.348  25.389  1.00  0.00     0.040 A 
ATOM     76  C   UNL A   1      51.196  25.776  27.689  1.00  0.00     0.040 A 
ATOM     77  F   UNL A   1      49.481  25.966  29.280  1.00  0.00    -0.206 F 
ATOM     78  C   UNL A   1      51.645  25.891  26.374  1.00  0.00     0.006 A 
ENDBRANCH  50  71
BRANCH  62  79
ATOM     79  C   UNL A   1      45.917  32.348  29.417  1.00  0.00     0.057 A 
ATOM     80  C   UNL A   1      46.376  32.613  30.713  1.00  0.00     0.134 A 
ATOM     81  C   UNL A   1      46.013  33.379  28.473  1.00  0.00     0.134 A 
ATOM     82  F   UNL A   1      46.300  31.672  31.667  1.00  0.00    -0.206 F 
ATOM     83  C   UNL A   1      46.889  33.863  31.064  1.00  0.00     0.040 A 
ATOM     84  C   UNL A   1      46.551  34.623  28.803  1.00  0.00     0.040 A 
ATOM     85  F   UNL A   1      45.600  33.188  27.212  1.00  0.00    -0.206 F 
ATOM     86  C   UNL A   1      46.983  34.870  30.104  1.00  0.00     0.006 A 
ENDBRANCH  62  79
ENDBRANCH  36  37
ENDBRANCH  28  31
ENDBRANCH  26  27
ENDBRANCH  25  26
ENDBRANCH   1  25
TORSDOF 14
ENDMDL
MODEL 3
REMARK VINA RESULT:     -11.4      4.867     10.661
REMARK SMILES CCN1/C(=[NH+]/C(=O)CCCC(=O)NCCCNC(=O)c2ccc(-c3c4nc(c(-c5c(F)cccc5F)c5ccc([nH]5)c(-c5c(F)cccc5F)c5nc(c(-c6c(F)cccc6F)c6ccc3[nH]6)C=C5)C=C4)cc2)S[C@H]2CS(=O)(=O)C[C@@H]21
REMARK SMILES IDX 14 1 13 2 11 3 12 4 10 6 9 7 8 8 6 9 3 10 4 11 81 12 5 13
REMARK SMILES IDX 74 14 75 15 80 16 76 18 77 19 7 20 78 21 79 22 2 23 1 24
REMARK SMILES IDX 15 25 16 26 17 27 18 28 19 30 20 31 21 32 73 33 22 34 72 35
REMARK SMILES IDX 23 36 24 37 25 38 66 39 26 40 71 41 65 42 67 43 27 44 70 45
REMARK SMILES IDX 64 46 63 47 28 49 54 50 37 51 53 52 38 53 41 54 52 55 68 56
REMARK SMILES IDX 39 57 40 58 51 60 69 61 42 62 29 63 30 64 35 65 31 66 32 67
REMARK SMILES IDX 34 68 36 69 33 70 55 71 56 72 61 73 57 74 58 75 60 76 62 77
REMARK SMILES IDX 59 78 43 79 44 80 49 81 45 82 46 83 48 84 50 85 47 86
REMARK H PARENT 13 5 5 17 17 29 67 48 41 59
REMARK Flexibility Score: inf
ROOT
ATOM      1  C   UNL A   1      33.517  34.595  29.427  1.00  0.00     0.117 C 
ENDROOT
BRANCH   1   2
ATOM      2  N   UNL A   1      33.522  36.006  29.754  1.00  0.00    -0.356 N 
ATOM      3  C   UNL A   1      33.075  36.644  30.870  1.00  0.00     0.220 C 
ATOM      4  O   UNL A   1      33.097  37.875  30.882  1.00  0.00    -0.275 OA
ATOM      5  H   UNL A   1      33.906  36.594  29.064  1.00  0.00     0.163 HD
BRANCH   3   6
ATOM      6  C   UNL A   1      32.607  35.858  32.080  1.00  0.00     0.100 C 
BRANCH   6   7
ATOM      7  C   UNL A   1      33.631  35.721  33.209  1.00  0.00     0.022 C 
BRANCH   7   8
ATOM      8  C   UNL A   1      35.099  35.530  32.830  1.00  0.00     0.128 C 
BRANCH   8   9
ATOM      9  C   UNL A   1      35.744  34.201  33.204  1.00  0.00     0.307 C 
ATOM     10  N   UNL A   1      39.220  33.279  33.842  1.00  0.00    -0.251 N 
ATOM     11  C   UNL A   1      37.896  33.299  33.381  1.00  0.00     0.314 C 
ATOM     12  C   UNL A   1      39.900  31.995  33.617  1.00  0.00     0.205 C 
ATOM     13  N   UNL A   1      37.071  34.278  33.553  1.00  0.00    -0.205 N 
ATOM     14  S   UNL A   1      37.546  31.755  32.565  1.00  0.00    -0.030 SA
ATOM     15  C   UNL A   1      38.757  30.966  33.627  1.00  0.00     0.120 C 
ATOM     16  C   UNL A   1      40.868  31.437  34.641  1.00  0.00     0.187 C 
ATOM     17  H   UNL A   1      37.407  35.113  33.951  1.00  0.00     0.316 HD
ATOM     18  C   UNL A   1      39.365  29.633  33.291  1.00  0.00     0.156 C 
ATOM     19  S   UNL A   1      40.844  29.666  34.308  1.00  0.00     0.155 S 
ATOM     20  O   UNL A   1      35.062  33.181  33.192  1.00  0.00    -0.247 OA
ATOM     21  O   UNL A   1      40.571  28.979  35.553  1.00  0.00    -0.229 OA
ATOM     22  O   UNL A   1      41.980  29.339  33.475  1.00  0.00    -0.229 OA
BRANCH  10  23
ATOM     23  C   UNL A   1      39.829  34.466  34.435  1.00  0.00     0.234 C 
ATOM     24  C   UNL A   1      41.014  35.058  33.693  1.00  0.00     0.054 C 
ENDBRANCH  10  23
ENDBRANCH   8   9
ENDBRANCH   7   8
ENDBRANCH   6   7
ENDBRANCH   3   6
ENDBRANCH   1   2
BRANCH   1  25
ATOM     25  C   UNL A   1      34.927  34.100  29.126  1.00  0.00     0.042 C 
BRANCH  25  26
ATOM     26  C   UNL A   1      35.200  32.701  29.650  1.00  0.00     0.118 C 
BRANCH  26  27
ATOM     27  N   UNL A   1      34.420  31.693  28.949  1.00  0.00    -0.352 N 
ATOM     28  C   UNL A   1      34.826  30.529  28.345  1.00  0.00     0.251 C 
ATOM     29  H   UNL A   1      33.453  31.872  28.902  1.00  0.00     0.163 HD
ATOM     30  O   UNL A   1      34.035  29.912  27.637  1.00  0.00    -0.269 OA
BRANCH  28  31
ATOM     31  C   UNL A   1      36.208  30.028  28.520  1.00  0.00     0.039 A 
ATOM     32  C   UNL A   1      37.119  30.186  27.472  1.00  0.00     0.014 A 
ATOM     33  C   UNL A   1      36.608  29.384  29.694  1.00  0.00     0.014 A 
ATOM     34  C   UNL A   1      38.438  29.753  27.624  1.00  0.00     0.010 A 
ATOM     35  C   UNL A   1      37.944  29.042  29.882  1.00  0.00     0.010 A 
ATOM     36  C   UNL A   1      38.871  29.209  28.843  1.00  0.00    -0.014 A 
BRANCH  36  37
ATOM     37  C   UNL A   1      40.281  28.791  29.044  1.00  0.00     0.031 A 
ATOM     38  C   UNL A   1      41.270  29.739  29.670  1.00  0.00     0.074 A 
ATOM     39  C   UNL A   1      40.688  27.581  28.611  1.00  0.00     0.049 A 
ATOM     40  N   UNL A   1      42.553  29.582  29.873  1.00  0.00    -0.248 NA
ATOM     41  C   UNL A   1      40.753  31.050  30.096  1.00  0.00     0.031 C 
ATOM     42  C   UNL A   1      39.840  26.593  27.942  1.00  0.00     0.029 A 
ATOM     43  N   UNL A   1      41.920  26.980  28.663  1.00  0.00    -0.354 N 
ATOM     44  C   UNL A   1      42.997  30.774  30.431  1.00  0.00     0.074 A 
ATOM     45  C   UNL A   1      41.860  31.667  30.482  1.00  0.00     0.031 C 
ATOM     46  C   UNL A   1      40.569  25.499  27.673  1.00  0.00     0.029 A 
ATOM     47  C   UNL A   1      41.942  25.722  28.110  1.00  0.00     0.049 A 
ATOM     48  H   UNL A   1      42.714  27.409  29.057  1.00  0.00     0.167 HD
ATOM     49  C   UNL A   1      44.232  31.089  30.888  1.00  0.00     0.037 A 
ATOM     50  C   UNL A   1      42.959  24.849  27.968  1.00  0.00     0.037 A 
ATOM     51  C   UNL A   1      45.354  30.188  30.862  1.00  0.00     0.049 A 
ATOM     52  C   UNL A   1      44.322  25.224  28.480  1.00  0.00     0.074 A 
ATOM     53  C   UNL A   1      46.631  30.387  31.357  1.00  0.00     0.029 A 
ATOM     54  N   UNL A   1      45.332  28.916  30.311  1.00  0.00    -0.354 N 
ATOM     55  N   UNL A   1      44.709  26.327  29.072  1.00  0.00    -0.248 NA
ATOM     56  C   UNL A   1      45.389  24.227  28.311  1.00  0.00     0.031 C 
ATOM     57  C   UNL A   1      47.395  29.254  31.061  1.00  0.00     0.029 A 
ATOM     58  C   UNL A   1      46.580  28.327  30.431  1.00  0.00     0.049 A 
ATOM     59  H   UNL A   1      44.546  28.493  29.895  1.00  0.00     0.167 HD
ATOM     60  C   UNL A   1      46.054  26.148  29.371  1.00  0.00     0.074 A 
ATOM     61  C   UNL A   1      46.410  24.822  28.910  1.00  0.00     0.031 C 
ATOM     62  C   UNL A   1      46.916  27.004  29.972  1.00  0.00     0.037 A 
BRANCH  49  63
ATOM     63  C   UNL A   1      44.432  32.464  31.460  1.00  0.00     0.057 A 
ATOM     64  C   UNL A   1      44.340  32.715  32.835  1.00  0.00     0.134 A 
ATOM     65  C   UNL A   1      44.753  33.545  30.629  1.00  0.00     0.134 A 
ATOM     66  F   UNL A   1      44.025  31.726  33.688  1.00  0.00    -0.206 F 
ATOM     67  C   UNL A   1      44.532  33.993  33.361  1.00  0.00     0.040 A 
ATOM     68  C   UNL A   1      44.975  34.823  31.145  1.00  0.00     0.040 A 
ATOM     69  F   UNL A   1      44.863  33.376  29.302  1.00  0.00    -0.206 F 
ATOM     70  C   UNL A   1      44.857  35.051  32.515  1.00  0.00     0.006 A 
ENDBRANCH  49  63
BRANCH  50  71
ATOM     71  C   UNL A   1      42.721  23.528  27.333  1.00  0.00     0.057 A 
ATOM     72  C   UNL A   1      42.339  22.419  28.096  1.00  0.00     0.134 A 
ATOM     73  C   UNL A   1      42.877  23.338  25.955  1.00  0.00     0.134 A 
ATOM     74  F   UNL A   1      42.190  22.532  29.424  1.00  0.00    -0.206 F 
ATOM     75  C   UNL A   1      42.141  21.164  27.517  1.00  0.00     0.040 A 
ATOM     76  C   UNL A   1      42.657  22.096  25.358  1.00  0.00     0.040 A 
ATOM     77  F   UNL A   1      43.235  24.364  25.166  1.00  0.00    -0.206 F 
ATOM     78  C   UNL A   1      42.296  21.002  26.141  1.00  0.00     0.006 A 
ENDBRANCH  50  71
BRANCH  62  79
ATOM     79  C   UNL A   1      48.318  26.518  30.198  1.00  0.00     0.057 A 
ATOM     80  C   UNL A   1      49.345  26.766  29.279  1.00  0.00     0.134 A 
ATOM     81  C   UNL A   1      48.652  25.826  31.370  1.00  0.00     0.134 A 
ATOM     82  F   UNL A   1      49.089  27.413  28.131  1.00  0.00    -0.206 F 
ATOM     83  C   UNL A   1      50.649  26.321  29.505  1.00  0.00     0.040 A 
ATOM     84  C   UNL A   1      49.957  25.402  31.620  1.00  0.00     0.040 A 
ATOM     85  F   UNL A   1      47.718  25.564  32.295  1.00  0.00    -0.206 F 
ATOM     86  C   UNL A   1      50.958  25.643  30.682  1.00  0.00     0.006 A 
ENDBRANCH  62  79
ENDBRANCH  36  37
ENDBRANCH  28  31
ENDBRANCH  26  27
ENDBRANCH  25  26
ENDBRANCH   1  25
TORSDOF 14
ENDMDL
