MODEL 1
REMARK VINA RESULT:      -9.2      0.000      0.000
REMARK SMILES CCCCCCCNC(=O)Oc1cccc(-c2ccc([C@@H](C)C(=O)NCCCNC(=O)c3ccc(-c4c5nc(c(-c6c(F)cccc6F)c6ccc([nH]6)c(-c6c(F)cccc6F)c6nc(c(-c7c(F)cccc7F)c7ccc4[nH]7)C=C6)C=C5)cc3)cc2F)c1
REMARK SMILES IDX 17 1 18 2 19 3 20 4 86 5 87 6 88 7 16 8 12 9 13 10 89 11
REMARK SMILES IDX 14 12 15 13 11 14 9 15 8 16 10 18 7 19 6 20 5 21 4 22 3 23
REMARK SMILES IDX 2 24 1 25 21 26 22 27 23 28 24 29 25 30 26 32 27 33 28 34
REMARK SMILES IDX 29 35 30 36 31 38 32 39 33 40 85 41 34 42 84 43 35 44 36 45
REMARK SMILES IDX 37 46 78 47 38 48 83 49 77 50 79 51 39 52 82 53 76 54 75 55
REMARK SMILES IDX 40 57 66 58 49 59 65 60 50 61 53 62 64 63 80 64 51 65 52 66
REMARK SMILES IDX 63 68 81 69 54 70 41 71 42 72 47 73 43 74 44 75 46 76 48 77
REMARK SMILES IDX 45 78 67 79 68 80 73 81 69 82 70 83 72 84 74 85 71 86 55 87
REMARK SMILES IDX 56 88 61 89 57 90 58 91 60 92 62 93 59 94
REMARK H PARENT 8 17 25 31 29 37 79 56 53 67
REMARK Flexibility Score: inf
ROOT
ATOM      1  C   UNL A   1      39.980  30.530  34.169  1.00  0.00     0.018 A 
ATOM      2  C   UNL A   1      40.309  31.813  34.639  1.00  0.00     0.012 A 
ATOM      3  C   UNL A   1      39.444  32.903  34.481  1.00  0.00     0.005 A 
ATOM      4  C   UNL A   1      38.242  32.775  33.783  1.00  0.00    -0.033 A 
ATOM      5  C   UNL A   1      37.891  31.495  33.328  1.00  0.00     0.044 A 
ATOM      6  C   UNL A   1      38.735  30.400  33.537  1.00  0.00     0.131 A 
ATOM      7  F   UNL A   1      38.306  29.202  33.109  1.00  0.00    -0.206 F 
ENDROOT
BRANCH   1   8
ATOM      8  C   UNL A   1      40.926  29.401  34.326  1.00  0.00    -0.012 A 
ATOM      9  C   UNL A   1      42.069  27.749  35.700  1.00  0.00     0.133 A 
ATOM     10  C   UNL A   1      42.698  27.201  34.588  1.00  0.00     0.047 A 
ATOM     11  C   UNL A   1      41.199  28.836  35.583  1.00  0.00     0.056 A 
ATOM     12  C   UNL A   1      42.444  27.742  33.335  1.00  0.00     0.004 A 
ATOM     13  C   UNL A   1      41.576  28.833  33.209  1.00  0.00     0.009 A 
BRANCH   9  14
ATOM     14  O   UNL A   1      42.448  27.245  36.953  1.00  0.00    -0.410 OA
BRANCH  14  15
ATOM     15  C   UNL A   1      41.806  26.110  37.421  1.00  0.00     0.412 C 
ATOM     16  N   UNL A   1      42.679  25.117  37.773  1.00  0.00    -0.321 N 
ATOM     17  H   UNL A   1      42.284  24.278  38.104  1.00  0.00     0.167 HD
ATOM     18  O   UNL A   1      40.596  25.950  37.517  1.00  0.00    -0.224 OA
BRANCH  16  19
ATOM     19  C   UNL A   1      44.126  25.175  37.709  1.00  0.00     0.119 C 
BRANCH  19  20
ATOM     20  C   UNL A   1      44.694  24.174  36.702  1.00  0.00     0.021 C 
BRANCH  20  21
ATOM     21  C   UNL A   1      45.541  24.798  35.586  1.00  0.00     0.002 C 
BRANCH  21  22
ATOM     22  C   UNL A   1      45.909  23.852  34.438  1.00  0.00     0.000 C 
BRANCH  22  23
ATOM     23  C   UNL A   1      44.884  22.752  34.145  1.00  0.00    -0.000 C 
BRANCH  23  24
ATOM     24  C   UNL A   1      43.854  23.090  33.065  1.00  0.00    -0.003 C 
ATOM     25  C   UNL A   1      44.321  24.173  32.104  1.00  0.00     0.004 C 
ENDBRANCH  23  24
ENDBRANCH  22  23
ENDBRANCH  21  22
ENDBRANCH  20  21
ENDBRANCH  19  20
ENDBRANCH  16  19
ENDBRANCH  14  15
ENDBRANCH   9  14
ENDBRANCH   1   8
BRANCH   4  26
ATOM     26  C   UNL A   1      37.336  33.955  33.470  1.00  0.00     0.105 C 
ATOM     27  C   UNL A   1      37.525  34.589  32.092  1.00  0.00     0.023 C 
BRANCH  26  28
ATOM     28  C   UNL A   1      35.872  33.722  33.871  1.00  0.00     0.227 C 
ATOM     29  O   UNL A   1      35.587  33.497  35.054  1.00  0.00    -0.274 OA
ATOM     30  N   UNL A   1      34.828  33.743  32.998  1.00  0.00    -0.356 N 
ATOM     31  H   UNL A   1      33.948  33.631  33.426  1.00  0.00     0.163 HD
BRANCH  30  32
ATOM     32  C   UNL A   1      34.766  33.900  31.559  1.00  0.00     0.117 C 
BRANCH  32  33
ATOM     33  C   UNL A   1      34.789  32.562  30.826  1.00  0.00     0.042 C 
BRANCH  33  34
ATOM     34  C   UNL A   1      34.774  32.687  29.308  1.00  0.00     0.118 C 
BRANCH  34  35
ATOM     35  N   UNL A   1      34.107  31.561  28.668  1.00  0.00    -0.352 N 
ATOM     36  C   UNL A   1      34.611  30.387  28.164  1.00  0.00     0.251 C 
ATOM     37  H   UNL A   1      33.131  31.658  28.582  1.00  0.00     0.163 HD
ATOM     38  O   UNL A   1      33.884  29.676  27.475  1.00  0.00    -0.269 OA
BRANCH  36  39
ATOM     39  C   UNL A   1      36.008  29.968  28.423  1.00  0.00     0.039 A 
ATOM     40  C   UNL A   1      36.955  30.127  27.405  1.00  0.00     0.014 A 
ATOM     41  C   UNL A   1      36.384  29.362  29.624  1.00  0.00     0.014 A 
ATOM     42  C   UNL A   1      38.279  29.729  27.610  1.00  0.00     0.010 A 
ATOM     43  C   UNL A   1      37.720  29.040  29.858  1.00  0.00     0.010 A 
ATOM     44  C   UNL A   1      38.680  29.208  28.850  1.00  0.00    -0.014 A 
BRANCH  44  45
ATOM     45  C   UNL A   1      40.090  28.815  29.104  1.00  0.00     0.031 A 
ATOM     46  C   UNL A   1      41.034  29.776  29.777  1.00  0.00     0.074 A 
ATOM     47  C   UNL A   1      40.539  27.620  28.675  1.00  0.00     0.049 A 
ATOM     48  N   UNL A   1      42.315  29.650  30.011  1.00  0.00    -0.248 NA
ATOM     49  C   UNL A   1      40.467  31.059  30.221  1.00  0.00     0.031 C 
ATOM     50  C   UNL A   1      39.737  26.619  27.969  1.00  0.00     0.029 A 
ATOM     51  N   UNL A   1      41.784  27.051  28.758  1.00  0.00    -0.354 N 
ATOM     52  C   UNL A   1      42.710  30.839  30.610  1.00  0.00     0.074 A 
ATOM     53  C   UNL A   1      41.543  31.694  30.659  1.00  0.00     0.031 C 
ATOM     54  C   UNL A   1      40.506  25.553  27.698  1.00  0.00     0.029 A 
ATOM     55  C   UNL A   1      41.861  25.808  28.176  1.00  0.00     0.049 A 
ATOM     56  H   UNL A   1      42.550  27.490  29.193  1.00  0.00     0.167 HD
ATOM     57  C   UNL A   1      43.927  31.182  31.095  1.00  0.00     0.037 A 
ATOM     58  C   UNL A   1      42.908  24.974  28.035  1.00  0.00     0.037 A 
ATOM     59  C   UNL A   1      45.081  30.321  31.070  1.00  0.00     0.049 A 
ATOM     60  C   UNL A   1      44.247  25.373  28.586  1.00  0.00     0.074 A 
ATOM     61  C   UNL A   1      46.344  30.554  31.585  1.00  0.00     0.029 A 
ATOM     62  N   UNL A   1      45.110  29.058  30.497  1.00  0.00    -0.354 N 
ATOM     63  N   UNL A   1      44.591  26.477  29.204  1.00  0.00    -0.248 NA
ATOM     64  C   UNL A   1      45.344  24.408  28.427  1.00  0.00     0.031 C 
ATOM     65  C   UNL A   1      47.147  29.447  31.293  1.00  0.00     0.029 A 
ATOM     66  C   UNL A   1      46.373  28.507  30.633  1.00  0.00     0.049 A 
ATOM     67  H   UNL A   1      44.345  28.619  30.058  1.00  0.00     0.167 HD
ATOM     68  C   UNL A   1      45.933  26.331  29.527  1.00  0.00     0.074 A 
ATOM     69  C   UNL A   1      46.338  25.024  29.052  1.00  0.00     0.031 C 
ATOM     70  C   UNL A   1      46.757  27.201  30.161  1.00  0.00     0.037 A 
BRANCH  57  71
ATOM     71  C   UNL A   1      44.070  32.548  31.704  1.00  0.00     0.057 A 
ATOM     72  C   UNL A   1      43.839  32.775  33.066  1.00  0.00     0.134 A 
ATOM     73  C   UNL A   1      44.471  33.641  30.926  1.00  0.00     0.134 A 
ATOM     74  F   UNL A   1      43.443  31.773  33.865  1.00  0.00    -0.206 F 
ATOM     75  C   UNL A   1      43.975  34.046  33.628  1.00  0.00     0.040 A 
ATOM     76  C   UNL A   1      44.636  34.911  31.481  1.00  0.00     0.040 A 
ATOM     77  F   UNL A   1      44.716  33.492  29.615  1.00  0.00    -0.206 F 
ATOM     78  C   UNL A   1      44.380  35.118  32.835  1.00  0.00     0.006 A 
ENDBRANCH  57  71
BRANCH  58  79
ATOM     79  C   UNL A   1      42.725  23.664  27.361  1.00  0.00     0.057 A 
ATOM     80  C   UNL A   1      42.405  22.514  28.091  1.00  0.00     0.134 A 
ATOM     81  C   UNL A   1      42.866  23.529  25.974  1.00  0.00     0.134 A 
ATOM     82  F   UNL A   1      42.277  22.577  29.425  1.00  0.00    -0.206 F 
ATOM     83  C   UNL A   1      42.248  21.274  27.472  1.00  0.00     0.040 A 
ATOM     84  C   UNL A   1      42.688  22.299  25.338  1.00  0.00     0.040 A 
ATOM     85  F   UNL A   1      43.166  24.594  25.217  1.00  0.00    -0.206 F 
ATOM     86  C   UNL A   1      42.385  21.166  26.089  1.00  0.00     0.006 A 
ENDBRANCH  58  79
BRANCH  70  87
ATOM     87  C   UNL A   1      48.167  26.755  30.406  1.00  0.00     0.057 A 
ATOM     88  C   UNL A   1      48.519  26.003  31.534  1.00  0.00     0.134 A 
ATOM     89  C   UNL A   1      49.177  27.049  29.481  1.00  0.00     0.134 A 
ATOM     90  F   UNL A   1      47.600  25.700  32.463  1.00  0.00    -0.206 F 
ATOM     91  C   UNL A   1      49.832  25.576  31.744  1.00  0.00     0.040 A 
ATOM     92  C   UNL A   1      50.488  26.607  29.669  1.00  0.00     0.040 A 
ATOM     93  F   UNL A   1      48.904  27.759  28.376  1.00  0.00    -0.206 F 
ATOM     94  C   UNL A   1      50.818  25.873  30.806  1.00  0.00     0.006 A 
ENDBRANCH  70  87
ENDBRANCH  44  45
ENDBRANCH  36  39
ENDBRANCH  34  35
ENDBRANCH  33  34
ENDBRANCH  32  33
ENDBRANCH  30  32
ENDBRANCH  26  28
ENDBRANCH   4  26
TORSDOF 20
ENDMDL
MODEL 2
REMARK VINA RESULT:      -9.1      1.966      3.117
REMARK SMILES CCCCCCCNC(=O)Oc1cccc(-c2ccc([C@@H](C)C(=O)NCCCNC(=O)c3ccc(-c4c5nc(c(-c6c(F)cccc6F)c6ccc([nH]6)c(-c6c(F)cccc6F)c6nc(c(-c7c(F)cccc7F)c7ccc4[nH]7)C=C6)C=C5)cc3)cc2F)c1
REMARK SMILES IDX 17 1 18 2 19 3 20 4 86 5 87 6 88 7 16 8 12 9 13 10 89 11
REMARK SMILES IDX 14 12 15 13 11 14 9 15 8 16 10 18 7 19 6 20 5 21 4 22 3 23
REMARK SMILES IDX 2 24 1 25 21 26 22 27 23 28 24 29 25 30 26 32 27 33 28 34
REMARK SMILES IDX 29 35 30 36 31 38 32 39 33 40 85 41 34 42 84 43 35 44 36 45
REMARK SMILES IDX 37 46 78 47 38 48 83 49 77 50 79 51 39 52 82 53 76 54 75 55
REMARK SMILES IDX 40 57 66 58 49 59 65 60 50 61 53 62 64 63 80 64 51 65 52 66
REMARK SMILES IDX 63 68 81 69 54 70 41 71 42 72 47 73 43 74 44 75 46 76 48 77
REMARK SMILES IDX 45 78 67 79 68 80 73 81 69 82 70 83 72 84 74 85 71 86 55 87
REMARK SMILES IDX 56 88 61 89 57 90 58 91 60 92 62 93 59 94
REMARK H PARENT 8 17 25 31 29 37 79 56 53 67
REMARK Flexibility Score: inf
ROOT
ATOM      1  C   UNL A   1      39.658  30.706  34.232  1.00  0.00     0.018 A 
ATOM      2  C   UNL A   1      40.064  31.957  34.728  1.00  0.00     0.012 A 
ATOM      3  C   UNL A   1      39.197  33.057  34.761  1.00  0.00     0.005 A 
ATOM      4  C   UNL A   1      37.908  32.975  34.232  1.00  0.00    -0.033 A 
ATOM      5  C   UNL A   1      37.482  31.727  33.754  1.00  0.00     0.044 A 
ATOM      6  C   UNL A   1      38.335  30.619  33.774  1.00  0.00     0.131 A 
ATOM      7  F   UNL A   1      37.837  29.450  33.339  1.00  0.00    -0.206 F 
ENDROOT
BRANCH   1   8
ATOM      8  C   UNL A   1      40.604  29.567  34.185  1.00  0.00    -0.012 A 
ATOM      9  C   UNL A   1      41.839  27.772  35.269  1.00  0.00     0.133 A 
ATOM     10  C   UNL A   1      42.373  27.353  34.056  1.00  0.00     0.047 A 
ATOM     11  C   UNL A   1      40.971  28.864  35.345  1.00  0.00     0.056 A 
ATOM     12  C   UNL A   1      42.024  28.031  32.895  1.00  0.00     0.004 A 
ATOM     13  C   UNL A   1      41.158  29.129  32.963  1.00  0.00     0.009 A 
BRANCH   9  14
ATOM     14  O   UNL A   1      42.312  27.131  36.423  1.00  0.00    -0.410 OA
BRANCH  14  15
ATOM     15  C   UNL A   1      41.532  26.130  36.980  1.00  0.00     0.412 C 
ATOM     16  N   UNL A   1      42.064  24.883  36.798  1.00  0.00    -0.321 N 
ATOM     17  H   UNL A   1      41.550  24.126  37.162  1.00  0.00     0.167 HD
ATOM     18  O   UNL A   1      40.470  26.284  37.569  1.00  0.00    -0.224 OA
BRANCH  16  19
ATOM     19  C   UNL A   1      43.306  24.563  36.123  1.00  0.00     0.119 C 
BRANCH  19  20
ATOM     20  C   UNL A   1      43.069  23.812  34.813  1.00  0.00     0.021 C 
BRANCH  20  21
ATOM     21  C   UNL A   1      44.281  23.758  33.875  1.00  0.00     0.002 C 
BRANCH  21  22
ATOM     22  C   UNL A   1      45.421  22.842  34.331  1.00  0.00     0.000 C 
BRANCH  22  23
ATOM     23  C   UNL A   1      44.991  21.446  34.795  1.00  0.00    -0.000 C 
BRANCH  23  24
ATOM     24  C   UNL A   1      46.079  20.625  35.491  1.00  0.00    -0.003 C 
ATOM     25  C   UNL A   1      46.148  20.865  36.993  1.00  0.00     0.004 C 
ENDBRANCH  23  24
ENDBRANCH  22  23
ENDBRANCH  21  22
ENDBRANCH  20  21
ENDBRANCH  19  20
ENDBRANCH  16  19
ENDBRANCH  14  15
ENDBRANCH   9  14
ENDBRANCH   1   8
BRANCH   4  26
ATOM     26  C   UNL A   1      36.980  34.174  34.122  1.00  0.00     0.105 C 
ATOM     27  C   UNL A   1      36.808  34.753  32.718  1.00  0.00     0.023 C 
BRANCH  26  28
ATOM     28  C   UNL A   1      35.672  34.006  34.909  1.00  0.00     0.227 C 
ATOM     29  O   UNL A   1      35.706  33.889  36.140  1.00  0.00    -0.274 OA
ATOM     30  N   UNL A   1      34.436  33.975  34.340  1.00  0.00    -0.356 N 
ATOM     31  H   UNL A   1      33.698  33.917  34.990  1.00  0.00     0.163 HD
BRANCH  30  32
ATOM     32  C   UNL A   1      34.000  34.011  32.958  1.00  0.00     0.117 C 
BRANCH  32  33
ATOM     33  C   UNL A   1      33.194  35.265  32.634  1.00  0.00     0.042 C 
BRANCH  33  34
ATOM     34  C   UNL A   1      33.564  35.913  31.307  1.00  0.00     0.118 C 
BRANCH  34  35
ATOM     35  N   UNL A   1      32.914  35.263  30.175  1.00  0.00    -0.352 N 
ATOM     36  C   UNL A   1      33.402  34.369  29.254  1.00  0.00     0.251 C 
ATOM     37  H   UNL A   1      31.968  35.504  30.052  1.00  0.00     0.163 HD
ATOM     38  O   UNL A   1      32.728  34.118  28.257  1.00  0.00    -0.269 OA
BRANCH  36  39
ATOM     39  C   UNL A   1      34.718  33.714  29.428  1.00  0.00     0.039 A 
ATOM     40  C   UNL A   1      35.816  34.214  28.718  1.00  0.00     0.014 A 
ATOM     41  C   UNL A   1      34.875  32.578  30.226  1.00  0.00     0.014 A 
ATOM     42  C   UNL A   1      37.070  33.611  28.848  1.00  0.00     0.010 A 
ATOM     43  C   UNL A   1      36.140  32.026  30.419  1.00  0.00     0.010 A 
ATOM     44  C   UNL A   1      37.249  32.529  29.723  1.00  0.00    -0.014 A 
BRANCH  44  45
ATOM     45  C   UNL A   1      38.581  31.897  29.908  1.00  0.00     0.031 A 
ATOM     46  C   UNL A   1      39.684  32.646  30.607  1.00  0.00     0.074 A 
ATOM     47  C   UNL A   1      38.819  30.675  29.393  1.00  0.00     0.049 A 
ATOM     48  N   UNL A   1      40.933  32.299  30.793  1.00  0.00    -0.248 NA
ATOM     49  C   UNL A   1      39.345  33.973  31.146  1.00  0.00     0.031 C 
ATOM     50  C   UNL A   1      37.849  29.865  28.654  1.00  0.00     0.029 A 
ATOM     51  N   UNL A   1      39.956  29.907  29.402  1.00  0.00    -0.354 N 
ATOM     52  C   UNL A   1      41.530  33.367  31.450  1.00  0.00     0.074 A 
ATOM     53  C   UNL A   1      40.520  34.395  31.587  1.00  0.00     0.031 C 
ATOM     54  C   UNL A   1      38.427  28.709  28.294  1.00  0.00     0.029 A 
ATOM     55  C   UNL A   1      39.816  28.709  28.743  1.00  0.00     0.049 A 
ATOM     56  H   UNL A   1      40.793  30.187  29.837  1.00  0.00     0.167 HD
ATOM     57  C   UNL A   1      42.797  33.476  31.915  1.00  0.00     0.037 A 
ATOM     58  C   UNL A   1      40.708  27.727  28.519  1.00  0.00     0.037 A 
ATOM     59  C   UNL A   1      43.793  32.443  31.801  1.00  0.00     0.049 A 
ATOM     60  C   UNL A   1      42.107  27.868  29.050  1.00  0.00     0.074 A 
ATOM     61  C   UNL A   1      45.088  32.434  32.289  1.00  0.00     0.029 A 
ATOM     62  N   UNL A   1      43.602  31.232  31.152  1.00  0.00    -0.354 N 
ATOM     63  N   UNL A   1      42.640  28.859  29.722  1.00  0.00    -0.248 NA
ATOM     64  C   UNL A   1      43.027  26.749  28.798  1.00  0.00     0.031 C 
ATOM     65  C   UNL A   1      45.693  31.232  31.905  1.00  0.00     0.029 A 
ATOM     66  C   UNL A   1      44.761  30.476  31.214  1.00  0.00     0.049 A 
ATOM     67  H   UNL A   1      42.767  30.952  30.712  1.00  0.00     0.167 HD
ATOM     68  C   UNL A   1      43.947  28.476  29.993  1.00  0.00     0.074 A 
ATOM     69  C   UNL A   1      44.122  27.154  29.427  1.00  0.00     0.031 C 
ATOM     70  C   UNL A   1      44.915  29.158  30.652  1.00  0.00     0.037 A 
BRANCH  57  71
ATOM     71  C   UNL A   1      43.174  34.758  32.600  1.00  0.00     0.057 A 
ATOM     72  C   UNL A   1      43.098  34.900  33.992  1.00  0.00     0.134 A 
ATOM     73  C   UNL A   1      43.648  35.852  31.865  1.00  0.00     0.134 A 
ATOM     74  F   UNL A   1      42.643  33.895  34.754  1.00  0.00    -0.206 F 
ATOM     75  C   UNL A   1      43.452  36.093  34.624  1.00  0.00     0.040 A 
ATOM     76  C   UNL A   1      44.030  37.041  32.489  1.00  0.00     0.040 A 
ATOM     77  F   UNL A   1      43.753  35.781  30.529  1.00  0.00    -0.206 F 
ATOM     78  C   UNL A   1      43.925  37.166  33.872  1.00  0.00     0.006 A 
ENDBRANCH  57  71
BRANCH  58  79
ATOM     79  C   UNL A   1      40.299  26.511  27.773  1.00  0.00     0.057 A 
ATOM     80  C   UNL A   1      40.707  26.304  26.450  1.00  0.00     0.134 A 
ATOM     81  C   UNL A   1      39.493  25.528  28.361  1.00  0.00     0.134 A 
ATOM     82  F   UNL A   1      41.464  27.219  25.827  1.00  0.00    -0.206 F 
ATOM     83  C   UNL A   1      40.315  25.173  25.732  1.00  0.00     0.040 A 
ATOM     84  C   UNL A   1      39.114  24.380  27.663  1.00  0.00     0.040 A 
ATOM     85  F   UNL A   1      39.075  25.664  29.627  1.00  0.00    -0.206 F 
ATOM     86  C   UNL A   1      39.519  24.204  26.342  1.00  0.00     0.006 A 
ENDBRANCH  58  79
BRANCH  70  87
ATOM     87  C   UNL A   1      46.238  28.474  30.824  1.00  0.00     0.057 A 
ATOM     88  C   UNL A   1      47.289  28.657  29.916  1.00  0.00     0.134 A 
ATOM     89  C   UNL A   1      46.475  27.652  31.933  1.00  0.00     0.134 A 
ATOM     90  F   UNL A   1      47.121  29.421  28.827  1.00  0.00    -0.206 F 
ATOM     91  C   UNL A   1      48.524  28.030  30.094  1.00  0.00     0.040 A 
ATOM     92  C   UNL A   1      47.713  27.038  32.135  1.00  0.00     0.040 A 
ATOM     93  F   UNL A   1      45.513  27.441  32.844  1.00  0.00    -0.206 F 
ATOM     94  C   UNL A   1      48.739  27.223  31.210  1.00  0.00     0.006 A 
ENDBRANCH  70  87
ENDBRANCH  44  45
ENDBRANCH  36  39
ENDBRANCH  34  35
ENDBRANCH  33  34
ENDBRANCH  32  33
ENDBRANCH  30  32
ENDBRANCH  26  28
ENDBRANCH   4  26
TORSDOF 20
ENDMDL
MODEL 3
REMARK VINA RESULT:      -9.1      4.982     10.452
REMARK SMILES CCCCCCCNC(=O)Oc1cccc(-c2ccc([C@@H](C)C(=O)NCCCNC(=O)c3ccc(-c4c5nc(c(-c6c(F)cccc6F)c6ccc([nH]6)c(-c6c(F)cccc6F)c6nc(c(-c7c(F)cccc7F)c7ccc4[nH]7)C=C6)C=C5)cc3)cc2F)c1
REMARK SMILES IDX 17 1 18 2 19 3 20 4 86 5 87 6 88 7 16 8 12 9 13 10 89 11
REMARK SMILES IDX 14 12 15 13 11 14 9 15 8 16 10 18 7 19 6 20 5 21 4 22 3 23
REMARK SMILES IDX 2 24 1 25 21 26 22 27 23 28 24 29 25 30 26 32 27 33 28 34
REMARK SMILES IDX 29 35 30 36 31 38 32 39 33 40 85 41 34 42 84 43 35 44 36 45
REMARK SMILES IDX 37 46 78 47 38 48 83 49 77 50 79 51 39 52 82 53 76 54 75 55
REMARK SMILES IDX 40 57 66 58 49 59 65 60 50 61 53 62 64 63 80 64 51 65 52 66
REMARK SMILES IDX 63 68 81 69 54 70 41 71 42 72 47 73 43 74 44 75 46 76 48 77
REMARK SMILES IDX 45 78 67 79 68 80 73 81 69 82 70 83 72 84 74 85 71 86 55 87
REMARK SMILES IDX 56 88 61 89 57 90 58 91 60 92 62 93 59 94
REMARK H PARENT 8 17 25 31 29 37 79 56 53 67
REMARK Flexibility Score: inf
ROOT
ATOM      1  C   UNL A   1      34.684  24.279  24.646  1.00  0.00     0.018 A 
ATOM      2  C   UNL A   1      34.615  25.124  25.767  1.00  0.00     0.012 A 
ATOM      3  C   UNL A   1      34.078  26.415  25.689  1.00  0.00     0.005 A 
ATOM      4  C   UNL A   1      33.652  26.946  24.471  1.00  0.00    -0.033 A 
ATOM      5  C   UNL A   1      33.693  26.107  23.348  1.00  0.00     0.044 A 
ATOM      6  C   UNL A   1      34.180  24.799  23.444  1.00  0.00     0.131 A 
ATOM      7  F   UNL A   1      34.147  24.046  22.334  1.00  0.00    -0.206 F 
ENDROOT
BRANCH   1   8
ATOM      8  C   UNL A   1      35.281  22.928  24.751  1.00  0.00    -0.012 A 
ATOM      9  C   UNL A   1      35.073  20.515  24.993  1.00  0.00     0.133 A 
ATOM     10  C   UNL A   1      36.450  20.347  24.892  1.00  0.00     0.047 A 
ATOM     11  C   UNL A   1      34.488  21.782  24.931  1.00  0.00     0.056 A 
ATOM     12  C   UNL A   1      37.255  21.464  24.713  1.00  0.00     0.004 A 
ATOM     13  C   UNL A   1      36.676  22.737  24.654  1.00  0.00     0.009 A 
BRANCH   9  14
ATOM     14  O   UNL A   1      34.317  19.372  25.289  1.00  0.00    -0.410 OA
BRANCH  14  15
ATOM     15  C   UNL A   1      34.342  18.321  24.387  1.00  0.00     0.412 C 
ATOM     16  N   UNL A   1      33.240  18.294  23.577  1.00  0.00    -0.321 N 
ATOM     17  H   UNL A   1      33.193  17.562  22.919  1.00  0.00     0.167 HD
ATOM     18  O   UNL A   1      35.220  17.473  24.288  1.00  0.00    -0.224 OA
BRANCH  16  19
ATOM     19  C   UNL A   1      32.135  19.231  23.589  1.00  0.00     0.119 C 
BRANCH  19  20
ATOM     20  C   UNL A   1      32.067  20.052  22.300  1.00  0.00     0.021 C 
BRANCH  20  21
ATOM     21  C   UNL A   1      31.980  21.568  22.509  1.00  0.00     0.002 C 
BRANCH  21  22
ATOM     22  C   UNL A   1      31.678  22.015  23.943  1.00  0.00     0.000 C 
BRANCH  22  23
ATOM     23  C   UNL A   1      31.097  23.426  24.079  1.00  0.00    -0.000 C 
BRANCH  23  24
ATOM     24  C   UNL A   1      30.842  23.894  25.514  1.00  0.00    -0.003 C 
ATOM     25  C   UNL A   1      30.431  25.356  25.607  1.00  0.00     0.004 C 
ENDBRANCH  23  24
ENDBRANCH  22  23
ENDBRANCH  21  22
ENDBRANCH  20  21
ENDBRANCH  19  20
ENDBRANCH  16  19
ENDBRANCH  14  15
ENDBRANCH   9  14
ENDBRANCH   1   8
BRANCH   4  26
ATOM     26  C   UNL A   1      33.188  28.386  24.312  1.00  0.00     0.105 C 
ATOM     27  C   UNL A   1      33.369  28.991  22.921  1.00  0.00     0.023 C 
BRANCH  26  28
ATOM     28  C   UNL A   1      31.821  28.659  24.956  1.00  0.00     0.227 C 
ATOM     29  O   UNL A   1      30.795  28.603  24.266  1.00  0.00    -0.274 OA
ATOM     30  N   UNL A   1      31.642  28.968  26.269  1.00  0.00    -0.356 N 
ATOM     31  H   UNL A   1      30.697  29.059  26.533  1.00  0.00     0.163 HD
BRANCH  30  32
ATOM     32  C   UNL A   1      32.578  29.190  27.352  1.00  0.00     0.117 C 
BRANCH  32  33
ATOM     33  C   UNL A   1      33.759  30.061  26.932  1.00  0.00     0.042 C 
BRANCH  33  34
ATOM     34  C   UNL A   1      35.063  29.721  27.642  1.00  0.00     0.118 C 
BRANCH  34  35
ATOM     35  N   UNL A   1      35.142  30.322  28.967  1.00  0.00    -0.352 N 
ATOM     36  C   UNL A   1      36.165  30.345  29.883  1.00  0.00     0.251 C 
ATOM     37  H   UNL A   1      34.325  30.790  29.254  1.00  0.00     0.163 HD
ATOM     38  O   UNL A   1      35.931  30.729  31.026  1.00  0.00    -0.269 OA
BRANCH  36  39
ATOM     39  C   UNL A   1      37.535  29.907  29.527  1.00  0.00     0.039 A 
ATOM     40  C   UNL A   1      37.944  30.002  28.192  1.00  0.00     0.014 A 
ATOM     41  C   UNL A   1      38.396  29.344  30.472  1.00  0.00     0.014 A 
ATOM     42  C   UNL A   1      39.224  29.585  27.819  1.00  0.00     0.010 A 
ATOM     43  C   UNL A   1      39.700  29.003  30.117  1.00  0.00     0.010 A 
ATOM     44  C   UNL A   1      40.125  29.108  28.784  1.00  0.00    -0.014 A 
BRANCH  44  45
ATOM     45  C   UNL A   1      41.505  28.697  28.418  1.00  0.00     0.031 A 
ATOM     46  C   UNL A   1      41.797  27.266  28.054  1.00  0.00     0.074 A 
ATOM     47  C   UNL A   1      42.506  29.596  28.472  1.00  0.00     0.049 A 
ATOM     48  N   UNL A   1      42.945  26.697  27.786  1.00  0.00    -0.248 NA
ATOM     49  C   UNL A   1      40.649  26.345  28.012  1.00  0.00     0.031 C 
ATOM     50  C   UNL A   1      42.363  31.001  28.854  1.00  0.00     0.029 A 
ATOM     51  N   UNL A   1      43.848  29.455  28.217  1.00  0.00    -0.354 N 
ATOM     52  C   UNL A   1      42.661  25.356  27.563  1.00  0.00     0.074 A 
ATOM     53  C   UNL A   1      41.240  25.185  27.775  1.00  0.00     0.031 C 
ATOM     54  C   UNL A   1      43.563  31.598  28.794  1.00  0.00     0.029 A 
ATOM     55  C   UNL A   1      44.567  30.611  28.406  1.00  0.00     0.049 A 
ATOM     56  H   UNL A   1      44.256  28.608  27.928  1.00  0.00     0.167 HD
ATOM     57  C   UNL A   1      43.503  24.361  27.195  1.00  0.00     0.037 A 
ATOM     58  C   UNL A   1      45.887  30.847  28.288  1.00  0.00     0.037 A 
ATOM     59  C   UNL A   1      44.912  24.537  26.958  1.00  0.00     0.049 A 
ATOM     60  C   UNL A   1      46.800  29.728  27.873  1.00  0.00     0.074 A 
ATOM     61  C   UNL A   1      45.839  23.604  26.528  1.00  0.00     0.029 A 
ATOM     62  N   UNL A   1      45.597  25.731  27.132  1.00  0.00    -0.354 N 
ATOM     63  N   UNL A   1      46.508  28.478  27.607  1.00  0.00    -0.248 NA
ATOM     64  C   UNL A   1      48.227  30.054  27.733  1.00  0.00     0.031 C 
ATOM     65  C   UNL A   1      47.092  24.224  26.476  1.00  0.00     0.029 A 
ATOM     66  C   UNL A   1      46.937  25.553  26.832  1.00  0.00     0.049 A 
ATOM     67  H   UNL A   1      45.190  26.578  27.425  1.00  0.00     0.167 HD
ATOM     68  C   UNL A   1      47.706  27.875  27.247  1.00  0.00     0.074 A 
ATOM     69  C   UNL A   1      48.727  28.900  27.313  1.00  0.00     0.031 C 
ATOM     70  C   UNL A   1      47.939  26.587  26.895  1.00  0.00     0.037 A 
BRANCH  57  71
ATOM     71  C   UNL A   1      42.916  22.990  27.017  1.00  0.00     0.057 A 
ATOM     72  C   UNL A   1      42.685  22.446  25.747  1.00  0.00     0.134 A 
ATOM     73  C   UNL A   1      42.607  22.192  28.126  1.00  0.00     0.134 A 
ATOM     74  F   UNL A   1      42.949  23.161  24.643  1.00  0.00    -0.206 F 
ATOM     75  C   UNL A   1      42.141  21.171  25.586  1.00  0.00     0.040 A 
ATOM     76  C   UNL A   1      42.088  20.905  27.978  1.00  0.00     0.040 A 
ATOM     77  F   UNL A   1      42.810  22.648  29.371  1.00  0.00    -0.206 F 
ATOM     78  C   UNL A   1      41.846  20.394  26.704  1.00  0.00     0.006 A 
ENDBRANCH  57  71
BRANCH  58  79
ATOM     79  C   UNL A   1      46.423  32.207  28.546  1.00  0.00     0.057 A 
ATOM     80  C   UNL A   1      46.470  33.169  27.531  1.00  0.00     0.134 A 
ATOM     81  C   UNL A   1      46.899  32.578  29.809  1.00  0.00     0.134 A 
ATOM     82  F   UNL A   1      46.045  32.866  26.295  1.00  0.00    -0.206 F 
ATOM     83  C   UNL A   1      46.987  34.445  27.755  1.00  0.00     0.040 A 
ATOM     84  C   UNL A   1      47.397  33.859  30.054  1.00  0.00     0.040 A 
ATOM     85  F   UNL A   1      46.876  31.704  30.826  1.00  0.00    -0.206 F 
ATOM     86  C   UNL A   1      47.448  34.794  29.023  1.00  0.00     0.006 A 
ENDBRANCH  58  79
BRANCH  70  87
ATOM     87  C   UNL A   1      49.345  26.223  26.521  1.00  0.00     0.057 A 
ATOM     88  C   UNL A   1      49.854  26.461  25.238  1.00  0.00     0.134 A 
ATOM     89  C   UNL A   1      50.211  25.663  27.469  1.00  0.00     0.134 A 
ATOM     90  F   UNL A   1      49.071  26.983  24.282  1.00  0.00    -0.206 F 
ATOM     91  C   UNL A   1      51.170  26.136  24.905  1.00  0.00     0.040 A 
ATOM     92  C   UNL A   1      51.536  25.356  27.155  1.00  0.00     0.040 A 
ATOM     93  F   UNL A   1      49.787  25.417  28.718  1.00  0.00    -0.206 F 
ATOM     94  C   UNL A   1      52.016  25.588  25.867  1.00  0.00     0.006 A 
ENDBRANCH  70  87
ENDBRANCH  44  45
ENDBRANCH  36  39
ENDBRANCH  34  35
ENDBRANCH  33  34
ENDBRANCH  32  33
ENDBRANCH  30  32
ENDBRANCH  26  28
ENDBRANCH   4  26
TORSDOF 20
ENDMDL
