MODEL 1
REMARK VINA RESULT:     -11.8      0.000      0.000
REMARK SMILES O=C(NCCCNC(=O)[C@H]1C[C@@H](O)CN1C(=O)CCc1ccc(Cl)cc1Cl)c1ccc(-c2c3nc(c(-c4c(F)cccc4F)c4ccc([nH]4)c(-c4c(F)cccc4F)c4nc(c(-c5c(F)cccc5F)c5ccc2[nH]5)C=C4)C=C3)cc1
REMARK SMILES IDX 6 1 5 2 4 3 3 4 1 5 2 6 28 8 29 9 81 10 30 11 80 12 31 13
REMARK SMILES IDX 32 14 33 15 74 16 34 17 79 18 73 19 75 20 35 21 78 22 72 23
REMARK SMILES IDX 71 24 36 26 62 27 45 28 61 29 46 30 49 31 60 32 76 33 47 34
REMARK SMILES IDX 48 35 59 37 77 38 50 39 37 40 38 41 43 42 39 43 40 44 42 45
REMARK SMILES IDX 44 46 41 47 63 48 64 49 69 50 65 51 66 52 68 53 70 54 67 55
REMARK SMILES IDX 51 56 52 57 57 58 53 59 54 60 56 61 58 62 55 63 7 64 8 65
REMARK SMILES IDX 9 67 10 68 11 69 15 70 12 71 14 72 16 73 17 74 18 75 19 76
REMARK SMILES IDX 20 77 21 78 26 79 22 80 25 81 27 82 23 83 24 84 13 85
REMARK H PARENT 3 7 75 25 49 36 7 66 13 86
REMARK Flexibility Score: inf
ROOT
ATOM      1  C   UNL A   1      36.766  20.840  24.717  1.00  0.00     0.117 C 
ENDROOT
BRANCH   1   2
ATOM      2  C   UNL A   1      37.828  19.785  24.929  1.00  0.00     0.042 C 
BRANCH   2   3
ATOM      3  C   UNL A   1      38.934  20.284  25.836  1.00  0.00     0.118 C 
BRANCH   3   4
ATOM      4  N   UNL A   1      40.081  19.374  25.855  1.00  0.00    -0.352 N 
ATOM      5  O   UNL A   1      42.250  18.777  25.700  1.00  0.00    -0.269 OA
ATOM      6  C   UNL A   1      41.424  19.626  26.007  1.00  0.00     0.251 C 
ATOM      7  H   UNL A   1      39.852  18.423  25.737  1.00  0.00     0.163 HD
BRANCH   6   8
ATOM      8  C   UNL A   1      41.859  20.930  26.542  1.00  0.00     0.039 A 
ATOM      9  C   UNL A   1      41.878  21.132  27.919  1.00  0.00     0.014 A 
ATOM     10  C   UNL A   1      42.254  21.952  25.676  1.00  0.00     0.014 A 
ATOM     11  C   UNL A   1      42.053  22.405  28.422  1.00  0.00     0.010 A 
ATOM     12  C   UNL A   1      42.595  23.202  26.201  1.00  0.00     0.010 A 
ATOM     13  C   UNL A   1      42.451  23.449  27.575  1.00  0.00    -0.014 A 
BRANCH  13  14
ATOM     14  C   UNL A   1      42.762  24.762  28.188  1.00  0.00     0.031 A 
ATOM     15  C   UNL A   1      44.173  25.153  28.515  1.00  0.00     0.074 A 
ATOM     16  C   UNL A   1      41.747  25.629  28.378  1.00  0.00     0.049 A 
ATOM     17  N   UNL A   1      44.620  26.278  29.011  1.00  0.00    -0.248 NA
ATOM     18  C   UNL A   1      45.222  24.150  28.269  1.00  0.00     0.031 C 
ATOM     19  C   UNL A   1      40.335  25.351  28.090  1.00  0.00     0.029 A 
ATOM     20  N   UNL A   1      41.742  26.927  28.814  1.00  0.00    -0.354 N 
ATOM     21  C   UNL A   1      45.989  26.109  29.169  1.00  0.00     0.074 A 
ATOM     22  C   UNL A   1      46.299  24.763  28.736  1.00  0.00     0.031 C 
ATOM     23  C   UNL A   1      39.617  26.466  28.276  1.00  0.00     0.029 A 
ATOM     24  C   UNL A   1      40.497  27.507  28.786  1.00  0.00     0.049 A 
ATOM     25  H   UNL A   1      42.551  27.398  29.118  1.00  0.00     0.167 HD
ATOM     26  C   UNL A   1      46.899  26.999  29.632  1.00  0.00     0.037 A 
ATOM     27  C   UNL A   1      40.102  28.739  29.148  1.00  0.00     0.037 A 
ATOM     28  C   UNL A   1      46.575  28.344  30.036  1.00  0.00     0.049 A 
ATOM     29  C   UNL A   1      41.129  29.694  29.674  1.00  0.00     0.074 A 
ATOM     30  C   UNL A   1      47.424  29.337  30.490  1.00  0.00     0.029 A 
ATOM     31  N   UNL A   1      45.295  28.883  30.038  1.00  0.00    -0.354 N 
ATOM     32  N   UNL A   1      42.423  29.527  29.803  1.00  0.00    -0.248 NA
ATOM     33  C   UNL A   1      40.642  31.006  30.112  1.00  0.00     0.031 C 
ATOM     34  C   UNL A   1      46.652  30.458  30.816  1.00  0.00     0.029 A 
ATOM     35  C   UNL A   1      45.329  30.186  30.506  1.00  0.00     0.049 A 
ATOM     36  H   UNL A   1      44.482  28.408  29.749  1.00  0.00     0.167 HD
ATOM     37  C   UNL A   1      42.911  30.722  30.309  1.00  0.00     0.074 A 
ATOM     38  C   UNL A   1      41.772  31.609  30.449  1.00  0.00     0.031 C 
ATOM     39  C   UNL A   1      44.185  31.055  30.629  1.00  0.00     0.037 A 
BRANCH  26  40
ATOM     40  C   UNL A   1      48.322  26.534  29.764  1.00  0.00     0.057 A 
ATOM     41  C   UNL A   1      48.807  25.922  30.928  1.00  0.00     0.134 A 
ATOM     42  C   UNL A   1      49.217  26.682  28.696  1.00  0.00     0.134 A 
ATOM     43  F   UNL A   1      48.010  25.761  31.994  1.00  0.00    -0.206 F 
ATOM     44  C   UNL A   1      50.135  25.501  31.033  1.00  0.00     0.040 A 
ATOM     45  C   UNL A   1      50.538  26.239  28.779  1.00  0.00     0.040 A 
ATOM     46  F   UNL A   1      48.820  27.255  27.548  1.00  0.00    -0.206 F 
ATOM     47  C   UNL A   1      51.003  25.653  29.953  1.00  0.00     0.006 A 
ENDBRANCH  26  40
BRANCH  27  48
ATOM     48  C   UNL A   1      38.674  29.126  29.026  1.00  0.00     0.057 A 
ATOM     49  C   UNL A   1      37.813  29.069  30.128  1.00  0.00     0.134 A 
ATOM     50  C   UNL A   1      38.140  29.577  27.813  1.00  0.00     0.134 A 
ATOM     51  F   UNL A   1      38.262  28.636  31.315  1.00  0.00    -0.206 F 
ATOM     52  C   UNL A   1      36.469  29.428  30.023  1.00  0.00     0.040 A 
ATOM     53  C   UNL A   1      36.806  29.968  27.700  1.00  0.00     0.040 A 
ATOM     54  F   UNL A   1      38.917  29.667  26.723  1.00  0.00    -0.206 F 
ATOM     55  C   UNL A   1      35.964  29.886  28.807  1.00  0.00     0.006 A 
ENDBRANCH  27  48
BRANCH  39  56
ATOM     56  C   UNL A   1      44.415  32.458  31.106  1.00  0.00     0.057 A 
ATOM     57  C   UNL A   1      44.389  32.799  32.465  1.00  0.00     0.134 A 
ATOM     58  C   UNL A   1      44.677  33.484  30.187  1.00  0.00     0.134 A 
ATOM     59  F   UNL A   1      44.126  31.867  33.394  1.00  0.00    -0.206 F 
ATOM     60  C   UNL A   1      44.581  34.113  32.890  1.00  0.00     0.040 A 
ATOM     61  C   UNL A   1      44.903  34.796  30.603  1.00  0.00     0.040 A 
ATOM     62  F   UNL A   1      44.724  33.223  28.872  1.00  0.00    -0.206 F 
ATOM     63  C   UNL A   1      44.845  35.115  31.957  1.00  0.00     0.006 A 
ENDBRANCH  39  56
ENDBRANCH  13  14
ENDBRANCH   6   8
ENDBRANCH   3   4
ENDBRANCH   2   3
ENDBRANCH   1   2
BRANCH   1  64
ATOM     64  N   UNL A   1      35.959  21.087  25.903  1.00  0.00    -0.354 N 
ATOM     65  C   UNL A   1      34.753  21.653  26.164  1.00  0.00     0.242 C 
ATOM     66  H   UNL A   1      36.399  20.761  26.723  1.00  0.00     0.163 HD
ATOM     67  O   UNL A   1      34.391  21.543  27.342  1.00  0.00    -0.273 OA
BRANCH  65  68
ATOM     68  C   UNL A   1      33.852  22.375  25.128  1.00  0.00     0.177 C 
ATOM     69  C   UNL A   1      33.166  21.576  24.036  1.00  0.00     0.069 C 
ATOM     70  N   UNL A   1      32.683  22.990  25.783  1.00  0.00    -0.328 N 
ATOM     71  C   UNL A   1      31.910  21.017  24.722  1.00  0.00     0.136 C 
ATOM     72  C   UNL A   1      31.535  22.099  25.733  1.00  0.00     0.152 C 
BRANCH  70  73
ATOM     73  C   UNL A   1      32.678  24.314  26.168  1.00  0.00     0.223 C 
ATOM     74  O   UNL A   1      31.772  24.804  26.840  1.00  0.00    -0.275 OA
BRANCH  73  75
ATOM     75  C   UNL A   1      33.906  25.146  25.826  1.00  0.00     0.105 C 
BRANCH  75  76
ATOM     76  C   UNL A   1      33.678  26.026  24.582  1.00  0.00     0.047 C 
BRANCH  76  77
ATOM     77  C   UNL A   1      33.147  27.419  24.877  1.00  0.00    -0.029 A 
ATOM     78  C   UNL A   1      33.960  28.312  25.604  1.00  0.00     0.007 A 
ATOM     79  C   UNL A   1      31.844  27.831  24.543  1.00  0.00     0.045 A 
ATOM     80  C   UNL A   1      33.452  29.531  26.066  1.00  0.00     0.021 A 
ATOM     81  C   UNL A   1      31.339  29.053  25.003  1.00  0.00     0.041 A 
ATOM     82  Cl  UNL A   1      30.776  26.850  23.605  1.00  0.00    -0.084 Cl
ATOM     83  C   UNL A   1      32.135  29.881  25.785  1.00  0.00     0.042 A 
ATOM     84  Cl  UNL A   1      31.472  31.323  26.449  1.00  0.00    -0.084 Cl
ENDBRANCH  76  77
ENDBRANCH  75  76
ENDBRANCH  73  75
ENDBRANCH  70  73
BRANCH  71  85
ATOM     85  O   UNL A   1      32.114  19.786  25.400  1.00  0.00    -0.391 OA
ATOM     86  H   UNL A   1      32.644  19.194  24.844  1.00  0.00     0.211 HD
ENDBRANCH  71  85
ENDBRANCH  65  68
ENDBRANCH   1  64
TORSDOF 15
ENDMDL
MODEL 2
REMARK VINA RESULT:     -11.6      0.334      6.192
REMARK SMILES O=C(NCCCNC(=O)[C@H]1C[C@@H](O)CN1C(=O)CCc1ccc(Cl)cc1Cl)c1ccc(-c2c3nc(c(-c4c(F)cccc4F)c4ccc([nH]4)c(-c4c(F)cccc4F)c4nc(c(-c5c(F)cccc5F)c5ccc2[nH]5)C=C4)C=C3)cc1
REMARK SMILES IDX 6 1 5 2 4 3 3 4 1 5 2 6 28 8 29 9 81 10 30 11 80 12 31 13
REMARK SMILES IDX 32 14 33 15 74 16 34 17 79 18 73 19 75 20 35 21 78 22 72 23
REMARK SMILES IDX 71 24 36 26 62 27 45 28 61 29 46 30 49 31 60 32 76 33 47 34
REMARK SMILES IDX 48 35 59 37 77 38 50 39 37 40 38 41 43 42 39 43 40 44 42 45
REMARK SMILES IDX 44 46 41 47 63 48 64 49 69 50 65 51 66 52 68 53 70 54 67 55
REMARK SMILES IDX 51 56 52 57 57 58 53 59 54 60 56 61 58 62 55 63 7 64 8 65
REMARK SMILES IDX 9 67 10 68 11 69 15 70 12 71 14 72 16 73 17 74 18 75 19 76
REMARK SMILES IDX 20 77 21 78 26 79 22 80 25 81 27 82 23 83 24 84 13 85
REMARK H PARENT 3 7 75 25 49 36 7 66 13 86
REMARK Flexibility Score: inf
ROOT
ATOM      1  C   UNL A   1      36.624  20.727  24.735  1.00  0.00     0.117 C 
ENDROOT
BRANCH   1   2
ATOM      2  C   UNL A   1      37.720  19.717  24.984  1.00  0.00     0.042 C 
BRANCH   2   3
ATOM      3  C   UNL A   1      38.961  20.372  25.555  1.00  0.00     0.118 C 
BRANCH   3   4
ATOM      4  N   UNL A   1      40.022  19.398  25.822  1.00  0.00    -0.352 N 
ATOM      5  O   UNL A   1      42.140  18.651  26.026  1.00  0.00    -0.269 OA
ATOM      6  C   UNL A   1      41.350  19.580  26.130  1.00  0.00     0.251 C 
ATOM      7  H   UNL A   1      39.738  18.457  25.772  1.00  0.00     0.163 HD
BRANCH   6   8
ATOM      8  C   UNL A   1      41.812  20.905  26.583  1.00  0.00     0.039 A 
ATOM      9  C   UNL A   1      41.781  21.212  27.941  1.00  0.00     0.014 A 
ATOM     10  C   UNL A   1      42.283  21.843  25.662  1.00  0.00     0.014 A 
ATOM     11  C   UNL A   1      41.985  22.513  28.354  1.00  0.00     0.010 A 
ATOM     12  C   UNL A   1      42.649  23.117  26.105  1.00  0.00     0.010 A 
ATOM     13  C   UNL A   1      42.458  23.474  27.449  1.00  0.00    -0.014 A 
BRANCH  13  14
ATOM     14  C   UNL A   1      42.794  24.818  27.974  1.00  0.00     0.031 A 
ATOM     15  C   UNL A   1      41.724  25.830  28.262  1.00  0.00     0.074 A 
ATOM     16  C   UNL A   1      44.085  25.084  28.255  1.00  0.00     0.049 A 
ATOM     17  N   UNL A   1      41.844  27.032  28.764  1.00  0.00    -0.248 NA
ATOM     18  C   UNL A   1      40.339  25.455  27.932  1.00  0.00     0.031 C 
ATOM     19  C   UNL A   1      45.207  24.168  28.016  1.00  0.00     0.029 A 
ATOM     20  N   UNL A   1      44.673  26.175  28.838  1.00  0.00    -0.354 N 
ATOM     21  C   UNL A   1      40.564  27.569  28.779  1.00  0.00     0.074 A 
ATOM     22  C   UNL A   1      39.682  26.570  28.215  1.00  0.00     0.031 C 
ATOM     23  C   UNL A   1      46.327  24.699  28.523  1.00  0.00     0.029 A 
ATOM     24  C   UNL A   1      46.024  26.026  29.035  1.00  0.00     0.049 A 
ATOM     25  H   UNL A   1      44.175  26.986  29.091  1.00  0.00     0.167 HD
ATOM     26  C   UNL A   1      40.166  28.785  29.226  1.00  0.00     0.037 A 
ATOM     27  C   UNL A   1      46.927  26.875  29.556  1.00  0.00     0.037 A 
ATOM     28  C   UNL A   1      41.056  29.758  29.807  1.00  0.00     0.049 A 
ATOM     29  C   UNL A   1      46.459  28.219  30.023  1.00  0.00     0.074 A 
ATOM     30  C   UNL A   1      40.753  31.007  30.320  1.00  0.00     0.029 A 
ATOM     31  N   UNL A   1      42.428  29.592  29.948  1.00  0.00    -0.354 N 
ATOM     32  N   UNL A   1      45.243  28.707  30.047  1.00  0.00    -0.248 NA
ATOM     33  C   UNL A   1      47.489  29.132  30.530  1.00  0.00     0.031 C 
ATOM     34  C   UNL A   1      41.947  31.616  30.723  1.00  0.00     0.029 A 
ATOM     35  C   UNL A   1      42.987  30.723  30.520  1.00  0.00     0.049 A 
ATOM     36  H   UNL A   1      42.929  28.787  29.682  1.00  0.00     0.167 HD
ATOM     37  C   UNL A   1      45.355  29.975  30.598  1.00  0.00     0.074 A 
ATOM     38  C   UNL A   1      46.758  30.171  30.906  1.00  0.00     0.031 C 
ATOM     39  C   UNL A   1      44.385  30.894  30.828  1.00  0.00     0.037 A 
BRANCH  26  40
ATOM     40  C   UNL A   1      38.716  29.145  29.066  1.00  0.00     0.057 A 
ATOM     41  C   UNL A   1      37.806  29.079  30.129  1.00  0.00     0.134 A 
ATOM     42  C   UNL A   1      38.228  29.586  27.829  1.00  0.00     0.134 A 
ATOM     43  F   UNL A   1      38.201  28.653  31.338  1.00  0.00    -0.206 F 
ATOM     44  C   UNL A   1      36.459  29.413  29.960  1.00  0.00     0.040 A 
ATOM     45  C   UNL A   1      36.892  29.949  27.655  1.00  0.00     0.040 A 
ATOM     46  F   UNL A   1      39.045  29.678  26.767  1.00  0.00    -0.206 F 
ATOM     47  C   UNL A   1      36.000  29.855  28.721  1.00  0.00     0.006 A 
ENDBRANCH  26  40
BRANCH  27  48
ATOM     48  C   UNL A   1      48.353  26.473  29.655  1.00  0.00     0.057 A 
ATOM     49  C   UNL A   1      48.829  25.765  30.763  1.00  0.00     0.134 A 
ATOM     50  C   UNL A   1      49.269  26.773  28.639  1.00  0.00     0.134 A 
ATOM     51  F   UNL A   1      48.002  25.456  31.774  1.00  0.00    -0.206 F 
ATOM     52  C   UNL A   1      50.167  25.385  30.867  1.00  0.00     0.040 A 
ATOM     53  C   UNL A   1      50.602  26.373  28.714  1.00  0.00     0.040 A 
ATOM     54  F   UNL A   1      48.872  27.438  27.544  1.00  0.00    -0.206 F 
ATOM     55  C   UNL A   1      51.057  25.684  29.837  1.00  0.00     0.006 A 
ENDBRANCH  27  48
BRANCH  39  56
ATOM     56  C   UNL A   1      44.808  32.168  31.495  1.00  0.00     0.057 A 
ATOM     57  C   UNL A   1      45.209  33.296  30.767  1.00  0.00     0.134 A 
ATOM     58  C   UNL A   1      44.804  32.269  32.893  1.00  0.00     0.134 A 
ATOM     59  F   UNL A   1      45.253  33.259  29.426  1.00  0.00    -0.206 F 
ATOM     60  C   UNL A   1      45.623  34.465  31.405  1.00  0.00     0.040 A 
ATOM     61  C   UNL A   1      45.184  33.444  33.541  1.00  0.00     0.040 A 
ATOM     62  F   UNL A   1      44.423  31.228  33.650  1.00  0.00    -0.206 F 
ATOM     63  C   UNL A   1      45.605  34.543  32.797  1.00  0.00     0.006 A 
ENDBRANCH  39  56
ENDBRANCH  13  14
ENDBRANCH   6   8
ENDBRANCH   3   4
ENDBRANCH   2   3
ENDBRANCH   1   2
BRANCH   1  64
ATOM     64  N   UNL A   1      35.874  21.066  25.935  1.00  0.00    -0.354 N 
ATOM     65  C   UNL A   1      34.709  21.708  26.210  1.00  0.00     0.242 C 
ATOM     66  H   UNL A   1      36.323  20.750  26.753  1.00  0.00     0.163 HD
ATOM     67  O   UNL A   1      34.382  21.666  27.403  1.00  0.00    -0.273 OA
BRANCH  65  68
ATOM     68  C   UNL A   1      33.813  22.435  25.174  1.00  0.00     0.177 C 
ATOM     69  C   UNL A   1      33.143  21.644  24.066  1.00  0.00     0.069 C 
ATOM     70  N   UNL A   1      32.633  23.034  25.825  1.00  0.00    -0.328 N 
ATOM     71  C   UNL A   1      31.884  21.069  24.734  1.00  0.00     0.136 C 
ATOM     72  C   UNL A   1      31.492  22.135  25.753  1.00  0.00     0.152 C 
BRANCH  70  73
ATOM     73  C   UNL A   1      32.614  24.353  26.225  1.00  0.00     0.223 C 
ATOM     74  O   UNL A   1      31.740  24.809  26.961  1.00  0.00    -0.275 OA
BRANCH  73  75
ATOM     75  C   UNL A   1      33.792  25.226  25.814  1.00  0.00     0.105 C 
BRANCH  75  76
ATOM     76  C   UNL A   1      33.477  26.067  24.563  1.00  0.00     0.047 C 
BRANCH  76  77
ATOM     77  C   UNL A   1      33.013  27.485  24.851  1.00  0.00    -0.029 A 
ATOM     78  C   UNL A   1      33.816  28.306  25.668  1.00  0.00     0.007 A 
ATOM     79  C   UNL A   1      31.771  27.990  24.421  1.00  0.00     0.045 A 
ATOM     80  C   UNL A   1      33.349  29.546  26.120  1.00  0.00     0.021 A 
ATOM     81  C   UNL A   1      31.308  29.231  24.871  1.00  0.00     0.041 A 
ATOM     82  Cl  UNL A   1      30.727  27.102  23.371  1.00  0.00    -0.084 Cl
ATOM     83  C   UNL A   1      32.086  29.988  25.740  1.00  0.00     0.042 A 
ATOM     84  Cl  UNL A   1      31.461  31.455  26.386  1.00  0.00    -0.084 Cl
ENDBRANCH  76  77
ENDBRANCH  75  76
ENDBRANCH  73  75
ENDBRANCH  70  73
BRANCH  71  85
ATOM     85  O   UNL A   1      32.091  19.831  25.399  1.00  0.00    -0.391 OA
ATOM     86  H   UNL A   1      33.041  19.632  25.426  1.00  0.00     0.211 HD
ENDBRANCH  71  85
ENDBRANCH  65  68
ENDBRANCH   1  64
TORSDOF 15
ENDMDL
MODEL 3
REMARK VINA RESULT:     -11.6      4.114      9.098
REMARK SMILES O=C(NCCCNC(=O)[C@H]1C[C@@H](O)CN1C(=O)CCc1ccc(Cl)cc1Cl)c1ccc(-c2c3nc(c(-c4c(F)cccc4F)c4ccc([nH]4)c(-c4c(F)cccc4F)c4nc(c(-c5c(F)cccc5F)c5ccc2[nH]5)C=C4)C=C3)cc1
REMARK SMILES IDX 6 1 5 2 4 3 3 4 1 5 2 6 28 8 29 9 81 10 30 11 80 12 31 13
REMARK SMILES IDX 32 14 33 15 74 16 34 17 79 18 73 19 75 20 35 21 78 22 72 23
REMARK SMILES IDX 71 24 36 26 62 27 45 28 61 29 46 30 49 31 60 32 76 33 47 34
REMARK SMILES IDX 48 35 59 37 77 38 50 39 37 40 38 41 43 42 39 43 40 44 42 45
REMARK SMILES IDX 44 46 41 47 63 48 64 49 69 50 65 51 66 52 68 53 70 54 67 55
REMARK SMILES IDX 51 56 52 57 57 58 53 59 54 60 56 61 58 62 55 63 7 64 8 65
REMARK SMILES IDX 9 67 10 68 11 69 15 70 12 71 14 72 16 73 17 74 18 75 19 76
REMARK SMILES IDX 20 77 21 78 26 79 22 80 25 81 27 82 23 83 24 84 13 85
REMARK H PARENT 3 7 75 25 49 36 7 66 13 86
REMARK Flexibility Score: inf
ROOT
ATOM      1  C   UNL A   1      31.553  30.498  26.059  1.00  0.00     0.117 C 
ENDROOT
BRANCH   1   2
ATOM      2  C   UNL A   1      31.400  31.931  26.515  1.00  0.00     0.042 C 
BRANCH   2   3
ATOM      3  C   UNL A   1      32.664  32.442  27.176  1.00  0.00     0.118 C 
BRANCH   3   4
ATOM      4  N   UNL A   1      32.526  33.830  27.623  1.00  0.00    -0.352 N 
ATOM      5  O   UNL A   1      32.704  35.572  29.043  1.00  0.00    -0.269 OA
ATOM      6  C   UNL A   1      33.162  34.515  28.632  1.00  0.00     0.251 C 
ATOM      7  H   UNL A   1      31.868  34.361  27.118  1.00  0.00     0.163 HD
BRANCH   6   8
ATOM      8  C   UNL A   1      34.399  33.961  29.214  1.00  0.00     0.039 A 
ATOM      9  C   UNL A   1      35.632  34.357  28.703  1.00  0.00     0.014 A 
ATOM     10  C   UNL A   1      34.336  33.052  30.273  1.00  0.00     0.014 A 
ATOM     11  C   UNL A   1      36.776  33.679  29.073  1.00  0.00     0.010 A 
ATOM     12  C   UNL A   1      35.517  32.486  30.762  1.00  0.00     0.010 A 
ATOM     13  C   UNL A   1      36.740  32.762  30.133  1.00  0.00    -0.014 A 
BRANCH  13  14
ATOM     14  C   UNL A   1      38.022  32.167  30.581  1.00  0.00     0.031 A 
ATOM     15  C   UNL A   1      38.774  32.732  31.750  1.00  0.00     0.074 A 
ATOM     16  C   UNL A   1      38.458  31.057  29.954  1.00  0.00     0.049 A 
ATOM     17  N   UNL A   1      39.883  32.304  32.297  1.00  0.00    -0.248 NA
ATOM     18  C   UNL A   1      38.223  33.942  32.382  1.00  0.00     0.031 C 
ATOM     19  C   UNL A   1      37.800  30.421  28.807  1.00  0.00     0.029 A 
ATOM     20  N   UNL A   1      39.527  30.240  30.210  1.00  0.00    -0.354 N 
ATOM     21  C   UNL A   1      40.182  33.207  33.310  1.00  0.00     0.074 A 
ATOM     22  C   UNL A   1      39.148  34.220  33.289  1.00  0.00     0.031 C 
ATOM     23  C   UNL A   1      38.428  29.275  28.515  1.00  0.00     0.029 A 
ATOM     24  C   UNL A   1      39.584  29.142  29.388  1.00  0.00     0.049 A 
ATOM     25  H   UNL A   1      40.189  30.422  30.916  1.00  0.00     0.167 HD
ATOM     26  C   UNL A   1      41.224  33.186  34.175  1.00  0.00     0.037 A 
ATOM     27  C   UNL A   1      40.482  28.144  29.328  1.00  0.00     0.037 A 
ATOM     28  C   UNL A   1      42.231  32.155  34.196  1.00  0.00     0.049 A 
ATOM     29  C   UNL A   1      41.634  28.159  30.287  1.00  0.00     0.074 A 
ATOM     30  C   UNL A   1      43.311  32.020  35.051  1.00  0.00     0.029 A 
ATOM     31  N   UNL A   1      42.284  31.082  33.316  1.00  0.00    -0.354 N 
ATOM     32  N   UNL A   1      41.894  29.008  31.250  1.00  0.00    -0.248 NA
ATOM     33  C   UNL A   1      42.618  27.081  30.146  1.00  0.00     0.031 C 
ATOM     34  C   UNL A   1      44.045  30.896  34.655  1.00  0.00     0.029 A 
ATOM     35  C   UNL A   1      43.389  30.294  33.593  1.00  0.00     0.049 A 
ATOM     36  H   UNL A   1      41.630  30.906  32.600  1.00  0.00     0.167 HD
ATOM     37  C   UNL A   1      43.058  28.554  31.851  1.00  0.00     0.074 A 
ATOM     38  C   UNL A   1      43.442  27.344  31.150  1.00  0.00     0.031 C 
ATOM     39  C   UNL A   1      43.747  29.088  32.889  1.00  0.00     0.037 A 
BRANCH  26  40
ATOM     40  C   UNL A   1      41.348  34.330  35.142  1.00  0.00     0.057 A 
ATOM     41  C   UNL A   1      42.009  35.521  34.813  1.00  0.00     0.134 A 
ATOM     42  C   UNL A   1      40.775  34.244  36.417  1.00  0.00     0.134 A 
ATOM     43  F   UNL A   1      42.593  35.666  33.615  1.00  0.00    -0.206 F 
ATOM     44  C   UNL A   1      42.119  36.572  35.728  1.00  0.00     0.040 A 
ATOM     45  C   UNL A   1      40.853  35.298  37.328  1.00  0.00     0.040 A 
ATOM     46  F   UNL A   1      40.122  33.135  36.798  1.00  0.00    -0.206 F 
ATOM     47  C   UNL A   1      41.534  36.464  36.988  1.00  0.00     0.006 A 
ENDBRANCH  26  40
BRANCH  27  48
ATOM     48  C   UNL A   1      40.322  27.060  28.326  1.00  0.00     0.057 A 
ATOM     49  C   UNL A   1      39.522  25.943  28.592  1.00  0.00     0.134 A 
ATOM     50  C   UNL A   1      40.951  27.121  27.077  1.00  0.00     0.134 A 
ATOM     51  F   UNL A   1      38.901  25.822  29.774  1.00  0.00    -0.206 F 
ATOM     52  C   UNL A   1      39.367  24.918  27.658  1.00  0.00     0.040 A 
ATOM     53  C   UNL A   1      40.781  26.118  26.122  1.00  0.00     0.040 A 
ATOM     54  F   UNL A   1      41.721  28.171  26.756  1.00  0.00    -0.206 F 
ATOM     55  C   UNL A   1      39.993  25.007  26.416  1.00  0.00     0.006 A 
ENDBRANCH  27  48
BRANCH  39  56
ATOM     56  C   UNL A   1      44.953  28.330  33.360  1.00  0.00     0.057 A 
ATOM     57  C   UNL A   1      46.227  28.543  32.819  1.00  0.00     0.134 A 
ATOM     58  C   UNL A   1      44.834  27.377  34.380  1.00  0.00     0.134 A 
ATOM     59  F   UNL A   1      46.405  29.429  31.827  1.00  0.00    -0.206 F 
ATOM     60  C   UNL A   1      47.333  27.811  33.252  1.00  0.00     0.040 A 
ATOM     61  C   UNL A   1      45.939  26.663  34.844  1.00  0.00     0.040 A 
ATOM     62  F   UNL A   1      43.642  27.130  34.947  1.00  0.00    -0.206 F 
ATOM     63  C   UNL A   1      47.191  26.872  34.272  1.00  0.00     0.006 A 
ENDBRANCH  39  56
ENDBRANCH  13  14
ENDBRANCH   6   8
ENDBRANCH   3   4
ENDBRANCH   2   3
ENDBRANCH   1   2
BRANCH   1  64
ATOM     64  N   UNL A   1      31.080  30.275  24.701  1.00  0.00    -0.354 N 
ATOM     65  C   UNL A   1      30.746  29.196  23.947  1.00  0.00     0.242 C 
ATOM     66  H   UNL A   1      30.975  31.120  24.204  1.00  0.00     0.163 HD
ATOM     67  O   UNL A   1      30.267  29.483  22.843  1.00  0.00    -0.273 OA
BRANCH  65  68
ATOM     68  C   UNL A   1      30.908  27.713  24.372  1.00  0.00     0.177 C 
ATOM     69  C   UNL A   1      30.248  26.617  23.558  1.00  0.00     0.069 C 
ATOM     70  N   UNL A   1      32.319  27.293  24.292  1.00  0.00    -0.328 N 
ATOM     71  C   UNL A   1      31.229  26.379  22.398  1.00  0.00     0.136 C 
ATOM     72  C   UNL A   1      32.597  26.658  23.015  1.00  0.00     0.152 C 
BRANCH  70  73
ATOM     73  C   UNL A   1      33.150  27.320  25.393  1.00  0.00     0.223 C 
ATOM     74  O   UNL A   1      34.025  28.171  25.541  1.00  0.00    -0.275 OA
BRANCH  73  75
ATOM     75  C   UNL A   1      32.875  26.312  26.501  1.00  0.00     0.105 C 
BRANCH  75  76
ATOM     76  C   UNL A   1      32.751  24.877  25.956  1.00  0.00     0.047 C 
BRANCH  76  77
ATOM     77  C   UNL A   1      34.052  24.093  25.926  1.00  0.00    -0.029 A 
ATOM     78  C   UNL A   1      35.050  24.475  25.006  1.00  0.00     0.007 A 
ATOM     79  C   UNL A   1      34.274  22.941  26.704  1.00  0.00     0.045 A 
ATOM     80  C   UNL A   1      36.181  23.677  24.803  1.00  0.00     0.021 A 
ATOM     81  C   UNL A   1      35.408  22.148  26.501  1.00  0.00     0.041 A 
ATOM     82  Cl  UNL A   1      33.153  22.407  27.904  1.00  0.00    -0.084 Cl
ATOM     83  C   UNL A   1      36.340  22.504  25.533  1.00  0.00     0.042 A 
ATOM     84  Cl  UNL A   1      37.669  21.463  25.203  1.00  0.00    -0.084 Cl
ENDBRANCH  76  77
ENDBRANCH  75  76
ENDBRANCH  73  75
ENDBRANCH  70  73
BRANCH  71  85
ATOM     85  O   UNL A   1      31.029  27.234  21.282  1.00  0.00    -0.391 OA
ATOM     86  H   UNL A   1      30.083  27.275  21.070  1.00  0.00     0.211 HD
ENDBRANCH  71  85
ENDBRANCH  65  68
ENDBRANCH   1  64
TORSDOF 15
ENDMDL
