MODEL 1
REMARK VINA RESULT:     -11.0      0.000      0.000
REMARK SMILES CCC(CC)(NC(=O)CC1([NH3+])CCCC1)C(=O)NCCCNC(=O)c1ccc(-c2c3nc(c(-c4c(F)cccc4F)c4ccc([nH]4)c(-c4c(F)cccc4F)c4nc(c(-c5c(F)cccc5F)c5ccc2[nH]5)C=C4)C=C3)cc1
REMARK SMILES IDX 19 1 18 2 16 3 17 4 3 6 2 7 1 8 4 9 5 10 6 11 7 12 8 14 9 15
REMARK SMILES IDX 10 16 12 17 15 18 13 19 14 20 11 21 20 25 21 26 22 27 23 28
REMARK SMILES IDX 24 30 25 31 26 32 78 33 27 34 77 35 28 36 29 37 30 38 71 39
REMARK SMILES IDX 31 40 76 41 70 42 72 43 32 44 75 45 69 46 68 47 33 49 59 50
REMARK SMILES IDX 42 51 58 52 43 53 46 54 57 55 73 56 44 57 45 58 56 60 74 61
REMARK SMILES IDX 47 62 34 63 35 64 40 65 36 66 37 67 39 68 41 69 38 70 60 71
REMARK SMILES IDX 61 72 66 73 62 74 63 75 65 76 67 77 64 78 48 79 49 80 54 81
REMARK SMILES IDX 50 82 51 83 53 84 55 85 52 86
REMARK H PARENT 18 5 6 13 11 22 11 23 11 24 22 29 72 48 46 59
REMARK Flexibility Score: inf
ROOT
ATOM      1  C   UNL A   1      36.150  20.443  24.870  1.00  0.00     0.117 C 
ENDROOT
BRANCH   1   2
ATOM      2  N   UNL A   1      34.904  19.799  25.255  1.00  0.00    -0.354 N 
ATOM      3  C   UNL A   1      33.664  20.290  25.558  1.00  0.00     0.245 C 
ATOM      4  O   UNL A   1      32.768  19.448  25.668  1.00  0.00    -0.272 OA
ATOM      5  H   UNL A   1      34.965  18.818  25.310  1.00  0.00     0.163 HD
BRANCH   3   6
ATOM      6  C   UNL A   1      33.366  21.818  25.618  1.00  0.00     0.118 C 
BRANCH   6   7
ATOM      7  C   UNL A   1      33.500  22.516  24.234  1.00  0.00     0.035 C 
ATOM      8  C   UNL A   1      32.613  22.044  23.088  1.00  0.00     0.007 C 
ENDBRANCH   6   7
BRANCH   6   9
ATOM      9  C   UNL A   1      34.419  22.411  26.613  1.00  0.00     0.035 C 
ATOM     10  C   UNL A   1      35.203  23.624  26.127  1.00  0.00     0.007 C 
ENDBRANCH   6   9
BRANCH   6  11
ATOM     11  N   UNL A   1      31.975  22.075  26.095  1.00  0.00    -0.342 N 
ATOM     12  C   UNL A   1      31.473  23.158  26.768  1.00  0.00     0.227 C 
ATOM     13  H   UNL A   1      31.325  21.363  25.898  1.00  0.00     0.164 HD
ATOM     14  O   UNL A   1      30.636  22.931  27.647  1.00  0.00    -0.275 OA
BRANCH  12  15
ATOM     15  C   UNL A   1      31.775  24.593  26.352  1.00  0.00     0.168 C 
BRANCH  15  16
ATOM     16  C   UNL A   1      30.713  25.442  25.616  1.00  0.00     0.103 C 
ATOM     17  C   UNL A   1      30.975  26.956  25.525  1.00  0.00     0.069 C 
ATOM     18  C   UNL A   1      30.511  24.972  24.149  1.00  0.00     0.069 C 
ATOM     19  C   UNL A   1      30.447  27.377  24.157  1.00  0.00     0.007 C 
ATOM     20  C   UNL A   1      30.722  26.186  23.258  1.00  0.00     0.007 C 
BRANCH  16  21
ATOM     21  N   UNL A   1      29.408  25.222  26.285  1.00  0.00    -0.352 N 
ATOM     22  H   UNL A   1      28.652  25.369  25.615  1.00  0.00     0.344 HD
ATOM     23  H   UNL A   1      29.308  25.877  27.060  1.00  0.00     0.344 HD
ATOM     24  H   UNL A   1      29.365  24.266  26.640  1.00  0.00     0.344 HD
ENDBRANCH  16  21
ENDBRANCH  15  16
ENDBRANCH  12  15
ENDBRANCH   6  11
ENDBRANCH   3   6
ENDBRANCH   1   2
BRANCH   1  25
ATOM     25  C   UNL A   1      37.392  19.565  24.966  1.00  0.00     0.042 C 
BRANCH  25  26
ATOM     26  C   UNL A   1      38.668  20.274  25.399  1.00  0.00     0.118 C 
BRANCH  26  27
ATOM     27  N   UNL A   1      39.770  19.356  25.622  1.00  0.00    -0.352 N 
ATOM     28  C   UNL A   1      41.058  19.576  26.037  1.00  0.00     0.251 C 
ATOM     29  H   UNL A   1      39.556  18.413  25.443  1.00  0.00     0.163 HD
ATOM     30  O   UNL A   1      41.868  18.656  25.959  1.00  0.00    -0.269 OA
BRANCH  28  31
ATOM     31  C   UNL A   1      41.499  20.890  26.562  1.00  0.00     0.039 A 
ATOM     32  C   UNL A   1      41.357  21.130  27.934  1.00  0.00     0.014 A 
ATOM     33  C   UNL A   1      41.955  21.915  25.729  1.00  0.00     0.014 A 
ATOM     34  C   UNL A   1      41.691  22.378  28.467  1.00  0.00     0.010 A 
ATOM     35  C   UNL A   1      42.367  23.133  26.273  1.00  0.00     0.010 A 
ATOM     36  C   UNL A   1      42.210  23.389  27.643  1.00  0.00    -0.014 A 
BRANCH  36  37
ATOM     37  C   UNL A   1      42.523  24.731  28.199  1.00  0.00     0.031 A 
ATOM     38  C   UNL A   1      43.938  25.084  28.575  1.00  0.00     0.074 A 
ATOM     39  C   UNL A   1      41.538  25.633  28.377  1.00  0.00     0.049 A 
ATOM     40  N   UNL A   1      44.411  26.203  29.065  1.00  0.00    -0.248 NA
ATOM     41  C   UNL A   1      44.954  24.033  28.400  1.00  0.00     0.031 C 
ATOM     42  C   UNL A   1      40.121  25.404  28.096  1.00  0.00     0.029 A 
ATOM     43  N   UNL A   1      41.584  26.926  28.835  1.00  0.00    -0.354 N 
ATOM     44  C   UNL A   1      45.768  25.985  29.269  1.00  0.00     0.074 A 
ATOM     45  C   UNL A   1      46.035  24.612  28.901  1.00  0.00     0.031 C 
ATOM     46  C   UNL A   1      39.435  26.529  28.359  1.00  0.00     0.029 A 
ATOM     47  C   UNL A   1      40.359  27.548  28.848  1.00  0.00     0.049 A 
ATOM     48  H   UNL A   1      42.415  27.365  29.126  1.00  0.00     0.167 HD
ATOM     49  C   UNL A   1      46.714  26.855  29.696  1.00  0.00     0.037 A 
ATOM     50  C   UNL A   1      40.021  28.801  29.207  1.00  0.00     0.037 A 
ATOM     51  C   UNL A   1      46.460  28.231  30.032  1.00  0.00     0.049 A 
ATOM     52  C   UNL A   1      41.093  29.756  29.654  1.00  0.00     0.074 A 
ATOM     53  C   UNL A   1      47.360  29.204  30.429  1.00  0.00     0.029 A 
ATOM     54  N   UNL A   1      45.210  28.830  30.004  1.00  0.00    -0.354 N 
ATOM     55  N   UNL A   1      42.382  29.554  29.779  1.00  0.00    -0.248 NA
ATOM     56  C   UNL A   1      40.663  31.120  29.995  1.00  0.00     0.031 C 
ATOM     57  C   UNL A   1      46.649  30.385  30.670  1.00  0.00     0.029 A 
ATOM     58  C   UNL A   1      45.314  30.157  30.384  1.00  0.00     0.049 A 
ATOM     59  H   UNL A   1      44.371  28.378  29.752  1.00  0.00     0.167 HD
ATOM     60  C   UNL A   1      42.921  30.770  30.180  1.00  0.00     0.074 A 
ATOM     61  C   UNL A   1      41.820  31.707  30.267  1.00  0.00     0.031 C 
ATOM     62  C   UNL A   1      44.212  31.083  30.450  1.00  0.00     0.037 A 
BRANCH  49  63
ATOM     63  C   UNL A   1      48.119  26.340  29.817  1.00  0.00     0.057 A 
ATOM     64  C   UNL A   1      48.592  25.756  31.000  1.00  0.00     0.134 A 
ATOM     65  C   UNL A   1      49.002  26.407  28.732  1.00  0.00     0.134 A 
ATOM     66  F   UNL A   1      47.800  25.674  32.080  1.00  0.00    -0.206 F 
ATOM     67  C   UNL A   1      49.900  25.282  31.109  1.00  0.00     0.040 A 
ATOM     68  C   UNL A   1      50.305  25.912  28.821  1.00  0.00     0.040 A 
ATOM     69  F   UNL A   1      48.614  26.948  27.568  1.00  0.00    -0.206 F 
ATOM     70  C   UNL A   1      50.759  25.354  30.015  1.00  0.00     0.006 A 
ENDBRANCH  49  63
BRANCH  50  71
ATOM     71  C   UNL A   1      38.608  29.243  29.114  1.00  0.00     0.057 A 
ATOM     72  C   UNL A   1      37.769  29.219  30.235  1.00  0.00     0.134 A 
ATOM     73  C   UNL A   1      38.059  29.689  27.906  1.00  0.00     0.134 A 
ATOM     74  F   UNL A   1      38.235  28.784  31.416  1.00  0.00    -0.206 F 
ATOM     75  C   UNL A   1      36.430  29.602  30.155  1.00  0.00     0.040 A 
ATOM     76  C   UNL A   1      36.727  30.096  27.817  1.00  0.00     0.040 A 
ATOM     77  F   UNL A   1      38.812  29.741  26.799  1.00  0.00    -0.206 F 
ATOM     78  C   UNL A   1      35.907  30.048  28.942  1.00  0.00     0.006 A 
ENDBRANCH  50  71
BRANCH  62  79
ATOM     79  C   UNL A   1      44.511  32.506  30.817  1.00  0.00     0.057 A 
ATOM     80  C   UNL A   1      44.793  33.477  29.849  1.00  0.00     0.134 A 
ATOM     81  C   UNL A   1      44.486  32.913  32.157  1.00  0.00     0.134 A 
ATOM     82  F   UNL A   1      44.844  33.148  28.550  1.00  0.00    -0.206 F 
ATOM     83  C   UNL A   1      45.066  34.800  30.203  1.00  0.00     0.040 A 
ATOM     84  C   UNL A   1      44.733  34.237  32.520  1.00  0.00     0.040 A 
ATOM     85  F   UNL A   1      44.213  32.033  33.131  1.00  0.00    -0.206 F 
ATOM     86  C   UNL A   1      45.031  35.183  31.543  1.00  0.00     0.006 A 
ENDBRANCH  62  79
ENDBRANCH  36  37
ENDBRANCH  28  31
ENDBRANCH  26  27
ENDBRANCH  25  26
ENDBRANCH   1  25
TORSDOF 16
ENDMDL
MODEL 2
REMARK VINA RESULT:     -10.9      4.534      9.331
REMARK SMILES CCC(CC)(NC(=O)CC1([NH3+])CCCC1)C(=O)NCCCNC(=O)c1ccc(-c2c3nc(c(-c4c(F)cccc4F)c4ccc([nH]4)c(-c4c(F)cccc4F)c4nc(c(-c5c(F)cccc5F)c5ccc2[nH]5)C=C4)C=C3)cc1
REMARK SMILES IDX 19 1 18 2 16 3 17 4 3 6 2 7 1 8 4 9 5 10 6 11 7 12 8 14 9 15
REMARK SMILES IDX 10 16 12 17 15 18 13 19 14 20 11 21 20 25 21 26 22 27 23 28
REMARK SMILES IDX 24 30 25 31 26 32 78 33 27 34 77 35 28 36 29 37 30 38 71 39
REMARK SMILES IDX 31 40 76 41 70 42 72 43 32 44 75 45 69 46 68 47 33 49 59 50
REMARK SMILES IDX 42 51 58 52 43 53 46 54 57 55 73 56 44 57 45 58 56 60 74 61
REMARK SMILES IDX 47 62 34 63 35 64 40 65 36 66 37 67 39 68 41 69 38 70 60 71
REMARK SMILES IDX 61 72 66 73 62 74 63 75 65 76 67 77 64 78 48 79 49 80 54 81
REMARK SMILES IDX 50 82 51 83 53 84 55 85 52 86
REMARK H PARENT 18 5 6 13 11 22 11 23 11 24 22 29 72 48 46 59
REMARK Flexibility Score: inf
ROOT
ATOM      1  C   UNL A   1      31.014  30.146  25.236  1.00  0.00     0.117 C 
ENDROOT
BRANCH   1   2
ATOM      2  N   UNL A   1      30.660  30.007  23.831  1.00  0.00    -0.354 N 
ATOM      3  C   UNL A   1      30.896  29.023  22.911  1.00  0.00     0.245 C 
ATOM      4  O   UNL A   1      30.294  29.137  21.840  1.00  0.00    -0.272 OA
ATOM      5  H   UNL A   1      30.153  30.770  23.472  1.00  0.00     0.163 HD
BRANCH   3   6
ATOM      6  C   UNL A   1      31.754  27.763  23.240  1.00  0.00     0.118 C 
BRANCH   6   7
ATOM      7  C   UNL A   1      31.125  26.877  24.354  1.00  0.00     0.035 C 
ATOM      8  C   UNL A   1      29.686  26.403  24.187  1.00  0.00     0.007 C 
ENDBRANCH   6   7
BRANCH   6   9
ATOM      9  C   UNL A   1      33.137  28.313  23.721  1.00  0.00     0.035 C 
ATOM     10  C   UNL A   1      33.666  27.763  25.041  1.00  0.00     0.007 C 
ENDBRANCH   6   9
BRANCH   6  11
ATOM     11  N   UNL A   1      31.912  26.894  22.038  1.00  0.00    -0.342 N 
ATOM     12  C   UNL A   1      32.923  26.025  21.720  1.00  0.00     0.227 C 
ATOM     13  H   UNL A   1      31.184  26.952  21.377  1.00  0.00     0.164 HD
ATOM     14  O   UNL A   1      33.263  25.973  20.534  1.00  0.00    -0.275 OA
BRANCH  12  15
ATOM     15  C   UNL A   1      33.495  25.030  22.723  1.00  0.00     0.168 C 
BRANCH  15  16
ATOM     16  C   UNL A   1      33.046  23.551  22.711  1.00  0.00     0.103 C 
ATOM     17  C   UNL A   1      33.951  22.544  23.443  1.00  0.00     0.069 C 
ATOM     18  C   UNL A   1      31.637  23.368  23.342  1.00  0.00     0.069 C 
ATOM     19  C   UNL A   1      33.003  21.525  24.067  1.00  0.00     0.007 C 
ATOM     20  C   UNL A   1      31.773  22.330  24.444  1.00  0.00     0.007 C 
BRANCH  16  21
ATOM     21  N   UNL A   1      32.903  23.128  21.297  1.00  0.00    -0.352 N 
ATOM     22  H   UNL A   1      33.783  22.726  20.971  1.00  0.00     0.344 HD
ATOM     23  H   UNL A   1      32.665  23.936  20.722  1.00  0.00     0.344 HD
ATOM     24  H   UNL A   1      32.163  22.429  21.225  1.00  0.00     0.344 HD
ENDBRANCH  16  21
ENDBRANCH  15  16
ENDBRANCH  12  15
ENDBRANCH   6  11
ENDBRANCH   3   6
ENDBRANCH   1   2
BRANCH   1  25
ATOM     25  C   UNL A   1      31.046  31.577  25.759  1.00  0.00     0.042 C 
BRANCH  25  26
ATOM     26  C   UNL A   1      32.042  31.846  26.879  1.00  0.00     0.118 C 
BRANCH  26  27
ATOM     27  N   UNL A   1      32.146  33.256  27.207  1.00  0.00    -0.352 N 
ATOM     28  C   UNL A   1      33.040  33.935  27.994  1.00  0.00     0.251 C 
ATOM     29  H   UNL A   1      31.455  33.822  26.795  1.00  0.00     0.163 HD
ATOM     30  O   UNL A   1      32.803  35.106  28.280  1.00  0.00    -0.269 OA
BRANCH  28  31
ATOM     31  C   UNL A   1      34.271  33.295  28.515  1.00  0.00     0.039 A 
ATOM     32  C   UNL A   1      34.176  31.986  28.999  1.00  0.00     0.014 A 
ATOM     33  C   UNL A   1      35.483  33.981  28.623  1.00  0.00     0.014 A 
ATOM     34  C   UNL A   1      35.291  31.363  29.565  1.00  0.00     0.010 A 
ATOM     35  C   UNL A   1      36.618  33.332  29.113  1.00  0.00     0.010 A 
ATOM     36  C   UNL A   1      36.527  32.027  29.618  1.00  0.00    -0.014 A 
BRANCH  36  37
ATOM     37  C   UNL A   1      37.704  31.385  30.260  1.00  0.00     0.031 A 
ATOM     38  C   UNL A   1      38.037  31.679  31.699  1.00  0.00     0.074 A 
ATOM     39  C   UNL A   1      38.482  30.544  29.552  1.00  0.00     0.049 A 
ATOM     40  N   UNL A   1      39.013  31.211  32.436  1.00  0.00    -0.248 NA
ATOM     41  C   UNL A   1      37.172  32.645  32.397  1.00  0.00     0.031 C 
ATOM     42  C   UNL A   1      38.298  30.208  28.140  1.00  0.00     0.029 A 
ATOM     43  N   UNL A   1      39.584  29.817  29.927  1.00  0.00    -0.354 N 
ATOM     44  C   UNL A   1      38.888  31.835  33.672  1.00  0.00     0.074 A 
ATOM     45  C   UNL A   1      37.776  32.754  33.571  1.00  0.00     0.031 C 
ATOM     46  C   UNL A   1      39.236  29.317  27.775  1.00  0.00     0.029 A 
ATOM     47  C   UNL A   1      40.100  29.039  28.919  1.00  0.00     0.049 A 
ATOM     48  H   UNL A   1      39.969  29.851  30.832  1.00  0.00     0.167 HD
ATOM     49  C   UNL A   1      39.615  31.642  34.799  1.00  0.00     0.037 A 
ATOM     50  C   UNL A   1      41.145  28.190  28.920  1.00  0.00     0.037 A 
ATOM     51  C   UNL A   1      40.701  30.706  34.914  1.00  0.00     0.049 A 
ATOM     52  C   UNL A   1      41.920  27.974  30.190  1.00  0.00     0.074 A 
ATOM     53  C   UNL A   1      41.467  30.404  36.027  1.00  0.00     0.029 A 
ATOM     54  N   UNL A   1      41.173  29.916  33.878  1.00  0.00    -0.354 N 
ATOM     55  N   UNL A   1      41.749  28.523  31.367  1.00  0.00    -0.248 NA
ATOM     56  C   UNL A   1      43.026  27.007  30.134  1.00  0.00     0.031 C 
ATOM     57  C   UNL A   1      42.422  29.452  35.655  1.00  0.00     0.029 A 
ATOM     58  C   UNL A   1      42.224  29.132  34.323  1.00  0.00     0.049 A 
ATOM     59  H   UNL A   1      40.813  29.913  32.960  1.00  0.00     0.167 HD
ATOM     60  C   UNL A   1      42.700  27.945  32.199  1.00  0.00     0.074 A 
ATOM     61  C   UNL A   1      43.439  26.996  31.393  1.00  0.00     0.031 C 
ATOM     62  C   UNL A   1      42.938  28.178  33.513  1.00  0.00     0.037 A 
BRANCH  49  63
ATOM     63  C   UNL A   1      39.247  32.460  36.003  1.00  0.00     0.057 A 
ATOM     64  C   UNL A   1      39.783  33.737  36.219  1.00  0.00     0.134 A 
ATOM     65  C   UNL A   1      38.330  31.977  36.945  1.00  0.00     0.134 A 
ATOM     66  F   UNL A   1      40.677  34.252  35.362  1.00  0.00    -0.206 F 
ATOM     67  C   UNL A   1      39.442  34.492  37.343  1.00  0.00     0.040 A 
ATOM     68  C   UNL A   1      37.961  32.734  38.059  1.00  0.00     0.040 A 
ATOM     69  F   UNL A   1      37.774  30.765  36.797  1.00  0.00    -0.206 F 
ATOM     70  C   UNL A   1      38.523  33.992  38.263  1.00  0.00     0.006 A 
ENDBRANCH  49  63
BRANCH  50  71
ATOM     71  C   UNL A   1      41.495  27.443  27.686  1.00  0.00     0.057 A 
ATOM     72  C   UNL A   1      42.329  28.008  26.713  1.00  0.00     0.134 A 
ATOM     73  C   UNL A   1      40.998  26.157  27.445  1.00  0.00     0.134 A 
ATOM     74  F   UNL A   1      42.819  29.245  26.881  1.00  0.00    -0.206 F 
ATOM     75  C   UNL A   1      42.640  27.330  25.535  1.00  0.00     0.040 A 
ATOM     76  C   UNL A   1      41.320  25.459  26.281  1.00  0.00     0.040 A 
ATOM     77  F   UNL A   1      40.201  25.561  28.341  1.00  0.00    -0.206 F 
ATOM     78  C   UNL A   1      42.138  26.047  25.318  1.00  0.00     0.006 A 
ENDBRANCH  50  71
BRANCH  62  79
ATOM     79  C   UNL A   1      44.010  27.361  34.172  1.00  0.00     0.057 A 
ATOM     80  C   UNL A   1      45.338  27.797  34.240  1.00  0.00     0.134 A 
ATOM     81  C   UNL A   1      43.698  26.133  34.771  1.00  0.00     0.134 A 
ATOM     82  F   UNL A   1      45.703  28.958  33.675  1.00  0.00    -0.206 F 
ATOM     83  C   UNL A   1      46.326  27.029  34.860  1.00  0.00     0.040 A 
ATOM     84  C   UNL A   1      44.671  25.369  35.414  1.00  0.00     0.040 A 
ATOM     85  F   UNL A   1      42.442  25.664  34.747  1.00  0.00    -0.206 F 
ATOM     86  C   UNL A   1      45.991  25.813  35.454  1.00  0.00     0.006 A 
ENDBRANCH  62  79
ENDBRANCH  36  37
ENDBRANCH  28  31
ENDBRANCH  26  27
ENDBRANCH  25  26
ENDBRANCH   1  25
TORSDOF 16
ENDMDL
MODEL 3
REMARK VINA RESULT:     -10.8      3.999      9.004
REMARK SMILES CCC(CC)(NC(=O)CC1([NH3+])CCCC1)C(=O)NCCCNC(=O)c1ccc(-c2c3nc(c(-c4c(F)cccc4F)c4ccc([nH]4)c(-c4c(F)cccc4F)c4nc(c(-c5c(F)cccc5F)c5ccc2[nH]5)C=C4)C=C3)cc1
REMARK SMILES IDX 19 1 18 2 16 3 17 4 3 6 2 7 1 8 4 9 5 10 6 11 7 12 8 14 9 15
REMARK SMILES IDX 10 16 12 17 15 18 13 19 14 20 11 21 20 25 21 26 22 27 23 28
REMARK SMILES IDX 24 30 25 31 26 32 78 33 27 34 77 35 28 36 29 37 30 38 71 39
REMARK SMILES IDX 31 40 76 41 70 42 72 43 32 44 75 45 69 46 68 47 33 49 59 50
REMARK SMILES IDX 42 51 58 52 43 53 46 54 57 55 73 56 44 57 45 58 56 60 74 61
REMARK SMILES IDX 47 62 34 63 35 64 40 65 36 66 37 67 39 68 41 69 38 70 60 71
REMARK SMILES IDX 61 72 66 73 62 74 63 75 65 76 67 77 64 78 48 79 49 80 54 81
REMARK SMILES IDX 50 82 51 83 53 84 55 85 52 86
REMARK H PARENT 18 5 6 13 11 22 11 23 11 24 22 29 72 48 46 59
REMARK Flexibility Score: inf
ROOT
ATOM      1  C   UNL A   1      31.205  30.146  25.339  1.00  0.00     0.117 C 
ENDROOT
BRANCH   1   2
ATOM      2  N   UNL A   1      30.788  29.991  23.953  1.00  0.00    -0.354 N 
ATOM      3  C   UNL A   1      30.959  28.985  23.043  1.00  0.00     0.245 C 
ATOM      4  O   UNL A   1      30.314  29.095  21.997  1.00  0.00    -0.272 OA
ATOM      5  H   UNL A   1      30.285  30.761  23.602  1.00  0.00     0.163 HD
BRANCH   3   6
ATOM      6  C   UNL A   1      31.799  27.710  23.360  1.00  0.00     0.118 C 
BRANCH   6   7
ATOM      7  C   UNL A   1      31.174  26.838  24.486  1.00  0.00     0.035 C 
ATOM      8  C   UNL A   1      29.743  26.339  24.317  1.00  0.00     0.007 C 
ENDBRANCH   6   7
BRANCH   6   9
ATOM      9  C   UNL A   1      33.201  28.235  23.814  1.00  0.00     0.035 C 
ATOM     10  C   UNL A   1      34.033  28.954  22.758  1.00  0.00     0.007 C 
ENDBRANCH   6   9
BRANCH   6  11
ATOM     11  N   UNL A   1      31.919  26.835  22.157  1.00  0.00    -0.342 N 
ATOM     12  C   UNL A   1      32.910  25.950  21.820  1.00  0.00     0.227 C 
ATOM     13  H   UNL A   1      31.179  26.904  21.511  1.00  0.00     0.164 HD
ATOM     14  O   UNL A   1      33.224  25.890  20.628  1.00  0.00    -0.275 OA
BRANCH  12  15
ATOM     15  C   UNL A   1      33.486  24.949  22.814  1.00  0.00     0.168 C 
BRANCH  15  16
ATOM     16  C   UNL A   1      33.044  23.468  22.788  1.00  0.00     0.103 C 
ATOM     17  C   UNL A   1      33.955  22.458  23.510  1.00  0.00     0.069 C 
ATOM     18  C   UNL A   1      31.636  23.272  23.417  1.00  0.00     0.069 C 
ATOM     19  C   UNL A   1      33.012  21.428  24.124  1.00  0.00     0.007 C 
ATOM     20  C   UNL A   1      31.778  22.223  24.509  1.00  0.00     0.007 C 
BRANCH  16  21
ATOM     21  N   UNL A   1      32.903  23.057  21.370  1.00  0.00    -0.352 N 
ATOM     22  H   UNL A   1      33.470  22.227  21.197  1.00  0.00     0.344 HD
ATOM     23  H   UNL A   1      33.217  23.816  20.764  1.00  0.00     0.344 HD
ATOM     24  H   UNL A   1      31.924  22.847  21.173  1.00  0.00     0.344 HD
ENDBRANCH  16  21
ENDBRANCH  15  16
ENDBRANCH  12  15
ENDBRANCH   6  11
ENDBRANCH   3   6
ENDBRANCH   1   2
BRANCH   1  25
ATOM     25  C   UNL A   1      31.104  31.563  25.892  1.00  0.00     0.042 C 
BRANCH  25  26
ATOM     26  C   UNL A   1      32.197  31.966  26.872  1.00  0.00     0.118 C 
BRANCH  26  27
ATOM     27  N   UNL A   1      32.137  33.370  27.231  1.00  0.00    -0.352 N 
ATOM     28  C   UNL A   1      32.904  34.117  28.088  1.00  0.00     0.251 C 
ATOM     29  H   UNL A   1      31.420  33.874  26.783  1.00  0.00     0.163 HD
ATOM     30  O   UNL A   1      32.531  35.251  28.377  1.00  0.00    -0.269 OA
BRANCH  28  31
ATOM     31  C   UNL A   1      34.157  33.591  28.679  1.00  0.00     0.039 A 
ATOM     32  C   UNL A   1      35.358  33.847  28.007  1.00  0.00     0.014 A 
ATOM     33  C   UNL A   1      34.166  32.779  29.815  1.00  0.00     0.014 A 
ATOM     34  C   UNL A   1      36.558  33.313  28.484  1.00  0.00     0.010 A 
ATOM     35  C   UNL A   1      35.374  32.314  30.339  1.00  0.00     0.010 A 
ATOM     36  C   UNL A   1      36.579  32.550  29.662  1.00  0.00    -0.014 A 
BRANCH  36  37
ATOM     37  C   UNL A   1      37.846  31.943  30.147  1.00  0.00     0.031 A 
ATOM     38  C   UNL A   1      38.589  32.561  31.302  1.00  0.00     0.074 A 
ATOM     39  C   UNL A   1      38.338  30.842  29.547  1.00  0.00     0.049 A 
ATOM     40  N   UNL A   1      39.702  32.174  31.874  1.00  0.00    -0.248 NA
ATOM     41  C   UNL A   1      38.018  33.790  31.878  1.00  0.00     0.031 C 
ATOM     42  C   UNL A   1      37.743  30.171  28.391  1.00  0.00     0.029 A 
ATOM     43  N   UNL A   1      39.453  30.094  29.830  1.00  0.00    -0.354 N 
ATOM     44  C   UNL A   1      39.970  33.116  32.860  1.00  0.00     0.074 A 
ATOM     45  C   UNL A   1      38.935  34.122  32.776  1.00  0.00     0.031 C 
ATOM     46  C   UNL A   1      38.481  29.092  28.082  1.00  0.00     0.029 A 
ATOM     47  C   UNL A   1      39.613  29.010  29.001  1.00  0.00     0.049 A 
ATOM     48  H   UNL A   1      40.079  30.313  30.557  1.00  0.00     0.167 HD
ATOM     49  C   UNL A   1      40.971  33.130  33.772  1.00  0.00     0.037 A 
ATOM     50  C   UNL A   1      40.561  28.053  28.990  1.00  0.00     0.037 A 
ATOM     51  C   UNL A   1      41.984  32.115  33.882  1.00  0.00     0.049 A 
ATOM     52  C   UNL A   1      41.647  28.076  30.029  1.00  0.00     0.074 A 
ATOM     53  C   UNL A   1      43.012  32.015  34.805  1.00  0.00     0.029 A 
ATOM     54  N   UNL A   1      42.093  31.017  33.042  1.00  0.00    -0.354 N 
ATOM     55  N   UNL A   1      41.849  28.938  30.995  1.00  0.00    -0.248 NA
ATOM     56  C   UNL A   1      42.628  26.983  29.984  1.00  0.00     0.031 C 
ATOM     57  C   UNL A   1      43.761  30.873  34.503  1.00  0.00     0.029 A 
ATOM     58  C   UNL A   1      43.175  30.240  33.419  1.00  0.00     0.049 A 
ATOM     59  H   UNL A   1      41.490  30.820  32.288  1.00  0.00     0.167 HD
ATOM     60  C   UNL A   1      42.958  28.474  31.693  1.00  0.00     0.074 A 
ATOM     61  C   UNL A   1      43.378  27.250  31.044  1.00  0.00     0.031 C 
ATOM     62  C   UNL A   1      43.571  29.014  32.774  1.00  0.00     0.037 A 
BRANCH  49  63
ATOM     63  C   UNL A   1      41.010  34.283  34.733  1.00  0.00     0.057 A 
ATOM     64  C   UNL A   1      40.354  34.235  35.971  1.00  0.00     0.134 A 
ATOM     65  C   UNL A   1      41.732  35.444  34.430  1.00  0.00     0.134 A 
ATOM     66  F   UNL A   1      39.634  33.157  36.316  1.00  0.00    -0.206 F 
ATOM     67  C   UNL A   1      40.390  35.311  36.860  1.00  0.00     0.040 A 
ATOM     68  C   UNL A   1      41.798  36.516  35.323  1.00  0.00     0.040 A 
ATOM     69  F   UNL A   1      42.389  35.554  33.267  1.00  0.00    -0.206 F 
ATOM     70  C   UNL A   1      41.119  36.453  36.539  1.00  0.00     0.006 A 
ENDBRANCH  49  63
BRANCH  50  71
ATOM     71  C   UNL A   1      40.500  26.962  27.985  1.00  0.00     0.057 A 
ATOM     72  C   UNL A   1      39.747  25.805  28.222  1.00  0.00     0.134 A 
ATOM     73  C   UNL A   1      41.198  27.043  26.775  1.00  0.00     0.134 A 
ATOM     74  F   UNL A   1      39.073  25.664  29.373  1.00  0.00    -0.206 F 
ATOM     75  C   UNL A   1      39.706  24.759  27.300  1.00  0.00     0.040 A 
ATOM     76  C   UNL A   1      41.147  26.013  25.834  1.00  0.00     0.040 A 
ATOM     77  F   UNL A   1      41.930  28.128  26.487  1.00  0.00    -0.206 F 
ATOM     78  C   UNL A   1      40.405  24.864  26.099  1.00  0.00     0.006 A 
ENDBRANCH  50  71
BRANCH  62  79
ATOM     79  C   UNL A   1      44.730  28.259  33.354  1.00  0.00     0.057 A 
ATOM     80  C   UNL A   1      46.041  28.452  32.901  1.00  0.00     0.134 A 
ATOM     81  C   UNL A   1      44.533  27.347  34.400  1.00  0.00     0.134 A 
ATOM     82  F   UNL A   1      46.295  29.300  31.894  1.00  0.00    -0.206 F 
ATOM     83  C   UNL A   1      47.113  27.745  33.451  1.00  0.00     0.040 A 
ATOM     84  C   UNL A   1      45.599  26.655  34.973  1.00  0.00     0.040 A 
ATOM     85  F   UNL A   1      43.303  27.125  34.885  1.00  0.00    -0.206 F 
ATOM     86  C   UNL A   1      46.892  26.848  34.494  1.00  0.00     0.006 A 
ENDBRANCH  62  79
ENDBRANCH  36  37
ENDBRANCH  28  31
ENDBRANCH  26  27
ENDBRANCH  25  26
ENDBRANCH   1  25
TORSDOF 16
ENDMDL
