MODEL 1
REMARK VINA RESULT:     -12.0      0.000      0.000
REMARK SMILES CC[NH+]1CCN(c2ccc(NC(=O)C3CCCC3)c(C(=O)NCCCNC(=O)c3ccc(-c4c5nc(c(-c6c(F)cccc6F)c6ccc([nH]6)c(-c6c(F)cccc6F)c6nc(c(-c7c(F)cccc7F)c7ccc4[nH]7)C=C6)C=C5)cc3)c2)CC1
REMARK SMILES IDX 24 1 23 2 22 3 20 4 21 5 19 7 7 8 8 9 83 10 9 11 10 12 6 13
REMARK SMILES IDX 3 14 4 15 85 16 5 18 84 19 2 20 1 21 11 22 12 23 13 25 14 26
REMARK SMILES IDX 15 27 18 28 16 29 17 30 25 31 26 32 27 33 28 35 29 36 30 37
REMARK SMILES IDX 82 38 31 39 81 40 32 41 33 42 34 43 75 44 35 45 80 46 74 47
REMARK SMILES IDX 76 48 36 49 79 50 73 51 72 52 37 54 63 55 46 56 62 57 47 58
REMARK SMILES IDX 50 59 61 60 77 61 48 62 49 63 60 65 78 66 51 67 38 68 39 69
REMARK SMILES IDX 44 70 40 71 41 72 43 73 45 74 42 75 64 76 65 77 70 78 66 79
REMARK SMILES IDX 67 80 69 81 71 82 68 83 52 84 53 85 58 86 54 87 55 88 57 89
REMARK SMILES IDX 59 90 56 91
REMARK H PARENT 22 6 3 17 11 24 26 34 76 53 50 64
REMARK Flexibility Score: inf
ROOT
ATOM      1  C   UNL A   1      31.760  28.728  26.451  1.00  0.00     0.042 C 
ENDROOT
BRANCH   1   2
ATOM      2  C   UNL A   1      32.297  27.307  26.484  1.00  0.00     0.118 C 
BRANCH   2   3
ATOM      3  N   UNL A   1      31.344  26.292  26.926  1.00  0.00    -0.352 N 
ATOM      4  C   UNL A   1      30.991  25.047  26.436  1.00  0.00     0.253 C 
ATOM      5  O   UNL A   1      30.126  24.422  27.050  1.00  0.00    -0.269 OA
ATOM      6  H   UNL A   1      30.850  26.546  27.738  1.00  0.00     0.163 HD
BRANCH   4   7
ATOM      7  C   UNL A   1      31.541  24.482  25.166  1.00  0.00     0.065 A 
ATOM      8  C   UNL A   1      33.485  23.450  24.068  1.00  0.00     0.038 A 
ATOM      9  C   UNL A   1      32.942  23.872  22.857  1.00  0.00     0.028 A 
ATOM     10  C   UNL A   1      32.709  23.702  25.201  1.00  0.00     0.042 A 
ATOM     11  C   UNL A   1      31.681  24.477  22.783  1.00  0.00     0.029 A 
ATOM     12  C   UNL A   1      30.922  24.726  23.923  1.00  0.00     0.054 A 
BRANCH   8  13
ATOM     13  N   UNL A   1      34.727  22.849  24.131  1.00  0.00    -0.360 N 
ATOM     14  N   UNL A   1      36.874  22.267  26.085  1.00  0.00    -0.332 N 
ATOM     15  C   UNL A   1      36.634  23.620  25.533  1.00  0.00     0.283 C 
ATOM     16  C   UNL A   1      35.610  21.492  26.016  1.00  0.00     0.283 C 
ATOM     17  H   UNL A   1      37.167  22.359  27.057  1.00  0.00     0.348 HD
ATOM     18  C   UNL A   1      35.953  23.673  24.142  1.00  0.00     0.178 C 
ATOM     19  C   UNL A   1      34.934  21.477  24.622  1.00  0.00     0.178 C 
BRANCH  14  20
ATOM     20  C   UNL A   1      37.971  21.570  25.402  1.00  0.00     0.258 C 
ATOM     21  C   UNL A   1      39.278  21.867  26.126  1.00  0.00     0.071 C 
ENDBRANCH  14  20
ENDBRANCH   8  13
BRANCH  12  22
ATOM     22  N   UNL A   1      29.578  25.176  23.877  1.00  0.00    -0.325 N 
ATOM     23  C   UNL A   1      28.984  26.411  23.788  1.00  0.00     0.227 C 
ATOM     24  H   UNL A   1      28.925  24.439  23.918  1.00  0.00     0.169 HD
ATOM     25  O   UNL A   1      27.751  26.465  23.792  1.00  0.00    -0.274 OA
BRANCH  23  26
ATOM     26  C   UNL A   1      29.808  27.681  23.650  1.00  0.00     0.079 C 
ATOM     27  C   UNL A   1      30.653  27.727  22.376  1.00  0.00     0.013 C 
ATOM     28  C   UNL A   1      29.012  28.979  23.499  1.00  0.00     0.013 C 
ATOM     29  C   UNL A   1      31.147  29.168  22.333  1.00  0.00     0.001 C 
ATOM     30  C   UNL A   1      30.077  29.986  23.058  1.00  0.00     0.001 C 
ENDBRANCH  23  26
ENDBRANCH  12  22
ENDBRANCH   4   7
ENDBRANCH   2   3
ENDBRANCH   1   2
BRANCH   1  31
ATOM     31  C   UNL A   1      32.607  29.728  25.684  1.00  0.00     0.118 C 
BRANCH  31  32
ATOM     32  N   UNL A   1      32.421  31.102  26.132  1.00  0.00    -0.352 N 
ATOM     33  C   UNL A   1      33.058  31.857  27.088  1.00  0.00     0.251 C 
ATOM     34  H   UNL A   1      31.703  31.581  25.659  1.00  0.00     0.163 HD
ATOM     35  O   UNL A   1      32.581  32.949  27.387  1.00  0.00    -0.269 OA
BRANCH  33  36
ATOM     36  C   UNL A   1      34.284  31.387  27.778  1.00  0.00     0.039 A 
ATOM     37  C   UNL A   1      35.319  32.304  28.001  1.00  0.00     0.014 A 
ATOM     38  C   UNL A   1      34.467  30.055  28.148  1.00  0.00     0.014 A 
ATOM     39  C   UNL A   1      36.493  31.900  28.645  1.00  0.00     0.010 A 
ATOM     40  C   UNL A   1      35.589  29.676  28.884  1.00  0.00     0.010 A 
ATOM     41  C   UNL A   1      36.624  30.589  29.127  1.00  0.00    -0.014 A 
BRANCH  41  42
ATOM     42  C   UNL A   1      37.840  30.151  29.862  1.00  0.00     0.031 A 
ATOM     43  C   UNL A   1      38.088  30.617  31.273  1.00  0.00     0.074 A 
ATOM     44  C   UNL A   1      38.753  29.378  29.241  1.00  0.00     0.049 A 
ATOM     45  N   UNL A   1      39.112  30.384  32.055  1.00  0.00    -0.248 NA
ATOM     46  C   UNL A   1      37.065  31.488  31.875  1.00  0.00     0.031 C 
ATOM     47  C   UNL A   1      38.664  28.907  27.858  1.00  0.00     0.029 A 
ATOM     48  N   UNL A   1      39.939  28.856  29.693  1.00  0.00    -0.354 N 
ATOM     49  C   UNL A   1      38.867  31.093  33.225  1.00  0.00     0.074 A 
ATOM     50  C   UNL A   1      37.626  31.811  33.030  1.00  0.00     0.031 C 
ATOM     51  C   UNL A   1      39.731  28.138  27.585  1.00  0.00     0.029 A 
ATOM     52  C   UNL A   1      40.595  28.090  28.758  1.00  0.00     0.049 A 
ATOM     53  H   UNL A   1      40.287  29.014  30.600  1.00  0.00     0.167 HD
ATOM     54  C   UNL A   1      39.591  31.122  34.370  1.00  0.00     0.037 A 
ATOM     55  C   UNL A   1      41.762  27.424  28.840  1.00  0.00     0.037 A 
ATOM     56  C   UNL A   1      40.805  30.378  34.576  1.00  0.00     0.049 A 
ATOM     57  C   UNL A   1      42.535  27.452  30.128  1.00  0.00     0.074 A 
ATOM     58  C   UNL A   1      41.579  30.288  35.720  1.00  0.00     0.029 A 
ATOM     59  N   UNL A   1      41.421  29.591  33.615  1.00  0.00    -0.354 N 
ATOM     60  N   UNL A   1      42.254  28.071  31.249  1.00  0.00    -0.248 NA
ATOM     61  C   UNL A   1      43.786  26.681  30.165  1.00  0.00     0.031 C 
ATOM     62  C   UNL A   1      42.683  29.476  35.440  1.00  0.00     0.029 A 
ATOM     63  C   UNL A   1      42.573  29.025  34.135  1.00  0.00     0.049 A 
ATOM     64  H   UNL A   1      41.088  29.455  32.698  1.00  0.00     0.167 HD
ATOM     65  C   UNL A   1      43.274  27.743  32.132  1.00  0.00     0.074 A 
ATOM     66  C   UNL A   1      44.172  26.856  31.421  1.00  0.00     0.031 C 
ATOM     67  C   UNL A   1      43.453  28.140  33.416  1.00  0.00     0.037 A 
BRANCH  54  68
ATOM     68  C   UNL A   1      39.079  31.979  35.492  1.00  0.00     0.057 A 
ATOM     69  C   UNL A   1      38.250  31.462  36.497  1.00  0.00     0.134 A 
ATOM     70  C   UNL A   1      39.442  33.328  35.587  1.00  0.00     0.134 A 
ATOM     71  F   UNL A   1      37.856  30.180  36.460  1.00  0.00    -0.206 F 
ATOM     72  C   UNL A   1      37.778  32.261  37.539  1.00  0.00     0.040 A 
ATOM     73  C   UNL A   1      38.998  34.131  36.640  1.00  0.00     0.040 A 
ATOM     74  F   UNL A   1      40.237  33.888  34.663  1.00  0.00    -0.206 F 
ATOM     75  C   UNL A   1      38.157  33.600  37.615  1.00  0.00     0.006 A 
ENDBRANCH  54  68
BRANCH  55  76
ATOM     76  C   UNL A   1      42.252  26.639  27.679  1.00  0.00     0.057 A 
ATOM     77  C   UNL A   1      43.095  27.218  26.722  1.00  0.00     0.134 A 
ATOM     78  C   UNL A   1      41.890  25.300  27.493  1.00  0.00     0.134 A 
ATOM     79  F   UNL A   1      43.462  28.502  26.838  1.00  0.00    -0.206 F 
ATOM     80  C   UNL A   1      43.543  26.502  25.612  1.00  0.00     0.040 A 
ATOM     81  C   UNL A   1      42.351  24.563  26.401  1.00  0.00     0.040 A 
ATOM     82  F   UNL A   1      41.092  24.684  28.378  1.00  0.00    -0.206 F 
ATOM     83  C   UNL A   1      43.174  25.167  25.451  1.00  0.00     0.006 A 
ENDBRANCH  55  76
BRANCH  67  84
ATOM     84  C   UNL A   1      44.646  27.592  34.140  1.00  0.00     0.057 A 
ATOM     85  C   UNL A   1      45.872  28.269  34.164  1.00  0.00     0.134 A 
ATOM     86  C   UNL A   1      44.559  26.384  34.844  1.00  0.00     0.134 A 
ATOM     87  F   UNL A   1      46.024  29.423  33.499  1.00  0.00    -0.206 F 
ATOM     88  C   UNL A   1      46.978  27.750  34.839  1.00  0.00     0.040 A 
ATOM     89  C   UNL A   1      45.649  25.869  35.546  1.00  0.00     0.040 A 
ATOM     90  F   UNL A   1      43.411  25.690  34.869  1.00  0.00    -0.206 F 
ATOM     91  C   UNL A   1      46.866  26.548  35.538  1.00  0.00     0.006 A 
ENDBRANCH  67  84
ENDBRANCH  41  42
ENDBRANCH  33  36
ENDBRANCH  31  32
ENDBRANCH   1  31
TORSDOF 14
ENDMDL
MODEL 2
REMARK VINA RESULT:     -11.9      2.798      7.561
REMARK SMILES CC[NH+]1CCN(c2ccc(NC(=O)C3CCCC3)c(C(=O)NCCCNC(=O)c3ccc(-c4c5nc(c(-c6c(F)cccc6F)c6ccc([nH]6)c(-c6c(F)cccc6F)c6nc(c(-c7c(F)cccc7F)c7ccc4[nH]7)C=C6)C=C5)cc3)c2)CC1
REMARK SMILES IDX 24 1 23 2 22 3 20 4 21 5 19 7 7 8 8 9 83 10 9 11 10 12 6 13
REMARK SMILES IDX 3 14 4 15 85 16 5 18 84 19 2 20 1 21 11 22 12 23 13 25 14 26
REMARK SMILES IDX 15 27 18 28 16 29 17 30 25 31 26 32 27 33 28 35 29 36 30 37
REMARK SMILES IDX 82 38 31 39 81 40 32 41 33 42 34 43 75 44 35 45 80 46 74 47
REMARK SMILES IDX 76 48 36 49 79 50 73 51 72 52 37 54 63 55 46 56 62 57 47 58
REMARK SMILES IDX 50 59 61 60 77 61 48 62 49 63 60 65 78 66 51 67 38 68 39 69
REMARK SMILES IDX 44 70 40 71 41 72 43 73 45 74 42 75 64 76 65 77 70 78 66 79
REMARK SMILES IDX 67 80 69 81 71 82 68 83 52 84 53 85 58 86 54 87 55 88 57 89
REMARK SMILES IDX 59 90 56 91
REMARK H PARENT 22 6 3 17 11 24 26 34 76 53 50 64
REMARK Flexibility Score: inf
ROOT
ATOM      1  C   UNL A   1      37.048  23.233  25.537  1.00  0.00     0.042 C 
ENDROOT
BRANCH   1   2
ATOM      2  C   UNL A   1      35.789  23.907  25.017  1.00  0.00     0.118 C 
BRANCH   2   3
ATOM      3  N   UNL A   1      35.478  23.644  23.614  1.00  0.00    -0.352 N 
ATOM      4  C   UNL A   1      34.347  23.840  22.842  1.00  0.00     0.253 C 
ATOM      5  O   UNL A   1      34.403  23.499  21.660  1.00  0.00    -0.269 OA
ATOM      6  H   UNL A   1      36.226  23.244  23.116  1.00  0.00     0.163 HD
BRANCH   4   7
ATOM      7  C   UNL A   1      33.057  24.353  23.396  1.00  0.00     0.065 A 
ATOM      8  C   UNL A   1      31.982  26.032  24.835  1.00  0.00     0.038 A 
ATOM      9  C   UNL A   1      30.902  25.159  24.935  1.00  0.00     0.028 A 
ATOM     10  C   UNL A   1      33.012  25.628  23.984  1.00  0.00     0.042 A 
ATOM     11  C   UNL A   1      30.841  23.971  24.197  1.00  0.00     0.029 A 
ATOM     12  C   UNL A   1      31.879  23.578  23.357  1.00  0.00     0.054 A 
BRANCH   8  13
ATOM     13  N   UNL A   1      32.030  27.206  25.562  1.00  0.00    -0.360 N 
ATOM     14  N   UNL A   1      33.712  29.623  25.868  1.00  0.00    -0.332 N 
ATOM     15  C   UNL A   1      34.103  28.299  26.403  1.00  0.00     0.283 C 
ATOM     16  C   UNL A   1      32.783  29.423  24.728  1.00  0.00     0.283 C 
ATOM     17  H   UNL A   1      34.551  30.104  25.544  1.00  0.00     0.348 HD
ATOM     18  C   UNL A   1      32.938  27.327  26.721  1.00  0.00     0.178 C 
ATOM     19  C   UNL A   1      31.574  28.501  25.032  1.00  0.00     0.178 C 
BRANCH  14  20
ATOM     20  C   UNL A   1      33.126  30.492  26.896  1.00  0.00     0.258 C 
ATOM     21  C   UNL A   1      34.245  31.186  27.660  1.00  0.00     0.071 C 
ENDBRANCH  14  20
ENDBRANCH   8  13
BRANCH  12  22
ATOM     22  N   UNL A   1      31.784  22.478  22.468  1.00  0.00    -0.325 N 
ATOM     23  C   UNL A   1      31.948  21.121  22.604  1.00  0.00     0.227 C 
ATOM     24  H   UNL A   1      31.549  22.745  21.549  1.00  0.00     0.169 HD
ATOM     25  O   UNL A   1      31.811  20.416  21.600  1.00  0.00    -0.274 OA
BRANCH  23  26
ATOM     26  C   UNL A   1      32.251  20.488  23.952  1.00  0.00     0.079 C 
ATOM     27  C   UNL A   1      32.407  18.968  23.894  1.00  0.00     0.013 C 
ATOM     28  C   UNL A   1      33.588  20.878  24.587  1.00  0.00     0.013 C 
ATOM     29  C   UNL A   1      32.966  18.618  25.268  1.00  0.00     0.001 C 
ATOM     30  C   UNL A   1      33.741  19.859  25.718  1.00  0.00     0.001 C 
ENDBRANCH  23  26
ENDBRANCH  12  22
ENDBRANCH   4   7
ENDBRANCH   2   3
ENDBRANCH   1   2
BRANCH   1  31
ATOM     31  C   UNL A   1      37.925  24.092  26.431  1.00  0.00     0.118 C 
BRANCH  31  32
ATOM     32  N   UNL A   1      39.343  23.992  26.113  1.00  0.00    -0.352 N 
ATOM     33  C   UNL A   1      40.430  24.743  26.489  1.00  0.00     0.251 C 
ATOM     34  H   UNL A   1      39.565  23.242  25.515  1.00  0.00     0.163 HD
ATOM     35  O   UNL A   1      41.506  24.542  25.930  1.00  0.00    -0.269 OA
BRANCH  33  36
ATOM     36  C   UNL A   1      40.341  25.797  27.530  1.00  0.00     0.039 A 
ATOM     37  C   UNL A   1      39.470  25.598  28.609  1.00  0.00     0.014 A 
ATOM     38  C   UNL A   1      41.038  27.001  27.434  1.00  0.00     0.014 A 
ATOM     39  C   UNL A   1      39.353  26.570  29.609  1.00  0.00     0.010 A 
ATOM     40  C   UNL A   1      41.005  27.921  28.482  1.00  0.00     0.010 A 
ATOM     41  C   UNL A   1      40.149  27.725  29.574  1.00  0.00    -0.014 A 
BRANCH  41  42
ATOM     42  C   UNL A   1      40.082  28.746  30.653  1.00  0.00     0.031 A 
ATOM     43  C   UNL A   1      39.070  29.861  30.587  1.00  0.00     0.074 A 
ATOM     44  C   UNL A   1      40.969  28.704  31.668  1.00  0.00     0.049 A 
ATOM     45  N   UNL A   1      38.893  30.868  31.404  1.00  0.00    -0.248 NA
ATOM     46  C   UNL A   1      38.157  29.862  29.432  1.00  0.00     0.031 C 
ATOM     47  C   UNL A   1      42.036  27.714  31.818  1.00  0.00     0.029 A 
ATOM     48  N   UNL A   1      41.116  29.519  32.761  1.00  0.00    -0.354 N 
ATOM     49  C   UNL A   1      37.869  31.629  30.854  1.00  0.00     0.074 A 
ATOM     50  C   UNL A   1      37.503  31.001  29.603  1.00  0.00     0.031 C 
ATOM     51  C   UNL A   1      42.706  27.959  32.957  1.00  0.00     0.029 A 
ATOM     52  C   UNL A   1      42.139  29.141  33.596  1.00  0.00     0.049 A 
ATOM     53  H   UNL A   1      40.541  30.301  32.933  1.00  0.00     0.167 HD
ATOM     54  C   UNL A   1      37.267  32.734  31.354  1.00  0.00     0.037 A 
ATOM     55  C   UNL A   1      42.572  29.686  34.749  1.00  0.00     0.037 A 
ATOM     56  C   UNL A   1      37.607  33.338  32.616  1.00  0.00     0.049 A 
ATOM     57  C   UNL A   1      41.872  30.898  35.297  1.00  0.00     0.074 A 
ATOM     58  C   UNL A   1      37.013  34.420  33.243  1.00  0.00     0.029 A 
ATOM     59  N   UNL A   1      38.630  32.907  33.446  1.00  0.00    -0.354 N 
ATOM     60  N   UNL A   1      40.859  31.564  34.798  1.00  0.00    -0.248 NA
ATOM     61  C   UNL A   1      42.370  31.428  36.574  1.00  0.00     0.031 C 
ATOM     62  C   UNL A   1      37.702  34.666  34.435  1.00  0.00     0.029 A 
ATOM     63  C   UNL A   1      38.695  33.710  34.572  1.00  0.00     0.049 A 
ATOM     64  H   UNL A   1      39.223  32.142  33.261  1.00  0.00     0.167 HD
ATOM     65  C   UNL A   1      40.582  32.573  35.710  1.00  0.00     0.074 A 
ATOM     66  C   UNL A   1      41.522  32.420  36.801  1.00  0.00     0.031 C 
ATOM     67  C   UNL A   1      39.634  33.541  35.651  1.00  0.00     0.037 A 
BRANCH  54  68
ATOM     68  C   UNL A   1      36.168  33.355  30.539  1.00  0.00     0.057 A 
ATOM     69  C   UNL A   1      34.819  33.215  30.890  1.00  0.00     0.134 A 
ATOM     70  C   UNL A   1      36.463  34.126  29.408  1.00  0.00     0.134 A 
ATOM     71  F   UNL A   1      34.467  32.479  31.956  1.00  0.00    -0.206 F 
ATOM     72  C   UNL A   1      33.801  33.794  30.131  1.00  0.00     0.040 A 
ATOM     73  C   UNL A   1      35.455  34.734  28.656  1.00  0.00     0.040 A 
ATOM     74  F   UNL A   1      37.733  34.307  29.017  1.00  0.00    -0.206 F 
ATOM     75  C   UNL A   1      34.119  34.562  29.013  1.00  0.00     0.006 A 
ENDBRANCH  54  68
BRANCH  55  76
ATOM     76  C   UNL A   1      43.702  29.066  35.486  1.00  0.00     0.057 A 
ATOM     77  C   UNL A   1      45.023  29.462  35.244  1.00  0.00     0.134 A 
ATOM     78  C   UNL A   1      43.494  28.064  36.441  1.00  0.00     0.134 A 
ATOM     79  F   UNL A   1      45.286  30.404  34.328  1.00  0.00    -0.206 F 
ATOM     80  C   UNL A   1      46.098  28.871  35.909  1.00  0.00     0.040 A 
ATOM     81  C   UNL A   1      44.557  27.482  37.133  1.00  0.00     0.040 A 
ATOM     82  F   UNL A   1      42.252  27.646  36.726  1.00  0.00    -0.206 F 
ATOM     83  C   UNL A   1      45.866  27.880  36.861  1.00  0.00     0.006 A 
ENDBRANCH  55  76
BRANCH  67  84
ATOM     84  C   UNL A   1      39.549  34.486  36.813  1.00  0.00     0.057 A 
ATOM     85  C   UNL A   1      38.847  34.161  37.981  1.00  0.00     0.134 A 
ATOM     86  C   UNL A   1      40.197  35.726  36.771  1.00  0.00     0.134 A 
ATOM     87  F   UNL A   1      38.193  32.993  38.079  1.00  0.00    -0.206 F 
ATOM     88  C   UNL A   1      38.772  35.048  39.056  1.00  0.00     0.040 A 
ATOM     89  C   UNL A   1      40.152  36.609  37.850  1.00  0.00     0.040 A 
ATOM     90  F   UNL A   1      40.893  36.095  35.685  1.00  0.00    -0.206 F 
ATOM     91  C   UNL A   1      39.430  36.275  38.993  1.00  0.00     0.006 A 
ENDBRANCH  67  84
ENDBRANCH  41  42
ENDBRANCH  33  36
ENDBRANCH  31  32
ENDBRANCH   1  31
TORSDOF 14
ENDMDL
MODEL 3
REMARK VINA RESULT:     -11.9      4.039      7.430
REMARK SMILES CC[NH+]1CCN(c2ccc(NC(=O)C3CCCC3)c(C(=O)NCCCNC(=O)c3ccc(-c4c5nc(c(-c6c(F)cccc6F)c6ccc([nH]6)c(-c6c(F)cccc6F)c6nc(c(-c7c(F)cccc7F)c7ccc4[nH]7)C=C6)C=C5)cc3)c2)CC1
REMARK SMILES IDX 24 1 23 2 22 3 20 4 21 5 19 7 7 8 8 9 83 10 9 11 10 12 6 13
REMARK SMILES IDX 3 14 4 15 85 16 5 18 84 19 2 20 1 21 11 22 12 23 13 25 14 26
REMARK SMILES IDX 15 27 18 28 16 29 17 30 25 31 26 32 27 33 28 35 29 36 30 37
REMARK SMILES IDX 82 38 31 39 81 40 32 41 33 42 34 43 75 44 35 45 80 46 74 47
REMARK SMILES IDX 76 48 36 49 79 50 73 51 72 52 37 54 63 55 46 56 62 57 47 58
REMARK SMILES IDX 50 59 61 60 77 61 48 62 49 63 60 65 78 66 51 67 38 68 39 69
REMARK SMILES IDX 44 70 40 71 41 72 43 73 45 74 42 75 64 76 65 77 70 78 66 79
REMARK SMILES IDX 67 80 69 81 71 82 68 83 52 84 53 85 58 86 54 87 55 88 57 89
REMARK SMILES IDX 59 90 56 91
REMARK H PARENT 22 6 3 17 11 24 26 34 76 53 50 64
REMARK Flexibility Score: inf
ROOT
ATOM      1  C   UNL A   1      33.500  29.019  26.563  1.00  0.00     0.042 C 
ENDROOT
BRANCH   1   2
ATOM      2  C   UNL A   1      33.059  27.716  25.918  1.00  0.00     0.118 C 
BRANCH   2   3
ATOM      3  N   UNL A   1      31.844  27.126  26.475  1.00  0.00    -0.352 N 
ATOM      4  C   UNL A   1      31.153  25.956  26.214  1.00  0.00     0.253 C 
ATOM      5  O   UNL A   1      30.133  25.744  26.870  1.00  0.00    -0.269 OA
ATOM      6  H   UNL A   1      31.431  27.674  27.180  1.00  0.00     0.163 HD
BRANCH   4   7
ATOM      7  C   UNL A   1      31.538  25.004  25.128  1.00  0.00     0.065 A 
ATOM      8  C   UNL A   1      33.329  23.617  24.172  1.00  0.00     0.038 A 
ATOM      9  C   UNL A   1      32.630  23.657  22.970  1.00  0.00     0.028 A 
ATOM     10  C   UNL A   1      32.707  24.237  25.258  1.00  0.00     0.042 A 
ATOM     11  C   UNL A   1      31.365  24.249  22.870  1.00  0.00     0.029 A 
ATOM     12  C   UNL A   1      30.759  24.868  23.960  1.00  0.00     0.054 A 
BRANCH   8  13
ATOM     13  N   UNL A   1      34.574  23.025  24.263  1.00  0.00    -0.360 N 
ATOM     14  N   UNL A   1      36.617  22.326  26.289  1.00  0.00    -0.332 N 
ATOM     15  C   UNL A   1      36.389  23.712  25.823  1.00  0.00     0.283 C 
ATOM     16  C   UNL A   1      35.370  21.545  26.094  1.00  0.00     0.283 C 
ATOM     17  H   UNL A   1      36.853  22.350  27.281  1.00  0.00     0.348 HD
ATOM     18  C   UNL A   1      35.786  23.859  24.403  1.00  0.00     0.178 C 
ATOM     19  C   UNL A   1      34.772  21.624  24.666  1.00  0.00     0.178 C 
BRANCH  14  20
ATOM     20  C   UNL A   1      37.760  21.691  25.622  1.00  0.00     0.258 C 
ATOM     21  C   UNL A   1      39.050  22.293  26.162  1.00  0.00     0.071 C 
ENDBRANCH  14  20
ENDBRANCH   8  13
BRANCH  12  22
ATOM     22  N   UNL A   1      29.416  25.324  23.946  1.00  0.00    -0.325 N 
ATOM     23  C   UNL A   1      28.826  26.556  23.811  1.00  0.00     0.227 C 
ATOM     24  H   UNL A   1      28.762  24.597  24.058  1.00  0.00     0.169 HD
ATOM     25  O   UNL A   1      27.595  26.620  23.866  1.00  0.00    -0.274 OA
BRANCH  23  26
ATOM     26  C   UNL A   1      29.650  27.810  23.563  1.00  0.00     0.079 C 
ATOM     27  C   UNL A   1      30.643  27.673  22.408  1.00  0.00     0.013 C 
ATOM     28  C   UNL A   1      28.867  29.043  23.107  1.00  0.00     0.013 C 
ATOM     29  C   UNL A   1      31.126  29.100  22.187  1.00  0.00     0.001 C 
ATOM     30  C   UNL A   1      29.968  29.995  22.636  1.00  0.00     0.001 C 
ENDBRANCH  23  26
ENDBRANCH  12  22
ENDBRANCH   4   7
ENDBRANCH   2   3
ENDBRANCH   1   2
BRANCH   1  31
ATOM     31  C   UNL A   1      34.839  28.972  27.278  1.00  0.00     0.118 C 
BRANCH  31  32
ATOM     32  N   UNL A   1      34.918  29.883  28.411  1.00  0.00    -0.352 N 
ATOM     33  C   UNL A   1      35.943  30.207  29.267  1.00  0.00     0.251 C 
ATOM     34  H   UNL A   1      34.077  30.359  28.600  1.00  0.00     0.163 HD
ATOM     35  O   UNL A   1      35.688  30.886  30.259  1.00  0.00    -0.269 OA
BRANCH  33  36
ATOM     36  C   UNL A   1      37.336  29.747  29.042  1.00  0.00     0.039 A 
ATOM     37  C   UNL A   1      37.881  29.869  27.758  1.00  0.00     0.014 A 
ATOM     38  C   UNL A   1      38.091  29.138  30.044  1.00  0.00     0.014 A 
ATOM     39  C   UNL A   1      39.189  29.443  27.503  1.00  0.00     0.010 A 
ATOM     40  C   UNL A   1      39.429  28.813  29.820  1.00  0.00     0.010 A 
ATOM     41  C   UNL A   1      39.989  28.945  28.542  1.00  0.00    -0.014 A 
BRANCH  41  42
ATOM     42  C   UNL A   1      41.400  28.537  28.307  1.00  0.00     0.031 A 
ATOM     43  C   UNL A   1      41.733  27.110  27.958  1.00  0.00     0.074 A 
ATOM     44  C   UNL A   1      42.390  29.438  28.463  1.00  0.00     0.049 A 
ATOM     45  N   UNL A   1      42.903  26.555  27.767  1.00  0.00    -0.248 NA
ATOM     46  C   UNL A   1      40.603  26.173  27.839  1.00  0.00     0.031 C 
ATOM     47  C   UNL A   1      42.209  30.836  28.858  1.00  0.00     0.029 A 
ATOM     48  N   UNL A   1      43.748  29.310  28.313  1.00  0.00    -0.354 N 
ATOM     49  C   UNL A   1      42.652  25.209  27.528  1.00  0.00     0.074 A 
ATOM     50  C   UNL A   1      41.224  25.018  27.655  1.00  0.00     0.031 C 
ATOM     51  C   UNL A   1      43.405  31.445  28.885  1.00  0.00     0.029 A 
ATOM     52  C   UNL A   1      44.440  30.475  28.545  1.00  0.00     0.049 A 
ATOM     53  H   UNL A   1      44.185  28.464  28.061  1.00  0.00     0.167 HD
ATOM     54  C   UNL A   1      43.525  24.226  27.203  1.00  0.00     0.037 A 
ATOM     55  C   UNL A   1      45.760  30.731  28.488  1.00  0.00     0.037 A 
ATOM     56  C   UNL A   1      44.942  24.425  27.040  1.00  0.00     0.049 A 
ATOM     57  C   UNL A   1      46.707  29.629  28.103  1.00  0.00     0.074 A 
ATOM     58  C   UNL A   1      45.902  23.508  26.649  1.00  0.00     0.029 A 
ATOM     59  N   UNL A   1      45.599  25.626  27.256  1.00  0.00    -0.354 N 
ATOM     60  N   UNL A   1      46.445  28.378  27.811  1.00  0.00    -0.248 NA
ATOM     61  C   UNL A   1      48.132  29.979  28.029  1.00  0.00     0.031 C 
ATOM     62  C   UNL A   1      47.148  24.146  26.665  1.00  0.00     0.029 A 
ATOM     63  C   UNL A   1      46.955  25.471  27.021  1.00  0.00     0.049 A 
ATOM     64  H   UNL A   1      45.166  26.465  27.534  1.00  0.00     0.167 HD
ATOM     65  C   UNL A   1      47.666  27.798  27.494  1.00  0.00     0.074 A 
ATOM     66  C   UNL A   1      48.666  28.839  27.612  1.00  0.00     0.031 C 
ATOM     67  C   UNL A   1      47.937  26.519  27.137  1.00  0.00     0.037 A 
BRANCH  54  68
ATOM     68  C   UNL A   1      42.968  22.847  26.991  1.00  0.00     0.057 A 
ATOM     69  C   UNL A   1      42.832  22.295  25.709  1.00  0.00     0.134 A 
ATOM     70  C   UNL A   1      42.594  22.050  28.079  1.00  0.00     0.134 A 
ATOM     71  F   UNL A   1      43.162  23.010  24.623  1.00  0.00    -0.206 F 
ATOM     72  C   UNL A   1      42.315  21.013  25.516  1.00  0.00     0.040 A 
ATOM     73  C   UNL A   1      42.101  20.755  27.900  1.00  0.00     0.040 A 
ATOM     74  F   UNL A   1      42.703  22.512  29.334  1.00  0.00    -0.206 F 
ATOM     75  C   UNL A   1      41.954  20.237  26.615  1.00  0.00     0.006 A 
ENDBRANCH  54  68
BRANCH  55  76
ATOM     76  C   UNL A   1      46.264  32.100  28.766  1.00  0.00     0.057 A 
ATOM     77  C   UNL A   1      46.381  33.046  27.741  1.00  0.00     0.134 A 
ATOM     78  C   UNL A   1      46.644  32.495  30.054  1.00  0.00     0.134 A 
ATOM     79  F   UNL A   1      46.050  32.721  26.483  1.00  0.00    -0.206 F 
ATOM     80  C   UNL A   1      46.878  34.328  27.980  1.00  0.00     0.040 A 
ATOM     81  C   UNL A   1      47.118  33.782  30.314  1.00  0.00     0.040 A 
ATOM     82  F   UNL A   1      46.547  31.639  31.082  1.00  0.00    -0.206 F 
ATOM     83  C   UNL A   1      47.243  34.701  29.272  1.00  0.00     0.006 A 
ENDBRANCH  55  76
BRANCH  67  84
ATOM     84  C   UNL A   1      49.364  26.185  26.818  1.00  0.00     0.057 A 
ATOM     85  C   UNL A   1      49.874  26.288  25.518  1.00  0.00     0.134 A 
ATOM     86  C   UNL A   1      50.243  25.780  27.830  1.00  0.00     0.134 A 
ATOM     87  F   UNL A   1      49.080  26.657  24.503  1.00  0.00    -0.206 F 
ATOM     88  C   UNL A   1      51.203  25.973  25.231  1.00  0.00     0.040 A 
ATOM     89  C   UNL A   1      51.580  25.489  27.560  1.00  0.00     0.040 A 
ATOM     90  F   UNL A   1      49.820  25.670  29.098  1.00  0.00    -0.206 F 
ATOM     91  C   UNL A   1      52.062  25.577  26.255  1.00  0.00     0.006 A 
ENDBRANCH  67  84
ENDBRANCH  41  42
ENDBRANCH  33  36
ENDBRANCH  31  32
ENDBRANCH   1  31
TORSDOF 14
ENDMDL
