MODEL 1
REMARK VINA RESULT:     -12.3      0.000      0.000
REMARK SMILES CC1=C(C)C[C@@H](C(=O)NCc2cccnc2)[C@H](C(=O)NCCCNC(=O)c2ccc(-c3c4nc(c(-c5c(F)cccc5F)c5ccc([nH]5)c(-c5c(F)cccc5F)c5nc(c(-c6c(F)cccc6F)c6ccc3[nH]6)C=C5)C=C4)cc2)C1
REMARK SMILES IDX 21 1 20 2 18 3 19 4 17 6 1 7 2 8 3 9 81 10 4 11 5 12 6 13
REMARK SMILES IDX 7 14 8 15 9 16 10 18 11 19 12 20 16 21 13 22 15 23 14 24
REMARK SMILES IDX 22 25 23 26 24 27 25 28 26 30 27 31 28 32 80 33 29 34 79 35
REMARK SMILES IDX 30 36 31 37 32 38 73 39 33 40 78 41 72 42 74 43 34 44 77 45
REMARK SMILES IDX 71 46 70 47 35 49 61 50 44 51 60 52 45 53 48 54 59 55 75 56
REMARK SMILES IDX 46 57 47 58 58 60 76 61 49 62 36 63 37 64 42 65 38 66 39 67
REMARK SMILES IDX 41 68 43 69 40 70 62 71 63 72 68 73 64 74 65 75 67 76 69 77
REMARK SMILES IDX 66 78 50 79 51 80 56 81 52 82 53 83 55 84 57 85 54 86
REMARK H PARENT 20 5 9 17 24 29 74 48 48 59
REMARK Flexibility Score: inf
ROOT
ATOM      1  C   UNL A   1      36.285  21.250  24.869  1.00  0.00     0.117 C 
ENDROOT
BRANCH   1   2
ATOM      2  N   UNL A   1      35.945  21.824  26.149  1.00  0.00    -0.356 N 
ATOM      3  C   UNL A   1      35.065  22.812  26.464  1.00  0.00     0.224 C 
ATOM      4  O   UNL A   1      34.914  23.065  27.661  1.00  0.00    -0.275 OA
ATOM      5  H   UNL A   1      36.427  21.439  26.917  1.00  0.00     0.163 HD
BRANCH   3   6
ATOM      6  C   UNL A   1      34.312  23.616  25.398  1.00  0.00     0.095 C 
ATOM      7  C   UNL A   1      34.015  27.509  25.940  1.00  0.00     0.039 C 
ATOM      8  C   UNL A   1      33.552  26.083  25.783  1.00  0.00    -0.074 C 
ATOM      9  C   UNL A   1      32.277  25.701  26.012  1.00  0.00    -0.074 C 
ATOM     10  C   UNL A   1      34.660  25.107  25.440  1.00  0.00     0.045 C 
ATOM     11  C   UNL A   1      31.175  26.636  26.446  1.00  0.00     0.039 C 
ATOM     12  C   UNL A   1      31.821  24.265  25.900  1.00  0.00     0.045 C 
ATOM     13  C   UNL A   1      32.826  23.238  25.380  1.00  0.00     0.095 C 
BRANCH  13  14
ATOM     14  C   UNL A   1      32.402  22.652  24.032  1.00  0.00     0.224 C 
ATOM     15  O   UNL A   1      32.328  23.388  23.043  1.00  0.00    -0.275 OA
ATOM     16  N   UNL A   1      32.100  21.346  23.837  1.00  0.00    -0.352 N 
ATOM     17  H   UNL A   1      31.792  21.146  22.923  1.00  0.00     0.163 HD
BRANCH  16  18
ATOM     18  C   UNL A   1      32.139  20.185  24.704  1.00  0.00     0.153 C 
BRANCH  18  19
ATOM     19  C   UNL A   1      32.870  19.018  24.106  1.00  0.00    -0.010 A 
ATOM     20  C   UNL A   1      34.000  18.451  24.698  1.00  0.00     0.009 A 
ATOM     21  C   UNL A   1      32.388  18.399  22.953  1.00  0.00     0.116 A 
ATOM     22  C   UNL A   1      34.617  17.352  24.105  1.00  0.00     0.020 A 
ATOM     23  N   UNL A   1      32.972  17.341  22.348  1.00  0.00    -0.264 NA
ATOM     24  C   UNL A   1      34.079  16.845  22.936  1.00  0.00     0.111 A 
ENDBRANCH  18  19
ENDBRANCH  16  18
ENDBRANCH  13  14
ENDBRANCH   3   6
ENDBRANCH   1   2
BRANCH   1  25
ATOM     25  C   UNL A   1      37.335  20.165  24.969  1.00  0.00     0.042 C 
BRANCH  25  26
ATOM     26  C   UNL A   1      38.606  20.667  25.623  1.00  0.00     0.118 C 
BRANCH  26  27
ATOM     27  N   UNL A   1      39.626  19.623  25.708  1.00  0.00    -0.352 N 
ATOM     28  C   UNL A   1      40.957  19.717  26.017  1.00  0.00     0.251 C 
ATOM     29  H   UNL A   1      39.307  18.713  25.513  1.00  0.00     0.163 HD
ATOM     30  O   UNL A   1      41.706  18.765  25.808  1.00  0.00    -0.269 OA
BRANCH  28  31
ATOM     31  C   UNL A   1      41.486  20.970  26.583  1.00  0.00     0.039 A 
ATOM     32  C   UNL A   1      42.021  21.935  25.728  1.00  0.00     0.014 A 
ATOM     33  C   UNL A   1      41.438  21.194  27.960  1.00  0.00     0.014 A 
ATOM     34  C   UNL A   1      42.443  23.155  26.256  1.00  0.00     0.010 A 
ATOM     35  C   UNL A   1      41.739  22.449  28.464  1.00  0.00     0.010 A 
ATOM     36  C   UNL A   1      42.265  23.435  27.620  1.00  0.00    -0.014 A 
BRANCH  36  37
ATOM     37  C   UNL A   1      42.647  24.743  28.200  1.00  0.00     0.031 A 
ATOM     38  C   UNL A   1      41.598  25.803  28.402  1.00  0.00     0.074 A 
ATOM     39  C   UNL A   1      43.941  24.999  28.474  1.00  0.00     0.049 A 
ATOM     40  N   UNL A   1      41.737  27.035  28.816  1.00  0.00    -0.248 NA
ATOM     41  C   UNL A   1      40.210  25.441  28.060  1.00  0.00     0.031 C 
ATOM     42  C   UNL A   1      45.052  24.069  28.263  1.00  0.00     0.029 A 
ATOM     43  N   UNL A   1      44.541  26.122  28.980  1.00  0.00    -0.354 N 
ATOM     44  C   UNL A   1      40.467  27.595  28.766  1.00  0.00     0.074 A 
ATOM     45  C   UNL A   1      39.580  26.594  28.220  1.00  0.00     0.031 C 
ATOM     46  C   UNL A   1      46.194  24.649  28.667  1.00  0.00     0.029 A 
ATOM     47  C   UNL A   1      45.903  26.004  29.120  1.00  0.00     0.049 A 
ATOM     48  H   UNL A   1      44.043  26.938  29.220  1.00  0.00     0.167 HD
ATOM     49  C   UNL A   1      40.070  28.825  29.169  1.00  0.00     0.037 A 
ATOM     50  C   UNL A   1      46.811  26.896  29.555  1.00  0.00     0.037 A 
ATOM     51  C   UNL A   1      40.954  29.803  29.741  1.00  0.00     0.049 A 
ATOM     52  C   UNL A   1      46.344  28.257  29.992  1.00  0.00     0.074 A 
ATOM     53  C   UNL A   1      40.645  31.054  30.241  1.00  0.00     0.029 A 
ATOM     54  N   UNL A   1      42.324  29.637  29.888  1.00  0.00    -0.354 N 
ATOM     55  N   UNL A   1      45.127  28.747  30.012  1.00  0.00    -0.248 NA
ATOM     56  C   UNL A   1      47.373  29.186  30.475  1.00  0.00     0.031 C 
ATOM     57  C   UNL A   1      41.834  31.669  30.642  1.00  0.00     0.029 A 
ATOM     58  C   UNL A   1      42.877  30.776  30.449  1.00  0.00     0.049 A 
ATOM     59  H   UNL A   1      42.827  28.832  29.632  1.00  0.00     0.167 HD
ATOM     60  C   UNL A   1      45.240  30.026  30.538  1.00  0.00     0.074 A 
ATOM     61  C   UNL A   1      46.643  30.230  30.840  1.00  0.00     0.031 C 
ATOM     62  C   UNL A   1      44.273  30.951  30.755  1.00  0.00     0.037 A 
BRANCH  49  63
ATOM     63  C   UNL A   1      38.619  29.175  29.014  1.00  0.00     0.057 A 
ATOM     64  C   UNL A   1      37.721  29.103  30.087  1.00  0.00     0.134 A 
ATOM     65  C   UNL A   1      38.122  29.631  27.786  1.00  0.00     0.134 A 
ATOM     66  F   UNL A   1      38.127  28.660  31.286  1.00  0.00    -0.206 F 
ATOM     67  C   UNL A   1      36.376  29.452  29.940  1.00  0.00     0.040 A 
ATOM     68  C   UNL A   1      36.788  30.011  27.635  1.00  0.00     0.040 A 
ATOM     69  F   UNL A   1      38.927  29.725  26.718  1.00  0.00    -0.206 F 
ATOM     70  C   UNL A   1      35.909  29.917  28.713  1.00  0.00     0.006 A 
ENDBRANCH  49  63
BRANCH  50  71
ATOM     71  C   UNL A   1      48.250  26.530  29.618  1.00  0.00     0.057 A 
ATOM     72  C   UNL A   1      49.114  26.803  28.551  1.00  0.00     0.134 A 
ATOM     73  C   UNL A   1      48.792  25.881  30.734  1.00  0.00     0.134 A 
ATOM     74  F   UNL A   1      48.653  27.411  27.448  1.00  0.00    -0.206 F 
ATOM     75  C   UNL A   1      50.455  26.416  28.576  1.00  0.00     0.040 A 
ATOM     76  C   UNL A   1      50.138  25.514  30.786  1.00  0.00     0.040 A 
ATOM     77  F   UNL A   1      48.022  25.601  31.796  1.00  0.00    -0.206 F 
ATOM     78  C   UNL A   1      50.971  25.771  29.699  1.00  0.00     0.006 A 
ENDBRANCH  50  71
BRANCH  62  79
ATOM     79  C   UNL A   1      44.690  32.246  31.389  1.00  0.00     0.057 A 
ATOM     80  C   UNL A   1      44.726  32.416  32.779  1.00  0.00     0.134 A 
ATOM     81  C   UNL A   1      45.104  33.324  30.594  1.00  0.00     0.134 A 
ATOM     82  F   UNL A   1      44.331  31.427  33.595  1.00  0.00    -0.206 F 
ATOM     83  C   UNL A   1      45.134  33.619  33.354  1.00  0.00     0.040 A 
ATOM     84  C   UNL A   1      45.544  34.520  31.158  1.00  0.00     0.040 A 
ATOM     85  F   UNL A   1      45.104  33.223  29.256  1.00  0.00    -0.206 F 
ATOM     86  C   UNL A   1      45.553  34.673  32.543  1.00  0.00     0.006 A 
ENDBRANCH  62  79
ENDBRANCH  36  37
ENDBRANCH  28  31
ENDBRANCH  26  27
ENDBRANCH  25  26
ENDBRANCH   1  25
TORSDOF 13
ENDMDL
MODEL 2
REMARK VINA RESULT:     -12.1      4.566      8.964
REMARK SMILES CC1=C(C)C[C@@H](C(=O)NCc2cccnc2)[C@H](C(=O)NCCCNC(=O)c2ccc(-c3c4nc(c(-c5c(F)cccc5F)c5ccc([nH]5)c(-c5c(F)cccc5F)c5nc(c(-c6c(F)cccc6F)c6ccc3[nH]6)C=C5)C=C4)cc2)C1
REMARK SMILES IDX 21 1 20 2 18 3 19 4 17 6 1 7 2 8 3 9 81 10 4 11 5 12 6 13
REMARK SMILES IDX 7 14 8 15 9 16 10 18 11 19 12 20 16 21 13 22 15 23 14 24
REMARK SMILES IDX 22 25 23 26 24 27 25 28 26 30 27 31 28 32 80 33 29 34 79 35
REMARK SMILES IDX 30 36 31 37 32 38 73 39 33 40 78 41 72 42 74 43 34 44 77 45
REMARK SMILES IDX 71 46 70 47 35 49 61 50 44 51 60 52 45 53 48 54 59 55 75 56
REMARK SMILES IDX 46 57 47 58 58 60 76 61 49 62 36 63 37 64 42 65 38 66 39 67
REMARK SMILES IDX 41 68 43 69 40 70 62 71 63 72 68 73 64 74 65 75 67 76 69 77
REMARK SMILES IDX 66 78 50 79 51 80 56 81 52 82 53 83 55 84 57 85 54 86
REMARK H PARENT 20 5 9 17 24 29 74 48 48 59
REMARK Flexibility Score: inf
ROOT
ATOM      1  C   UNL A   1      31.436  30.892  26.002  1.00  0.00     0.117 C 
ENDROOT
BRANCH   1   2
ATOM      2  N   UNL A   1      30.689  30.609  24.799  1.00  0.00    -0.356 N 
ATOM      3  C   UNL A   1      30.663  29.494  24.021  1.00  0.00     0.224 C 
ATOM      4  O   UNL A   1      29.872  29.491  23.075  1.00  0.00    -0.275 OA
ATOM      5  H   UNL A   1      30.107  31.341  24.492  1.00  0.00     0.163 HD
BRANCH   3   6
ATOM      6  C   UNL A   1      31.590  28.297  24.264  1.00  0.00     0.095 C 
ATOM      7  C   UNL A   1      32.138  25.793  21.270  1.00  0.00     0.039 C 
ATOM      8  C   UNL A   1      31.704  26.261  22.635  1.00  0.00    -0.074 C 
ATOM      9  C   UNL A   1      30.950  25.503  23.461  1.00  0.00    -0.074 C 
ATOM     10  C   UNL A   1      32.107  27.686  22.958  1.00  0.00     0.045 C 
ATOM     11  C   UNL A   1      30.455  24.117  23.125  1.00  0.00     0.039 C 
ATOM     12  C   UNL A   1      30.474  25.987  24.810  1.00  0.00     0.045 C 
ATOM     13  C   UNL A   1      30.984  27.341  25.300  1.00  0.00     0.095 C 
BRANCH  13  14
ATOM     14  C   UNL A   1      31.872  27.207  26.538  1.00  0.00     0.224 C 
ATOM     15  O   UNL A   1      31.403  27.448  27.655  1.00  0.00    -0.275 OA
ATOM     16  N   UNL A   1      33.171  26.826  26.499  1.00  0.00    -0.352 N 
ATOM     17  H   UNL A   1      33.614  26.844  27.379  1.00  0.00     0.163 HD
BRANCH  16  18
ATOM     18  C   UNL A   1      34.041  26.395  25.422  1.00  0.00     0.153 C 
BRANCH  18  19
ATOM     19  C   UNL A   1      33.972  24.920  25.151  1.00  0.00    -0.010 A 
ATOM     20  C   UNL A   1      34.453  24.345  23.974  1.00  0.00     0.009 A 
ATOM     21  C   UNL A   1      33.484  24.048  26.123  1.00  0.00     0.116 A 
ATOM     22  C   UNL A   1      34.382  22.966  23.795  1.00  0.00     0.020 A 
ATOM     23  N   UNL A   1      33.391  22.707  25.974  1.00  0.00    -0.264 NA
ATOM     24  C   UNL A   1      33.837  22.197  24.808  1.00  0.00     0.111 A 
ENDBRANCH  18  19
ENDBRANCH  16  18
ENDBRANCH  13  14
ENDBRANCH   3   6
ENDBRANCH   1   2
BRANCH   1  25
ATOM     25  C   UNL A   1      31.238  32.306  26.501  1.00  0.00     0.042 C 
BRANCH  25  26
ATOM     26  C   UNL A   1      32.452  32.815  27.252  1.00  0.00     0.118 C 
BRANCH  26  27
ATOM     27  N   UNL A   1      32.315  34.223  27.621  1.00  0.00    -0.352 N 
ATOM     28  C   UNL A   1      32.943  34.938  28.606  1.00  0.00     0.251 C 
ATOM     29  H   UNL A   1      31.674  34.735  27.079  1.00  0.00     0.163 HD
ATOM     30  O   UNL A   1      32.527  36.052  28.918  1.00  0.00    -0.269 OA
BRANCH  28  31
ATOM     31  C   UNL A   1      34.107  34.358  29.299  1.00  0.00     0.039 A 
ATOM     32  C   UNL A   1      33.909  33.616  30.465  1.00  0.00     0.014 A 
ATOM     33  C   UNL A   1      35.392  34.536  28.784  1.00  0.00     0.014 A 
ATOM     34  C   UNL A   1      35.001  32.996  31.072  1.00  0.00     0.010 A 
ATOM     35  C   UNL A   1      36.451  33.819  29.315  1.00  0.00     0.010 A 
ATOM     36  C   UNL A   1      36.271  33.058  30.477  1.00  0.00    -0.014 A 
BRANCH  36  37
ATOM     37  C   UNL A   1      37.438  32.361  31.064  1.00  0.00     0.031 A 
ATOM     38  C   UNL A   1      38.054  32.879  32.335  1.00  0.00     0.074 A 
ATOM     39  C   UNL A   1      37.982  31.312  30.417  1.00  0.00     0.049 A 
ATOM     40  N   UNL A   1      39.123  32.465  32.964  1.00  0.00    -0.248 NA
ATOM     41  C   UNL A   1      37.402  34.041  32.966  1.00  0.00     0.031 C 
ATOM     42  C   UNL A   1      37.506  30.759  29.146  1.00  0.00     0.029 A 
ATOM     43  N   UNL A   1      39.062  30.530  30.733  1.00  0.00    -0.354 N 
ATOM     44  C   UNL A   1      39.279  33.322  34.046  1.00  0.00     0.074 A 
ATOM     45  C   UNL A   1      38.238  34.319  33.954  1.00  0.00     0.031 C 
ATOM     46  C   UNL A   1      38.270  29.708  28.810  1.00  0.00     0.029 A 
ATOM     47  C   UNL A   1      39.316  29.542  29.813  1.00  0.00     0.049 A 
ATOM     48  H   UNL A   1      39.605  30.664  31.544  1.00  0.00     0.167 HD
ATOM     49  C   UNL A   1      40.191  33.263  35.044  1.00  0.00     0.037 A 
ATOM     50  C   UNL A   1      40.291  28.616  29.780  1.00  0.00     0.037 A 
ATOM     51  C   UNL A   1      41.203  32.248  35.144  1.00  0.00     0.049 A 
ATOM     52  C   UNL A   1      41.295  28.577  30.900  1.00  0.00     0.074 A 
ATOM     53  C   UNL A   1      42.136  32.059  36.147  1.00  0.00     0.029 A 
ATOM     54  N   UNL A   1      41.414  31.250  34.204  1.00  0.00    -0.354 N 
ATOM     55  N   UNL A   1      41.384  29.346  31.958  1.00  0.00    -0.248 NA
ATOM     56  C   UNL A   1      42.328  27.536  30.826  1.00  0.00     0.031 C 
ATOM     57  C   UNL A   1      42.947  30.979  35.789  1.00  0.00     0.029 A 
ATOM     58  C   UNL A   1      42.480  30.456  34.592  1.00  0.00     0.049 A 
ATOM     59  H   UNL A   1      40.886  31.124  33.383  1.00  0.00     0.167 HD
ATOM     60  C   UNL A   1      42.460  28.863  32.691  1.00  0.00     0.074 A 
ATOM     61  C   UNL A   1      42.981  27.723  31.963  1.00  0.00     0.031 C 
ATOM     62  C   UNL A   1      42.972  29.318  33.861  1.00  0.00     0.037 A 
BRANCH  49  63
ATOM     63  C   UNL A   1      40.128  34.319  36.109  1.00  0.00     0.057 A 
ATOM     64  C   UNL A   1      39.332  34.171  37.253  1.00  0.00     0.134 A 
ATOM     65  C   UNL A   1      40.906  35.480  36.010  1.00  0.00     0.134 A 
ATOM     66  F   UNL A   1      38.550  33.091  37.403  1.00  0.00    -0.206 F 
ATOM     67  C   UNL A   1      39.296  35.148  38.250  1.00  0.00     0.040 A 
ATOM     68  C   UNL A   1      40.901  36.449  37.015  1.00  0.00     0.040 A 
ATOM     69  F   UNL A   1      41.692  35.685  34.943  1.00  0.00    -0.206 F 
ATOM     70  C   UNL A   1      40.090  36.287  38.136  1.00  0.00     0.006 A 
ENDBRANCH  49  63
BRANCH  50  71
ATOM     71  C   UNL A   1      40.360  27.639  28.663  1.00  0.00     0.057 A 
ATOM     72  C   UNL A   1      41.117  27.902  27.516  1.00  0.00     0.134 A 
ATOM     73  C   UNL A   1      39.656  26.429  28.704  1.00  0.00     0.134 A 
ATOM     74  F   UNL A   1      41.804  29.050  27.410  1.00  0.00    -0.206 F 
ATOM     75  C   UNL A   1      41.146  27.017  26.437  1.00  0.00     0.040 A 
ATOM     76  C   UNL A   1      39.699  25.520  27.646  1.00  0.00     0.040 A 
ATOM     77  F   UNL A   1      38.921  26.109  29.780  1.00  0.00    -0.206 F 
ATOM     78  C   UNL A   1      40.437  25.819  26.503  1.00  0.00     0.006 A 
ENDBRANCH  50  71
BRANCH  62  79
ATOM     79  C   UNL A   1      44.123  28.556  34.450  1.00  0.00     0.057 A 
ATOM     80  C   UNL A   1      45.455  28.886  34.169  1.00  0.00     0.134 A 
ATOM     81  C   UNL A   1      43.892  27.505  35.347  1.00  0.00     0.134 A 
ATOM     82  F   UNL A   1      45.744  29.875  33.310  1.00  0.00    -0.206 F 
ATOM     83  C   UNL A   1      46.515  28.180  34.740  1.00  0.00     0.040 A 
ATOM     84  C   UNL A   1      44.943  26.813  35.948  1.00  0.00     0.040 A 
ATOM     85  F   UNL A   1      42.639  27.144  35.667  1.00  0.00    -0.206 F 
ATOM     86  C   UNL A   1      46.260  27.146  35.639  1.00  0.00     0.006 A 
ENDBRANCH  62  79
ENDBRANCH  36  37
ENDBRANCH  28  31
ENDBRANCH  26  27
ENDBRANCH  25  26
ENDBRANCH   1  25
TORSDOF 13
ENDMDL
MODEL 3
REMARK VINA RESULT:     -12.1      2.111      6.928
REMARK SMILES CC1=C(C)C[C@@H](C(=O)NCc2cccnc2)[C@H](C(=O)NCCCNC(=O)c2ccc(-c3c4nc(c(-c5c(F)cccc5F)c5ccc([nH]5)c(-c5c(F)cccc5F)c5nc(c(-c6c(F)cccc6F)c6ccc3[nH]6)C=C5)C=C4)cc2)C1
REMARK SMILES IDX 21 1 20 2 18 3 19 4 17 6 1 7 2 8 3 9 81 10 4 11 5 12 6 13
REMARK SMILES IDX 7 14 8 15 9 16 10 18 11 19 12 20 16 21 13 22 15 23 14 24
REMARK SMILES IDX 22 25 23 26 24 27 25 28 26 30 27 31 28 32 80 33 29 34 79 35
REMARK SMILES IDX 30 36 31 37 32 38 73 39 33 40 78 41 72 42 74 43 34 44 77 45
REMARK SMILES IDX 71 46 70 47 35 49 61 50 44 51 60 52 45 53 48 54 59 55 75 56
REMARK SMILES IDX 46 57 47 58 58 60 76 61 49 62 36 63 37 64 42 65 38 66 39 67
REMARK SMILES IDX 41 68 43 69 40 70 62 71 63 72 68 73 64 74 65 75 67 76 69 77
REMARK SMILES IDX 66 78 50 79 51 80 56 81 52 82 53 83 55 84 57 85 54 86
REMARK H PARENT 20 5 9 17 24 29 74 48 48 59
REMARK Flexibility Score: inf
ROOT
ATOM      1  C   UNL A   1      33.439  26.386  25.860  1.00  0.00     0.117 C 
ENDROOT
BRANCH   1   2
ATOM      2  N   UNL A   1      33.963  25.868  24.618  1.00  0.00    -0.356 N 
ATOM      3  C   UNL A   1      34.534  24.666  24.338  1.00  0.00     0.224 C 
ATOM      4  O   UNL A   1      34.834  24.452  23.161  1.00  0.00    -0.275 OA
ATOM      5  H   UNL A   1      33.896  26.483  23.852  1.00  0.00     0.163 HD
BRANCH   3   6
ATOM      6  C   UNL A   1      34.838  23.625  25.421  1.00  0.00     0.095 C 
ATOM      7  C   UNL A   1      38.629  22.849  26.175  1.00  0.00     0.039 C 
ATOM      8  C   UNL A   1      37.211  22.585  25.736  1.00  0.00    -0.074 C 
ATOM      9  C   UNL A   1      36.840  21.442  25.120  1.00  0.00    -0.074 C 
ATOM     10  C   UNL A   1      36.265  23.748  25.963  1.00  0.00     0.045 C 
ATOM     11  C   UNL A   1      37.781  20.307  24.797  1.00  0.00     0.039 C 
ATOM     12  C   UNL A   1      35.430  21.193  24.637  1.00  0.00     0.045 C 
ATOM     13  C   UNL A   1      34.366  22.232  24.985  1.00  0.00     0.095 C 
BRANCH  13  14
ATOM     14  C   UNL A   1      33.302  21.670  25.929  1.00  0.00     0.224 C 
ATOM     15  O   UNL A   1      33.105  22.213  27.020  1.00  0.00    -0.275 OA
ATOM     16  N   UNL A   1      32.533  20.591  25.644  1.00  0.00    -0.352 N 
ATOM     17  H   UNL A   1      31.938  20.327  26.382  1.00  0.00     0.163 HD
BRANCH  16  18
ATOM     18  C   UNL A   1      32.412  19.749  24.471  1.00  0.00     0.153 C 
BRANCH  18  19
ATOM     19  C   UNL A   1      32.976  18.371  24.664  1.00  0.00    -0.010 A 
ATOM     20  C   UNL A   1      34.009  17.861  23.875  1.00  0.00     0.009 A 
ATOM     21  C   UNL A   1      32.529  17.566  25.710  1.00  0.00     0.116 A 
ATOM     22  C   UNL A   1      34.506  16.584  24.123  1.00  0.00     0.020 A 
ATOM     23  N   UNL A   1      32.981  16.318  25.968  1.00  0.00    -0.264 NA
ATOM     24  C   UNL A   1      33.957  15.853  25.161  1.00  0.00     0.111 A 
ENDBRANCH  18  19
ENDBRANCH  16  18
ENDBRANCH  13  14
ENDBRANCH   3   6
ENDBRANCH   1   2
BRANCH   1  25
ATOM     25  C   UNL A   1      33.706  27.864  26.042  1.00  0.00     0.042 C 
BRANCH  25  26
ATOM     26  C   UNL A   1      33.447  28.314  27.465  1.00  0.00     0.118 C 
BRANCH  26  27
ATOM     27  N   UNL A   1      33.480  29.770  27.592  1.00  0.00    -0.352 N 
ATOM     28  C   UNL A   1      34.481  30.592  28.038  1.00  0.00     0.251 C 
ATOM     29  H   UNL A   1      32.655  30.231  27.316  1.00  0.00     0.163 HD
ATOM     30  O   UNL A   1      34.242  31.770  28.296  1.00  0.00    -0.269 OA
BRANCH  28  31
ATOM     31  C   UNL A   1      35.839  30.051  28.222  1.00  0.00     0.039 A 
ATOM     32  C   UNL A   1      36.750  30.113  27.165  1.00  0.00     0.014 A 
ATOM     33  C   UNL A   1      36.215  29.496  29.446  1.00  0.00     0.014 A 
ATOM     34  C   UNL A   1      38.060  29.679  27.366  1.00  0.00     0.010 A 
ATOM     35  C   UNL A   1      37.544  29.184  29.681  1.00  0.00     0.010 A 
ATOM     36  C   UNL A   1      38.476  29.252  28.637  1.00  0.00    -0.014 A 
BRANCH  36  37
ATOM     37  C   UNL A   1      39.874  28.842  28.899  1.00  0.00     0.031 A 
ATOM     38  C   UNL A   1      40.833  29.822  29.519  1.00  0.00     0.074 A 
ATOM     39  C   UNL A   1      40.295  27.622  28.513  1.00  0.00     0.049 A 
ATOM     40  N   UNL A   1      42.113  29.689  29.754  1.00  0.00    -0.248 NA
ATOM     41  C   UNL A   1      40.290  31.140  29.895  1.00  0.00     0.031 C 
ATOM     42  C   UNL A   1      39.469  26.612  27.848  1.00  0.00     0.029 A 
ATOM     43  N   UNL A   1      41.526  27.029  28.615  1.00  0.00    -0.354 N 
ATOM     44  C   UNL A   1      42.526  30.905  30.283  1.00  0.00     0.074 A 
ATOM     45  C   UNL A   1      41.382  31.786  30.275  1.00  0.00     0.031 C 
ATOM     46  C   UNL A   1      40.208  25.512  27.632  1.00  0.00     0.029 A 
ATOM     47  C   UNL A   1      41.569  25.756  28.098  1.00  0.00     0.049 A 
ATOM     48  H   UNL A   1      42.306  27.473  29.021  1.00  0.00     0.167 HD
ATOM     49  C   UNL A   1      43.745  31.247  30.763  1.00  0.00     0.037 A 
ATOM     50  C   UNL A   1      42.595  24.891  28.004  1.00  0.00     0.037 A 
ATOM     51  C   UNL A   1      44.871  30.353  30.796  1.00  0.00     0.049 A 
ATOM     52  C   UNL A   1      43.941  25.298  28.540  1.00  0.00     0.074 A 
ATOM     53  C   UNL A   1      46.131  30.575  31.318  1.00  0.00     0.029 A 
ATOM     54  N   UNL A   1      44.868  29.063  30.284  1.00  0.00    -0.354 N 
ATOM     55  N   UNL A   1      44.298  26.424  29.110  1.00  0.00    -0.248 NA
ATOM     56  C   UNL A   1      45.022  24.312  28.429  1.00  0.00     0.031 C 
ATOM     57  C   UNL A   1      46.910  29.441  31.075  1.00  0.00     0.029 A 
ATOM     58  C   UNL A   1      46.115  28.487  30.457  1.00  0.00     0.049 A 
ATOM     59  H   UNL A   1      44.096  28.623  29.862  1.00  0.00     0.167 HD
ATOM     60  C   UNL A   1      45.635  26.270  29.453  1.00  0.00     0.074 A 
ATOM     61  C   UNL A   1      46.018  24.934  29.042  1.00  0.00     0.031 C 
ATOM     62  C   UNL A   1      46.471  27.151  30.054  1.00  0.00     0.037 A 
BRANCH  49  63
ATOM     63  C   UNL A   1      43.920  32.638  31.296  1.00  0.00     0.057 A 
ATOM     64  C   UNL A   1      44.310  33.703  30.474  1.00  0.00     0.134 A 
ATOM     65  C   UNL A   1      43.654  32.926  32.641  1.00  0.00     0.134 A 
ATOM     66  F   UNL A   1      44.596  33.495  29.180  1.00  0.00    -0.206 F 
ATOM     67  C   UNL A   1      44.450  35.000  30.973  1.00  0.00     0.040 A 
ATOM     68  C   UNL A   1      43.760  34.223  33.144  1.00  0.00     0.040 A 
ATOM     69  F   UNL A   1      43.275  31.954  33.484  1.00  0.00    -0.206 F 
ATOM     70  C   UNL A   1      44.165  35.264  32.310  1.00  0.00     0.006 A 
ENDBRANCH  49  63
BRANCH  50  71
ATOM     71  C   UNL A   1      42.393  23.551  27.396  1.00  0.00     0.057 A 
ATOM     72  C   UNL A   1      42.534  23.352  26.018  1.00  0.00     0.134 A 
ATOM     73  C   UNL A   1      42.033  22.442  28.172  1.00  0.00     0.134 A 
ATOM     74  F   UNL A   1      42.864  24.378  25.219  1.00  0.00    -0.206 F 
ATOM     75  C   UNL A   1      42.294  22.110  25.428  1.00  0.00     0.040 A 
ATOM     76  C   UNL A   1      41.818  21.187  27.600  1.00  0.00     0.040 A 
ATOM     77  F   UNL A   1      41.893  22.561  29.501  1.00  0.00    -0.206 F 
ATOM     78  C   UNL A   1      41.937  21.022  26.222  1.00  0.00     0.006 A 
ENDBRANCH  50  71
BRANCH  62  79
ATOM     79  C   UNL A   1      47.867  26.684  30.348  1.00  0.00     0.057 A 
ATOM     80  C   UNL A   1      48.929  26.916  29.466  1.00  0.00     0.134 A 
ATOM     81  C   UNL A   1      48.156  26.031  31.554  1.00  0.00     0.134 A 
ATOM     82  F   UNL A   1      48.717  27.526  28.289  1.00  0.00    -0.206 F 
ATOM     83  C   UNL A   1      50.225  26.492  29.761  1.00  0.00     0.040 A 
ATOM     84  C   UNL A   1      49.453  25.631  31.874  1.00  0.00     0.040 A 
ATOM     85  F   UNL A   1      47.186  25.787  32.447  1.00  0.00    -0.206 F 
ATOM     86  C   UNL A   1      50.492  25.855  30.972  1.00  0.00     0.006 A 
ENDBRANCH  62  79
ENDBRANCH  36  37
ENDBRANCH  28  31
ENDBRANCH  26  27
ENDBRANCH  25  26
ENDBRANCH   1  25
TORSDOF 13
ENDMDL
