MODEL 1
REMARK VINA RESULT:     -11.2      0.000      0.000
REMARK SMILES CNC(=O)CNC(=O)NC[C@H](CC(C)C)C(=O)NCCCNC(=O)c1ccc(-c2c3nc(c(-c4c(F)cccc4F)c4ccc([nH]4)c(-c4c(F)cccc4F)c4nc(c(-c5c(F)cccc5F)c5ccc2[nH]5)C=C4)C=C3)cc1
REMARK SMILES IDX 19 1 18 2 16 3 17 4 11 6 10 7 9 8 6 9 7 10 8 12 5 14 3 15
REMARK SMILES IDX 1 16 2 17 4 19 12 20 13 21 14 22 15 23 20 24 21 25 22 26
REMARK SMILES IDX 23 27 24 29 25 30 26 31 78 32 27 33 77 34 28 35 29 36 30 37
REMARK SMILES IDX 71 38 31 39 76 40 70 41 72 42 32 43 75 44 69 45 68 46 33 48
REMARK SMILES IDX 59 49 42 50 58 51 43 52 46 53 57 54 73 55 44 56 45 57 56 59
REMARK SMILES IDX 74 60 47 61 34 62 35 63 40 64 36 65 37 66 39 67 41 68 38 69
REMARK SMILES IDX 60 70 61 71 66 72 62 73 63 74 65 75 67 76 64 77 48 78 49 79
REMARK SMILES IDX 54 80 50 81 51 82 53 83 55 84 52 85
REMARK H PARENT 18 5 6 11 9 13 2 18 22 28 72 47 46 58
REMARK Flexibility Score: inf
ROOT
ATOM      1  C   UNL A   1      36.746  20.486  24.994  1.00  0.00     0.117 C 
ENDROOT
BRANCH   1   2
ATOM      2  N   UNL A   1      36.982  21.594  24.079  1.00  0.00    -0.356 N 
ATOM      3  C   UNL A   1      36.250  22.671  23.694  1.00  0.00     0.224 C 
ATOM      4  O   UNL A   1      36.682  23.293  22.716  1.00  0.00    -0.275 OA
ATOM      5  H   UNL A   1      37.864  21.553  23.645  1.00  0.00     0.163 HD
BRANCH   3   6
ATOM      6  C   UNL A   1      34.963  23.140  24.371  1.00  0.00     0.098 C 
BRANCH   6   7
ATOM      7  C   UNL A   1      33.632  22.640  23.809  1.00  0.00     0.131 C 
BRANCH   7   8
ATOM      8  N   UNL A   1      33.246  21.351  24.382  1.00  0.00    -0.337 N 
ATOM      9  N   UNL A   1      31.353  21.618  25.763  1.00  0.00    -0.329 N 
ATOM     10  C   UNL A   1      32.231  20.871  25.099  1.00  0.00     0.315 C 
ATOM     11  H   UNL A   1      30.546  21.123  26.034  1.00  0.00     0.165 HD
ATOM     12  O   UNL A   1      32.092  19.647  25.132  1.00  0.00    -0.249 OA
ATOM     13  H   UNL A   1      33.913  20.654  24.187  1.00  0.00     0.165 HD
BRANCH   9  14
ATOM     14  C   UNL A   1      31.335  23.006  26.169  1.00  0.00     0.217 C 
BRANCH  14  15
ATOM     15  C   UNL A   1      30.061  23.520  26.852  1.00  0.00     0.239 C 
ATOM     16  C   UNL A   1      29.885  25.747  25.628  1.00  0.00     0.142 C 
ATOM     17  N   UNL A   1      29.497  24.724  26.567  1.00  0.00    -0.358 N 
ATOM     18  H   UNL A   1      28.688  24.932  27.087  1.00  0.00     0.163 HD
ATOM     19  O   UNL A   1      29.570  22.883  27.792  1.00  0.00    -0.273 OA
ENDBRANCH  14  15
ENDBRANCH   9  14
ENDBRANCH   7   8
ENDBRANCH   6   7
BRANCH   6  20
ATOM     20  C   UNL A   1      34.997  24.635  24.771  1.00  0.00     0.018 C 
BRANCH  20  21
ATOM     21  C   UNL A   1      33.684  25.440  24.719  1.00  0.00    -0.017 C 
ATOM     22  C   UNL A   1      33.456  26.299  25.962  1.00  0.00     0.007 C 
ATOM     23  C   UNL A   1      33.667  26.357  23.489  1.00  0.00     0.007 C 
ENDBRANCH  20  21
ENDBRANCH   6  20
ENDBRANCH   3   6
ENDBRANCH   1   2
BRANCH   1  24
ATOM     24  C   UNL A   1      37.934  19.537  25.035  1.00  0.00     0.042 C 
BRANCH  24  25
ATOM     25  C   UNL A   1      39.107  20.119  25.807  1.00  0.00     0.118 C 
BRANCH  25  26
ATOM     26  N   UNL A   1      40.192  19.157  25.927  1.00  0.00    -0.352 N 
ATOM     27  C   UNL A   1      41.537  19.379  26.089  1.00  0.00     0.251 C 
ATOM     28  H   UNL A   1      39.923  18.211  25.885  1.00  0.00     0.163 HD
ATOM     29  O   UNL A   1      42.335  18.461  25.884  1.00  0.00    -0.269 OA
BRANCH  27  30
ATOM     30  C   UNL A   1      42.041  20.710  26.493  1.00  0.00     0.039 A 
ATOM     31  C   UNL A   1      42.194  21.006  27.851  1.00  0.00     0.014 A 
ATOM     32  C   UNL A   1      42.322  21.688  25.536  1.00  0.00     0.014 A 
ATOM     33  C   UNL A   1      42.677  22.260  28.242  1.00  0.00     0.010 A 
ATOM     34  C   UNL A   1      42.901  22.891  25.920  1.00  0.00     0.010 A 
ATOM     35  C   UNL A   1      43.061  23.204  27.278  1.00  0.00    -0.014 A 
BRANCH  35  36
ATOM     36  C   UNL A   1      43.569  24.552  27.641  1.00  0.00     0.031 A 
ATOM     37  C   UNL A   1      42.594  25.615  28.075  1.00  0.00     0.074 A 
ATOM     38  C   UNL A   1      44.874  24.853  27.494  1.00  0.00     0.049 A 
ATOM     39  N   UNL A   1      42.786  26.897  28.253  1.00  0.00    -0.248 NA
ATOM     40  C   UNL A   1      41.204  25.182  28.298  1.00  0.00     0.031 C 
ATOM     41  C   UNL A   1      45.917  23.926  27.054  1.00  0.00     0.029 A 
ATOM     42  N   UNL A   1      45.540  26.038  27.682  1.00  0.00    -0.354 N 
ATOM     43  C   UNL A   1      41.539  27.426  28.562  1.00  0.00     0.074 A 
ATOM     44  C   UNL A   1      40.590  26.337  28.505  1.00  0.00     0.031 C 
ATOM     45  C   UNL A   1      47.093  24.573  27.019  1.00  0.00     0.029 A 
ATOM     46  C   UNL A   1      46.881  25.969  27.389  1.00  0.00     0.049 A 
ATOM     47  H   UNL A   1      45.100  26.860  27.998  1.00  0.00     0.167 HD
ATOM     48  C   UNL A   1      41.216  28.699  28.888  1.00  0.00     0.037 A 
ATOM     49  C   UNL A   1      47.827  26.927  27.401  1.00  0.00     0.037 A 
ATOM     50  C   UNL A   1      42.171  29.767  29.004  1.00  0.00     0.049 A 
ATOM     51  C   UNL A   1      47.448  28.331  27.783  1.00  0.00     0.074 A 
ATOM     52  C   UNL A   1      41.957  31.077  29.396  1.00  0.00     0.029 A 
ATOM     53  N   UNL A   1      43.526  29.643  28.741  1.00  0.00    -0.354 N 
ATOM     54  N   UNL A   1      46.271  28.810  28.111  1.00  0.00    -0.248 NA
ATOM     55  C   UNL A   1      48.527  29.331  27.795  1.00  0.00     0.031 C 
ATOM     56  C   UNL A   1      43.180  31.754  29.342  1.00  0.00     0.029 A 
ATOM     57  C   UNL A   1      44.160  30.855  28.952  1.00  0.00     0.049 A 
ATOM     58  H   UNL A   1      43.972  28.816  28.447  1.00  0.00     0.167 HD
ATOM     59  C   UNL A   1      46.474  30.153  28.398  1.00  0.00     0.074 A 
ATOM     60  C   UNL A   1      47.885  30.414  28.212  1.00  0.00     0.031 C 
ATOM     61  C   UNL A   1      45.570  31.088  28.782  1.00  0.00     0.037 A 
BRANCH  48  62
ATOM     62  C   UNL A   1      39.770  29.002  29.151  1.00  0.00     0.057 A 
ATOM     63  C   UNL A   1      39.232  28.980  30.445  1.00  0.00     0.134 A 
ATOM     64  C   UNL A   1      38.909  29.346  28.100  1.00  0.00     0.134 A 
ATOM     65  F   UNL A   1      39.999  28.645  31.493  1.00  0.00    -0.206 F 
ATOM     66  C   UNL A   1      37.886  29.259  30.680  1.00  0.00     0.040 A 
ATOM     67  C   UNL A   1      37.568  29.655  28.327  1.00  0.00     0.040 A 
ATOM     68  F   UNL A   1      39.360  29.393  26.837  1.00  0.00    -0.206 F 
ATOM     69  C   UNL A   1      37.050  29.605  29.620  1.00  0.00     0.006 A 
ENDBRANCH  48  62
BRANCH  49  70
ATOM     70  C   UNL A   1      49.231  26.590  27.056  1.00  0.00     0.057 A 
ATOM     71  C   UNL A   1      50.101  26.071  28.020  1.00  0.00     0.134 A 
ATOM     72  C   UNL A   1      49.736  26.779  25.765  1.00  0.00     0.134 A 
ATOM     73  F   UNL A   1      49.679  25.884  29.280  1.00  0.00    -0.206 F 
ATOM     74  C   UNL A   1      51.430  25.768  27.719  1.00  0.00     0.040 A 
ATOM     75  C   UNL A   1      51.056  26.460  25.443  1.00  0.00     0.040 A 
ATOM     76  F   UNL A   1      48.949  27.266  24.794  1.00  0.00    -0.206 F 
ATOM     77  C   UNL A   1      51.909  25.959  26.425  1.00  0.00     0.006 A 
ENDBRANCH  49  70
BRANCH  61  78
ATOM     78  C   UNL A   1      46.084  32.466  29.072  1.00  0.00     0.057 A 
ATOM     79  C   UNL A   1      46.132  33.458  28.085  1.00  0.00     0.134 A 
ATOM     80  C   UNL A   1      46.475  32.818  30.369  1.00  0.00     0.134 A 
ATOM     81  F   UNL A   1      45.781  33.178  26.822  1.00  0.00    -0.206 F 
ATOM     82  C   UNL A   1      46.561  34.753  28.379  1.00  0.00     0.040 A 
ATOM     83  C   UNL A   1      46.885  34.115  30.679  1.00  0.00     0.040 A 
ATOM     84  F   UNL A   1      46.445  31.913  31.359  1.00  0.00    -0.206 F 
ATOM     85  C   UNL A   1      46.931  35.086  29.681  1.00  0.00     0.006 A 
ENDBRANCH  61  78
ENDBRANCH  35  36
ENDBRANCH  27  30
ENDBRANCH  25  26
ENDBRANCH  24  25
ENDBRANCH   1  24
TORSDOF 16
ENDMDL
MODEL 2
REMARK VINA RESULT:     -11.0      5.296     10.095
REMARK SMILES CNC(=O)CNC(=O)NC[C@H](CC(C)C)C(=O)NCCCNC(=O)c1ccc(-c2c3nc(c(-c4c(F)cccc4F)c4ccc([nH]4)c(-c4c(F)cccc4F)c4nc(c(-c5c(F)cccc5F)c5ccc2[nH]5)C=C4)C=C3)cc1
REMARK SMILES IDX 19 1 18 2 16 3 17 4 11 6 10 7 9 8 6 9 7 10 8 12 5 14 3 15
REMARK SMILES IDX 1 16 2 17 4 19 12 20 13 21 14 22 15 23 20 24 21 25 22 26
REMARK SMILES IDX 23 27 24 29 25 30 26 31 78 32 27 33 77 34 28 35 29 36 30 37
REMARK SMILES IDX 71 38 31 39 76 40 70 41 72 42 32 43 75 44 69 45 68 46 33 48
REMARK SMILES IDX 59 49 42 50 58 51 43 52 46 53 57 54 73 55 44 56 45 57 56 59
REMARK SMILES IDX 74 60 47 61 34 62 35 63 40 64 36 65 37 66 39 67 41 68 38 69
REMARK SMILES IDX 60 70 61 71 66 72 62 73 63 74 65 75 67 76 64 77 48 78 49 79
REMARK SMILES IDX 54 80 50 81 51 82 53 83 55 84 52 85
REMARK H PARENT 18 5 6 11 9 13 2 18 22 28 72 47 46 58
REMARK Flexibility Score: inf
ROOT
ATOM      1  C   UNL A   1      31.412  30.061  25.802  1.00  0.00     0.117 C 
ENDROOT
BRANCH   1   2
ATOM      2  N   UNL A   1      32.277  29.791  24.662  1.00  0.00    -0.356 N 
ATOM      3  C   UNL A   1      32.107  29.143  23.481  1.00  0.00     0.224 C 
ATOM      4  O   UNL A   1      33.139  28.911  22.841  1.00  0.00    -0.275 OA
ATOM      5  H   UNL A   1      33.183  30.157  24.772  1.00  0.00     0.163 HD
BRANCH   3   6
ATOM      6  C   UNL A   1      30.759  28.694  22.918  1.00  0.00     0.098 C 
BRANCH   6   7
ATOM      7  C   UNL A   1      30.621  27.242  22.457  1.00  0.00     0.131 C 
BRANCH   7   8
ATOM      8  N   UNL A   1      31.722  26.839  21.584  1.00  0.00    -0.337 N 
ATOM      9  N   UNL A   1      32.646  24.804  22.339  1.00  0.00    -0.329 N 
ATOM     10  C   UNL A   1      32.503  25.770  21.435  1.00  0.00     0.315 C 
ATOM     11  H   UNL A   1      33.064  23.990  21.976  1.00  0.00     0.165 HD
ATOM     12  O   UNL A   1      33.123  25.666  20.374  1.00  0.00    -0.249 OA
ATOM     13  H   UNL A   1      31.945  27.544  20.934  1.00  0.00     0.165 HD
BRANCH   9  14
ATOM     14  C   UNL A   1      32.316  24.701  23.743  1.00  0.00     0.217 C 
BRANCH  14  15
ATOM     15  C   UNL A   1      33.057  25.635  24.708  1.00  0.00     0.239 C 
ATOM     16  C   UNL A   1      31.047  26.377  26.086  1.00  0.00     0.142 C 
ATOM     17  N   UNL A   1      32.433  26.332  25.696  1.00  0.00    -0.358 N 
ATOM     18  H   UNL A   1      33.029  26.901  26.235  1.00  0.00     0.163 HD
ATOM     19  O   UNL A   1      34.258  25.872  24.530  1.00  0.00    -0.273 OA
ENDBRANCH  14  15
ENDBRANCH   9  14
ENDBRANCH   7   8
ENDBRANCH   6   7
BRANCH   6  20
ATOM     20  C   UNL A   1      30.102  29.749  21.996  1.00  0.00     0.018 C 
BRANCH  20  21
ATOM     21  C   UNL A   1      28.672  30.221  22.320  1.00  0.00    -0.017 C 
ATOM     22  C   UNL A   1      28.612  31.191  23.499  1.00  0.00     0.007 C 
ATOM     23  C   UNL A   1      28.047  30.909  21.098  1.00  0.00     0.007 C 
ENDBRANCH  20  21
ENDBRANCH   6  20
ENDBRANCH   3   6
ENDBRANCH   1   2
BRANCH   1  24
ATOM     24  C   UNL A   1      31.345  31.549  26.109  1.00  0.00     0.042 C 
BRANCH  24  25
ATOM     25  C   UNL A   1      32.512  32.012  26.965  1.00  0.00     0.118 C 
BRANCH  25  26
ATOM     26  N   UNL A   1      32.386  33.419  27.317  1.00  0.00    -0.352 N 
ATOM     27  C   UNL A   1      33.067  34.142  28.264  1.00  0.00     0.251 C 
ATOM     28  H   UNL A   1      31.717  33.923  26.801  1.00  0.00     0.163 HD
ATOM     29  O   UNL A   1      32.633  35.240  28.620  1.00  0.00    -0.269 OA
BRANCH  27  30
ATOM     30  C   UNL A   1      34.307  33.613  28.873  1.00  0.00     0.039 A 
ATOM     31  C   UNL A   1      35.540  34.177  28.528  1.00  0.00     0.014 A 
ATOM     32  C   UNL A   1      34.265  32.529  29.753  1.00  0.00     0.014 A 
ATOM     33  C   UNL A   1      36.717  33.688  29.105  1.00  0.00     0.010 A 
ATOM     34  C   UNL A   1      35.420  32.116  30.405  1.00  0.00     0.010 A 
ATOM     35  C   UNL A   1      36.664  32.671  30.070  1.00  0.00    -0.014 A 
BRANCH  35  36
ATOM     36  C   UNL A   1      37.885  32.110  30.704  1.00  0.00     0.031 A 
ATOM     37  C   UNL A   1      38.635  31.003  30.010  1.00  0.00     0.074 A 
ATOM     38  C   UNL A   1      38.269  32.518  31.930  1.00  0.00     0.049 A 
ATOM     39  N   UNL A   1      39.601  30.244  30.459  1.00  0.00    -0.248 NA
ATOM     40  C   UNL A   1      38.208  30.679  28.638  1.00  0.00     0.031 C 
ATOM     41  C   UNL A   1      37.614  33.559  32.723  1.00  0.00     0.029 A 
ATOM     42  N   UNL A   1      39.295  32.085  32.731  1.00  0.00    -0.354 N 
ATOM     43  C   UNL A   1      39.863  29.329  29.446  1.00  0.00     0.074 A 
ATOM     44  C   UNL A   1      38.928  29.598  28.378  1.00  0.00     0.031 C 
ATOM     45  C   UNL A   1      38.263  33.694  33.891  1.00  0.00     0.029 A 
ATOM     46  C   UNL A   1      39.349  32.720  33.948  1.00  0.00     0.049 A 
ATOM     47  H   UNL A   1      39.933  31.386  32.460  1.00  0.00     0.167 HD
ATOM     48  C   UNL A   1      40.814  28.366  29.400  1.00  0.00     0.037 A 
ATOM     49  C   UNL A   1      40.169  32.525  34.998  1.00  0.00     0.037 A 
ATOM     50  C   UNL A   1      41.783  28.141  30.437  1.00  0.00     0.049 A 
ATOM     51  C   UNL A   1      41.230  31.462  34.917  1.00  0.00     0.074 A 
ATOM     52  C   UNL A   1      42.832  27.239  30.458  1.00  0.00     0.029 A 
ATOM     53  N   UNL A   1      41.829  28.837  31.636  1.00  0.00    -0.354 N 
ATOM     54  N   UNL A   1      41.493  30.630  33.937  1.00  0.00    -0.248 NA
ATOM     55  C   UNL A   1      42.107  31.308  36.086  1.00  0.00     0.031 C 
ATOM     56  C   UNL A   1      43.495  27.368  31.682  1.00  0.00     0.029 A 
ATOM     57  C   UNL A   1      42.882  28.377  32.407  1.00  0.00     0.049 A 
ATOM     58  H   UNL A   1      41.205  29.552  31.898  1.00  0.00     0.167 HD
ATOM     59  C   UNL A   1      42.581  29.878  34.359  1.00  0.00     0.074 A 
ATOM     60  C   UNL A   1      42.935  30.355  35.679  1.00  0.00     0.031 C 
ATOM     61  C   UNL A   1      43.230  28.880  33.710  1.00  0.00     0.037 A 
BRANCH  48  62
ATOM     62  C   UNL A   1      40.856  27.492  28.180  1.00  0.00     0.057 A 
ATOM     63  C   UNL A   1      41.647  27.809  27.069  1.00  0.00     0.134 A 
ATOM     64  C   UNL A   1      40.116  26.304  28.128  1.00  0.00     0.134 A 
ATOM     65  F   UNL A   1      42.369  28.940  27.049  1.00  0.00    -0.206 F 
ATOM     66  C   UNL A   1      41.678  26.993  25.938  1.00  0.00     0.040 A 
ATOM     67  C   UNL A   1      40.161  25.465  27.014  1.00  0.00     0.040 A 
ATOM     68  F   UNL A   1      39.342  25.936  29.161  1.00  0.00    -0.206 F 
ATOM     69  C   UNL A   1      40.938  25.813  25.911  1.00  0.00     0.006 A 
ENDBRANCH  48  62
BRANCH  49  70
ATOM     70  C   UNL A   1      40.034  33.367  36.213  1.00  0.00     0.057 A 
ATOM     71  C   UNL A   1      39.211  32.969  37.273  1.00  0.00     0.134 A 
ATOM     72  C   UNL A   1      40.716  34.582  36.346  1.00  0.00     0.134 A 
ATOM     73  F   UNL A   1      38.518  31.824  37.196  1.00  0.00    -0.206 F 
ATOM     74  C   UNL A   1      39.056  33.757  38.414  1.00  0.00     0.040 A 
ATOM     75  C   UNL A   1      40.588  35.370  37.491  1.00  0.00     0.040 A 
ATOM     76  F   UNL A   1      41.527  35.014  35.369  1.00  0.00    -0.206 F 
ATOM     77  C   UNL A   1      39.749  34.960  38.527  1.00  0.00     0.006 A 
ENDBRANCH  49  70
BRANCH  61  78
ATOM     78  C   UNL A   1      44.416  28.270  34.393  1.00  0.00     0.057 A 
ATOM     79  C   UNL A   1      44.299  27.123  35.188  1.00  0.00     0.134 A 
ATOM     80  C   UNL A   1      45.697  28.800  34.200  1.00  0.00     0.134 A 
ATOM     81  F   UNL A   1      43.097  26.576  35.420  1.00  0.00    -0.206 F 
ATOM     82  C   UNL A   1      45.418  26.532  35.777  1.00  0.00     0.040 A 
ATOM     83  C   UNL A   1      46.825  28.205  34.765  1.00  0.00     0.040 A 
ATOM     84  F   UNL A   1      45.874  29.894  33.443  1.00  0.00    -0.206 F 
ATOM     85  C   UNL A   1      46.686  27.068  35.558  1.00  0.00     0.006 A 
ENDBRANCH  61  78
ENDBRANCH  35  36
ENDBRANCH  27  30
ENDBRANCH  25  26
ENDBRANCH  24  25
ENDBRANCH   1  24
TORSDOF 16
ENDMDL
MODEL 3
REMARK VINA RESULT:     -10.8      3.702      8.048
REMARK SMILES CNC(=O)CNC(=O)NC[C@H](CC(C)C)C(=O)NCCCNC(=O)c1ccc(-c2c3nc(c(-c4c(F)cccc4F)c4ccc([nH]4)c(-c4c(F)cccc4F)c4nc(c(-c5c(F)cccc5F)c5ccc2[nH]5)C=C4)C=C3)cc1
REMARK SMILES IDX 19 1 18 2 16 3 17 4 11 6 10 7 9 8 6 9 7 10 8 12 5 14 3 15
REMARK SMILES IDX 1 16 2 17 4 19 12 20 13 21 14 22 15 23 20 24 21 25 22 26
REMARK SMILES IDX 23 27 24 29 25 30 26 31 78 32 27 33 77 34 28 35 29 36 30 37
REMARK SMILES IDX 71 38 31 39 76 40 70 41 72 42 32 43 75 44 69 45 68 46 33 48
REMARK SMILES IDX 59 49 42 50 58 51 43 52 46 53 57 54 73 55 44 56 45 57 56 59
REMARK SMILES IDX 74 60 47 61 34 62 35 63 40 64 36 65 37 66 39 67 41 68 38 69
REMARK SMILES IDX 60 70 61 71 66 72 62 73 63 74 65 75 67 76 64 77 48 78 49 79
REMARK SMILES IDX 54 80 50 81 51 82 53 83 55 84 52 85
REMARK H PARENT 18 5 6 11 9 13 2 18 22 28 72 47 46 58
REMARK Flexibility Score: inf
ROOT
ATOM      1  C   UNL A   1      34.594  24.545  25.315  1.00  0.00     0.117 C 
ENDROOT
BRANCH   1   2
ATOM      2  N   UNL A   1      34.465  24.255  23.893  1.00  0.00    -0.356 N 
ATOM      3  C   UNL A   1      33.417  24.212  23.030  1.00  0.00     0.224 C 
ATOM      4  O   UNL A   1      33.650  23.705  21.927  1.00  0.00    -0.275 OA
ATOM      5  H   UNL A   1      35.325  24.044  23.464  1.00  0.00     0.163 HD
BRANCH   3   6
ATOM      6  C   UNL A   1      32.013  24.731  23.335  1.00  0.00     0.098 C 
BRANCH   6   7
ATOM      7  C   UNL A   1      30.922  23.708  23.651  1.00  0.00     0.131 C 
BRANCH   7   8
ATOM      8  N   UNL A   1      30.668  23.604  25.087  1.00  0.00    -0.337 N 
ATOM      9  N   UNL A   1      31.878  21.792  25.991  1.00  0.00    -0.329 N 
ATOM     10  C   UNL A   1      31.145  22.897  26.111  1.00  0.00     0.315 C 
ATOM     11  H   UNL A   1      32.339  21.538  26.823  1.00  0.00     0.165 HD
ATOM     12  O   UNL A   1      30.901  23.309  27.246  1.00  0.00    -0.249 OA
ATOM     13  H   UNL A   1      29.956  24.221  25.374  1.00  0.00     0.165 HD
BRANCH   9  14
ATOM     14  C   UNL A   1      32.139  20.887  24.894  1.00  0.00     0.217 C 
BRANCH  14  15
ATOM     15  C   UNL A   1      32.832  19.560  25.229  1.00  0.00     0.239 C 
ATOM     16  C   UNL A   1      35.240  20.357  25.002  1.00  0.00     0.142 C 
ATOM     17  N   UNL A   1      34.183  19.409  25.249  1.00  0.00    -0.358 N 
ATOM     18  H   UNL A   1      34.492  18.501  25.471  1.00  0.00     0.163 HD
ATOM     19  O   UNL A   1      32.154  18.536  25.379  1.00  0.00    -0.273 OA
ENDBRANCH  14  15
ENDBRANCH   9  14
ENDBRANCH   7   8
ENDBRANCH   6   7
BRANCH   6  20
ATOM     20  C   UNL A   1      31.583  25.899  22.415  1.00  0.00     0.018 C 
BRANCH  20  21
ATOM     21  C   UNL A   1      31.290  27.270  23.054  1.00  0.00    -0.017 C 
ATOM     22  C   UNL A   1      29.799  27.530  23.261  1.00  0.00     0.007 C 
ATOM     23  C   UNL A   1      31.993  27.388  24.414  1.00  0.00     0.007 C 
ENDBRANCH  20  21
ENDBRANCH   6  20
ENDBRANCH   3   6
ENDBRANCH   1   2
BRANCH   1  24
ATOM     24  C   UNL A   1      35.752  23.780  25.935  1.00  0.00     0.042 C 
BRANCH  24  25
ATOM     25  C   UNL A   1      37.007  23.846  25.080  1.00  0.00     0.118 C 
BRANCH  25  26
ATOM     26  N   UNL A   1      37.970  22.827  25.472  1.00  0.00    -0.352 N 
ATOM     27  C   UNL A   1      39.162  22.967  26.138  1.00  0.00     0.251 C 
ATOM     28  H   UNL A   1      37.731  21.905  25.224  1.00  0.00     0.163 HD
ATOM     29  O   UNL A   1      39.976  22.041  26.130  1.00  0.00    -0.269 OA
BRANCH  27  30
ATOM     30  C   UNL A   1      39.487  24.222  26.851  1.00  0.00     0.039 A 
ATOM     31  C   UNL A   1      40.258  25.198  26.213  1.00  0.00     0.014 A 
ATOM     32  C   UNL A   1      39.070  24.424  28.169  1.00  0.00     0.014 A 
ATOM     33  C   UNL A   1      40.564  26.391  26.877  1.00  0.00     0.010 A 
ATOM     34  C   UNL A   1      39.282  25.649  28.787  1.00  0.00     0.010 A 
ATOM     35  C   UNL A   1      40.055  26.638  28.160  1.00  0.00    -0.014 A 
BRANCH  35  36
ATOM     36  C   UNL A   1      40.359  27.883  28.913  1.00  0.00     0.031 A 
ATOM     37  C   UNL A   1      41.655  27.987  29.674  1.00  0.00     0.074 A 
ATOM     38  C   UNL A   1      39.449  28.873  28.992  1.00  0.00     0.049 A 
ATOM     39  N   UNL A   1      42.039  28.888  30.541  1.00  0.00    -0.248 NA
ATOM     40  C   UNL A   1      42.632  26.906  29.461  1.00  0.00     0.031 C 
ATOM     41  C   UNL A   1      38.144  28.886  28.329  1.00  0.00     0.029 A 
ATOM     42  N   UNL A   1      39.478  30.055  29.689  1.00  0.00    -0.354 N 
ATOM     43  C   UNL A   1      43.276  28.459  31.007  1.00  0.00     0.074 A 
ATOM     44  C   UNL A   1      43.558  27.197  30.362  1.00  0.00     0.031 C 
ATOM     45  C   UNL A   1      37.504  30.025  28.639  1.00  0.00     0.029 A 
ATOM     46  C   UNL A   1      38.332  30.801  29.558  1.00  0.00     0.049 A 
ATOM     47  H   UNL A   1      40.248  30.342  30.232  1.00  0.00     0.167 HD
ATOM     48  C   UNL A   1      44.113  29.071  31.877  1.00  0.00     0.037 A 
ATOM     49  C   UNL A   1      37.981  31.969  30.128  1.00  0.00     0.037 A 
ATOM     50  C   UNL A   1      43.857  30.356  32.470  1.00  0.00     0.049 A 
ATOM     51  C   UNL A   1      38.934  32.641  31.077  1.00  0.00     0.074 A 
ATOM     52  C   UNL A   1      44.672  31.096  33.309  1.00  0.00     0.029 A 
ATOM     53  N   UNL A   1      42.703  31.097  32.275  1.00  0.00    -0.354 N 
ATOM     54  N   UNL A   1      40.118  32.243  31.480  1.00  0.00    -0.248 NA
ATOM     55  C   UNL A   1      38.504  33.923  31.655  1.00  0.00     0.031 C 
ATOM     56  C   UNL A   1      43.997  32.273  33.645  1.00  0.00     0.029 A 
ATOM     57  C   UNL A   1      42.778  32.282  32.986  1.00  0.00     0.049 A 
ATOM     58  H   UNL A   1      41.942  30.821  31.714  1.00  0.00     0.167 HD
ATOM     59  C   UNL A   1      40.585  33.236  32.329  1.00  0.00     0.074 A 
ATOM     60  C   UNL A   1      39.562  34.259  32.381  1.00  0.00     0.031 C 
ATOM     61  C   UNL A   1      41.757  33.297  33.007  1.00  0.00     0.037 A 
BRANCH  48  62
ATOM     62  C   UNL A   1      45.388  28.362  32.229  1.00  0.00     0.057 A 
ATOM     63  C   UNL A   1      45.500  27.565  33.375  1.00  0.00     0.134 A 
ATOM     64  C   UNL A   1      46.510  28.457  31.396  1.00  0.00     0.134 A 
ATOM     65  F   UNL A   1      44.466  27.444  34.222  1.00  0.00    -0.206 F 
ATOM     66  C   UNL A   1      46.690  26.912  33.697  1.00  0.00     0.040 A 
ATOM     67  C   UNL A   1      47.697  27.785  31.693  1.00  0.00     0.040 A 
ATOM     68  F   UNL A   1      46.470  29.198  30.278  1.00  0.00    -0.206 F 
ATOM     69  C   UNL A   1      47.792  27.016  32.850  1.00  0.00     0.006 A 
ENDBRANCH  48  62
BRANCH  49  70
ATOM     70  C   UNL A   1      36.672  32.591  29.805  1.00  0.00     0.057 A 
ATOM     71  C   UNL A   1      36.549  33.489  28.739  1.00  0.00     0.134 A 
ATOM     72  C   UNL A   1      35.521  32.309  30.549  1.00  0.00     0.134 A 
ATOM     73  F   UNL A   1      37.621  33.813  28.002  1.00  0.00    -0.206 F 
ATOM     74  C   UNL A   1      35.331  34.099  28.434  1.00  0.00     0.040 A 
ATOM     75  C   UNL A   1      34.291  32.894  30.241  1.00  0.00     0.040 A 
ATOM     76  F   UNL A   1      35.572  31.450  31.577  1.00  0.00    -0.206 F 
ATOM     77  C   UNL A   1      34.197  33.799  29.184  1.00  0.00     0.006 A 
ENDBRANCH  49  70
BRANCH  61  78
ATOM     78  C   UNL A   1      42.020  34.526  33.823  1.00  0.00     0.057 A 
ATOM     79  C   UNL A   1      41.695  34.591  35.183  1.00  0.00     0.134 A 
ATOM     80  C   UNL A   1      42.663  35.632  33.254  1.00  0.00     0.134 A 
ATOM     81  F   UNL A   1      41.068  33.568  35.782  1.00  0.00    -0.206 F 
ATOM     82  C   UNL A   1      41.993  35.720  35.947  1.00  0.00     0.040 A 
ATOM     83  C   UNL A   1      42.985  36.757  34.013  1.00  0.00     0.040 A 
ATOM     84  F   UNL A   1      43.006  35.627  31.957  1.00  0.00    -0.206 F 
ATOM     85  C   UNL A   1      42.647  36.804  35.363  1.00  0.00     0.006 A 
ENDBRANCH  61  78
ENDBRANCH  35  36
ENDBRANCH  27  30
ENDBRANCH  25  26
ENDBRANCH  24  25
ENDBRANCH   1  24
TORSDOF 16
ENDMDL
