MODEL 1
REMARK VINA RESULT:     -11.3      0.000      0.000
REMARK SMILES C[C@@H](C(=O)NCCCNC(=O)c1ccc(-c2c3nc(c(-c4c(F)cccc4F)c4ccc([nH]4)c(-c4c(F)cccc4F)c4nc(c(-c5c(F)cccc5F)c5ccc2[nH]5)C=C4)C=C3)cc1)c1ccc(Cc2cccs2)cc1F
REMARK SMILES IDX 6 1 5 2 3 3 4 4 2 6 1 7 66 8 67 9 77 10 68 11 76 12 78 13
REMARK SMILES IDX 69 14 70 15 71 16 72 17 75 18 73 19 74 20 7 21 8 22 9 23
REMARK SMILES IDX 10 24 11 26 12 27 13 28 65 29 14 30 64 31 15 32 16 33 17 34
REMARK SMILES IDX 58 35 18 36 63 37 57 38 59 39 19 40 62 41 56 42 55 43 20 45
REMARK SMILES IDX 46 46 29 47 45 48 30 49 33 50 44 51 60 52 31 53 32 54 43 56
REMARK SMILES IDX 61 57 34 58 21 59 22 60 27 61 23 62 24 63 26 64 28 65 25 66
REMARK SMILES IDX 47 67 48 68 53 69 49 70 50 71 52 72 54 73 51 74 35 75 36 76
REMARK SMILES IDX 41 77 37 78 38 79 40 80 42 81 39 82
REMARK H PARENT 5 5 9 25 59 44 33 55
REMARK Flexibility Score: inf
ROOT
ATOM      1  C   UNL A   1      31.793  30.192  26.335  1.00  0.00     0.117 C 
ENDROOT
BRANCH   1   2
ATOM      2  N   UNL A   1      31.226  29.711  25.091  1.00  0.00    -0.356 N 
ATOM      3  C   UNL A   1      31.799  29.070  24.034  1.00  0.00     0.227 C 
ATOM      4  O   UNL A   1      31.049  28.841  23.083  1.00  0.00    -0.274 OA
ATOM      5  H   UNL A   1      30.261  29.876  24.993  1.00  0.00     0.163 HD
BRANCH   3   6
ATOM      6  C   UNL A   1      33.280  28.652  24.081  1.00  0.00     0.108 C 
ATOM      7  C   UNL A   1      34.025  28.973  22.783  1.00  0.00     0.023 C 
BRANCH   6   8
ATOM      8  C   UNL A   1      33.497  27.176  24.396  1.00  0.00    -0.000 A 
ATOM      9  C   UNL A   1      33.678  26.219  23.387  1.00  0.00     0.008 A 
ATOM     10  C   UNL A   1      33.604  26.750  25.724  1.00  0.00     0.127 A 
ATOM     11  C   UNL A   1      33.914  24.881  23.703  1.00  0.00     0.004 A 
ATOM     12  C   UNL A   1      33.839  25.414  26.049  1.00  0.00     0.043 A 
ATOM     13  F   UNL A   1      33.508  27.643  26.719  1.00  0.00    -0.207 F 
ATOM     14  C   UNL A   1      33.989  24.459  25.036  1.00  0.00    -0.040 A 
BRANCH  14  15
ATOM     15  C   UNL A   1      34.234  23.003  25.365  1.00  0.00     0.082 C 
BRANCH  15  16
ATOM     16  C   UNL A   1      35.690  22.620  25.403  1.00  0.00     0.009 A 
ATOM     17  C   UNL A   1      36.781  23.383  25.778  1.00  0.00     0.016 A 
ATOM     18  S   UNL A   1      36.167  21.023  24.993  1.00  0.00    -0.149 S 
ATOM     19  C   UNL A   1      38.004  22.655  25.729  1.00  0.00     0.012 A 
ATOM     20  C   UNL A   1      37.811  21.354  25.325  1.00  0.00     0.065 A 
ENDBRANCH  15  16
ENDBRANCH  14  15
ENDBRANCH   6   8
ENDBRANCH   3   6
ENDBRANCH   1   2
BRANCH   1  21
ATOM     21  C   UNL A   1      31.613  31.700  26.488  1.00  0.00     0.042 C 
BRANCH  21  22
ATOM     22  C   UNL A   1      32.739  32.391  27.251  1.00  0.00     0.118 C 
BRANCH  22  23
ATOM     23  N   UNL A   1      32.429  33.772  27.592  1.00  0.00    -0.352 N 
ATOM     24  C   UNL A   1      33.036  34.607  28.497  1.00  0.00     0.251 C 
ATOM     25  H   UNL A   1      31.670  34.164  27.103  1.00  0.00     0.163 HD
ATOM     26  O   UNL A   1      32.524  35.687  28.780  1.00  0.00    -0.269 OA
BRANCH  24  27
ATOM     27  C   UNL A   1      34.294  34.194  29.152  1.00  0.00     0.039 A 
ATOM     28  C   UNL A   1      34.234  33.492  30.359  1.00  0.00     0.014 A 
ATOM     29  C   UNL A   1      35.529  34.494  28.573  1.00  0.00     0.014 A 
ATOM     30  C   UNL A   1      35.411  33.021  30.946  1.00  0.00     0.010 A 
ATOM     31  C   UNL A   1      36.692  33.958  29.115  1.00  0.00     0.010 A 
ATOM     32  C   UNL A   1      36.645  33.215  30.306  1.00  0.00    -0.014 A 
BRANCH  32  33
ATOM     33  C   UNL A   1      37.906  32.654  30.851  1.00  0.00     0.031 A 
ATOM     34  C   UNL A   1      38.498  31.414  30.244  1.00  0.00     0.074 A 
ATOM     35  C   UNL A   1      38.457  33.194  31.956  1.00  0.00     0.049 A 
ATOM     36  N   UNL A   1      39.496  30.680  30.664  1.00  0.00    -0.248 NA
ATOM     37  C   UNL A   1      37.856  30.914  29.018  1.00  0.00     0.031 C 
ATOM     38  C   UNL A   1      37.953  34.371  32.663  1.00  0.00     0.029 A 
ATOM     39  N   UNL A   1      39.544  32.800  32.696  1.00  0.00    -0.354 N 
ATOM     40  C   UNL A   1      39.584  29.621  29.771  1.00  0.00     0.074 A 
ATOM     41  C   UNL A   1      38.508  29.780  28.818  1.00  0.00     0.031 C 
ATOM     42  C   UNL A   1      38.726  34.602  33.736  1.00  0.00     0.029 A 
ATOM     43  C   UNL A   1      39.750  33.565  33.818  1.00  0.00     0.049 A 
ATOM     44  H   UNL A   1      40.120  32.042  32.447  1.00  0.00     0.167 HD
ATOM     45  C   UNL A   1      40.492  28.615  29.739  1.00  0.00     0.037 A 
ATOM     46  C   UNL A   1      40.645  33.432  34.816  1.00  0.00     0.037 A 
ATOM     47  C   UNL A   1      41.570  28.473  30.681  1.00  0.00     0.049 A 
ATOM     48  C   UNL A   1      41.636  32.303  34.771  1.00  0.00     0.074 A 
ATOM     49  C   UNL A   1      42.581  27.529  30.698  1.00  0.00     0.029 A 
ATOM     50  N   UNL A   1      41.770  29.293  31.783  1.00  0.00    -0.354 N 
ATOM     51  N   UNL A   1      41.755  31.346  33.882  1.00  0.00    -0.248 NA
ATOM     52  C   UNL A   1      42.620  32.236  35.861  1.00  0.00     0.031 C 
ATOM     53  C   UNL A   1      43.361  27.745  31.838  1.00  0.00     0.029 A 
ATOM     54  C   UNL A   1      42.870  28.859  32.501  1.00  0.00     0.049 A 
ATOM     55  H   UNL A   1      41.211  30.068  32.018  1.00  0.00     0.167 HD
ATOM     56  C   UNL A   1      42.841  30.581  34.289  1.00  0.00     0.074 A 
ATOM     57  C   UNL A   1      43.349  31.187  35.502  1.00  0.00     0.031 C 
ATOM     58  C   UNL A   1      43.370  29.478  33.704  1.00  0.00     0.037 A 
BRANCH  45  59
ATOM     59  C   UNL A   1      40.341  27.587  28.654  1.00  0.00     0.057 A 
ATOM     60  C   UNL A   1      39.554  26.440  28.821  1.00  0.00     0.134 A 
ATOM     61  C   UNL A   1      40.990  27.748  27.422  1.00  0.00     0.134 A 
ATOM     62  F   UNL A   1      38.912  26.217  29.978  1.00  0.00    -0.206 F 
ATOM     63  C   UNL A   1      39.453  25.469  27.821  1.00  0.00     0.040 A 
ATOM     64  C   UNL A   1      40.870  26.802  26.404  1.00  0.00     0.040 A 
ATOM     65  F   UNL A   1      41.751  28.828  27.189  1.00  0.00    -0.206 F 
ATOM     66  C   UNL A   1      40.110  25.652  26.607  1.00  0.00     0.006 A 
ENDBRANCH  45  59
BRANCH  46  67
ATOM     67  C   UNL A   1      40.635  34.401  35.940  1.00  0.00     0.057 A 
ATOM     68  C   UNL A   1      39.849  34.182  37.077  1.00  0.00     0.134 A 
ATOM     69  C   UNL A   1      41.434  35.551  35.919  1.00  0.00     0.134 A 
ATOM     70  F   UNL A   1      39.052  33.107  37.149  1.00  0.00    -0.206 F 
ATOM     71  C   UNL A   1      39.852  35.075  38.150  1.00  0.00     0.040 A 
ATOM     72  C   UNL A   1      41.465  36.440  36.995  1.00  0.00     0.040 A 
ATOM     73  F   UNL A   1      42.218  35.812  34.863  1.00  0.00    -0.206 F 
ATOM     74  C   UNL A   1      40.669  36.205  38.114  1.00  0.00     0.006 A 
ENDBRANCH  46  67
BRANCH  58  75
ATOM     75  C   UNL A   1      44.587  28.870  34.339  1.00  0.00     0.057 A 
ATOM     76  C   UNL A   1      44.494  27.831  35.272  1.00  0.00     0.134 A 
ATOM     77  C   UNL A   1      45.869  29.276  33.945  1.00  0.00     0.134 A 
ATOM     78  F   UNL A   1      43.297  27.404  35.700  1.00  0.00    -0.206 F 
ATOM     79  C   UNL A   1      45.636  27.220  35.798  1.00  0.00     0.040 A 
ATOM     80  C   UNL A   1      47.016  28.656  34.444  1.00  0.00     0.040 A 
ATOM     81  F   UNL A   1      46.027  30.261  33.049  1.00  0.00    -0.206 F 
ATOM     82  C   UNL A   1      46.900  27.626  35.375  1.00  0.00     0.006 A 
ENDBRANCH  58  75
ENDBRANCH  32  33
ENDBRANCH  24  27
ENDBRANCH  22  23
ENDBRANCH  21  22
ENDBRANCH   1  21
TORSDOF 13
ENDMDL
MODEL 2
REMARK VINA RESULT:     -11.2      5.521     10.365
REMARK SMILES C[C@@H](C(=O)NCCCNC(=O)c1ccc(-c2c3nc(c(-c4c(F)cccc4F)c4ccc([nH]4)c(-c4c(F)cccc4F)c4nc(c(-c5c(F)cccc5F)c5ccc2[nH]5)C=C4)C=C3)cc1)c1ccc(Cc2cccs2)cc1F
REMARK SMILES IDX 6 1 5 2 3 3 4 4 2 6 1 7 66 8 67 9 77 10 68 11 76 12 78 13
REMARK SMILES IDX 69 14 70 15 71 16 72 17 75 18 73 19 74 20 7 21 8 22 9 23
REMARK SMILES IDX 10 24 11 26 12 27 13 28 65 29 14 30 64 31 15 32 16 33 17 34
REMARK SMILES IDX 58 35 18 36 63 37 57 38 59 39 19 40 62 41 56 42 55 43 20 45
REMARK SMILES IDX 46 46 29 47 45 48 30 49 33 50 44 51 60 52 31 53 32 54 43 56
REMARK SMILES IDX 61 57 34 58 21 59 22 60 27 61 23 62 24 63 26 64 28 65 25 66
REMARK SMILES IDX 47 67 48 68 53 69 49 70 50 71 52 72 54 73 51 74 35 75 36 76
REMARK SMILES IDX 41 77 37 78 38 79 40 80 42 81 39 82
REMARK H PARENT 5 5 9 25 59 44 33 55
REMARK Flexibility Score: inf
ROOT
ATOM      1  C   UNL A   1      37.146  21.335  24.863  1.00  0.00     0.117 C 
ENDROOT
BRANCH   1   2
ATOM      2  N   UNL A   1      35.767  20.960  24.627  1.00  0.00    -0.356 N 
ATOM      3  C   UNL A   1      34.619  21.314  25.270  1.00  0.00     0.227 C 
ATOM      4  O   UNL A   1      33.591  20.771  24.860  1.00  0.00    -0.274 OA
ATOM      5  H   UNL A   1      35.636  20.345  23.870  1.00  0.00     0.163 HD
BRANCH   3   6
ATOM      6  C   UNL A   1      34.647  22.349  26.411  1.00  0.00     0.108 C 
ATOM      7  C   UNL A   1      33.961  21.845  27.682  1.00  0.00     0.023 C 
BRANCH   6   8
ATOM      8  C   UNL A   1      34.029  23.693  26.042  1.00  0.00    -0.000 A 
ATOM      9  C   UNL A   1      32.741  24.058  26.458  1.00  0.00     0.008 A 
ATOM     10  C   UNL A   1      34.779  24.641  25.338  1.00  0.00     0.127 A 
ATOM     11  C   UNL A   1      32.213  25.310  26.141  1.00  0.00     0.004 A 
ATOM     12  C   UNL A   1      34.260  25.895  25.016  1.00  0.00     0.043 A 
ATOM     13  F   UNL A   1      36.041  24.361  24.982  1.00  0.00    -0.207 F 
ATOM     14  C   UNL A   1      32.961  26.241  25.409  1.00  0.00    -0.040 A 
BRANCH  14  15
ATOM     15  C   UNL A   1      32.373  27.591  25.061  1.00  0.00     0.082 C 
BRANCH  15  16
ATOM     16  C   UNL A   1      32.846  28.711  25.949  1.00  0.00     0.009 A 
ATOM     17  C   UNL A   1      34.096  28.912  26.507  1.00  0.00     0.016 A 
ATOM     18  S   UNL A   1      31.782  29.999  26.345  1.00  0.00    -0.149 S 
ATOM     19  C   UNL A   1      34.177  30.121  27.256  1.00  0.00     0.012 A 
ATOM     20  C   UNL A   1      32.988  30.813  27.241  1.00  0.00     0.065 A 
ENDBRANCH  15  16
ENDBRANCH  14  15
ENDBRANCH   6   8
ENDBRANCH   3   6
ENDBRANCH   1   2
BRANCH   1  21
ATOM     21  C   UNL A   1      38.045  20.109  24.998  1.00  0.00     0.042 C 
BRANCH  21  22
ATOM     22  C   UNL A   1      39.163  20.262  26.025  1.00  0.00     0.118 C 
BRANCH  22  23
ATOM     23  N   UNL A   1      40.155  19.199  25.947  1.00  0.00    -0.352 N 
ATOM     24  C   UNL A   1      41.524  19.272  26.018  1.00  0.00     0.251 C 
ATOM     25  H   UNL A   1      39.789  18.293  25.824  1.00  0.00     0.163 HD
ATOM     26  O   UNL A   1      42.209  18.287  25.755  1.00  0.00    -0.269 OA
BRANCH  24  27
ATOM     27  C   UNL A   1      42.175  20.545  26.387  1.00  0.00     0.039 A 
ATOM     28  C   UNL A   1      42.685  21.367  25.378  1.00  0.00     0.014 A 
ATOM     29  C   UNL A   1      42.278  20.930  27.726  1.00  0.00     0.014 A 
ATOM     30  C   UNL A   1      43.227  22.612  25.705  1.00  0.00     0.010 A 
ATOM     31  C   UNL A   1      42.744  22.201  28.043  1.00  0.00     0.010 A 
ATOM     32  C   UNL A   1      43.222  23.056  27.036  1.00  0.00    -0.014 A 
BRANCH  32  33
ATOM     33  C   UNL A   1      43.706  24.407  27.413  1.00  0.00     0.031 A 
ATOM     34  C   UNL A   1      42.725  25.466  27.825  1.00  0.00     0.074 A 
ATOM     35  C   UNL A   1      45.012  24.712  27.279  1.00  0.00     0.049 A 
ATOM     36  N   UNL A   1      42.922  26.741  28.038  1.00  0.00    -0.248 NA
ATOM     37  C   UNL A   1      41.326  25.038  27.982  1.00  0.00     0.031 C 
ATOM     38  C   UNL A   1      46.057  23.783  26.847  1.00  0.00     0.029 A 
ATOM     39  N   UNL A   1      45.676  25.899  27.462  1.00  0.00    -0.354 N 
ATOM     40  C   UNL A   1      41.672  27.271  28.330  1.00  0.00     0.074 A 
ATOM     41  C   UNL A   1      40.718  26.190  28.215  1.00  0.00     0.031 C 
ATOM     42  C   UNL A   1      47.229  24.436  26.795  1.00  0.00     0.029 A 
ATOM     43  C   UNL A   1      47.010  25.836  27.144  1.00  0.00     0.049 A 
ATOM     44  H   UNL A   1      45.237  26.717  27.789  1.00  0.00     0.167 HD
ATOM     45  C   UNL A   1      41.351  28.541  28.678  1.00  0.00     0.037 A 
ATOM     46  C   UNL A   1      47.948  26.803  27.110  1.00  0.00     0.037 A 
ATOM     47  C   UNL A   1      42.309  29.606  28.807  1.00  0.00     0.049 A 
ATOM     48  C   UNL A   1      47.573  28.208  27.487  1.00  0.00     0.074 A 
ATOM     49  C   UNL A   1      42.097  30.910  29.218  1.00  0.00     0.029 A 
ATOM     50  N   UNL A   1      43.661  29.494  28.514  1.00  0.00    -0.354 N 
ATOM     51  N   UNL A   1      46.399  28.684  27.829  1.00  0.00    -0.248 NA
ATOM     52  C   UNL A   1      48.647  29.211  27.480  1.00  0.00     0.031 C 
ATOM     53  C   UNL A   1      43.309  31.601  29.123  1.00  0.00     0.029 A 
ATOM     54  C   UNL A   1      44.289  30.711  28.707  1.00  0.00     0.049 A 
ATOM     55  H   UNL A   1      44.106  28.669  28.213  1.00  0.00     0.167 HD
ATOM     56  C   UNL A   1      46.599  30.031  28.104  1.00  0.00     0.074 A 
ATOM     57  C   UNL A   1      48.006  30.296  27.893  1.00  0.00     0.031 C 
ATOM     58  C   UNL A   1      45.695  30.960  28.501  1.00  0.00     0.037 A 
BRANCH  45  59
ATOM     59  C   UNL A   1      39.900  28.839  28.930  1.00  0.00     0.057 A 
ATOM     60  C   UNL A   1      39.035  29.242  27.904  1.00  0.00     0.134 A 
ATOM     61  C   UNL A   1      39.360  28.718  30.217  1.00  0.00     0.134 A 
ATOM     62  F   UNL A   1      39.489  29.386  26.649  1.00  0.00    -0.206 F 
ATOM     63  C   UNL A   1      37.698  29.557  28.155  1.00  0.00     0.040 A 
ATOM     64  C   UNL A   1      38.017  28.999  30.475  1.00  0.00     0.040 A 
ATOM     65  F   UNL A   1      40.127  28.327  31.245  1.00  0.00    -0.206 F 
ATOM     66  C   UNL A   1      37.185  29.431  29.444  1.00  0.00     0.006 A 
ENDBRANCH  45  59
BRANCH  46  67
ATOM     67  C   UNL A   1      49.334  26.462  26.701  1.00  0.00     0.057 A 
ATOM     68  C   UNL A   1      49.759  26.627  25.377  1.00  0.00     0.134 A 
ATOM     69  C   UNL A   1      50.275  25.994  27.627  1.00  0.00     0.134 A 
ATOM     70  F   UNL A   1      48.900  27.056  24.442  1.00  0.00    -0.206 F 
ATOM     71  C   UNL A   1      51.067  26.332  24.988  1.00  0.00     0.040 A 
ATOM     72  C   UNL A   1      51.592  25.720  27.257  1.00  0.00     0.040 A 
ATOM     73  F   UNL A   1      49.932  25.826  28.913  1.00  0.00    -0.206 F 
ATOM     74  C   UNL A   1      51.990  25.885  25.932  1.00  0.00     0.006 A 
ENDBRANCH  46  67
BRANCH  58  75
ATOM     75  C   UNL A   1      46.198  32.348  28.774  1.00  0.00     0.057 A 
ATOM     76  C   UNL A   1      46.188  33.346  27.794  1.00  0.00     0.134 A 
ATOM     77  C   UNL A   1      46.619  32.707  30.062  1.00  0.00     0.134 A 
ATOM     78  F   UNL A   1      45.808  33.064  26.538  1.00  0.00    -0.206 F 
ATOM     79  C   UNL A   1      46.586  34.654  28.081  1.00  0.00     0.040 A 
ATOM     80  C   UNL A   1      46.995  34.016  30.368  1.00  0.00     0.040 A 
ATOM     81  F   UNL A   1      46.645  31.799  31.049  1.00  0.00    -0.206 F 
ATOM     82  C   UNL A   1      46.980  34.993  29.375  1.00  0.00     0.006 A 
ENDBRANCH  58  75
ENDBRANCH  32  33
ENDBRANCH  24  27
ENDBRANCH  22  23
ENDBRANCH  21  22
ENDBRANCH   1  21
TORSDOF 13
ENDMDL
MODEL 3
REMARK VINA RESULT:     -11.2      1.461      2.328
REMARK SMILES C[C@@H](C(=O)NCCCNC(=O)c1ccc(-c2c3nc(c(-c4c(F)cccc4F)c4ccc([nH]4)c(-c4c(F)cccc4F)c4nc(c(-c5c(F)cccc5F)c5ccc2[nH]5)C=C4)C=C3)cc1)c1ccc(Cc2cccs2)cc1F
REMARK SMILES IDX 6 1 5 2 3 3 4 4 2 6 1 7 66 8 67 9 77 10 68 11 76 12 78 13
REMARK SMILES IDX 69 14 70 15 71 16 72 17 75 18 73 19 74 20 7 21 8 22 9 23
REMARK SMILES IDX 10 24 11 26 12 27 13 28 65 29 14 30 64 31 15 32 16 33 17 34
REMARK SMILES IDX 58 35 18 36 63 37 57 38 59 39 19 40 62 41 56 42 55 43 20 45
REMARK SMILES IDX 46 46 29 47 45 48 30 49 33 50 44 51 60 52 31 53 32 54 43 56
REMARK SMILES IDX 61 57 34 58 21 59 22 60 27 61 23 62 24 63 26 64 28 65 25 66
REMARK SMILES IDX 47 67 48 68 53 69 49 70 50 71 52 72 54 73 51 74 35 75 36 76
REMARK SMILES IDX 41 77 37 78 38 79 40 80 42 81 39 82
REMARK H PARENT 5 5 9 25 59 44 33 55
REMARK Flexibility Score: inf
ROOT
ATOM      1  C   UNL A   1      31.388  30.857  25.897  1.00  0.00     0.117 C 
ENDROOT
BRANCH   1   2
ATOM      2  N   UNL A   1      32.734  30.338  26.031  1.00  0.00    -0.356 N 
ATOM      3  C   UNL A   1      33.209  29.061  26.005  1.00  0.00     0.227 C 
ATOM      4  O   UNL A   1      34.419  28.940  26.211  1.00  0.00    -0.274 OA
ATOM      5  H   UNL A   1      33.425  31.027  26.164  1.00  0.00     0.163 HD
BRANCH   3   6
ATOM      6  C   UNL A   1      32.266  27.881  25.705  1.00  0.00     0.108 C 
ATOM      7  C   UNL A   1      31.403  27.494  26.908  1.00  0.00     0.023 C 
BRANCH   6   8
ATOM      8  C   UNL A   1      32.981  26.626  25.215  1.00  0.00    -0.000 A 
ATOM      9  C   UNL A   1      33.394  25.615  26.094  1.00  0.00     0.008 A 
ATOM     10  C   UNL A   1      33.171  26.416  23.845  1.00  0.00     0.127 A 
ATOM     11  C   UNL A   1      34.011  24.458  25.616  1.00  0.00     0.004 A 
ATOM     12  C   UNL A   1      33.787  25.264  23.359  1.00  0.00     0.043 A 
ATOM     13  F   UNL A   1      32.728  27.325  22.964  1.00  0.00    -0.207 F 
ATOM     14  C   UNL A   1      34.224  24.271  24.245  1.00  0.00    -0.040 A 
BRANCH  14  15
ATOM     15  C   UNL A   1      34.905  23.018  23.741  1.00  0.00     0.082 C 
BRANCH  15  16
ATOM     16  C   UNL A   1      34.185  21.744  24.097  1.00  0.00     0.009 A 
ATOM     17  C   UNL A   1      34.632  20.672  24.847  1.00  0.00     0.016 A 
ATOM     18  S   UNL A   1      32.558  21.511  23.600  1.00  0.00    -0.149 S 
ATOM     19  C   UNL A   1      33.640  19.663  25.011  1.00  0.00     0.012 A 
ATOM     20  C   UNL A   1      32.460  19.999  24.389  1.00  0.00     0.065 A 
ENDBRANCH  15  16
ENDBRANCH  14  15
ENDBRANCH   6   8
ENDBRANCH   3   6
ENDBRANCH   1   2
BRANCH   1  21
ATOM     21  C   UNL A   1      31.254  32.240  26.530  1.00  0.00     0.042 C 
BRANCH  21  22
ATOM     22  C   UNL A   1      32.578  32.866  26.954  1.00  0.00     0.118 C 
BRANCH  22  23
ATOM     23  N   UNL A   1      32.407  34.110  27.691  1.00  0.00    -0.352 N 
ATOM     24  C   UNL A   1      33.102  34.587  28.775  1.00  0.00     0.251 C 
ATOM     25  H   UNL A   1      31.687  34.695  27.363  1.00  0.00     0.163 HD
ATOM     26  O   UNL A   1      32.701  35.580  29.376  1.00  0.00    -0.269 OA
BRANCH  24  27
ATOM     27  C   UNL A   1      34.319  33.889  29.236  1.00  0.00     0.039 A 
ATOM     28  C   UNL A   1      35.570  34.369  28.839  1.00  0.00     0.014 A 
ATOM     29  C   UNL A   1      34.225  32.768  30.063  1.00  0.00     0.014 A 
ATOM     30  C   UNL A   1      36.731  33.771  29.335  1.00  0.00     0.010 A 
ATOM     31  C   UNL A   1      35.378  32.224  30.619  1.00  0.00     0.010 A 
ATOM     32  C   UNL A   1      36.642  32.721  30.263  1.00  0.00    -0.014 A 
BRANCH  32  33
ATOM     33  C   UNL A   1      37.849  32.118  30.881  1.00  0.00     0.031 A 
ATOM     34  C   UNL A   1      38.591  31.026  30.164  1.00  0.00     0.074 A 
ATOM     35  C   UNL A   1      38.212  32.474  32.129  1.00  0.00     0.049 A 
ATOM     36  N   UNL A   1      39.564  30.265  30.594  1.00  0.00    -0.248 NA
ATOM     37  C   UNL A   1      38.152  30.727  28.792  1.00  0.00     0.031 C 
ATOM     38  C   UNL A   1      37.547  33.490  32.945  1.00  0.00     0.029 A 
ATOM     39  N   UNL A   1      39.210  31.995  32.940  1.00  0.00    -0.354 N 
ATOM     40  C   UNL A   1      39.837  29.383  29.556  1.00  0.00     0.074 A 
ATOM     41  C   UNL A   1      38.892  29.669  28.499  1.00  0.00     0.031 C 
ATOM     42  C   UNL A   1      38.153  33.556  34.141  1.00  0.00     0.029 A 
ATOM     43  C   UNL A   1      39.216  32.557  34.193  1.00  0.00     0.049 A 
ATOM     44  H   UNL A   1      39.859  31.313  32.652  1.00  0.00     0.167 HD
ATOM     45  C   UNL A   1      40.799  28.431  29.485  1.00  0.00     0.037 A 
ATOM     46  C   UNL A   1      39.974  32.282  35.272  1.00  0.00     0.037 A 
ATOM     47  C   UNL A   1      41.746  28.164  30.535  1.00  0.00     0.049 A 
ATOM     48  C   UNL A   1      41.028  31.215  35.181  1.00  0.00     0.074 A 
ATOM     49  C   UNL A   1      42.800  27.268  30.537  1.00  0.00     0.029 A 
ATOM     50  N   UNL A   1      41.745  28.784  31.776  1.00  0.00    -0.354 N 
ATOM     51  N   UNL A   1      41.323  30.433  34.169  1.00  0.00    -0.248 NA
ATOM     52  C   UNL A   1      41.857  30.991  36.373  1.00  0.00     0.031 C 
ATOM     53  C   UNL A   1      43.404  27.307  31.797  1.00  0.00     0.029 A 
ATOM     54  C   UNL A   1      42.762  28.270  32.562  1.00  0.00     0.049 A 
ATOM     55  H   UNL A   1      41.114  29.485  32.056  1.00  0.00     0.167 HD
ATOM     56  C   UNL A   1      42.387  29.648  34.592  1.00  0.00     0.074 A 
ATOM     57  C   UNL A   1      42.689  30.049  35.950  1.00  0.00     0.031 C 
ATOM     58  C   UNL A   1      43.056  28.684  33.912  1.00  0.00     0.037 A 
BRANCH  45  59
ATOM     59  C   UNL A   1      40.858  27.606  28.231  1.00  0.00     0.057 A 
ATOM     60  C   UNL A   1      41.628  27.988  27.125  1.00  0.00     0.134 A 
ATOM     61  C   UNL A   1      40.136  26.410  28.130  1.00  0.00     0.134 A 
ATOM     62  F   UNL A   1      42.337  29.127  27.150  1.00  0.00    -0.206 F 
ATOM     63  C   UNL A   1      41.644  27.235  25.948  1.00  0.00     0.040 A 
ATOM     64  C   UNL A   1      40.169  25.632  26.971  1.00  0.00     0.040 A 
ATOM     65  F   UNL A   1      39.385  25.977  29.154  1.00  0.00    -0.206 F 
ATOM     66  C   UNL A   1      40.915  26.051  25.872  1.00  0.00     0.006 A 
ENDBRANCH  45  59
BRANCH  46  67
ATOM     67  C   UNL A   1      39.754  33.037  36.531  1.00  0.00     0.057 A 
ATOM     68  C   UNL A   1      40.447  34.224  36.794  1.00  0.00     0.134 A 
ATOM     69  C   UNL A   1      38.824  32.608  37.486  1.00  0.00     0.134 A 
ATOM     70  F   UNL A   1      41.362  34.678  35.925  1.00  0.00    -0.206 F 
ATOM     71  C   UNL A   1      40.229  34.954  37.964  1.00  0.00     0.040 A 
ATOM     72  C   UNL A   1      38.578  33.341  38.649  1.00  0.00     0.040 A 
ATOM     73  F   UNL A   1      38.120  31.484  37.288  1.00  0.00    -0.206 F 
ATOM     74  C   UNL A   1      39.285  34.516  38.892  1.00  0.00     0.006 A 
ENDBRANCH  46  67
BRANCH  58  75
ATOM     75  C   UNL A   1      44.209  28.017  34.603  1.00  0.00     0.057 A 
ATOM     76  C   UNL A   1      44.059  26.814  35.301  1.00  0.00     0.134 A 
ATOM     77  C   UNL A   1      45.503  28.547  34.494  1.00  0.00     0.134 A 
ATOM     78  F   UNL A   1      42.846  26.261  35.452  1.00  0.00    -0.206 F 
ATOM     79  C   UNL A   1      45.154  26.162  35.874  1.00  0.00     0.040 A 
ATOM     80  C   UNL A   1      46.608  27.892  35.040  1.00  0.00     0.040 A 
ATOM     81  F   UNL A   1      45.716  29.694  33.832  1.00  0.00    -0.206 F 
ATOM     82  C   UNL A   1      46.434  26.697  35.734  1.00  0.00     0.006 A 
ENDBRANCH  58  75
ENDBRANCH  32  33
ENDBRANCH  24  27
ENDBRANCH  22  23
ENDBRANCH  21  22
ENDBRANCH   1  21
TORSDOF 13
ENDMDL
