MODEL 1
REMARK VINA RESULT:     -10.3      0.000      0.000
REMARK SMILES O=C(NCCCNC(=O)c1ncc2ccccc2n1)c1ccc(-c2c3nc(c(-c4c(F)cccc4F)c4ccc([nH]4)c(-c4c(F)cccc4F)c4nc(c(-c5c(F)cccc5F)c5ccc2[nH]5)C=C4)C=C3)cc1
REMARK SMILES IDX 4 1 3 2 1 3 2 4 20 6 21 7 73 8 22 9 72 10 23 11 24 12 25 13
REMARK SMILES IDX 66 14 26 15 71 16 65 17 67 18 27 19 70 20 64 21 63 22 28 24
REMARK SMILES IDX 54 25 37 26 53 27 38 28 41 29 52 30 68 31 39 32 40 33 51 35
REMARK SMILES IDX 69 36 42 37 29 38 30 39 35 40 31 41 32 42 34 43 36 44 33 45
REMARK SMILES IDX 55 46 56 47 61 48 57 49 58 50 60 51 62 52 59 53 43 54 44 55
REMARK SMILES IDX 49 56 45 57 46 58 48 59 50 60 47 61 5 62 6 63 7 64 8 65 9 67
REMARK SMILES IDX 10 68 11 69 19 70 12 71 18 72 13 73 17 74 14 75 16 76 15 77
REMARK H PARENT 3 5 67 23 41 34 7 66
REMARK Flexibility Score: inf
ROOT
ATOM      1  C   UNL A   1      34.764  32.743  28.167  1.00  0.00     0.118 C 
ENDROOT
BRANCH   1   2
ATOM      2  N   UNL A   1      34.036  31.487  28.027  1.00  0.00    -0.352 N 
ATOM      3  O   UNL A   1      33.726  29.283  27.685  1.00  0.00    -0.269 OA
ATOM      4  C   UNL A   1      34.495  30.193  27.982  1.00  0.00     0.251 C 
ATOM      5  H   UNL A   1      33.059  31.581  27.952  1.00  0.00     0.163 HD
BRANCH   4   6
ATOM      6  C   UNL A   1      35.915  29.890  28.273  1.00  0.00     0.039 A 
ATOM      7  C   UNL A   1      36.893  30.057  27.294  1.00  0.00     0.014 A 
ATOM      8  C   UNL A   1      36.277  29.459  29.554  1.00  0.00     0.014 A 
ATOM      9  C   UNL A   1      38.193  29.636  27.539  1.00  0.00     0.010 A 
ATOM     10  C   UNL A   1      37.609  29.138  29.832  1.00  0.00     0.010 A 
ATOM     11  C   UNL A   1      38.574  29.193  28.817  1.00  0.00    -0.014 A 
BRANCH  11  12
ATOM     12  C   UNL A   1      40.005  28.875  29.057  1.00  0.00     0.031 A 
ATOM     13  C   UNL A   1      40.605  27.567  28.626  1.00  0.00     0.074 A 
ATOM     14  C   UNL A   1      40.782  29.828  29.610  1.00  0.00     0.049 A 
ATOM     15  N   UNL A   1      41.855  27.181  28.683  1.00  0.00    -0.248 NA
ATOM     16  C   UNL A   1      39.693  26.559  28.065  1.00  0.00     0.031 C 
ATOM     17  C   UNL A   1      40.302  31.126  30.093  1.00  0.00     0.029 A 
ATOM     18  N   UNL A   1      42.134  29.874  29.822  1.00  0.00    -0.354 N 
ATOM     19  C   UNL A   1      41.880  25.887  28.180  1.00  0.00     0.074 A 
ATOM     20  C   UNL A   1      40.515  25.540  27.845  1.00  0.00     0.031 C 
ATOM     21  C   UNL A   1      41.350  31.866  30.478  1.00  0.00     0.029 A 
ATOM     22  C   UNL A   1      42.566  31.077  30.328  1.00  0.00     0.049 A 
ATOM     23  H   UNL A   1      42.737  29.120  29.633  1.00  0.00     0.167 HD
ATOM     24  C   UNL A   1      42.946  25.069  28.004  1.00  0.00     0.037 A 
ATOM     25  C   UNL A   1      43.805  31.500  30.638  1.00  0.00     0.037 A 
ATOM     26  C   UNL A   1      44.305  25.423  28.325  1.00  0.00     0.049 A 
ATOM     27  C   UNL A   1      44.965  30.576  30.419  1.00  0.00     0.074 A 
ATOM     28  C   UNL A   1      45.454  24.664  28.175  1.00  0.00     0.029 A 
ATOM     29  N   UNL A   1      44.700  26.641  28.860  1.00  0.00    -0.354 N 
ATOM     30  N   UNL A   1      44.969  29.362  29.927  1.00  0.00    -0.248 NA
ATOM     31  C   UNL A   1      46.290  31.079  30.804  1.00  0.00     0.031 C 
ATOM     32  C   UNL A   1      46.540  25.411  28.645  1.00  0.00     0.029 A 
ATOM     33  C   UNL A   1      46.073  26.650  29.054  1.00  0.00     0.049 A 
ATOM     34  H   UNL A   1      44.095  27.388  29.069  1.00  0.00     0.167 HD
ATOM     35  C   UNL A   1      46.295  28.953  29.944  1.00  0.00     0.074 A 
ATOM     36  C   UNL A   1      47.069  30.064  30.459  1.00  0.00     0.031 C 
ATOM     37  C   UNL A   1      46.822  27.760  29.580  1.00  0.00     0.037 A 
BRANCH  24  38
ATOM     38  C   UNL A   1      42.691  23.702  27.438  1.00  0.00     0.057 A 
ATOM     39  C   UNL A   1      42.763  23.450  26.063  1.00  0.00     0.134 A 
ATOM     40  C   UNL A   1      42.438  22.613  28.282  1.00  0.00     0.134 A 
ATOM     41  F   UNL A   1      42.990  24.452  25.199  1.00  0.00    -0.206 F 
ATOM     42  C   UNL A   1      42.583  22.166  25.546  1.00  0.00     0.040 A 
ATOM     43  C   UNL A   1      42.276  21.321  27.780  1.00  0.00     0.040 A 
ATOM     44  F   UNL A   1      42.363  22.785  29.611  1.00  0.00    -0.206 F 
ATOM     45  C   UNL A   1      42.346  21.095  26.406  1.00  0.00     0.006 A 
ENDBRANCH  24  38
BRANCH  25  46
ATOM     46  C   UNL A   1      44.001  32.860  31.197  1.00  0.00     0.057 A 
ATOM     47  C   UNL A   1      44.271  33.955  30.369  1.00  0.00     0.134 A 
ATOM     48  C   UNL A   1      43.916  33.097  32.575  1.00  0.00     0.134 A 
ATOM     49  F   UNL A   1      44.380  33.788  29.042  1.00  0.00    -0.206 F 
ATOM     50  C   UNL A   1      44.465  35.234  30.891  1.00  0.00     0.040 A 
ATOM     51  C   UNL A   1      44.080  34.374  33.108  1.00  0.00     0.040 A 
ATOM     52  F   UNL A   1      43.651  32.089  33.419  1.00  0.00    -0.206 F 
ATOM     53  C   UNL A   1      44.362  35.447  32.265  1.00  0.00     0.006 A 
ENDBRANCH  25  46
BRANCH  37  54
ATOM     54  C   UNL A   1      48.306  27.609  29.730  1.00  0.00     0.057 A 
ATOM     55  C   UNL A   1      49.185  27.963  28.699  1.00  0.00     0.134 A 
ATOM     56  C   UNL A   1      48.859  27.103  30.912  1.00  0.00     0.134 A 
ATOM     57  F   UNL A   1      48.713  28.438  27.536  1.00  0.00    -0.206 F 
ATOM     58  C   UNL A   1      50.564  27.790  28.826  1.00  0.00     0.040 A 
ATOM     59  C   UNL A   1      50.238  26.948  31.060  1.00  0.00     0.040 A 
ATOM     60  F   UNL A   1      48.070  26.751  31.937  1.00  0.00    -0.206 F 
ATOM     61  C   UNL A   1      51.093  27.284  30.012  1.00  0.00     0.006 A 
ENDBRANCH  37  54
ENDBRANCH  11  12
ENDBRANCH   4   6
ENDBRANCH   1   2
BRANCH   1  62
ATOM     62  C   UNL A   1      33.865  33.963  28.040  1.00  0.00     0.042 C 
BRANCH  62  63
ATOM     63  C   UNL A   1      34.424  35.204  28.723  1.00  0.00     0.118 C 
BRANCH  63  64
ATOM     64  N   UNL A   1      33.602  35.616  29.850  1.00  0.00    -0.349 N 
ATOM     65  C   UNL A   1      33.555  35.117  31.141  1.00  0.00     0.289 C 
ATOM     66  H   UNL A   1      32.987  36.361  29.668  1.00  0.00     0.163 HD
ATOM     67  O   UNL A   1      32.630  35.487  31.865  1.00  0.00    -0.266 OA
BRANCH  65  68
ATOM     68  C   UNL A   1      34.598  34.150  31.639  1.00  0.00     0.218 A 
ATOM     69  N   UNL A   1      34.305  32.838  31.568  1.00  0.00    -0.232 NA
ATOM     70  N   UNL A   1      35.748  34.674  32.107  1.00  0.00    -0.224 NA
ATOM     71  C   UNL A   1      35.280  32.007  31.977  1.00  0.00     0.124 A 
ATOM     72  C   UNL A   1      36.701  33.819  32.477  1.00  0.00     0.074 A 
ATOM     73  C   UNL A   1      36.523  32.432  32.432  1.00  0.00     0.019 A 
ATOM     74  C   UNL A   1      37.925  34.313  32.903  1.00  0.00     0.029 A 
ATOM     75  C   UNL A   1      37.562  31.562  32.815  1.00  0.00     0.012 A 
ATOM     76  C   UNL A   1      38.968  33.462  33.276  1.00  0.00     0.002 A 
ATOM     77  C   UNL A   1      38.785  32.083  33.232  1.00  0.00     0.001 A 
ENDBRANCH  65  68
ENDBRANCH  63  64
ENDBRANCH  62  63
ENDBRANCH   1  62
TORSDOF 10
ENDMDL
MODEL 2
REMARK VINA RESULT:     -10.3      4.465      9.289
REMARK SMILES O=C(NCCCNC(=O)c1ncc2ccccc2n1)c1ccc(-c2c3nc(c(-c4c(F)cccc4F)c4ccc([nH]4)c(-c4c(F)cccc4F)c4nc(c(-c5c(F)cccc5F)c5ccc2[nH]5)C=C4)C=C3)cc1
REMARK SMILES IDX 4 1 3 2 1 3 2 4 20 6 21 7 73 8 22 9 72 10 23 11 24 12 25 13
REMARK SMILES IDX 66 14 26 15 71 16 65 17 67 18 27 19 70 20 64 21 63 22 28 24
REMARK SMILES IDX 54 25 37 26 53 27 38 28 41 29 52 30 68 31 39 32 40 33 51 35
REMARK SMILES IDX 69 36 42 37 29 38 30 39 35 40 31 41 32 42 34 43 36 44 33 45
REMARK SMILES IDX 55 46 56 47 61 48 57 49 58 50 60 51 62 52 59 53 43 54 44 55
REMARK SMILES IDX 49 56 45 57 46 58 48 59 50 60 47 61 5 62 6 63 7 64 8 65 9 67
REMARK SMILES IDX 10 68 11 69 19 70 12 71 18 72 13 73 17 74 14 75 16 76 15 77
REMARK H PARENT 3 5 67 23 41 34 7 66
REMARK Flexibility Score: inf
ROOT
ATOM      1  C   UNL A   1      33.319  29.047  24.942  1.00  0.00     0.118 C 
ENDROOT
BRANCH   1   2
ATOM      2  N   UNL A   1      32.616  30.183  25.528  1.00  0.00    -0.352 N 
ATOM      3  O   UNL A   1      32.080  31.733  27.071  1.00  0.00    -0.269 OA
ATOM      4  C   UNL A   1      32.900  30.920  26.653  1.00  0.00     0.251 C 
ATOM      5  H   UNL A   1      31.810  30.467  25.041  1.00  0.00     0.163 HD
BRANCH   4   6
ATOM      6  C   UNL A   1      34.178  30.729  27.373  1.00  0.00     0.039 A 
ATOM      7  C   UNL A   1      34.586  29.457  27.775  1.00  0.00     0.014 A 
ATOM      8  C   UNL A   1      34.996  31.836  27.626  1.00  0.00     0.014 A 
ATOM      9  C   UNL A   1      35.715  29.314  28.570  1.00  0.00     0.010 A 
ATOM     10  C   UNL A   1      36.192  31.674  28.335  1.00  0.00     0.010 A 
ATOM     11  C   UNL A   1      36.545  30.415  28.842  1.00  0.00    -0.014 A 
BRANCH  11  12
ATOM     12  C   UNL A   1      37.806  30.182  29.590  1.00  0.00     0.031 A 
ATOM     13  C   UNL A   1      37.986  30.664  31.002  1.00  0.00     0.074 A 
ATOM     14  C   UNL A   1      38.771  29.452  28.995  1.00  0.00     0.049 A 
ATOM     15  N   UNL A   1      38.991  30.459  31.816  1.00  0.00    -0.248 NA
ATOM     16  C   UNL A   1      36.910  31.486  31.575  1.00  0.00     0.031 C 
ATOM     17  C   UNL A   1      38.718  28.954  27.618  1.00  0.00     0.029 A 
ATOM     18  N   UNL A   1      39.958  28.968  29.477  1.00  0.00    -0.354 N 
ATOM     19  C   UNL A   1      38.677  31.132  32.990  1.00  0.00     0.074 A 
ATOM     20  C   UNL A   1      37.398  31.777  32.775  1.00  0.00     0.031 C 
ATOM     21  C   UNL A   1      39.786  28.178  27.389  1.00  0.00     0.029 A 
ATOM     22  C   UNL A   1      40.628  28.172  28.578  1.00  0.00     0.049 A 
ATOM     23  H   UNL A   1      40.299  29.171  30.378  1.00  0.00     0.167 HD
ATOM     24  C   UNL A   1      39.386  31.196  34.142  1.00  0.00     0.037 A 
ATOM     25  C   UNL A   1      41.794  27.512  28.696  1.00  0.00     0.037 A 
ATOM     26  C   UNL A   1      40.652  30.541  34.357  1.00  0.00     0.049 A 
ATOM     27  C   UNL A   1      42.548  27.592  29.989  1.00  0.00     0.074 A 
ATOM     28  C   UNL A   1      41.443  30.541  35.494  1.00  0.00     0.029 A 
ATOM     29  N   UNL A   1      41.311  29.766  33.414  1.00  0.00    -0.354 N 
ATOM     30  N   UNL A   1      42.226  28.221  31.093  1.00  0.00    -0.248 NA
ATOM     31  C   UNL A   1      43.828  26.875  30.051  1.00  0.00     0.031 C 
ATOM     32  C   UNL A   1      42.593  29.791  35.230  1.00  0.00     0.029 A 
ATOM     33  C   UNL A   1      42.502  29.291  33.941  1.00  0.00     0.049 A 
ATOM     34  H   UNL A   1      40.981  29.580  32.506  1.00  0.00     0.167 HD
ATOM     35  C   UNL A   1      43.265  27.979  31.980  1.00  0.00     0.074 A 
ATOM     36  C   UNL A   1      44.206  27.114  31.298  1.00  0.00     0.031 C 
ATOM     37  C   UNL A   1      43.431  28.442  33.241  1.00  0.00     0.037 A 
BRANCH  24  38
ATOM     38  C   UNL A   1      38.814  32.006  35.269  1.00  0.00     0.057 A 
ATOM     39  C   UNL A   1      38.153  31.404  36.346  1.00  0.00     0.134 A 
ATOM     40  C   UNL A   1      38.985  33.396  35.311  1.00  0.00     0.134 A 
ATOM     41  F   UNL A   1      37.946  30.078  36.362  1.00  0.00    -0.206 F 
ATOM     42  C   UNL A   1      37.674  32.156  37.421  1.00  0.00     0.040 A 
ATOM     43  C   UNL A   1      38.529  34.156  36.389  1.00  0.00     0.040 A 
ATOM     44  F   UNL A   1      39.616  34.034  34.314  1.00  0.00    -0.206 F 
ATOM     45  C   UNL A   1      37.869  33.536  37.448  1.00  0.00     0.006 A 
ENDBRANCH  24  38
BRANCH  25  46
ATOM     46  C   UNL A   1      42.315  26.727  27.550  1.00  0.00     0.057 A 
ATOM     47  C   UNL A   1      43.092  27.324  26.552  1.00  0.00     0.134 A 
ATOM     48  C   UNL A   1      42.055  25.355  27.433  1.00  0.00     0.134 A 
ATOM     49  F   UNL A   1      43.362  28.637  26.602  1.00  0.00    -0.206 F 
ATOM     50  C   UNL A   1      43.577  26.591  25.469  1.00  0.00     0.040 A 
ATOM     51  C   UNL A   1      42.556  24.604  26.371  1.00  0.00     0.040 A 
ATOM     52  F   UNL A   1      41.323  24.724  28.363  1.00  0.00    -0.206 F 
ATOM     53  C   UNL A   1      43.315  25.225  25.380  1.00  0.00     0.006 A 
ENDBRANCH  25  46
BRANCH  37  54
ATOM     54  C   UNL A   1      44.679  28.016  33.953  1.00  0.00     0.057 A 
ATOM     55  C   UNL A   1      44.724  26.837  34.707  1.00  0.00     0.134 A 
ATOM     56  C   UNL A   1      45.842  28.792  33.890  1.00  0.00     0.134 A 
ATOM     57  F   UNL A   1      43.636  26.059  34.819  1.00  0.00    -0.206 F 
ATOM     58  C   UNL A   1      45.876  26.457  35.397  1.00  0.00     0.040 A 
ATOM     59  C   UNL A   1      47.006  28.412  34.556  1.00  0.00     0.040 A 
ATOM     60  F   UNL A   1      45.863  29.930  33.180  1.00  0.00    -0.206 F 
ATOM     61  C   UNL A   1      47.023  27.245  35.319  1.00  0.00     0.006 A 
ENDBRANCH  37  54
ENDBRANCH  11  12
ENDBRANCH   4   6
ENDBRANCH   1   2
BRANCH   1  62
ATOM     62  C   UNL A   1      32.856  28.733  23.528  1.00  0.00     0.042 C 
BRANCH  62  63
ATOM     63  C   UNL A   1      32.268  27.337  23.376  1.00  0.00     0.118 C 
BRANCH  63  64
ATOM     64  N   UNL A   1      32.338  26.869  22.000  1.00  0.00    -0.349 N 
ATOM     65  C   UNL A   1      32.801  25.666  21.496  1.00  0.00     0.289 C 
ATOM     66  H   UNL A   1      32.006  27.504  21.326  1.00  0.00     0.163 HD
ATOM     67  O   UNL A   1      32.956  25.576  20.278  1.00  0.00    -0.266 OA
BRANCH  65  68
ATOM     68  C   UNL A   1      33.110  24.508  22.409  1.00  0.00     0.218 A 
ATOM     69  N   UNL A   1      32.071  23.760  22.828  1.00  0.00    -0.232 NA
ATOM     70  N   UNL A   1      34.404  24.303  22.727  1.00  0.00    -0.224 NA
ATOM     71  C   UNL A   1      32.394  22.708  23.602  1.00  0.00     0.124 A 
ATOM     72  C   UNL A   1      34.686  23.235  23.473  1.00  0.00     0.074 A 
ATOM     73  C   UNL A   1      33.696  22.372  23.953  1.00  0.00     0.019 A 
ATOM     74  C   UNL A   1      36.011  22.949  23.769  1.00  0.00     0.029 A 
ATOM     75  C   UNL A   1      34.038  21.244  24.722  1.00  0.00     0.012 A 
ATOM     76  C   UNL A   1      36.366  21.828  24.523  1.00  0.00     0.002 A 
ATOM     77  C   UNL A   1      35.377  20.974  25.001  1.00  0.00     0.001 A 
ENDBRANCH  65  68
ENDBRANCH  63  64
ENDBRANCH  62  63
ENDBRANCH   1  62
TORSDOF 10
ENDMDL
MODEL 3
REMARK VINA RESULT:     -10.2      4.399      9.250
REMARK SMILES O=C(NCCCNC(=O)c1ncc2ccccc2n1)c1ccc(-c2c3nc(c(-c4c(F)cccc4F)c4ccc([nH]4)c(-c4c(F)cccc4F)c4nc(c(-c5c(F)cccc5F)c5ccc2[nH]5)C=C4)C=C3)cc1
REMARK SMILES IDX 4 1 3 2 1 3 2 4 20 6 21 7 73 8 22 9 72 10 23 11 24 12 25 13
REMARK SMILES IDX 66 14 26 15 71 16 65 17 67 18 27 19 70 20 64 21 63 22 28 24
REMARK SMILES IDX 54 25 37 26 53 27 38 28 41 29 52 30 68 31 39 32 40 33 51 35
REMARK SMILES IDX 69 36 42 37 29 38 30 39 35 40 31 41 32 42 34 43 36 44 33 45
REMARK SMILES IDX 55 46 56 47 61 48 57 49 58 50 60 51 62 52 59 53 43 54 44 55
REMARK SMILES IDX 49 56 45 57 46 58 48 59 50 60 47 61 5 62 6 63 7 64 8 65 9 67
REMARK SMILES IDX 10 68 11 69 19 70 12 71 18 72 13 73 17 74 14 75 16 76 15 77
REMARK H PARENT 3 5 67 23 41 34 7 66
REMARK Flexibility Score: inf
ROOT
ATOM      1  C   UNL A   1      38.982  20.065  25.751  1.00  0.00     0.118 C 
ENDROOT
BRANCH   1   2
ATOM      2  N   UNL A   1      40.103  19.130  25.766  1.00  0.00    -0.352 N 
ATOM      3  O   UNL A   1      42.247  18.447  25.751  1.00  0.00    -0.269 OA
ATOM      4  C   UNL A   1      41.446  19.356  25.946  1.00  0.00     0.251 C 
ATOM      5  H   UNL A   1      39.857  18.188  25.625  1.00  0.00     0.163 HD
BRANCH   4   6
ATOM      6  C   UNL A   1      41.934  20.691  26.356  1.00  0.00     0.039 A 
ATOM      7  C   UNL A   1      42.138  20.993  27.702  1.00  0.00     0.014 A 
ATOM      8  C   UNL A   1      42.220  21.649  25.376  1.00  0.00     0.014 A 
ATOM      9  C   UNL A   1      42.460  22.291  28.077  1.00  0.00     0.010 A 
ATOM     10  C   UNL A   1      42.651  22.926  25.752  1.00  0.00     0.010 A 
ATOM     11  C   UNL A   1      42.743  23.268  27.108  1.00  0.00    -0.014 A 
BRANCH  11  12
ATOM     12  C   UNL A   1      43.205  24.603  27.565  1.00  0.00     0.031 A 
ATOM     13  C   UNL A   1      44.646  25.017  27.461  1.00  0.00     0.074 A 
ATOM     14  C   UNL A   1      42.279  25.476  28.010  1.00  0.00     0.049 A 
ATOM     15  N   UNL A   1      45.186  26.179  27.732  1.00  0.00    -0.248 NA
ATOM     16  C   UNL A   1      45.607  24.002  27.004  1.00  0.00     0.031 C 
ATOM     17  C   UNL A   1      40.855  25.176  28.179  1.00  0.00     0.029 A 
ATOM     18  N   UNL A   1      42.383  26.796  28.360  1.00  0.00    -0.354 N 
ATOM     19  C   UNL A   1      46.546  26.035  27.490  1.00  0.00     0.074 A 
ATOM     20  C   UNL A   1      46.756  24.663  27.076  1.00  0.00     0.031 C 
ATOM     21  C   UNL A   1      40.208  26.295  28.531  1.00  0.00     0.029 A 
ATOM     22  C   UNL A   1      41.176  27.375  28.672  1.00  0.00     0.049 A 
ATOM     23  H   UNL A   1      43.239  27.283  28.387  1.00  0.00     0.167 HD
ATOM     24  C   UNL A   1      47.525  26.965  27.595  1.00  0.00     0.037 A 
ATOM     25  C   UNL A   1      40.879  28.636  29.034  1.00  0.00     0.037 A 
ATOM     26  C   UNL A   1      47.311  28.333  27.994  1.00  0.00     0.049 A 
ATOM     27  C   UNL A   1      41.984  29.645  29.127  1.00  0.00     0.074 A 
ATOM     28  C   UNL A   1      48.239  29.352  28.122  1.00  0.00     0.029 A 
ATOM     29  N   UNL A   1      46.078  28.875  28.327  1.00  0.00    -0.354 N 
ATOM     30  N   UNL A   1      43.262  29.493  28.879  1.00  0.00    -0.248 NA
ATOM     31  C   UNL A   1      41.606  30.998  29.556  1.00  0.00     0.031 C 
ATOM     32  C   UNL A   1      47.574  30.502  28.560  1.00  0.00     0.029 A 
ATOM     33  C   UNL A   1      46.224  30.210  28.670  1.00  0.00     0.049 A 
ATOM     34  H   UNL A   1      45.225  28.383  28.321  1.00  0.00     0.167 HD
ATOM     35  C   UNL A   1      43.842  30.729  29.124  1.00  0.00     0.074 A 
ATOM     36  C   UNL A   1      42.771  31.628  29.501  1.00  0.00     0.031 C 
ATOM     37  C   UNL A   1      45.147  31.084  29.055  1.00  0.00     0.037 A 
BRANCH  24  38
ATOM     38  C   UNL A   1      48.929  26.539  27.275  1.00  0.00     0.057 A 
ATOM     39  C   UNL A   1      49.784  26.028  28.259  1.00  0.00     0.134 A 
ATOM     40  C   UNL A   1      49.408  26.578  25.960  1.00  0.00     0.134 A 
ATOM     41  F   UNL A   1      49.392  25.974  29.541  1.00  0.00    -0.206 F 
ATOM     42  C   UNL A   1      51.069  25.578  27.947  1.00  0.00     0.040 A 
ATOM     43  C   UNL A   1      50.682  26.114  25.631  1.00  0.00     0.040 A 
ATOM     44  F   UNL A   1      48.636  27.051  24.969  1.00  0.00    -0.206 F 
ATOM     45  C   UNL A   1      51.518  25.613  26.628  1.00  0.00     0.006 A 
ENDBRANCH  24  38
BRANCH  25  46
ATOM     46  C   UNL A   1      39.476  29.004  29.341  1.00  0.00     0.057 A 
ATOM     47  C   UNL A   1      38.624  29.514  28.355  1.00  0.00     0.134 A 
ATOM     48  C   UNL A   1      38.950  28.845  30.630  1.00  0.00     0.134 A 
ATOM     49  F   UNL A   1      39.075  29.703  27.106  1.00  0.00    -0.206 F 
ATOM     50  C   UNL A   1      37.306  29.869  28.642  1.00  0.00     0.040 A 
ATOM     51  C   UNL A   1      37.627  29.170  30.925  1.00  0.00     0.040 A 
ATOM     52  F   UNL A   1      39.715  28.352  31.616  1.00  0.00    -0.206 F 
ATOM     53  C   UNL A   1      36.802  29.690  29.930  1.00  0.00     0.006 A 
ENDBRANCH  25  46
BRANCH  37  54
ATOM     54  C   UNL A   1      45.474  32.506  29.398  1.00  0.00     0.057 A 
ATOM     55  C   UNL A   1      45.453  33.515  28.427  1.00  0.00     0.134 A 
ATOM     56  C   UNL A   1      45.816  32.869  30.706  1.00  0.00     0.134 A 
ATOM     57  F   UNL A   1      45.149  33.226  27.152  1.00  0.00    -0.206 F 
ATOM     58  C   UNL A   1      45.790  34.833  28.739  1.00  0.00     0.040 A 
ATOM     59  C   UNL A   1      46.132  34.186  31.035  1.00  0.00     0.040 A 
ATOM     60  F   UNL A   1      45.849  31.948  31.681  1.00  0.00    -0.206 F 
ATOM     61  C   UNL A   1      46.128  35.171  30.048  1.00  0.00     0.006 A 
ENDBRANCH  37  54
ENDBRANCH  11  12
ENDBRANCH   4   6
ENDBRANCH   1   2
BRANCH   1  62
ATOM     62  C   UNL A   1      37.774  19.525  25.001  1.00  0.00     0.042 C 
BRANCH  62  63
ATOM     63  C   UNL A   1      36.656  20.545  24.834  1.00  0.00     0.118 C 
BRANCH  63  64
ATOM     64  N   UNL A   1      35.344  19.939  25.001  1.00  0.00    -0.349 N 
ATOM     65  C   UNL A   1      34.119  20.534  25.248  1.00  0.00     0.289 C 
ATOM     66  H   UNL A   1      35.325  18.958  24.928  1.00  0.00     0.163 HD
ATOM     67  O   UNL A   1      33.178  19.803  25.559  1.00  0.00    -0.266 OA
BRANCH  65  68
ATOM     68  C   UNL A   1      33.944  22.027  25.143  1.00  0.00     0.218 A 
ATOM     69  N   UNL A   1      34.102  22.746  26.270  1.00  0.00    -0.232 NA
ATOM     70  N   UNL A   1      33.654  22.529  23.925  1.00  0.00    -0.224 NA
ATOM     71  C   UNL A   1      33.986  24.079  26.125  1.00  0.00     0.124 A 
ATOM     72  C   UNL A   1      33.575  23.854  23.816  1.00  0.00     0.074 A 
ATOM     73  C   UNL A   1      33.738  24.709  24.911  1.00  0.00     0.019 A 
ATOM     74  C   UNL A   1      33.343  24.417  22.569  1.00  0.00     0.029 A 
ATOM     75  C   UNL A   1      33.665  26.105  24.749  1.00  0.00     0.012 A 
ATOM     76  C   UNL A   1      33.278  25.801  22.392  1.00  0.00     0.002 A 
ATOM     77  C   UNL A   1      33.439  26.647  23.485  1.00  0.00     0.001 A 
ENDBRANCH  65  68
ENDBRANCH  63  64
ENDBRANCH  62  63
ENDBRANCH   1  62
TORSDOF 10
ENDMDL
