MODEL 1
REMARK VINA RESULT:     -12.3      0.000      0.000
REMARK SMILES Cc1ccn2c([C@H]3C[C@@H]3C(=O)NCCCNC(=O)c3ccc(-c4c5nc(c(-c6c(F)cccc6F)c6ccc([nH]6)c(-c6c(F)cccc6F)c6nc(c(-c7c(F)cccc7F)c7ccc4[nH]7)C=C6)C=C5)cc3)nnc2c1
REMARK SMILES IDX 14 1 13 2 12 3 10 4 11 5 9 7 7 8 8 9 6 10 1 11 2 12 3 13
REMARK SMILES IDX 76 14 4 15 75 16 5 17 74 18 73 19 15 20 16 21 17 22 18 24
REMARK SMILES IDX 19 25 20 26 72 27 21 28 71 29 22 30 23 31 24 32 65 33 25 34
REMARK SMILES IDX 70 35 64 36 66 37 26 38 69 39 63 40 62 41 27 43 53 44 36 45
REMARK SMILES IDX 52 46 37 47 40 48 51 49 67 50 38 51 39 52 50 54 68 55 41 56
REMARK SMILES IDX 28 57 29 58 34 59 30 60 31 61 33 62 35 63 32 64 54 65 55 66
REMARK SMILES IDX 60 67 56 68 57 69 59 70 61 71 58 72 42 73 43 74 48 75 44 76
REMARK SMILES IDX 45 77 47 78 49 79 46 80
REMARK H PARENT 12 6 16 23 66 42 40 53
REMARK Flexibility Score: inf
ROOT
ATOM      1  C   UNL A   1      33.331  28.627  26.922  1.00  0.00     0.042 C 
ENDROOT
BRANCH   1   2
ATOM      2  C   UNL A   1      32.465  29.705  26.273  1.00  0.00     0.117 C 
BRANCH   2   3
ATOM      3  N   UNL A   1      32.432  29.643  24.826  1.00  0.00    -0.356 N 
ATOM      4  C   UNL A   1      31.635  28.928  23.977  1.00  0.00     0.223 C 
ATOM      5  O   UNL A   1      31.748  29.112  22.765  1.00  0.00    -0.275 OA
ATOM      6  H   UNL A   1      33.098  30.213  24.378  1.00  0.00     0.163 HD
BRANCH   4   7
ATOM      7  C   UNL A   1      30.666  27.924  24.466  1.00  0.00     0.090 C 
ATOM      8  C   UNL A   1      30.906  26.487  24.038  1.00  0.00     0.071 C 
ATOM      9  C   UNL A   1      29.643  27.184  23.642  1.00  0.00     0.026 C 
BRANCH   8  10
ATOM     10  C   UNL A   1      30.827  25.338  25.019  1.00  0.00     0.141 A 
ATOM     11  C   UNL A   1      32.504  20.017  24.853  1.00  0.00     0.044 C 
ATOM     12  C   UNL A   1      32.039  21.443  24.877  1.00  0.00    -0.046 A 
ATOM     13  C   UNL A   1      32.056  22.170  23.606  1.00  0.00     0.022 A 
ATOM     14  C   UNL A   1      31.603  22.042  26.010  1.00  0.00     0.053 A 
ATOM     15  C   UNL A   1      31.700  23.464  23.587  1.00  0.00     0.095 A 
ATOM     16  C   UNL A   1      31.157  23.394  25.971  1.00  0.00     0.161 A 
ATOM     17  N   UNL A   1      31.282  24.066  24.770  1.00  0.00    -0.286 N 
ATOM     18  N   UNL A   1      30.577  24.182  26.853  1.00  0.00    -0.130 NA
ATOM     19  N   UNL A   1      30.320  25.394  26.233  1.00  0.00    -0.134 NA
ENDBRANCH   8  10
ENDBRANCH   4   7
ENDBRANCH   2   3
ENDBRANCH   1   2
BRANCH   1  20
ATOM     20  C   UNL A   1      34.790  29.003  27.176  1.00  0.00     0.118 C 
BRANCH  20  21
ATOM     21  N   UNL A   1      35.060  29.578  28.478  1.00  0.00    -0.352 N 
ATOM     22  C   UNL A   1      36.191  29.862  29.193  1.00  0.00     0.251 C 
ATOM     23  H   UNL A   1      34.237  29.822  28.961  1.00  0.00     0.163 HD
ATOM     24  O   UNL A   1      36.040  30.634  30.144  1.00  0.00    -0.269 OA
BRANCH  22  25
ATOM     25  C   UNL A   1      37.533  29.254  28.983  1.00  0.00     0.039 A 
ATOM     26  C   UNL A   1      38.202  28.415  29.871  1.00  0.00     0.014 A 
ATOM     27  C   UNL A   1      38.206  29.660  27.810  1.00  0.00     0.014 A 
ATOM     28  C   UNL A   1      39.542  28.094  29.652  1.00  0.00     0.010 A 
ATOM     29  C   UNL A   1      39.539  29.333  27.581  1.00  0.00     0.010 A 
ATOM     30  C   UNL A   1      40.225  28.593  28.532  1.00  0.00    -0.014 A 
BRANCH  30  31
ATOM     31  C   UNL A   1      41.608  28.165  28.310  1.00  0.00     0.031 A 
ATOM     32  C   UNL A   1      41.694  26.864  27.595  1.00  0.00     0.074 A 
ATOM     33  C   UNL A   1      42.711  28.882  28.627  1.00  0.00     0.049 A 
ATOM     34  N   UNL A   1      42.072  25.730  28.085  1.00  0.00    -0.248 NA
ATOM     35  C   UNL A   1      41.135  26.766  26.239  1.00  0.00     0.031 C 
ATOM     36  C   UNL A   1      42.771  30.275  29.078  1.00  0.00     0.029 A 
ATOM     37  N   UNL A   1      44.037  28.534  28.553  1.00  0.00    -0.354 N 
ATOM     38  C   UNL A   1      42.020  24.820  27.031  1.00  0.00     0.074 A 
ATOM     39  C   UNL A   1      41.273  25.462  25.984  1.00  0.00     0.031 C 
ATOM     40  C   UNL A   1      44.050  30.716  29.032  1.00  0.00     0.029 A 
ATOM     41  C   UNL A   1      44.924  29.603  28.700  1.00  0.00     0.049 A 
ATOM     42  H   UNL A   1      44.338  27.608  28.409  1.00  0.00     0.167 HD
ATOM     43  C   UNL A   1      42.846  23.738  27.026  1.00  0.00     0.037 A 
ATOM     44  C   UNL A   1      46.276  29.580  28.567  1.00  0.00     0.037 A 
ATOM     45  C   UNL A   1      43.405  23.532  28.339  1.00  0.00     0.049 A 
ATOM     46  C   UNL A   1      46.725  28.185  28.747  1.00  0.00     0.074 A 
ATOM     47  C   UNL A   1      42.995  23.015  29.548  1.00  0.00     0.029 A 
ATOM     48  N   UNL A   1      44.517  24.293  28.575  1.00  0.00    -0.354 N 
ATOM     49  N   UNL A   1      46.698  27.571  29.894  1.00  0.00    -0.248 NA
ATOM     50  C   UNL A   1      46.909  27.331  27.580  1.00  0.00     0.031 C 
ATOM     51  C   UNL A   1      43.818  23.628  30.541  1.00  0.00     0.029 A 
ATOM     52  C   UNL A   1      44.737  24.462  29.911  1.00  0.00     0.049 A 
ATOM     53  H   UNL A   1      45.089  24.671  27.868  1.00  0.00     0.167 HD
ATOM     54  C   UNL A   1      46.400  26.266  29.565  1.00  0.00     0.074 A 
ATOM     55  C   UNL A   1      46.730  26.137  28.151  1.00  0.00     0.031 C 
ATOM     56  C   UNL A   1      45.601  25.519  30.378  1.00  0.00     0.037 A 
BRANCH  43  57
ATOM     57  C   UNL A   1      43.589  23.223  25.801  1.00  0.00     0.057 A 
ATOM     58  C   UNL A   1      44.518  23.971  25.050  1.00  0.00     0.134 A 
ATOM     59  C   UNL A   1      43.647  21.829  25.588  1.00  0.00     0.134 A 
ATOM     60  F   UNL A   1      44.623  25.299  25.146  1.00  0.00    -0.206 F 
ATOM     61  C   UNL A   1      45.474  23.379  24.217  1.00  0.00     0.040 A 
ATOM     62  C   UNL A   1      44.625  21.226  24.787  1.00  0.00     0.040 A 
ATOM     63  F   UNL A   1      42.808  20.997  26.226  1.00  0.00    -0.206 F 
ATOM     64  C   UNL A   1      45.556  22.001  24.112  1.00  0.00     0.006 A 
ENDBRANCH  43  57
BRANCH  44  65
ATOM     65  C   UNL A   1      47.238  30.629  28.154  1.00  0.00     0.057 A 
ATOM     66  C   UNL A   1      48.096  31.217  29.096  1.00  0.00     0.134 A 
ATOM     67  C   UNL A   1      47.125  31.298  26.923  1.00  0.00     0.134 A 
ATOM     68  F   UNL A   1      48.225  30.693  30.323  1.00  0.00    -0.206 F 
ATOM     69  C   UNL A   1      48.773  32.417  28.845  1.00  0.00     0.040 A 
ATOM     70  C   UNL A   1      47.798  32.499  26.658  1.00  0.00     0.040 A 
ATOM     71  F   UNL A   1      46.304  30.836  25.967  1.00  0.00    -0.206 F 
ATOM     72  C   UNL A   1      48.613  33.072  27.629  1.00  0.00     0.006 A 
ENDBRANCH  44  65
BRANCH  56  73
ATOM     73  C   UNL A   1      45.515  25.936  31.811  1.00  0.00     0.057 A 
ATOM     74  C   UNL A   1      44.395  26.669  32.213  1.00  0.00     0.134 A 
ATOM     75  C   UNL A   1      46.497  25.679  32.778  1.00  0.00     0.134 A 
ATOM     76  F   UNL A   1      43.437  26.982  31.326  1.00  0.00    -0.206 F 
ATOM     77  C   UNL A   1      44.244  27.122  33.523  1.00  0.00     0.040 A 
ATOM     78  C   UNL A   1      46.341  26.097  34.103  1.00  0.00     0.040 A 
ATOM     79  F   UNL A   1      47.635  25.048  32.463  1.00  0.00    -0.206 F 
ATOM     80  C   UNL A   1      45.212  26.823  34.477  1.00  0.00     0.006 A 
ENDBRANCH  56  73
ENDBRANCH  30  31
ENDBRANCH  22  25
ENDBRANCH  20  21
ENDBRANCH   1  20
TORSDOF 11
ENDMDL
MODEL 2
REMARK VINA RESULT:     -12.3      2.243      6.433
REMARK SMILES Cc1ccn2c([C@H]3C[C@@H]3C(=O)NCCCNC(=O)c3ccc(-c4c5nc(c(-c6c(F)cccc6F)c6ccc([nH]6)c(-c6c(F)cccc6F)c6nc(c(-c7c(F)cccc7F)c7ccc4[nH]7)C=C6)C=C5)cc3)nnc2c1
REMARK SMILES IDX 14 1 13 2 12 3 10 4 11 5 9 7 7 8 8 9 6 10 1 11 2 12 3 13
REMARK SMILES IDX 76 14 4 15 75 16 5 17 74 18 73 19 15 20 16 21 17 22 18 24
REMARK SMILES IDX 19 25 20 26 72 27 21 28 71 29 22 30 23 31 24 32 65 33 25 34
REMARK SMILES IDX 70 35 64 36 66 37 26 38 69 39 63 40 62 41 27 43 53 44 36 45
REMARK SMILES IDX 52 46 37 47 40 48 51 49 67 50 38 51 39 52 50 54 68 55 41 56
REMARK SMILES IDX 28 57 29 58 34 59 30 60 31 61 33 62 35 63 32 64 54 65 55 66
REMARK SMILES IDX 60 67 56 68 57 69 59 70 61 71 58 72 42 73 43 74 48 75 44 76
REMARK SMILES IDX 45 77 47 78 49 79 46 80
REMARK H PARENT 12 6 16 23 66 42 40 53
REMARK Flexibility Score: inf
ROOT
ATOM      1  C   UNL A   1      34.813  30.793  27.626  1.00  0.00     0.042 C 
ENDROOT
BRANCH   1   2
ATOM      2  C   UNL A   1      33.596  30.269  26.867  1.00  0.00     0.117 C 
BRANCH   2   3
ATOM      3  N   UNL A   1      33.926  29.456  25.714  1.00  0.00    -0.356 N 
ATOM      4  C   UNL A   1      33.623  28.157  25.417  1.00  0.00     0.223 C 
ATOM      5  O   UNL A   1      33.953  27.710  24.318  1.00  0.00    -0.275 OA
ATOM      6  H   UNL A   1      34.458  29.919  25.027  1.00  0.00     0.163 HD
BRANCH   4   7
ATOM      7  C   UNL A   1      32.943  27.267  26.382  1.00  0.00     0.090 C 
ATOM      8  C   UNL A   1      32.072  26.171  25.793  1.00  0.00     0.071 C 
ATOM      9  C   UNL A   1      31.464  27.217  26.673  1.00  0.00     0.026 C 
BRANCH   8  10
ATOM     10  C   UNL A   1      32.136  24.745  26.296  1.00  0.00     0.141 A 
ATOM     11  C   UNL A   1      35.327  20.352  25.001  1.00  0.00     0.044 C 
ATOM     12  C   UNL A   1      34.462  21.533  25.325  1.00  0.00    -0.046 A 
ATOM     13  C   UNL A   1      34.527  22.676  24.412  1.00  0.00     0.022 A 
ATOM     14  C   UNL A   1      33.637  21.553  26.399  1.00  0.00     0.053 A 
ATOM     15  C   UNL A   1      33.812  23.778  24.689  1.00  0.00     0.095 A 
ATOM     16  C   UNL A   1      32.826  22.696  26.649  1.00  0.00     0.161 A 
ATOM     17  N   UNL A   1      32.993  23.785  25.814  1.00  0.00    -0.286 N 
ATOM     18  N   UNL A   1      31.864  22.953  27.511  1.00  0.00    -0.130 NA
ATOM     19  N   UNL A   1      31.392  24.229  27.251  1.00  0.00    -0.134 NA
ENDBRANCH   8  10
ENDBRANCH   4   7
ENDBRANCH   2   3
ENDBRANCH   1   2
BRANCH   1  20
ATOM     20  C   UNL A   1      34.666  32.177  28.258  1.00  0.00     0.118 C 
BRANCH  20  21
ATOM     21  N   UNL A   1      34.403  32.178  29.682  1.00  0.00    -0.352 N 
ATOM     22  C   UNL A   1      35.155  31.964  30.804  1.00  0.00     0.251 C 
ATOM     23  H   UNL A   1      33.463  32.383  29.892  1.00  0.00     0.163 HD
ATOM     24  O   UNL A   1      34.656  32.353  31.863  1.00  0.00    -0.269 OA
BRANCH  22  25
ATOM     25  C   UNL A   1      36.449  31.231  30.860  1.00  0.00     0.039 A 
ATOM     26  C   UNL A   1      37.719  31.804  30.845  1.00  0.00     0.014 A 
ATOM     27  C   UNL A   1      36.351  29.823  30.828  1.00  0.00     0.014 A 
ATOM     28  C   UNL A   1      38.846  30.998  30.680  1.00  0.00     0.010 A 
ATOM     29  C   UNL A   1      37.472  29.014  30.675  1.00  0.00     0.010 A 
ATOM     30  C   UNL A   1      38.719  29.607  30.546  1.00  0.00    -0.014 A 
BRANCH  30  31
ATOM     31  C   UNL A   1      39.939  28.801  30.449  1.00  0.00     0.031 A 
ATOM     32  C   UNL A   1      40.627  28.652  31.758  1.00  0.00     0.074 A 
ATOM     33  C   UNL A   1      40.379  28.175  29.333  1.00  0.00     0.049 A 
ATOM     34  N   UNL A   1      41.747  29.188  32.114  1.00  0.00    -0.248 NA
ATOM     35  C   UNL A   1      39.917  27.979  32.857  1.00  0.00     0.031 C 
ATOM     36  C   UNL A   1      39.667  28.013  28.062  1.00  0.00     0.029 A 
ATOM     37  N   UNL A   1      41.545  27.485  29.114  1.00  0.00    -0.354 N 
ATOM     38  C   UNL A   1      41.998  28.730  33.406  1.00  0.00     0.074 A 
ATOM     39  C   UNL A   1      40.769  28.148  33.871  1.00  0.00     0.031 C 
ATOM     40  C   UNL A   1      40.312  27.106  27.290  1.00  0.00     0.029 A 
ATOM     41  C   UNL A   1      41.561  26.736  27.936  1.00  0.00     0.049 A 
ATOM     42  H   UNL A   1      42.308  27.518  29.734  1.00  0.00     0.167 HD
ATOM     43  C   UNL A   1      43.281  28.622  33.852  1.00  0.00     0.037 A 
ATOM     44  C   UNL A   1      42.526  25.878  27.514  1.00  0.00     0.037 A 
ATOM     45  C   UNL A   1      44.170  29.364  32.993  1.00  0.00     0.049 A 
ATOM     46  C   UNL A   1      43.779  26.229  28.212  1.00  0.00     0.074 A 
ATOM     47  C   UNL A   1      44.519  30.679  32.786  1.00  0.00     0.029 A 
ATOM     48  N   UNL A   1      44.567  28.656  31.892  1.00  0.00    -0.354 N 
ATOM     49  N   UNL A   1      44.453  27.314  27.964  1.00  0.00    -0.248 NA
ATOM     50  C   UNL A   1      44.137  25.533  29.442  1.00  0.00     0.031 C 
ATOM     51  C   UNL A   1      45.002  30.755  31.444  1.00  0.00     0.029 A 
ATOM     52  C   UNL A   1      44.980  29.481  30.885  1.00  0.00     0.049 A 
ATOM     53  H   UNL A   1      44.557  27.673  31.832  1.00  0.00     0.167 HD
ATOM     54  C   UNL A   1      44.967  27.674  29.191  1.00  0.00     0.074 A 
ATOM     55  C   UNL A   1      44.910  26.466  30.005  1.00  0.00     0.031 C 
ATOM     56  C   UNL A   1      45.072  28.988  29.533  1.00  0.00     0.037 A 
BRANCH  43  57
ATOM     57  C   UNL A   1      43.819  27.452  34.665  1.00  0.00     0.057 A 
ATOM     58  C   UNL A   1      44.127  27.501  36.039  1.00  0.00     0.134 A 
ATOM     59  C   UNL A   1      43.680  26.150  34.138  1.00  0.00     0.134 A 
ATOM     60  F   UNL A   1      44.266  28.648  36.708  1.00  0.00    -0.206 F 
ATOM     61  C   UNL A   1      44.213  26.357  36.839  1.00  0.00     0.040 A 
ATOM     62  C   UNL A   1      43.727  25.001  34.939  1.00  0.00     0.040 A 
ATOM     63  F   UNL A   1      43.404  25.956  32.839  1.00  0.00    -0.206 F 
ATOM     64  C   UNL A   1      43.976  25.104  36.300  1.00  0.00     0.006 A 
ENDBRANCH  43  57
BRANCH  44  65
ATOM     65  C   UNL A   1      42.458  24.670  26.658  1.00  0.00     0.057 A 
ATOM     66  C   UNL A   1      41.902  23.479  27.151  1.00  0.00     0.134 A 
ATOM     67  C   UNL A   1      43.206  24.556  25.474  1.00  0.00     0.134 A 
ATOM     68  F   UNL A   1      41.224  23.470  28.308  1.00  0.00    -0.206 F 
ATOM     69  C   UNL A   1      42.109  22.243  26.527  1.00  0.00     0.040 A 
ATOM     70  C   UNL A   1      43.421  23.324  24.839  1.00  0.00     0.040 A 
ATOM     71  F   UNL A   1      43.808  25.629  24.940  1.00  0.00    -0.206 F 
ATOM     72  C   UNL A   1      42.884  22.159  25.376  1.00  0.00     0.006 A 
ENDBRANCH  44  65
BRANCH  56  73
ATOM     73  C   UNL A   1      45.131  29.976  28.413  1.00  0.00     0.057 A 
ATOM     74  C   UNL A   1      46.388  30.314  27.902  1.00  0.00     0.134 A 
ATOM     75  C   UNL A   1      44.018  30.623  27.858  1.00  0.00     0.134 A 
ATOM     76  F   UNL A   1      47.497  29.758  28.417  1.00  0.00    -0.206 F 
ATOM     77  C   UNL A   1      46.540  31.244  26.876  1.00  0.00     0.040 A 
ATOM     78  C   UNL A   1      44.153  31.533  26.805  1.00  0.00     0.040 A 
ATOM     79  F   UNL A   1      42.783  30.416  28.336  1.00  0.00    -0.206 F 
ATOM     80  C   UNL A   1      45.418  31.846  26.314  1.00  0.00     0.006 A 
ENDBRANCH  56  73
ENDBRANCH  30  31
ENDBRANCH  22  25
ENDBRANCH  20  21
ENDBRANCH   1  20
TORSDOF 11
ENDMDL
MODEL 3
REMARK VINA RESULT:     -12.2      2.177      6.296
REMARK SMILES Cc1ccn2c([C@H]3C[C@@H]3C(=O)NCCCNC(=O)c3ccc(-c4c5nc(c(-c6c(F)cccc6F)c6ccc([nH]6)c(-c6c(F)cccc6F)c6nc(c(-c7c(F)cccc7F)c7ccc4[nH]7)C=C6)C=C5)cc3)nnc2c1
REMARK SMILES IDX 14 1 13 2 12 3 10 4 11 5 9 7 7 8 8 9 6 10 1 11 2 12 3 13
REMARK SMILES IDX 76 14 4 15 75 16 5 17 74 18 73 19 15 20 16 21 17 22 18 24
REMARK SMILES IDX 19 25 20 26 72 27 21 28 71 29 22 30 23 31 24 32 65 33 25 34
REMARK SMILES IDX 70 35 64 36 66 37 26 38 69 39 63 40 62 41 27 43 53 44 36 45
REMARK SMILES IDX 52 46 37 47 40 48 51 49 67 50 38 51 39 52 50 54 68 55 41 56
REMARK SMILES IDX 28 57 29 58 34 59 30 60 31 61 33 62 35 63 32 64 54 65 55 66
REMARK SMILES IDX 60 67 56 68 57 69 59 70 61 71 58 72 42 73 43 74 48 75 44 76
REMARK SMILES IDX 45 77 47 78 49 79 46 80
REMARK H PARENT 12 6 16 23 66 42 40 53
REMARK Flexibility Score: inf
ROOT
ATOM      1  C   UNL A   1      32.590  30.016  25.631  1.00  0.00     0.042 C 
ENDROOT
BRANCH   1   2
ATOM      2  C   UNL A   1      33.031  28.917  24.666  1.00  0.00     0.117 C 
BRANCH   2   3
ATOM      3  N   UNL A   1      32.204  28.809  23.480  1.00  0.00    -0.356 N 
ATOM      4  C   UNL A   1      31.020  28.160  23.270  1.00  0.00     0.223 C 
ATOM      5  O   UNL A   1      30.463  28.287  22.180  1.00  0.00    -0.275 OA
ATOM      6  H   UNL A   1      32.555  29.284  22.693  1.00  0.00     0.163 HD
BRANCH   4   7
ATOM      7  C   UNL A   1      30.406  27.290  24.296  1.00  0.00     0.090 C 
ATOM      8  C   UNL A   1      30.582  25.794  24.107  1.00  0.00     0.071 C 
ATOM      9  C   UNL A   1      29.210  26.390  24.115  1.00  0.00     0.026 C 
BRANCH   8  10
ATOM     10  C   UNL A   1      30.989  24.887  25.248  1.00  0.00     0.141 A 
ATOM     11  C   UNL A   1      35.412  21.609  26.168  1.00  0.00     0.044 C 
ATOM     12  C   UNL A   1      34.218  22.477  25.900  1.00  0.00    -0.046 A 
ATOM     13  C   UNL A   1      34.060  22.990  24.538  1.00  0.00     0.022 A 
ATOM     14  C   UNL A   1      33.306  22.769  26.857  1.00  0.00     0.053 A 
ATOM     15  C   UNL A   1      33.038  23.814  24.262  1.00  0.00     0.095 A 
ATOM     16  C   UNL A   1      32.183  23.585  26.542  1.00  0.00     0.161 A 
ATOM     17  N   UNL A   1      32.129  24.122  25.270  1.00  0.00    -0.286 N 
ATOM     18  N   UNL A   1      31.098  23.927  27.205  1.00  0.00    -0.130 NA
ATOM     19  N   UNL A   1      30.318  24.706  26.366  1.00  0.00    -0.134 NA
ENDBRANCH   8  10
ENDBRANCH   4   7
ENDBRANCH   2   3
ENDBRANCH   1   2
BRANCH   1  20
ATOM     20  C   UNL A   1      33.081  29.880  27.072  1.00  0.00     0.118 C 
BRANCH  20  21
ATOM     21  N   UNL A   1      33.519  31.115  27.692  1.00  0.00    -0.352 N 
ATOM     22  C   UNL A   1      34.733  31.667  27.992  1.00  0.00     0.251 C 
ATOM     23  H   UNL A   1      32.766  31.690  27.958  1.00  0.00     0.163 HD
ATOM     24  O   UNL A   1      34.721  32.876  28.242  1.00  0.00    -0.269 OA
BRANCH  22  25
ATOM     25  C   UNL A   1      36.017  30.929  28.134  1.00  0.00     0.039 A 
ATOM     26  C   UNL A   1      36.220  29.576  27.870  1.00  0.00     0.014 A 
ATOM     27  C   UNL A   1      37.087  31.672  28.679  1.00  0.00     0.014 A 
ATOM     28  C   UNL A   1      37.413  28.962  28.253  1.00  0.00     0.010 A 
ATOM     29  C   UNL A   1      38.283  31.067  29.053  1.00  0.00     0.010 A 
ATOM     30  C   UNL A   1      38.426  29.697  28.890  1.00  0.00    -0.014 A 
BRANCH  30  31
ATOM     31  C   UNL A   1      39.686  29.020  29.204  1.00  0.00     0.031 A 
ATOM     32  C   UNL A   1      39.987  29.026  30.661  1.00  0.00     0.074 A 
ATOM     33  C   UNL A   1      40.473  28.375  28.313  1.00  0.00     0.049 A 
ATOM     34  N   UNL A   1      40.911  29.698  31.261  1.00  0.00    -0.248 NA
ATOM     35  C   UNL A   1      39.054  28.352  31.577  1.00  0.00     0.031 C 
ATOM     36  C   UNL A   1      40.166  28.059  26.916  1.00  0.00     0.029 A 
ATOM     37  N   UNL A   1      41.708  27.799  28.486  1.00  0.00    -0.354 N 
ATOM     38  C   UNL A   1      40.825  29.351  32.609  1.00  0.00     0.074 A 
ATOM     39  C   UNL A   1      39.567  28.672  32.767  1.00  0.00     0.031 C 
ATOM     40  C   UNL A   1      41.076  27.179  26.435  1.00  0.00     0.029 A 
ATOM     41  C   UNL A   1      42.118  26.983  27.430  1.00  0.00     0.049 A 
ATOM     42  H   UNL A   1      42.259  27.951  29.287  1.00  0.00     0.167 HD
ATOM     43  C   UNL A   1      41.933  29.406  33.397  1.00  0.00     0.037 A 
ATOM     44  C   UNL A   1      43.231  26.207  27.368  1.00  0.00     0.037 A 
ATOM     45  C   UNL A   1      42.964  30.182  32.753  1.00  0.00     0.049 A 
ATOM     46  C   UNL A   1      44.203  26.731  28.349  1.00  0.00     0.074 A 
ATOM     47  C   UNL A   1      43.246  31.512  32.534  1.00  0.00     0.029 A 
ATOM     48  N   UNL A   1      43.713  29.453  31.871  1.00  0.00    -0.354 N 
ATOM     49  N   UNL A   1      44.826  27.863  28.201  1.00  0.00    -0.248 NA
ATOM     50  C   UNL A   1      44.256  26.155  29.688  1.00  0.00     0.031 C 
ATOM     51  C   UNL A   1      44.080  31.554  31.375  1.00  0.00     0.029 A 
ATOM     52  C   UNL A   1      44.323  30.252  30.948  1.00  0.00     0.049 A 
ATOM     53  H   UNL A   1      43.803  28.473  31.900  1.00  0.00     0.167 HD
ATOM     54  C   UNL A   1      44.941  28.351  29.485  1.00  0.00     0.074 A 
ATOM     55  C   UNL A   1      44.757  27.197  30.356  1.00  0.00     0.031 C 
ATOM     56  C   UNL A   1      44.834  29.689  29.723  1.00  0.00     0.037 A 
BRANCH  43  57
ATOM     57  C   UNL A   1      42.316  28.353  34.428  1.00  0.00     0.057 A 
ATOM     58  C   UNL A   1      42.076  28.457  35.812  1.00  0.00     0.134 A 
ATOM     59  C   UNL A   1      42.603  27.047  33.977  1.00  0.00     0.134 A 
ATOM     60  F   UNL A   1      41.762  29.611  36.407  1.00  0.00    -0.206 F 
ATOM     61  C   UNL A   1      42.047  27.347  36.664  1.00  0.00     0.040 A 
ATOM     62  C   UNL A   1      42.537  25.925  34.815  1.00  0.00     0.040 A 
ATOM     63  F   UNL A   1      42.869  26.805  32.684  1.00  0.00    -0.206 F 
ATOM     64  C   UNL A   1      42.240  26.072  36.161  1.00  0.00     0.006 A 
ENDBRANCH  43  57
BRANCH  44  65
ATOM     65  C   UNL A   1      43.509  24.948  26.638  1.00  0.00     0.057 A 
ATOM     66  C   UNL A   1      44.323  24.954  25.494  1.00  0.00     0.134 A 
ATOM     67  C   UNL A   1      42.748  23.785  26.845  1.00  0.00     0.134 A 
ATOM     68  F   UNL A   1      45.040  26.040  25.172  1.00  0.00    -0.206 F 
ATOM     69  C   UNL A   1      44.349  23.886  24.589  1.00  0.00     0.040 A 
ATOM     70  C   UNL A   1      42.766  22.708  25.947  1.00  0.00     0.040 A 
ATOM     71  F   UNL A   1      41.912  23.693  27.890  1.00  0.00    -0.206 F 
ATOM     72  C   UNL A   1      43.557  22.764  24.805  1.00  0.00     0.006 A 
ENDBRANCH  44  65
BRANCH  56  73
ATOM     73  C   UNL A   1      45.124  30.605  28.578  1.00  0.00     0.057 A 
ATOM     74  C   UNL A   1      44.047  31.058  27.812  1.00  0.00     0.134 A 
ATOM     75  C   UNL A   1      46.407  31.015  28.188  1.00  0.00     0.134 A 
ATOM     76  F   UNL A   1      42.796  30.671  28.110  1.00  0.00    -0.206 F 
ATOM     77  C   UNL A   1      44.226  31.894  26.711  1.00  0.00     0.040 A 
ATOM     78  C   UNL A   1      46.598  31.881  27.107  1.00  0.00     0.040 A 
ATOM     79  F   UNL A   1      47.502  30.570  28.819  1.00  0.00    -0.206 F 
ATOM     80  C   UNL A   1      45.505  32.320  26.365  1.00  0.00     0.006 A 
ENDBRANCH  56  73
ENDBRANCH  30  31
ENDBRANCH  22  25
ENDBRANCH  20  21
ENDBRANCH   1  20
TORSDOF 11
ENDMDL
