MODEL 1
REMARK VINA RESULT:     -13.3      0.000      0.000
REMARK SMILES O=C(NCCCNC(=O)c1nccnc1C(=O)Nc1n[nH]c2ncccc12)c1ccc(-c2c3nc(c(-c4c(F)cccc4F)c4ccc([nH]4)c(-c4c(F)cccc4F)c4nc(c(-c5c(F)cccc5F)c5ccc2[nH]5)C=C4)C=C3)cc1
REMARK SMILES IDX 5 1 4 2 3 3 1 4 2 5 28 7 29 8 81 9 30 10 80 11 31 12 32 13
REMARK SMILES IDX 33 14 74 15 34 16 79 17 73 18 75 19 35 20 78 21 72 22 71 23
REMARK SMILES IDX 36 25 62 26 45 27 61 28 46 29 49 30 60 31 76 32 47 33 48 34
REMARK SMILES IDX 59 36 77 37 50 38 37 39 38 40 43 41 39 42 40 43 42 44 44 45
REMARK SMILES IDX 41 46 63 47 64 48 69 49 65 50 66 51 68 52 70 53 67 54 51 55
REMARK SMILES IDX 52 56 57 57 53 58 54 59 56 60 58 61 55 62 6 63 7 64 8 65
REMARK SMILES IDX 9 67 10 68 11 69 15 70 12 71 14 72 13 73 16 74 17 75 18 76
REMARK SMILES IDX 19 78 20 79 27 80 21 81 22 82 26 83 23 85 25 86 24 87
REMARK H PARENT 3 6 75 24 49 35 7 66 18 77 21 84
REMARK Flexibility Score: inf
ROOT
ATOM      1  C   UNL A   1      32.042  27.898  27.319  1.00  0.00     0.042 C 
ENDROOT
BRANCH   1   2
ATOM      2  C   UNL A   1      33.630  28.564  27.286  1.00  0.00     0.118 C 
BRANCH   2   3
ATOM      3  N   UNL A   1      33.753  29.985  27.591  1.00  0.00    -0.352 N 
ATOM      4  O   UNL A   1      34.375  31.819  28.718  1.00  0.00    -0.269 OA
ATOM      5  C   UNL A   1      34.683  30.719  28.265  1.00  0.00     0.251 C 
ATOM      6  H   UNL A   1      33.012  30.527  27.235  1.00  0.00     0.163 HD
BRANCH   5   7
ATOM      7  C   UNL A   1      36.046  30.197  28.480  1.00  0.00     0.039 A 
ATOM      8  C   UNL A   1      37.024  30.282  27.489  1.00  0.00     0.014 A 
ATOM      9  C   UNL A   1      36.369  29.669  29.735  1.00  0.00     0.014 A 
ATOM     10  C   UNL A   1      38.274  29.717  27.693  1.00  0.00     0.010 A 
ATOM     11  C   UNL A   1      37.663  29.218  29.983  1.00  0.00     0.010 A 
ATOM     12  C   UNL A   1      38.619  29.226  28.957  1.00  0.00    -0.014 A 
BRANCH  12  13
ATOM     13  C   UNL A   1      40.013  28.812  29.226  1.00  0.00     0.031 A 
ATOM     14  C   UNL A   1      40.984  29.765  29.848  1.00  0.00     0.074 A 
ATOM     15  C   UNL A   1      40.399  27.575  28.858  1.00  0.00     0.049 A 
ATOM     16  N   UNL A   1      42.266  29.617  30.054  1.00  0.00    -0.248 NA
ATOM     17  C   UNL A   1      40.445  31.062  30.283  1.00  0.00     0.031 C 
ATOM     18  C   UNL A   1      39.530  26.568  28.245  1.00  0.00     0.029 A 
ATOM     19  N   UNL A   1      41.621  26.959  28.932  1.00  0.00    -0.354 N 
ATOM     20  C   UNL A   1      42.695  30.811  30.616  1.00  0.00     0.074 A 
ATOM     21  C   UNL A   1      41.542  31.684  30.687  1.00  0.00     0.031 C 
ATOM     22  C   UNL A   1      40.239  25.455  28.015  1.00  0.00     0.029 A 
ATOM     23  C   UNL A   1      41.627  25.701  28.382  1.00  0.00     0.049 A 
ATOM     24  H   UNL A   1      42.414  27.377  29.340  1.00  0.00     0.167 HD
ATOM     25  C   UNL A   1      43.942  31.140  31.032  1.00  0.00     0.037 A 
ATOM     26  C   UNL A   1      42.647  24.856  28.151  1.00  0.00     0.037 A 
ATOM     27  C   UNL A   1      45.076  30.257  30.933  1.00  0.00     0.049 A 
ATOM     28  C   UNL A   1      44.031  25.266  28.556  1.00  0.00     0.074 A 
ATOM     29  C   UNL A   1      46.376  30.476  31.348  1.00  0.00     0.029 A 
ATOM     30  N   UNL A   1      45.046  28.994  30.356  1.00  0.00    -0.354 N 
ATOM     31  N   UNL A   1      44.426  26.385  29.113  1.00  0.00    -0.248 NA
ATOM     32  C   UNL A   1      45.108  24.303  28.304  1.00  0.00     0.031 C 
ATOM     33  C   UNL A   1      47.150  29.382  30.947  1.00  0.00     0.029 A 
ATOM     34  C   UNL A   1      46.315  28.438  30.371  1.00  0.00     0.049 A 
ATOM     35  H   UNL A   1      44.243  28.557  29.992  1.00  0.00     0.167 HD
ATOM     36  C   UNL A   1      45.792  26.249  29.314  1.00  0.00     0.074 A 
ATOM     37  C   UNL A   1      46.157  24.938  28.812  1.00  0.00     0.031 C 
ATOM     38  C   UNL A   1      46.660  27.126  29.876  1.00  0.00     0.037 A 
BRANCH  25  39
ATOM     39  C   UNL A   1      44.143  32.530  31.570  1.00  0.00     0.057 A 
ATOM     40  C   UNL A   1      44.507  33.608  30.753  1.00  0.00     0.134 A 
ATOM     41  C   UNL A   1      43.984  32.789  32.938  1.00  0.00     0.134 A 
ATOM     42  F   UNL A   1      44.684  33.434  29.434  1.00  0.00    -0.206 F 
ATOM     43  C   UNL A   1      44.761  34.875  31.281  1.00  0.00     0.040 A 
ATOM     44  C   UNL A   1      44.195  34.061  33.473  1.00  0.00     0.040 A 
ATOM     45  F   UNL A   1      43.623  31.810  33.782  1.00  0.00    -0.206 F 
ATOM     46  C   UNL A   1      44.602  35.105  32.646  1.00  0.00     0.006 A 
ENDBRANCH  25  39
BRANCH  26  47
ATOM     47  C   UNL A   1      42.375  23.558  27.485  1.00  0.00     0.057 A 
ATOM     48  C   UNL A   1      42.427  23.431  26.095  1.00  0.00     0.134 A 
ATOM     49  C   UNL A   1      42.114  22.399  28.231  1.00  0.00     0.134 A 
ATOM     50  F   UNL A   1      42.665  24.504  25.326  1.00  0.00    -0.206 F 
ATOM     51  C   UNL A   1      42.223  22.201  25.466  1.00  0.00     0.040 A 
ATOM     52  C   UNL A   1      41.939  21.159  27.619  1.00  0.00     0.040 A 
ATOM     53  F   UNL A   1      42.070  22.452  29.571  1.00  0.00    -0.206 F 
ATOM     54  C   UNL A   1      41.989  21.058  26.231  1.00  0.00     0.006 A 
ENDBRANCH  26  47
BRANCH  38  55
ATOM     55  C   UNL A   1      48.083  26.682  30.046  1.00  0.00     0.057 A 
ATOM     56  C   UNL A   1      48.506  25.914  31.138  1.00  0.00     0.134 A 
ATOM     57  C   UNL A   1      49.025  26.957  29.045  1.00  0.00     0.134 A 
ATOM     58  F   UNL A   1      47.659  25.628  32.138  1.00  0.00    -0.206 F 
ATOM     59  C   UNL A   1      49.816  25.439  31.229  1.00  0.00     0.040 A 
ATOM     60  C   UNL A   1      50.326  26.460  29.108  1.00  0.00     0.040 A 
ATOM     61  F   UNL A   1      48.684  27.683  27.970  1.00  0.00    -0.206 F 
ATOM     62  C   UNL A   1      50.725  25.700  30.205  1.00  0.00     0.006 A 
ENDBRANCH  38  55
ENDBRANCH  12  13
ENDBRANCH   5   7
ENDBRANCH   2   3
ENDBRANCH   1   2
BRANCH   1  63
ATOM     63  C   UNL A   1      30.925  26.611  25.917  1.00  0.00     0.118 C 
BRANCH  63  64
ATOM     64  N   UNL A   1      29.986  26.958  24.654  1.00  0.00    -0.351 N 
ATOM     65  C   UNL A   1      30.293  27.609  23.475  1.00  0.00     0.272 C 
ATOM     66  H   UNL A   1      29.051  26.661  24.736  1.00  0.00     0.163 HD
ATOM     67  O   UNL A   1      29.425  27.987  22.699  1.00  0.00    -0.267 OA
BRANCH  65  68
ATOM     68  C   UNL A   1      31.721  27.801  23.175  1.00  0.00     0.159 A 
ATOM     69  N   UNL A   1      32.253  28.880  23.841  1.00  0.00    -0.247 NA
ATOM     70  C   UNL A   1      32.429  27.069  22.232  1.00  0.00     0.159 A 
ATOM     71  C   UNL A   1      33.529  29.184  23.552  1.00  0.00     0.132 A 
ATOM     72  N   UNL A   1      33.725  27.418  21.940  1.00  0.00    -0.247 NA
ATOM     73  C   UNL A   1      34.250  28.466  22.619  1.00  0.00     0.132 A 
BRANCH  70  74
ATOM     74  C   UNL A   1      31.958  25.850  21.498  1.00  0.00     0.277 C 
ATOM     75  O   UNL A   1      31.756  25.956  20.284  1.00  0.00    -0.267 OA
ATOM     76  N   UNL A   1      31.767  24.610  22.067  1.00  0.00    -0.303 N 
ATOM     77  H   UNL A   1      31.617  23.878  21.425  1.00  0.00     0.172 HD
BRANCH  76  78
ATOM     78  C   UNL A   1      31.751  24.235  23.381  1.00  0.00     0.164 A 
ATOM     79  N   UNL A   1      30.585  23.820  23.909  1.00  0.00    -0.155 NA
ATOM     80  C   UNL A   1      32.842  24.118  24.263  1.00  0.00     0.063 A 
ATOM     81  N   UNL A   1      30.840  23.016  24.982  1.00  0.00    -0.259 N 
ATOM     82  C   UNL A   1      32.135  23.029  25.412  1.00  0.00     0.157 A 
ATOM     83  C   UNL A   1      34.573  24.541  24.448  1.00  0.00     0.017 A 
ATOM     84  H   UNL A   1      30.144  22.468  25.411  1.00  0.00     0.192 HD
ATOM     85  N   UNL A   1      33.038  22.207  26.650  1.00  0.00    -0.237 NA
ATOM     86  C   UNL A   1      35.563  23.791  25.724  1.00  0.00     0.021 A 
ATOM     87  C   UNL A   1      34.761  22.676  26.818  1.00  0.00     0.113 A 
ENDBRANCH  76  78
ENDBRANCH  70  74
ENDBRANCH  65  68
ENDBRANCH  63  64
ENDBRANCH   1  63
TORSDOF 12
ENDMDL
MODEL 2
REMARK VINA RESULT:     -13.3      2.930      7.922
REMARK SMILES O=C(NCCCNC(=O)c1nccnc1C(=O)Nc1n[nH]c2ncccc12)c1ccc(-c2c3nc(c(-c4c(F)cccc4F)c4ccc([nH]4)c(-c4c(F)cccc4F)c4nc(c(-c5c(F)cccc5F)c5ccc2[nH]5)C=C4)C=C3)cc1
REMARK SMILES IDX 5 1 4 2 3 3 1 4 2 5 28 7 29 8 81 9 30 10 80 11 31 12 32 13
REMARK SMILES IDX 33 14 74 15 34 16 79 17 73 18 75 19 35 20 78 21 72 22 71 23
REMARK SMILES IDX 36 25 62 26 45 27 61 28 46 29 49 30 60 31 76 32 47 33 48 34
REMARK SMILES IDX 59 36 77 37 50 38 37 39 38 40 43 41 39 42 40 43 42 44 44 45
REMARK SMILES IDX 41 46 63 47 64 48 69 49 65 50 66 51 68 52 70 53 67 54 51 55
REMARK SMILES IDX 52 56 57 57 53 58 54 59 56 60 58 61 55 62 6 63 7 64 8 65
REMARK SMILES IDX 9 67 10 68 11 69 15 70 12 71 14 72 13 73 16 74 17 75 18 76
REMARK SMILES IDX 19 78 20 79 27 80 21 81 22 82 26 83 23 85 25 86 24 87
REMARK H PARENT 3 6 75 24 49 35 7 66 18 77 21 84
REMARK Flexibility Score: inf
ROOT
ATOM      1  C   UNL A   1      36.190  23.165  23.570  1.00  0.00     0.042 C 
ENDROOT
BRANCH   1   2
ATOM      2  C   UNL A   1      37.006  23.649  25.007  1.00  0.00     0.118 C 
BRANCH   2   3
ATOM      3  N   UNL A   1      38.038  22.750  25.512  1.00  0.00    -0.352 N 
ATOM      4  O   UNL A   1      40.089  22.072  26.106  1.00  0.00    -0.269 OA
ATOM      5  C   UNL A   1      39.235  22.955  26.130  1.00  0.00     0.251 C 
ATOM      6  H   UNL A   1      37.826  21.797  25.380  1.00  0.00     0.163 HD
BRANCH   5   7
ATOM      7  C   UNL A   1      39.528  24.235  26.804  1.00  0.00     0.039 A 
ATOM      8  C   UNL A   1      39.166  24.457  28.134  1.00  0.00     0.014 A 
ATOM      9  C   UNL A   1      40.245  25.210  26.104  1.00  0.00     0.014 A 
ATOM     10  C   UNL A   1      39.388  25.695  28.718  1.00  0.00     0.010 A 
ATOM     11  C   UNL A   1      40.581  26.406  26.733  1.00  0.00     0.010 A 
ATOM     12  C   UNL A   1      40.140  26.660  28.040  1.00  0.00    -0.014 A 
BRANCH  12  13
ATOM     13  C   UNL A   1      40.547  27.897  28.742  1.00  0.00     0.031 A 
ATOM     14  C   UNL A   1      41.908  28.015  29.351  1.00  0.00     0.074 A 
ATOM     15  C   UNL A   1      39.650  28.895  28.858  1.00  0.00     0.049 A 
ATOM     16  N   UNL A   1      42.397  28.971  30.096  1.00  0.00    -0.248 NA
ATOM     17  C   UNL A   1      42.838  26.904  29.102  1.00  0.00     0.031 C 
ATOM     18  C   UNL A   1      38.296  28.882  28.299  1.00  0.00     0.029 A 
ATOM     19  N   UNL A   1      39.735  30.106  29.494  1.00  0.00    -0.354 N 
ATOM     20  C   UNL A   1      43.681  28.566  30.430  1.00  0.00     0.074 A 
ATOM     21  C   UNL A   1      43.882  27.262  29.834  1.00  0.00     0.031 C 
ATOM     22  C   UNL A   1      37.683  30.034  28.601  1.00  0.00     0.029 A 
ATOM     23  C   UNL A   1      38.567  30.827  29.445  1.00  0.00     0.049 A 
ATOM     24  H   UNL A   1      40.551  30.427  29.940  1.00  0.00     0.167 HD
ATOM     25  C   UNL A   1      44.604  29.230  31.169  1.00  0.00     0.037 A 
ATOM     26  C   UNL A   1      38.224  31.976  30.053  1.00  0.00     0.037 A 
ATOM     27  C   UNL A   1      44.370  30.520  31.765  1.00  0.00     0.049 A 
ATOM     28  C   UNL A   1      39.236  32.661  30.922  1.00  0.00     0.074 A 
ATOM     29  C   UNL A   1      45.240  31.295  32.509  1.00  0.00     0.029 A 
ATOM     30  N   UNL A   1      43.167  31.213  31.705  1.00  0.00    -0.354 N 
ATOM     31  N   UNL A   1      40.458  32.287  31.212  1.00  0.00    -0.248 NA
ATOM     32  C   UNL A   1      38.826  33.923  31.548  1.00  0.00     0.031 C 
ATOM     33  C   UNL A   1      44.541  32.415  32.968  1.00  0.00     0.029 A 
ATOM     34  C   UNL A   1      43.263  32.389  32.431  1.00  0.00     0.049 A 
ATOM     35  H   UNL A   1      42.366  30.914  31.218  1.00  0.00     0.167 HD
ATOM     36  C   UNL A   1      40.980  33.284  32.024  1.00  0.00     0.074 A 
ATOM     37  C   UNL A   1      39.935  34.276  32.185  1.00  0.00     0.031 C 
ATOM     38  C   UNL A   1      42.216  33.373  32.572  1.00  0.00     0.037 A 
BRANCH  25  39
ATOM     39  C   UNL A   1      45.915  28.537  31.415  1.00  0.00     0.057 A 
ATOM     40  C   UNL A   1      47.039  28.744  30.605  1.00  0.00     0.134 A 
ATOM     41  C   UNL A   1      46.049  27.631  32.476  1.00  0.00     0.134 A 
ATOM     42  F   UNL A   1      46.984  29.592  29.566  1.00  0.00    -0.206 F 
ATOM     43  C   UNL A   1      48.227  28.036  30.804  1.00  0.00     0.040 A 
ATOM     44  C   UNL A   1      47.243  26.947  32.710  1.00  0.00     0.040 A 
ATOM     45  F   UNL A   1      45.020  27.390  33.303  1.00  0.00    -0.206 F 
ATOM     46  C   UNL A   1      48.331  27.136  31.862  1.00  0.00     0.006 A 
ENDBRANCH  25  39
BRANCH  26  47
ATOM     47  C   UNL A   1      36.856  32.516  29.864  1.00  0.00     0.057 A 
ATOM     48  C   UNL A   1      35.806  32.147  30.709  1.00  0.00     0.134 A 
ATOM     49  C   UNL A   1      36.580  33.462  28.866  1.00  0.00     0.134 A 
ATOM     50  F   UNL A   1      36.006  31.241  31.678  1.00  0.00    -0.206 F 
ATOM     51  C   UNL A   1      34.529  32.692  30.568  1.00  0.00     0.040 A 
ATOM     52  C   UNL A   1      35.317  34.038  28.732  1.00  0.00     0.040 A 
ATOM     53  F   UNL A   1      37.550  33.872  28.035  1.00  0.00    -0.206 F 
ATOM     54  C   UNL A   1      34.285  33.648  29.583  1.00  0.00     0.006 A 
ENDBRANCH  26  47
BRANCH  38  55
ATOM     55  C   UNL A   1      42.545  34.616  33.348  1.00  0.00     0.057 A 
ATOM     56  C   UNL A   1      43.066  35.765  32.741  1.00  0.00     0.134 A 
ATOM     57  C   UNL A   1      42.244  34.686  34.715  1.00  0.00     0.134 A 
ATOM     58  F   UNL A   1      43.389  35.760  31.439  1.00  0.00    -0.206 F 
ATOM     59  C   UNL A   1      43.280  36.938  33.468  1.00  0.00     0.040 A 
ATOM     60  C   UNL A   1      42.422  35.861  35.444  1.00  0.00     0.040 A 
ATOM     61  F   UNL A   1      41.737  33.622  35.356  1.00  0.00    -0.206 F 
ATOM     62  C   UNL A   1      42.944  36.992  34.819  1.00  0.00     0.006 A 
ENDBRANCH  38  55
ENDBRANCH  12  13
ENDBRANCH   5   7
ENDBRANCH   2   3
ENDBRANCH   1   2
BRANCH   1  63
ATOM     63  C   UNL A   1      34.055  22.971  23.050  1.00  0.00     0.118 C 
BRANCH  63  64
ATOM     64  N   UNL A   1      33.020  21.743  23.192  1.00  0.00    -0.351 N 
ATOM     65  C   UNL A   1      32.612  21.056  24.319  1.00  0.00     0.272 C 
ATOM     66  H   UNL A   1      32.620  21.437  22.347  1.00  0.00     0.163 HD
ATOM     67  O   UNL A   1      31.982  20.008  24.245  1.00  0.00    -0.267 OA
BRANCH  65  68
ATOM     68  C   UNL A   1      32.939  21.660  25.620  1.00  0.00     0.159 A 
ATOM     69  N   UNL A   1      34.219  21.362  26.025  1.00  0.00    -0.247 NA
ATOM     70  C   UNL A   1      32.031  22.343  26.418  1.00  0.00     0.159 A 
ATOM     71  C   UNL A   1      34.568  21.796  27.248  1.00  0.00     0.132 A 
ATOM     72  N   UNL A   1      32.410  22.754  27.673  1.00  0.00    -0.247 NA
ATOM     73  C   UNL A   1      33.681  22.478  28.054  1.00  0.00     0.132 A 
BRANCH  70  74
ATOM     74  C   UNL A   1      30.641  22.762  26.045  1.00  0.00     0.277 C 
ATOM     75  O   UNL A   1      29.702  22.144  26.557  1.00  0.00    -0.267 OA
ATOM     76  N   UNL A   1      30.330  23.807  25.204  1.00  0.00    -0.303 N 
ATOM     77  H   UNL A   1      29.377  24.059  25.192  1.00  0.00     0.172 HD
BRANCH  76  78
ATOM     78  C   UNL A   1      31.132  24.548  24.382  1.00  0.00     0.164 A 
ATOM     79  N   UNL A   1      30.967  24.425  23.053  1.00  0.00    -0.155 NA
ATOM     80  C   UNL A   1      32.069  25.535  24.745  1.00  0.00     0.063 A 
ATOM     81  N   UNL A   1      31.421  25.556  22.439  1.00  0.00    -0.259 N 
ATOM     82  C   UNL A   1      32.141  26.393  23.242  1.00  0.00     0.157 A 
ATOM     83  C   UNL A   1      32.957  26.205  26.149  1.00  0.00     0.017 A 
ATOM     84  H   UNL A   1      31.242  25.753  21.491  1.00  0.00     0.192 HD
ATOM     85  N   UNL A   1      32.903  27.944  23.046  1.00  0.00    -0.237 NA
ATOM     86  C   UNL A   1      33.814  27.761  26.027  1.00  0.00     0.021 A 
ATOM     87  C   UNL A   1      33.801  28.570  24.468  1.00  0.00     0.113 A 
ENDBRANCH  76  78
ENDBRANCH  70  74
ENDBRANCH  65  68
ENDBRANCH  63  64
ENDBRANCH   1  63
TORSDOF 12
ENDMDL
MODEL 3
REMARK VINA RESULT:     -13.2      2.771      7.313
REMARK SMILES O=C(NCCCNC(=O)c1nccnc1C(=O)Nc1n[nH]c2ncccc12)c1ccc(-c2c3nc(c(-c4c(F)cccc4F)c4ccc([nH]4)c(-c4c(F)cccc4F)c4nc(c(-c5c(F)cccc5F)c5ccc2[nH]5)C=C4)C=C3)cc1
REMARK SMILES IDX 5 1 4 2 3 3 1 4 2 5 28 7 29 8 81 9 30 10 80 11 31 12 32 13
REMARK SMILES IDX 33 14 74 15 34 16 79 17 73 18 75 19 35 20 78 21 72 22 71 23
REMARK SMILES IDX 36 25 62 26 45 27 61 28 46 29 49 30 60 31 76 32 47 33 48 34
REMARK SMILES IDX 59 36 77 37 50 38 37 39 38 40 43 41 39 42 40 43 42 44 44 45
REMARK SMILES IDX 41 46 63 47 64 48 69 49 65 50 66 51 68 52 70 53 67 54 51 55
REMARK SMILES IDX 52 56 57 57 53 58 54 59 56 60 58 61 55 62 6 63 7 64 8 65
REMARK SMILES IDX 9 67 10 68 11 69 15 70 12 71 14 72 13 73 16 74 17 75 18 76
REMARK SMILES IDX 19 78 20 79 27 80 21 81 22 82 26 83 23 85 25 86 24 87
REMARK H PARENT 3 6 75 24 49 35 7 66 18 77 21 84
REMARK Flexibility Score: inf
ROOT
ATOM      1  C   UNL A   1      37.189  19.222  24.610  1.00  0.00     0.042 C 
ENDROOT
BRANCH   1   2
ATOM      2  C   UNL A   1      38.479  20.024  25.422  1.00  0.00     0.118 C 
BRANCH   2   3
ATOM      3  N   UNL A   1      39.664  19.227  25.721  1.00  0.00    -0.352 N 
ATOM      4  O   UNL A   1      41.842  18.726  25.877  1.00  0.00    -0.269 OA
ATOM      5  C   UNL A   1      40.945  19.547  26.056  1.00  0.00     0.251 C 
ATOM      6  H   UNL A   1      39.505  18.256  25.670  1.00  0.00     0.163 HD
BRANCH   5   7
ATOM      7  C   UNL A   1      41.272  20.877  26.607  1.00  0.00     0.039 A 
ATOM      8  C   UNL A   1      41.203  21.135  27.977  1.00  0.00     0.014 A 
ATOM      9  C   UNL A   1      41.725  21.869  25.732  1.00  0.00     0.014 A 
ATOM     10  C   UNL A   1      41.445  22.413  28.457  1.00  0.00     0.010 A 
ATOM     11  C   UNL A   1      42.091  23.117  26.231  1.00  0.00     0.010 A 
ATOM     12  C   UNL A   1      41.938  23.399  27.596  1.00  0.00    -0.014 A 
BRANCH  12  13
ATOM     13  C   UNL A   1      42.385  24.696  28.149  1.00  0.00     0.031 A 
ATOM     14  C   UNL A   1      41.402  25.793  28.409  1.00  0.00     0.074 A 
ATOM     15  C   UNL A   1      43.700  24.882  28.371  1.00  0.00     0.049 A 
ATOM     16  N   UNL A   1      41.622  27.026  28.782  1.00  0.00    -0.248 NA
ATOM     17  C   UNL A   1      39.982  25.465  28.208  1.00  0.00     0.031 C 
ATOM     18  C   UNL A   1      44.743  23.876  28.153  1.00  0.00     0.029 A 
ATOM     19  N   UNL A   1      44.387  25.981  28.816  1.00  0.00    -0.354 N 
ATOM     20  C   UNL A   1      40.374  27.631  28.834  1.00  0.00     0.074 A 
ATOM     21  C   UNL A   1      39.405  26.638  28.421  1.00  0.00     0.031 C 
ATOM     22  C   UNL A   1      45.933  24.397  28.479  1.00  0.00     0.029 A 
ATOM     23  C   UNL A   1      45.747  25.795  28.844  1.00  0.00     0.049 A 
ATOM     24  H   UNL A   1      43.950  26.820  29.087  1.00  0.00     0.167 HD
ATOM     25  C   UNL A   1      40.074  28.902  29.195  1.00  0.00     0.037 A 
ATOM     26  C   UNL A   1      46.742  26.666  29.089  1.00  0.00     0.037 A 
ATOM     27  C   UNL A   1      41.062  29.875  29.586  1.00  0.00     0.049 A 
ATOM     28  C   UNL A   1      46.393  28.085  29.420  1.00  0.00     0.074 A 
ATOM     29  C   UNL A   1      40.868  31.181  29.997  1.00  0.00     0.029 A 
ATOM     30  N   UNL A   1      42.433  29.653  29.589  1.00  0.00    -0.354 N 
ATOM     31  N   UNL A   1      45.210  28.645  29.494  1.00  0.00    -0.248 NA
ATOM     32  C   UNL A   1      47.510  28.995  29.700  1.00  0.00     0.031 C 
ATOM     33  C   UNL A   1      42.123  31.773  30.168  1.00  0.00     0.029 A 
ATOM     34  C   UNL A   1      43.098  30.810  29.959  1.00  0.00     0.049 A 
ATOM     35  H   UNL A   1      42.868  28.799  29.363  1.00  0.00     0.167 HD
ATOM     36  C   UNL A   1      45.434  29.962  29.866  1.00  0.00     0.074 A 
ATOM     37  C   UNL A   1      46.869  30.119  29.996  1.00  0.00     0.031 C 
ATOM     38  C   UNL A   1      44.530  30.946  30.093  1.00  0.00     0.037 A 
BRANCH  25  39
ATOM     39  C   UNL A   1      38.630  29.315  29.121  1.00  0.00     0.057 A 
ATOM     40  C   UNL A   1      37.787  29.307  30.240  1.00  0.00     0.134 A 
ATOM     41  C   UNL A   1      38.069  29.712  27.899  1.00  0.00     0.134 A 
ATOM     42  F   UNL A   1      38.252  28.930  31.441  1.00  0.00    -0.206 F 
ATOM     43  C   UNL A   1      36.430  29.622  30.137  1.00  0.00     0.040 A 
ATOM     44  C   UNL A   1      36.724  30.070  27.792  1.00  0.00     0.040 A 
ATOM     45  F   UNL A   1      38.818  29.759  26.787  1.00  0.00    -0.206 F 
ATOM     46  C   UNL A   1      35.897  30.007  28.910  1.00  0.00     0.006 A 
ENDBRANCH  25  39
BRANCH  26  47
ATOM     47  C   UNL A   1      48.149  26.202  29.002  1.00  0.00     0.057 A 
ATOM     48  C   UNL A   1      48.879  26.315  27.816  1.00  0.00     0.134 A 
ATOM     49  C   UNL A   1      48.814  25.687  30.125  1.00  0.00     0.134 A 
ATOM     50  F   UNL A   1      48.295  26.792  26.707  1.00  0.00    -0.206 F 
ATOM     51  C   UNL A   1      50.218  25.928  27.744  1.00  0.00     0.040 A 
ATOM     52  C   UNL A   1      50.160  25.325  30.076  1.00  0.00     0.040 A 
ATOM     53  F   UNL A   1      48.174  25.571  31.298  1.00  0.00    -0.206 F 
ATOM     54  C   UNL A   1      50.865  25.441  28.879  1.00  0.00     0.006 A 
ENDBRANCH  26  47
BRANCH  38  55
ATOM     55  C   UNL A   1      45.049  32.271  30.573  1.00  0.00     0.057 A 
ATOM     56  C   UNL A   1      45.326  33.330  29.700  1.00  0.00     0.134 A 
ATOM     57  C   UNL A   1      45.183  32.512  31.947  1.00  0.00     0.134 A 
ATOM     58  F   UNL A   1      45.232  33.162  28.373  1.00  0.00    -0.206 F 
ATOM     59  C   UNL A   1      45.724  34.581  30.178  1.00  0.00     0.040 A 
ATOM     60  C   UNL A   1      45.547  33.765  32.438  1.00  0.00     0.040 A 
ATOM     61  F   UNL A   1      44.928  31.541  32.837  1.00  0.00    -0.206 F 
ATOM     62  C   UNL A   1      45.821  34.804  31.551  1.00  0.00     0.006 A 
ENDBRANCH  38  55
ENDBRANCH  12  13
ENDBRANCH   5   7
ENDBRANCH   2   3
ENDBRANCH   1   2
BRANCH   1  63
ATOM     63  C   UNL A   1      35.009  19.170  24.944  1.00  0.00     0.118 C 
BRANCH  63  64
ATOM     64  N   UNL A   1      33.792  19.948  24.230  1.00  0.00    -0.351 N 
ATOM     65  C   UNL A   1      33.508  21.300  24.190  1.00  0.00     0.272 C 
ATOM     66  H   UNL A   1      33.153  19.373  23.751  1.00  0.00     0.163 HD
ATOM     67  O   UNL A   1      32.432  21.724  23.788  1.00  0.00    -0.267 OA
BRANCH  65  68
ATOM     68  C   UNL A   1      34.576  22.216  24.622  1.00  0.00     0.159 A 
ATOM     69  N   UNL A   1      35.495  22.451  23.627  1.00  0.00    -0.247 NA
ATOM     70  C   UNL A   1      34.724  22.691  25.918  1.00  0.00     0.159 A 
ATOM     71  C   UNL A   1      36.556  23.202  23.967  1.00  0.00     0.132 A 
ATOM     72  N   UNL A   1      35.831  23.437  26.241  1.00  0.00    -0.247 NA
ATOM     73  C   UNL A   1      36.719  23.685  25.249  1.00  0.00     0.132 A 
BRANCH  70  74
ATOM     74  C   UNL A   1      33.754  22.537  27.050  1.00  0.00     0.277 C 
ATOM     75  O   UNL A   1      34.026  21.710  27.927  1.00  0.00    -0.267 OA
ATOM     76  N   UNL A   1      32.600  23.272  27.208  1.00  0.00    -0.303 N 
ATOM     77  H   UNL A   1      32.160  23.169  28.083  1.00  0.00     0.172 HD
BRANCH  76  78
ATOM     78  C   UNL A   1      31.968  24.119  26.342  1.00  0.00     0.164 A 
ATOM     79  N   UNL A   1      30.722  23.808  25.944  1.00  0.00    -0.155 NA
ATOM     80  C   UNL A   1      32.413  25.370  25.872  1.00  0.00     0.063 A 
ATOM     81  N   UNL A   1      30.076  24.946  25.558  1.00  0.00    -0.259 N 
ATOM     82  C   UNL A   1      30.881  26.040  25.419  1.00  0.00     0.157 A 
ATOM     83  C   UNL A   1      33.861  26.421  25.779  1.00  0.00     0.017 A 
ATOM     84  H   UNL A   1      29.106  24.977  25.393  1.00  0.00     0.192 HD
ATOM     85  N   UNL A   1      30.636  27.715  25.017  1.00  0.00    -0.237 NA
ATOM     86  C   UNL A   1      33.715  28.136  25.322  1.00  0.00     0.021 A 
ATOM     87  C   UNL A   1      32.113  28.728  24.912  1.00  0.00     0.113 A 
ENDBRANCH  76  78
ENDBRANCH  70  74
ENDBRANCH  65  68
ENDBRANCH  63  64
ENDBRANCH   1  63
TORSDOF 12
ENDMDL
