MODEL 1
REMARK VINA RESULT:     -10.0      0.000      0.000
REMARK SMILES C[C@H](Oc1ccc(/C=C2/SC(=S)N(c3ccc(F)c(Cl)c3)C2=O)cc1)C(=O)NCCCNC(=O)c1ccc(-c2c3nc(c(-c4c(F)cccc4F)c4ccc([nH]4)c(-c4c(F)cccc4F)c4nc(c(-c5c(F)cccc5F)c5ccc2[nH]5)C=C4)C=C3)cc1
REMARK SMILES IDX 29 1 28 2 26 3 27 4 2 6 1 7 3 8 4 9 5 10 25 11 6 12 24 13
REMARK SMILES IDX 7 14 8 15 9 16 10 17 22 18 11 19 13 20 23 21 12 22 14 23
REMARK SMILES IDX 15 24 21 25 16 26 19 27 17 28 20 29 18 30 30 31 31 32 32 33
REMARK SMILES IDX 33 34 34 36 35 37 36 38 88 39 37 40 87 41 38 42 39 43 40 44
REMARK SMILES IDX 81 45 41 46 86 47 80 48 82 49 42 50 85 51 79 52 78 53 43 55
REMARK SMILES IDX 69 56 52 57 68 58 53 59 56 60 67 61 83 62 54 63 55 64 66 66
REMARK SMILES IDX 84 67 57 68 44 69 45 70 50 71 46 72 47 73 49 74 51 75 48 76
REMARK SMILES IDX 70 77 71 78 76 79 72 80 73 81 75 82 77 83 74 84 58 85 59 86
REMARK SMILES IDX 64 87 60 88 61 89 63 90 65 91 62 92
REMARK H PARENT 28 5 32 35 82 54 56 65
REMARK Flexibility Score: inf
ROOT
ATOM      1  C   UNL A   1      33.684  34.740  29.237  1.00  0.00     0.118 C 
ENDROOT
BRANCH   1   2
ATOM      2  N   UNL A   1      34.190  35.436  30.412  1.00  0.00    -0.353 N 
ATOM      3  C   UNL A   1      34.540  34.927  31.637  1.00  0.00     0.260 C 
ATOM      4  O   UNL A   1      34.970  35.711  32.487  1.00  0.00    -0.271 OA
ATOM      5  H   UNL A   1      34.294  36.409  30.313  1.00  0.00     0.163 HD
BRANCH   3   6
ATOM      6  C   UNL A   1      34.445  33.417  31.910  1.00  0.00     0.258 C 
ATOM      7  C   UNL A   1      33.948  33.219  33.344  1.00  0.00     0.064 C 
BRANCH   6   8
ATOM      8  O   UNL A   1      35.737  32.934  31.543  1.00  0.00    -0.481 OA
BRANCH   8   9
ATOM      9  C   UNL A   1      36.779  32.782  32.395  1.00  0.00     0.120 A 
ATOM     10  C   UNL A   1      36.801  32.085  33.595  1.00  0.00     0.047 A 
ATOM     11  C   UNL A   1      37.925  33.469  31.990  1.00  0.00     0.047 A 
ATOM     12  C   UNL A   1      37.909  32.189  34.448  1.00  0.00     0.012 A 
ATOM     13  C   UNL A   1      39.045  33.543  32.816  1.00  0.00     0.012 A 
ATOM     14  C   UNL A   1      39.017  32.960  34.084  1.00  0.00    -0.024 A 
BRANCH  14  15
ATOM     15  C   UNL A   1      40.139  33.123  35.016  1.00  0.00     0.029 C 
ATOM     16  C   UNL A   1      41.070  32.199  35.301  1.00  0.00     0.081 C 
ATOM     17  S   UNL A   1      42.272  32.454  36.509  1.00  0.00    -0.054 SA
ATOM     18  C   UNL A   1      41.222  30.826  34.722  1.00  0.00     0.270 C 
ATOM     19  C   UNL A   1      42.859  30.794  36.426  1.00  0.00     0.152 C 
ATOM     20  N   UNL A   1      42.147  30.090  35.466  1.00  0.00    -0.261 N 
ATOM     21  O   UNL A   1      40.594  30.431  33.751  1.00  0.00    -0.268 OA
ATOM     22  S   UNL A   1      44.162  30.309  37.358  1.00  0.00    -0.051 S 
BRANCH  20  23
ATOM     23  C   UNL A   1      42.297  28.689  35.210  1.00  0.00     0.052 A 
ATOM     24  C   UNL A   1      41.728  27.737  36.072  1.00  0.00     0.030 A 
ATOM     25  C   UNL A   1      43.085  28.238  34.138  1.00  0.00     0.050 A 
ATOM     26  C   UNL A   1      41.920  26.368  35.856  1.00  0.00     0.043 A 
ATOM     27  C   UNL A   1      43.292  26.869  33.936  1.00  0.00     0.078 A 
ATOM     28  C   UNL A   1      42.703  25.942  34.790  1.00  0.00     0.141 A 
ATOM     29  Cl  UNL A   1      44.310  26.351  32.647  1.00  0.00    -0.081 Cl
ATOM     30  F   UNL A   1      42.893  24.627  34.614  1.00  0.00    -0.205 F 
ENDBRANCH  20  23
ENDBRANCH  14  15
ENDBRANCH   8   9
ENDBRANCH   6   8
ENDBRANCH   3   6
ENDBRANCH   1   2
BRANCH   1  31
ATOM     31  C   UNL A   1      34.745  34.547  28.163  1.00  0.00     0.042 C 
BRANCH  31  32
ATOM     32  C   UNL A   1      35.392  33.169  28.173  1.00  0.00     0.118 C 
BRANCH  32  33
ATOM     33  N   UNL A   1      34.421  32.083  28.090  1.00  0.00    -0.352 N 
ATOM     34  C   UNL A   1      34.619  30.724  28.079  1.00  0.00     0.251 C 
ATOM     35  H   UNL A   1      33.481  32.369  28.034  1.00  0.00     0.163 HD
ATOM     36  O   UNL A   1      33.678  29.971  27.843  1.00  0.00    -0.269 OA
BRANCH  34  37
ATOM     37  C   UNL A   1      35.965  30.165  28.324  1.00  0.00     0.039 A 
ATOM     38  C   UNL A   1      36.873  30.091  27.263  1.00  0.00     0.014 A 
ATOM     39  C   UNL A   1      36.331  29.711  29.592  1.00  0.00     0.014 A 
ATOM     40  C   UNL A   1      38.172  29.634  27.492  1.00  0.00     0.010 A 
ATOM     41  C   UNL A   1      37.647  29.329  29.835  1.00  0.00     0.010 A 
ATOM     42  C   UNL A   1      38.581  29.288  28.789  1.00  0.00    -0.014 A 
BRANCH  42  43
ATOM     43  C   UNL A   1      39.971  28.868  29.089  1.00  0.00     0.031 A 
ATOM     44  C   UNL A   1      40.928  29.846  29.710  1.00  0.00     0.074 A 
ATOM     45  C   UNL A   1      40.402  27.647  28.713  1.00  0.00     0.049 A 
ATOM     46  N   UNL A   1      42.220  29.742  29.892  1.00  0.00    -0.248 NA
ATOM     47  C   UNL A   1      40.359  31.129  30.155  1.00  0.00     0.031 C 
ATOM     48  C   UNL A   1      39.582  26.617  28.073  1.00  0.00     0.029 A 
ATOM     49  N   UNL A   1      41.647  27.078  28.796  1.00  0.00    -0.354 N 
ATOM     50  C   UNL A   1      42.622  30.953  30.438  1.00  0.00     0.074 A 
ATOM     51  C   UNL A   1      41.445  31.791  30.526  1.00  0.00     0.031 C 
ATOM     52  C   UNL A   1      40.343  25.537  27.832  1.00  0.00     0.029 A 
ATOM     53  C   UNL A   1      41.710  25.815  28.259  1.00  0.00     0.049 A 
ATOM     54  H   UNL A   1      42.421  27.529  29.203  1.00  0.00     0.167 HD
ATOM     55  C   UNL A   1      43.858  31.329  30.844  1.00  0.00     0.037 A 
ATOM     56  C   UNL A   1      42.758  24.982  28.111  1.00  0.00     0.037 A 
ATOM     57  C   UNL A   1      45.018  30.480  30.796  1.00  0.00     0.049 A 
ATOM     58  C   UNL A   1      44.117  25.415  28.587  1.00  0.00     0.074 A 
ATOM     59  C   UNL A   1      46.303  30.749  31.237  1.00  0.00     0.029 A 
ATOM     60  N   UNL A   1      45.030  29.192  30.286  1.00  0.00    -0.354 N 
ATOM     61  N   UNL A   1      44.478  26.551  29.132  1.00  0.00    -0.248 NA
ATOM     62  C   UNL A   1      45.214  24.450  28.427  1.00  0.00     0.031 C 
ATOM     63  C   UNL A   1      47.098  29.630  30.969  1.00  0.00     0.029 A 
ATOM     64  C   UNL A   1      46.301  28.654  30.394  1.00  0.00     0.049 A 
ATOM     65  H   UNL A   1      44.250  28.728  29.904  1.00  0.00     0.167 HD
ATOM     66  C   UNL A   1      45.833  26.427  29.408  1.00  0.00     0.074 A 
ATOM     67  C   UNL A   1      46.229  25.103  28.975  1.00  0.00     0.031 C 
ATOM     68  C   UNL A   1      46.672  27.328  29.973  1.00  0.00     0.037 A 
BRANCH  55  69
ATOM     69  C   UNL A   1      44.014  32.723  31.377  1.00  0.00     0.057 A 
ATOM     70  C   UNL A   1      44.103  33.832  30.527  1.00  0.00     0.134 A 
ATOM     71  C   UNL A   1      44.055  32.959  32.757  1.00  0.00     0.134 A 
ATOM     72  F   UNL A   1      44.085  33.671  29.195  1.00  0.00    -0.206 F 
ATOM     73  C   UNL A   1      44.252  35.126  31.028  1.00  0.00     0.040 A 
ATOM     74  C   UNL A   1      44.179  34.251  33.271  1.00  0.00     0.040 A 
ATOM     75  F   UNL A   1      43.971  31.941  33.626  1.00  0.00    -0.206 F 
ATOM     76  C   UNL A   1      44.285  35.338  32.406  1.00  0.00     0.006 A 
ENDBRANCH  55  69
BRANCH  56  77
ATOM     77  C   UNL A   1      42.559  23.644  27.503  1.00  0.00     0.057 A 
ATOM     78  C   UNL A   1      42.649  23.466  26.119  1.00  0.00     0.134 A 
ATOM     79  C   UNL A   1      42.275  22.518  28.284  1.00  0.00     0.134 A 
ATOM     80  F   UNL A   1      42.897  24.513  25.318  1.00  0.00    -0.206 F 
ATOM     81  C   UNL A   1      42.452  22.217  25.528  1.00  0.00     0.040 A 
ATOM     82  C   UNL A   1      42.096  21.259  27.709  1.00  0.00     0.040 A 
ATOM     83  F   UNL A   1      42.182  22.623  29.617  1.00  0.00    -0.206 F 
ATOM     84  C   UNL A   1      42.180  21.107  26.326  1.00  0.00     0.006 A 
ENDBRANCH  56  77
BRANCH  68  85
ATOM     85  C   UNL A   1      48.091  26.898  30.196  1.00  0.00     0.057 A 
ATOM     86  C   UNL A   1      48.470  26.159  31.322  1.00  0.00     0.134 A 
ATOM     87  C   UNL A   1      49.077  27.187  29.244  1.00  0.00     0.134 A 
ATOM     88  F   UNL A   1      47.573  25.863  32.275  1.00  0.00    -0.206 F 
ATOM     89  C   UNL A   1      49.787  25.736  31.504  1.00  0.00     0.040 A 
ATOM     90  C   UNL A   1      50.393  26.751  29.404  1.00  0.00     0.040 A 
ATOM     91  F   UNL A   1      48.775  27.884  28.139  1.00  0.00    -0.206 F 
ATOM     92  C   UNL A   1      50.751  26.026  30.539  1.00  0.00     0.006 A 
ENDBRANCH  68  85
ENDBRANCH  42  43
ENDBRANCH  34  37
ENDBRANCH  32  33
ENDBRANCH  31  32
ENDBRANCH   1  31
TORSDOF 14
ENDMDL
MODEL 2
REMARK VINA RESULT:     -10.0      2.534      4.259
REMARK SMILES C[C@H](Oc1ccc(/C=C2/SC(=S)N(c3ccc(F)c(Cl)c3)C2=O)cc1)C(=O)NCCCNC(=O)c1ccc(-c2c3nc(c(-c4c(F)cccc4F)c4ccc([nH]4)c(-c4c(F)cccc4F)c4nc(c(-c5c(F)cccc5F)c5ccc2[nH]5)C=C4)C=C3)cc1
REMARK SMILES IDX 29 1 28 2 26 3 27 4 2 6 1 7 3 8 4 9 5 10 25 11 6 12 24 13
REMARK SMILES IDX 7 14 8 15 9 16 10 17 22 18 11 19 13 20 23 21 12 22 14 23
REMARK SMILES IDX 15 24 21 25 16 26 19 27 17 28 20 29 18 30 30 31 31 32 32 33
REMARK SMILES IDX 33 34 34 36 35 37 36 38 88 39 37 40 87 41 38 42 39 43 40 44
REMARK SMILES IDX 81 45 41 46 86 47 80 48 82 49 42 50 85 51 79 52 78 53 43 55
REMARK SMILES IDX 69 56 52 57 68 58 53 59 56 60 67 61 83 62 54 63 55 64 66 66
REMARK SMILES IDX 84 67 57 68 44 69 45 70 50 71 46 72 47 73 49 74 51 75 48 76
REMARK SMILES IDX 70 77 71 78 76 79 72 80 73 81 75 82 77 83 74 84 58 85 59 86
REMARK SMILES IDX 64 87 60 88 61 89 63 90 65 91 62 92
REMARK H PARENT 28 5 32 35 82 54 56 65
REMARK Flexibility Score: inf
ROOT
ATOM      1  C   UNL A   1      34.871  33.146  30.517  1.00  0.00     0.118 C 
ENDROOT
BRANCH   1   2
ATOM      2  N   UNL A   1      34.962  33.984  31.704  1.00  0.00    -0.353 N 
ATOM      3  C   UNL A   1      35.952  34.042  32.652  1.00  0.00     0.260 C 
ATOM      4  O   UNL A   1      35.826  34.854  33.572  1.00  0.00    -0.271 OA
ATOM      5  H   UNL A   1      34.203  34.594  31.848  1.00  0.00     0.163 HD
BRANCH   3   6
ATOM      6  C   UNL A   1      37.202  33.155  32.527  1.00  0.00     0.258 C 
ATOM      7  C   UNL A   1      36.989  31.903  33.382  1.00  0.00     0.064 C 
BRANCH   6   8
ATOM      8  O   UNL A   1      38.271  34.045  32.844  1.00  0.00    -0.481 OA
BRANCH   8   9
ATOM      9  C   UNL A   1      39.364  34.251  32.071  1.00  0.00     0.120 A 
ATOM     10  C   UNL A   1      40.672  34.464  32.486  1.00  0.00     0.047 A 
ATOM     11  C   UNL A   1      39.071  34.293  30.707  1.00  0.00     0.047 A 
ATOM     12  C   UNL A   1      41.649  34.852  31.558  1.00  0.00     0.012 A 
ATOM     13  C   UNL A   1      40.049  34.640  29.775  1.00  0.00     0.012 A 
ATOM     14  C   UNL A   1      41.330  34.990  30.204  1.00  0.00    -0.024 A 
BRANCH  14  15
ATOM     15  C   UNL A   1      42.341  35.469  29.255  1.00  0.00     0.029 C 
ATOM     16  C   UNL A   1      43.243  34.711  28.611  1.00  0.00     0.081 C 
ATOM     17  S   UNL A   1      44.468  35.398  27.613  1.00  0.00    -0.054 SA
ATOM     18  C   UNL A   1      43.410  33.224  28.663  1.00  0.00     0.270 C 
ATOM     19  C   UNL A   1      45.301  33.860  27.396  1.00  0.00     0.152 C 
ATOM     20  N   UNL A   1      44.616  32.855  28.064  1.00  0.00    -0.261 N 
ATOM     21  O   UNL A   1      42.598  32.473  29.181  1.00  0.00    -0.268 OA
ATOM     22  S   UNL A   1      46.652  33.759  26.413  1.00  0.00    -0.051 S 
BRANCH  20  23
ATOM     23  C   UNL A   1      45.071  31.502  28.180  1.00  0.00     0.052 A 
ATOM     24  C   UNL A   1      45.920  31.118  29.232  1.00  0.00     0.030 A 
ATOM     25  C   UNL A   1      44.746  30.551  27.199  1.00  0.00     0.050 A 
ATOM     26  C   UNL A   1      46.410  29.810  29.316  1.00  0.00     0.043 A 
ATOM     27  C   UNL A   1      45.254  29.250  27.274  1.00  0.00     0.078 A 
ATOM     28  C   UNL A   1      46.076  28.884  28.335  1.00  0.00     0.141 A 
ATOM     29  Cl  UNL A   1      44.882  28.125  26.024  1.00  0.00    -0.081 Cl
ATOM     30  F   UNL A   1      46.575  27.643  28.422  1.00  0.00    -0.205 F 
ENDBRANCH  20  23
ENDBRANCH  14  15
ENDBRANCH   8   9
ENDBRANCH   6   8
ENDBRANCH   3   6
ENDBRANCH   1   2
BRANCH   1  31
ATOM     31  C   UNL A   1      34.853  33.950  29.226  1.00  0.00     0.042 C 
BRANCH  31  32
ATOM     32  C   UNL A   1      35.305  33.168  28.001  1.00  0.00     0.118 C 
BRANCH  32  33
ATOM     33  N   UNL A   1      34.481  31.992  27.742  1.00  0.00    -0.352 N 
ATOM     34  C   UNL A   1      34.805  30.658  27.803  1.00  0.00     0.251 C 
ATOM     35  H   UNL A   1      33.551  32.184  27.484  1.00  0.00     0.163 HD
ATOM     36  O   UNL A   1      34.012  29.816  27.393  1.00  0.00    -0.269 OA
BRANCH  34  37
ATOM     37  C   UNL A   1      36.117  30.235  28.338  1.00  0.00     0.039 A 
ATOM     38  C   UNL A   1      36.182  29.693  29.625  1.00  0.00     0.014 A 
ATOM     39  C   UNL A   1      37.280  30.377  27.578  1.00  0.00     0.014 A 
ATOM     40  C   UNL A   1      37.400  29.221  30.119  1.00  0.00     0.010 A 
ATOM     41  C   UNL A   1      38.476  29.839  28.040  1.00  0.00     0.010 A 
ATOM     42  C   UNL A   1      38.549  29.254  29.314  1.00  0.00    -0.014 A 
BRANCH  42  43
ATOM     43  C   UNL A   1      39.845  28.697  29.771  1.00  0.00     0.031 A 
ATOM     44  C   UNL A   1      40.662  29.445  30.786  1.00  0.00     0.074 A 
ATOM     45  C   UNL A   1      40.334  27.577  29.203  1.00  0.00     0.049 A 
ATOM     46  N   UNL A   1      41.889  29.228  31.187  1.00  0.00    -0.248 NA
ATOM     47  C   UNL A   1      40.024  30.617  31.408  1.00  0.00     0.031 C 
ATOM     48  C   UNL A   1      39.655  26.776  28.183  1.00  0.00     0.029 A 
ATOM     49  N   UNL A   1      41.532  26.935  29.388  1.00  0.00    -0.354 N 
ATOM     50  C   UNL A   1      42.181  30.252  32.079  1.00  0.00     0.074 A 
ATOM     51  C   UNL A   1      41.016  31.111  32.134  1.00  0.00     0.031 C 
ATOM     52  C   UNL A   1      40.441  25.742  27.842  1.00  0.00     0.029 A 
ATOM     53  C   UNL A   1      41.694  25.833  28.583  1.00  0.00     0.049 A 
ATOM     54  H   UNL A   1      42.210  27.233  30.035  1.00  0.00     0.167 HD
ATOM     55  C   UNL A   1      43.310  30.451  32.798  1.00  0.00     0.037 A 
ATOM     56  C   UNL A   1      42.744  25.000  28.447  1.00  0.00     0.037 A 
ATOM     57  C   UNL A   1      44.449  29.572  32.775  1.00  0.00     0.049 A 
ATOM     58  C   UNL A   1      43.980  25.231  29.270  1.00  0.00     0.074 A 
ATOM     59  C   UNL A   1      45.618  29.656  33.511  1.00  0.00     0.029 A 
ATOM     60  N   UNL A   1      44.555  28.442  31.980  1.00  0.00    -0.354 N 
ATOM     61  N   UNL A   1      44.230  26.183  30.135  1.00  0.00    -0.248 NA
ATOM     62  C   UNL A   1      45.079  24.270  29.100  1.00  0.00     0.031 C 
ATOM     63  C   UNL A   1      46.444  28.588  33.142  1.00  0.00     0.029 A 
ATOM     64  C   UNL A   1      45.773  27.822  32.202  1.00  0.00     0.049 A 
ATOM     65  H   UNL A   1      43.866  28.126  31.352  1.00  0.00     0.167 HD
ATOM     66  C   UNL A   1      45.499  25.921  30.633  1.00  0.00     0.074 A 
ATOM     67  C   UNL A   1      45.966  24.717  29.978  1.00  0.00     0.031 C 
ATOM     68  C   UNL A   1      46.213  26.614  31.553  1.00  0.00     0.037 A 
BRANCH  55  69
ATOM     69  C   UNL A   1      43.365  31.667  33.673  1.00  0.00     0.057 A 
ATOM     70  C   UNL A   1      42.819  31.673  34.964  1.00  0.00     0.134 A 
ATOM     71  C   UNL A   1      43.988  32.840  33.229  1.00  0.00     0.134 A 
ATOM     72  F   UNL A   1      42.196  30.586  35.442  1.00  0.00    -0.206 F 
ATOM     73  C   UNL A   1      42.869  32.809  35.772  1.00  0.00     0.040 A 
ATOM     74  C   UNL A   1      44.066  33.975  34.038  1.00  0.00     0.040 A 
ATOM     75  F   UNL A   1      44.533  32.901  32.005  1.00  0.00    -0.206 F 
ATOM     76  C   UNL A   1      43.500  33.964  35.311  1.00  0.00     0.006 A 
ENDBRANCH  55  69
BRANCH  56  77
ATOM     77  C   UNL A   1      42.662  23.856  27.505  1.00  0.00     0.057 A 
ATOM     78  C   UNL A   1      42.226  22.600  27.940  1.00  0.00     0.134 A 
ATOM     79  C   UNL A   1      43.016  23.988  26.158  1.00  0.00     0.134 A 
ATOM     80  F   UNL A   1      41.895  22.409  29.226  1.00  0.00    -0.206 F 
ATOM     81  C   UNL A   1      42.155  21.510  27.072  1.00  0.00     0.040 A 
ATOM     82  C   UNL A   1      42.930  22.913  25.273  1.00  0.00     0.040 A 
ATOM     83  F   UNL A   1      43.435  25.169  25.680  1.00  0.00    -0.206 F 
ATOM     84  C   UNL A   1      42.503  21.668  25.731  1.00  0.00     0.006 A 
ENDBRANCH  56  77
BRANCH  68  85
ATOM     85  C   UNL A   1      47.552  26.064  31.939  1.00  0.00     0.057 A 
ATOM     86  C   UNL A   1      48.717  26.398  31.239  1.00  0.00     0.134 A 
ATOM     87  C   UNL A   1      47.680  25.227  33.054  1.00  0.00     0.134 A 
ATOM     88  F   UNL A   1      48.656  27.185  30.154  1.00  0.00    -0.206 F 
ATOM     89  C   UNL A   1      49.964  25.906  31.627  1.00  0.00     0.040 A 
ATOM     90  C   UNL A   1      48.925  24.746  33.465  1.00  0.00     0.040 A 
ATOM     91  F   UNL A   1      46.602  24.877  33.771  1.00  0.00    -0.206 F 
ATOM     92  C   UNL A   1      50.070  25.083  32.747  1.00  0.00     0.006 A 
ENDBRANCH  68  85
ENDBRANCH  42  43
ENDBRANCH  34  37
ENDBRANCH  32  33
ENDBRANCH  31  32
ENDBRANCH   1  31
TORSDOF 14
ENDMDL
MODEL 3
REMARK VINA RESULT:      -9.9      2.022      3.290
REMARK SMILES C[C@H](Oc1ccc(/C=C2/SC(=S)N(c3ccc(F)c(Cl)c3)C2=O)cc1)C(=O)NCCCNC(=O)c1ccc(-c2c3nc(c(-c4c(F)cccc4F)c4ccc([nH]4)c(-c4c(F)cccc4F)c4nc(c(-c5c(F)cccc5F)c5ccc2[nH]5)C=C4)C=C3)cc1
REMARK SMILES IDX 29 1 28 2 26 3 27 4 2 6 1 7 3 8 4 9 5 10 25 11 6 12 24 13
REMARK SMILES IDX 7 14 8 15 9 16 10 17 22 18 11 19 13 20 23 21 12 22 14 23
REMARK SMILES IDX 15 24 21 25 16 26 19 27 17 28 20 29 18 30 30 31 31 32 32 33
REMARK SMILES IDX 33 34 34 36 35 37 36 38 88 39 37 40 87 41 38 42 39 43 40 44
REMARK SMILES IDX 81 45 41 46 86 47 80 48 82 49 42 50 85 51 79 52 78 53 43 55
REMARK SMILES IDX 69 56 52 57 68 58 53 59 56 60 67 61 83 62 54 63 55 64 66 66
REMARK SMILES IDX 84 67 57 68 44 69 45 70 50 71 46 72 47 73 49 74 51 75 48 76
REMARK SMILES IDX 70 77 71 78 76 79 72 80 73 81 75 82 77 83 74 84 58 85 59 86
REMARK SMILES IDX 64 87 60 88 61 89 63 90 65 91 62 92
REMARK H PARENT 28 5 32 35 82 54 56 65
REMARK Flexibility Score: inf
ROOT
ATOM      1  C   UNL A   1      33.178  34.588  28.801  1.00  0.00     0.118 C 
ENDROOT
BRANCH   1   2
ATOM      2  N   UNL A   1      32.932  35.890  29.405  1.00  0.00    -0.353 N 
ATOM      3  C   UNL A   1      33.137  36.298  30.699  1.00  0.00     0.260 C 
ATOM      4  O   UNL A   1      32.875  37.469  30.984  1.00  0.00    -0.271 OA
ATOM      5  H   UNL A   1      32.567  36.574  28.799  1.00  0.00     0.163 HD
BRANCH   3   6
ATOM      6  C   UNL A   1      33.727  35.329  31.737  1.00  0.00     0.258 C 
ATOM      7  C   UNL A   1      33.962  36.104  33.037  1.00  0.00     0.064 C 
BRANCH   6   8
ATOM      8  O   UNL A   1      34.839  34.752  31.055  1.00  0.00    -0.481 OA
BRANCH   8   9
ATOM      9  C   UNL A   1      35.590  33.727  31.524  1.00  0.00     0.120 A 
ATOM     10  C   UNL A   1      35.179  32.664  32.316  1.00  0.00     0.047 A 
ATOM     11  C   UNL A   1      36.939  33.832  31.179  1.00  0.00     0.047 A 
ATOM     12  C   UNL A   1      36.127  31.794  32.873  1.00  0.00     0.012 A 
ATOM     13  C   UNL A   1      37.882  32.945  31.697  1.00  0.00     0.012 A 
ATOM     14  C   UNL A   1      37.489  31.961  32.605  1.00  0.00    -0.024 A 
BRANCH  14  15
ATOM     15  C   UNL A   1      38.478  31.091  33.253  1.00  0.00     0.029 C 
ATOM     16  C   UNL A   1      39.251  31.416  34.302  1.00  0.00     0.081 C 
ATOM     17  S   UNL A   1      40.470  30.358  34.902  1.00  0.00    -0.054 SA
ATOM     18  C   UNL A   1      39.264  32.694  35.082  1.00  0.00     0.270 C 
ATOM     19  C   UNL A   1      41.121  31.564  36.010  1.00  0.00     0.152 C 
ATOM     20  N   UNL A   1      40.382  32.735  35.918  1.00  0.00    -0.261 N 
ATOM     21  O   UNL A   1      38.416  33.565  34.963  1.00  0.00    -0.268 OA
ATOM     22  S   UNL A   1      42.384  31.177  37.038  1.00  0.00    -0.051 S 
BRANCH  20  23
ATOM     23  C   UNL A   1      40.700  33.951  36.605  1.00  0.00     0.052 A 
ATOM     24  C   UNL A   1      40.025  34.306  37.785  1.00  0.00     0.030 A 
ATOM     25  C   UNL A   1      41.633  34.852  36.069  1.00  0.00     0.050 A 
ATOM     26  C   UNL A   1      40.294  35.519  38.428  1.00  0.00     0.043 A 
ATOM     27  C   UNL A   1      41.886  36.074  36.703  1.00  0.00     0.078 A 
ATOM     28  C   UNL A   1      41.222  36.398  37.881  1.00  0.00     0.141 A 
ATOM     29  Cl  UNL A   1      42.995  37.182  35.988  1.00  0.00    -0.081 Cl
ATOM     30  F   UNL A   1      41.448  37.565  38.500  1.00  0.00    -0.205 F 
ENDBRANCH  20  23
ENDBRANCH  14  15
ENDBRANCH   8   9
ENDBRANCH   6   8
ENDBRANCH   3   6
ENDBRANCH   1   2
BRANCH   1  31
ATOM     31  C   UNL A   1      34.483  34.535  28.021  1.00  0.00     0.042 C 
BRANCH  31  32
ATOM     32  C   UNL A   1      35.140  33.162  28.005  1.00  0.00     0.118 C 
BRANCH  32  33
ATOM     33  N   UNL A   1      34.175  32.070  27.932  1.00  0.00    -0.352 N 
ATOM     34  C   UNL A   1      34.379  30.712  27.930  1.00  0.00     0.251 C 
ATOM     35  H   UNL A   1      33.233  32.350  27.876  1.00  0.00     0.163 HD
ATOM     36  O   UNL A   1      33.443  29.952  27.703  1.00  0.00    -0.269 OA
BRANCH  34  37
ATOM     37  C   UNL A   1      35.730  30.163  28.177  1.00  0.00     0.039 A 
ATOM     38  C   UNL A   1      36.637  30.093  27.115  1.00  0.00     0.014 A 
ATOM     39  C   UNL A   1      36.099  29.713  29.446  1.00  0.00     0.014 A 
ATOM     40  C   UNL A   1      37.940  29.645  27.345  1.00  0.00     0.010 A 
ATOM     41  C   UNL A   1      37.417  29.340  29.689  1.00  0.00     0.010 A 
ATOM     42  C   UNL A   1      38.351  29.303  28.642  1.00  0.00    -0.014 A 
BRANCH  42  43
ATOM     43  C   UNL A   1      39.745  28.893  28.943  1.00  0.00     0.031 A 
ATOM     44  C   UNL A   1      40.695  29.879  29.560  1.00  0.00     0.074 A 
ATOM     45  C   UNL A   1      40.182  27.674  28.572  1.00  0.00     0.049 A 
ATOM     46  N   UNL A   1      41.988  29.783  29.741  1.00  0.00    -0.248 NA
ATOM     47  C   UNL A   1      40.119  31.160  30.000  1.00  0.00     0.031 C 
ATOM     48  C   UNL A   1      39.368  26.636  27.935  1.00  0.00     0.029 A 
ATOM     49  N   UNL A   1      41.431  27.112  28.655  1.00  0.00    -0.354 N 
ATOM     50  C   UNL A   1      42.383  31.000  30.282  1.00  0.00     0.074 A 
ATOM     51  C   UNL A   1      41.201  31.831  30.368  1.00  0.00     0.031 C 
ATOM     52  C   UNL A   1      40.136  25.560  27.698  1.00  0.00     0.029 A 
ATOM     53  C   UNL A   1      41.501  25.848  28.123  1.00  0.00     0.049 A 
ATOM     54  H   UNL A   1      42.202  27.570  29.060  1.00  0.00     0.167 HD
ATOM     55  C   UNL A   1      43.617  31.385  30.686  1.00  0.00     0.037 A 
ATOM     56  C   UNL A   1      42.555  25.020  27.977  1.00  0.00     0.037 A 
ATOM     57  C   UNL A   1      44.782  30.542  30.641  1.00  0.00     0.049 A 
ATOM     58  C   UNL A   1      43.911  25.464  28.450  1.00  0.00     0.074 A 
ATOM     59  C   UNL A   1      46.065  30.821  31.079  1.00  0.00     0.029 A 
ATOM     60  N   UNL A   1      44.802  29.252  30.134  1.00  0.00    -0.354 N 
ATOM     61  N   UNL A   1      44.265  26.604  28.991  1.00  0.00    -0.248 NA
ATOM     62  C   UNL A   1      45.014  24.505  28.293  1.00  0.00     0.031 C 
ATOM     63  C   UNL A   1      46.868  29.706  30.815  1.00  0.00     0.029 A 
ATOM     64  C   UNL A   1      46.076  28.722  30.244  1.00  0.00     0.049 A 
ATOM     65  H   UNL A   1      44.025  28.782  29.755  1.00  0.00     0.167 HD
ATOM     66  C   UNL A   1      45.621  26.489  29.266  1.00  0.00     0.074 A 
ATOM     67  C   UNL A   1      46.025  25.166  28.838  1.00  0.00     0.031 C 
ATOM     68  C   UNL A   1      46.456  27.397  29.827  1.00  0.00     0.037 A 
BRANCH  55  69
ATOM     69  C   UNL A   1      43.765  32.781  31.214  1.00  0.00     0.057 A 
ATOM     70  C   UNL A   1      44.073  33.858  30.374  1.00  0.00     0.134 A 
ATOM     71  C   UNL A   1      43.577  33.054  32.575  1.00  0.00     0.134 A 
ATOM     72  F   UNL A   1      44.279  33.660  29.063  1.00  0.00    -0.206 F 
ATOM     73  C   UNL A   1      44.213  35.154  30.871  1.00  0.00     0.040 A 
ATOM     74  C   UNL A   1      43.691  34.350  33.080  1.00  0.00     0.040 A 
ATOM     75  F   UNL A   1      43.278  32.068  33.433  1.00  0.00    -0.206 F 
ATOM     76  C   UNL A   1      44.016  35.404  32.229  1.00  0.00     0.006 A 
ENDBRANCH  55  69
BRANCH  56  77
ATOM     77  C   UNL A   1      42.363  23.679  27.374  1.00  0.00     0.057 A 
ATOM     78  C   UNL A   1      42.048  22.574  28.172  1.00  0.00     0.134 A 
ATOM     79  C   UNL A   1      42.489  23.468  25.997  1.00  0.00     0.134 A 
ATOM     80  F   UNL A   1      41.936  22.711  29.501  1.00  0.00    -0.206 F 
ATOM     81  C   UNL A   1      41.876  21.302  27.624  1.00  0.00     0.040 A 
ATOM     82  C   UNL A   1      42.300  22.207  25.432  1.00  0.00     0.040 A 
ATOM     83  F   UNL A   1      42.784  24.490  25.179  1.00  0.00    -0.206 F 
ATOM     84  C   UNL A   1      41.997  21.118  26.247  1.00  0.00     0.006 A 
ENDBRANCH  56  77
BRANCH  68  85
ATOM     85  C   UNL A   1      47.877  26.977  30.050  1.00  0.00     0.057 A 
ATOM     86  C   UNL A   1      48.259  26.233  31.173  1.00  0.00     0.134 A 
ATOM     87  C   UNL A   1      48.862  27.280  29.104  1.00  0.00     0.134 A 
ATOM     88  F   UNL A   1      47.362  25.923  32.121  1.00  0.00    -0.206 F 
ATOM     89  C   UNL A   1      49.579  25.819  31.355  1.00  0.00     0.040 A 
ATOM     90  C   UNL A   1      50.182  26.854  29.263  1.00  0.00     0.040 A 
ATOM     91  F   UNL A   1      48.558  27.983  28.002  1.00  0.00    -0.206 F 
ATOM     92  C   UNL A   1      50.543  26.123  30.394  1.00  0.00     0.006 A 
ENDBRANCH  68  85
ENDBRANCH  42  43
ENDBRANCH  34  37
ENDBRANCH  32  33
ENDBRANCH  31  32
ENDBRANCH   1  31
TORSDOF 14
ENDMDL
