MODEL 1
REMARK VINA RESULT:     -11.0      0.000      0.000
REMARK SMILES O=C(NCCCNC(=O)c1cn(C2C[NH+](CCC[C@@H]3CCCO3)C2)nn1)c1ccc(-c2c3nc(c(-c4c(F)cccc4F)c4ccc([nH]4)c(-c4c(F)cccc4F)c4nc(c(-c5c(F)cccc5F)c5ccc2[nH]5)C=C4)C=C3)cc1
REMARK SMILES IDX 7 1 8 2 9 3 6 5 5 6 4 7 3 8 1 9 2 10 27 12 28 13 80 14 29 15
REMARK SMILES IDX 79 16 30 17 31 18 32 19 73 20 33 21 78 22 72 23 74 24 34 25
REMARK SMILES IDX 77 26 71 27 70 28 35 30 61 31 44 32 60 33 45 34 48 35 59 36
REMARK SMILES IDX 75 37 46 38 47 39 58 41 76 42 49 43 36 44 37 45 42 46 38 47
REMARK SMILES IDX 39 48 41 49 43 50 40 51 62 52 63 53 68 54 64 55 65 56 67 57
REMARK SMILES IDX 69 58 66 59 50 60 51 61 56 62 52 63 53 64 55 65 57 66 54 67
REMARK SMILES IDX 10 68 11 69 26 70 12 71 25 72 13 73 14 74 24 75 15 76 16 78
REMARK SMILES IDX 17 79 18 80 19 81 20 82 23 83 21 84 22 85
REMARK H PARENT 7 4 3 11 74 29 48 40 15 77
REMARK Flexibility Score: inf
ROOT
ATOM      1  N   UNL A   1      33.133  37.175  30.114  1.00  0.00    -0.351 N 
ATOM      2  C   UNL A   1      33.284  37.183  31.477  1.00  0.00     0.273 C 
ATOM      3  O   UNL A   1      33.171  38.263  32.070  1.00  0.00    -0.267 OA
ATOM      4  H   UNL A   1      33.117  38.066  29.693  1.00  0.00     0.163 HD
ENDROOT
BRANCH   1   5
ATOM      5  C   UNL A   1      32.991  36.058  29.191  1.00  0.00     0.118 C 
BRANCH   5   6
ATOM      6  C   UNL A   1      34.336  35.545  28.672  1.00  0.00     0.042 C 
BRANCH   6   7
ATOM      7  C   UNL A   1      34.742  34.170  29.197  1.00  0.00     0.118 C 
BRANCH   7   8
ATOM      8  N   UNL A   1      34.233  33.054  28.427  1.00  0.00    -0.352 N 
ATOM      9  O   UNL A   1      33.817  31.044  27.631  1.00  0.00    -0.269 OA
ATOM     10  C   UNL A   1      34.637  31.769  28.201  1.00  0.00     0.251 C 
ATOM     11  H   UNL A   1      33.398  33.274  27.955  1.00  0.00     0.163 HD
BRANCH  10  12
ATOM     12  C   UNL A   1      35.984  31.213  28.506  1.00  0.00     0.039 A 
ATOM     13  C   UNL A   1      37.080  31.919  29.002  1.00  0.00     0.014 A 
ATOM     14  C   UNL A   1      36.141  29.839  28.233  1.00  0.00     0.014 A 
ATOM     15  C   UNL A   1      38.317  31.284  29.143  1.00  0.00     0.010 A 
ATOM     16  C   UNL A   1      37.369  29.203  28.370  1.00  0.00     0.010 A 
ATOM     17  C   UNL A   1      38.468  29.934  28.797  1.00  0.00    -0.014 A 
BRANCH  17  18
ATOM     18  C   UNL A   1      39.733  29.262  29.098  1.00  0.00     0.031 A 
ATOM     19  C   UNL A   1      40.021  29.174  30.558  1.00  0.00     0.074 A 
ATOM     20  C   UNL A   1      40.516  28.631  28.195  1.00  0.00     0.049 A 
ATOM     21  N   UNL A   1      40.967  29.763  31.212  1.00  0.00    -0.248 NA
ATOM     22  C   UNL A   1      39.065  28.452  31.416  1.00  0.00     0.031 C 
ATOM     23  C   UNL A   1      40.233  28.364  26.785  1.00  0.00     0.029 A 
ATOM     24  N   UNL A   1      41.723  28.014  28.381  1.00  0.00    -0.354 N 
ATOM     25  C   UNL A   1      40.850  29.334  32.533  1.00  0.00     0.074 A 
ATOM     26  C   UNL A   1      39.578  28.666  32.629  1.00  0.00     0.031 C 
ATOM     27  C   UNL A   1      41.129  27.467  26.306  1.00  0.00     0.029 A 
ATOM     28  C   UNL A   1      42.127  27.196  27.328  1.00  0.00     0.049 A 
ATOM     29  H   UNL A   1      42.263  28.138  29.195  1.00  0.00     0.167 HD
ATOM     30  C   UNL A   1      41.914  29.365  33.381  1.00  0.00     0.037 A 
ATOM     31  C   UNL A   1      43.184  26.339  27.313  1.00  0.00     0.037 A 
ATOM     32  C   UNL A   1      42.960  30.212  32.868  1.00  0.00     0.049 A 
ATOM     33  C   UNL A   1      44.108  26.746  28.396  1.00  0.00     0.074 A 
ATOM     34  C   UNL A   1      43.071  31.549  32.548  1.00  0.00     0.029 A 
ATOM     35  N   UNL A   1      44.030  29.593  32.275  1.00  0.00    -0.354 N 
ATOM     36  N   UNL A   1      44.818  27.837  28.374  1.00  0.00    -0.248 NA
ATOM     37  C   UNL A   1      43.918  26.146  29.706  1.00  0.00     0.031 C 
ATOM     38  C   UNL A   1      43.910  31.582  31.396  1.00  0.00     0.029 A 
ATOM     39  C   UNL A   1      44.317  30.275  31.125  1.00  0.00     0.049 A 
ATOM     40  H   UNL A   1      44.506  28.801  32.615  1.00  0.00     0.167 HD
ATOM     41  C   UNL A   1      44.761  28.309  29.675  1.00  0.00     0.074 A 
ATOM     42  C   UNL A   1      44.279  27.180  30.470  1.00  0.00     0.031 C 
ATOM     43  C   UNL A   1      44.835  29.646  29.935  1.00  0.00     0.037 A 
BRANCH  30  44
ATOM     44  C   UNL A   1      42.190  28.336  34.452  1.00  0.00     0.057 A 
ATOM     45  C   UNL A   1      42.606  27.046  34.068  1.00  0.00     0.134 A 
ATOM     46  C   UNL A   1      41.763  28.451  35.789  1.00  0.00     0.134 A 
ATOM     47  F   UNL A   1      43.027  26.801  32.817  1.00  0.00    -0.206 F 
ATOM     48  C   UNL A   1      42.512  25.939  34.922  1.00  0.00     0.040 A 
ATOM     49  C   UNL A   1      41.714  27.362  36.665  1.00  0.00     0.040 A 
ATOM     50  F   UNL A   1      41.270  29.589  36.291  1.00  0.00    -0.206 F 
ATOM     51  C   UNL A   1      42.054  26.095  36.223  1.00  0.00     0.006 A 
ENDBRANCH  30  44
BRANCH  31  52
ATOM     52  C   UNL A   1      43.350  25.030  26.630  1.00  0.00     0.057 A 
ATOM     53  C   UNL A   1      42.514  23.939  26.925  1.00  0.00     0.134 A 
ATOM     54  C   UNL A   1      44.116  24.913  25.459  1.00  0.00     0.134 A 
ATOM     55  F   UNL A   1      41.710  23.966  27.999  1.00  0.00    -0.206 F 
ATOM     56  C   UNL A   1      42.419  22.817  26.089  1.00  0.00     0.040 A 
ATOM     57  C   UNL A   1      44.035  23.797  24.617  1.00  0.00     0.040 A 
ATOM     58  F   UNL A   1      44.896  25.920  25.042  1.00  0.00    -0.206 F 
ATOM     59  C   UNL A   1      43.172  22.750  24.921  1.00  0.00     0.006 A 
ENDBRANCH  31  52
BRANCH  43  60
ATOM     60  C   UNL A   1      45.278  30.556  28.824  1.00  0.00     0.057 A 
ATOM     61  C   UNL A   1      44.433  31.068  27.827  1.00  0.00     0.134 A 
ATOM     62  C   UNL A   1      46.590  31.042  28.852  1.00  0.00     0.134 A 
ATOM     63  F   UNL A   1      43.136  30.737  27.775  1.00  0.00    -0.206 F 
ATOM     64  C   UNL A   1      44.889  31.990  26.879  1.00  0.00     0.040 A 
ATOM     65  C   UNL A   1      47.047  31.989  27.935  1.00  0.00     0.040 A 
ATOM     66  F   UNL A   1      47.440  30.635  29.808  1.00  0.00    -0.206 F 
ATOM     67  C   UNL A   1      46.198  32.458  26.937  1.00  0.00     0.006 A 
ENDBRANCH  43  60
ENDBRANCH  17  18
ENDBRANCH  10  12
ENDBRANCH   7   8
ENDBRANCH   6   7
ENDBRANCH   5   6
ENDBRANCH   1   5
BRANCH   2  68
ATOM     68  C   UNL A   1      33.570  35.946  32.173  1.00  0.00     0.170 A 
ATOM     69  C   UNL A   1      34.704  35.600  32.885  1.00  0.00     0.145 A 
ATOM     70  N   UNL A   1      32.671  34.912  32.242  1.00  0.00    -0.125 NA
ATOM     71  N   UNL A   1      34.473  34.311  33.260  1.00  0.00    -0.237 N 
ATOM     72  N   UNL A   1      33.240  33.912  32.897  1.00  0.00    -0.066 NA
BRANCH  71  73
ATOM     73  C   UNL A   1      35.399  33.367  33.792  1.00  0.00     0.218 C 
ATOM     74  C   UNL A   1      36.509  32.972  32.778  1.00  0.00     0.295 C 
ATOM     75  C   UNL A   1      36.572  33.917  34.626  1.00  0.00     0.295 C 
ATOM     76  N   UNL A   1      37.493  33.049  33.862  1.00  0.00    -0.331 N 
ATOM     77  H   UNL A   1      38.450  33.353  33.685  1.00  0.00     0.348 HD
BRANCH  76  78
ATOM     78  C   UNL A   1      37.783  31.747  34.489  1.00  0.00     0.262 C 
BRANCH  78  79
ATOM     79  C   UNL A   1      39.063  31.456  35.303  1.00  0.00     0.064 C 
BRANCH  79  80
ATOM     80  C   UNL A   1      40.351  32.247  35.014  1.00  0.00     0.038 C 
BRANCH  80  81
ATOM     81  C   UNL A   1      40.670  33.408  35.957  1.00  0.00     0.118 C 
ATOM     82  C   UNL A   1      39.554  33.664  36.965  1.00  0.00     0.034 C 
ATOM     83  O   UNL A   1      40.866  34.626  35.228  1.00  0.00    -0.378 OA
ATOM     84  C   UNL A   1      39.634  35.157  37.166  1.00  0.00     0.031 C 
ATOM     85  C   UNL A   1      40.031  35.639  35.790  1.00  0.00     0.160 C 
ENDBRANCH  80  81
ENDBRANCH  79  80
ENDBRANCH  78  79
ENDBRANCH  76  78
ENDBRANCH  71  73
ENDBRANCH   2  68
TORSDOF 15
ENDMDL
MODEL 2
REMARK VINA RESULT:     -10.6      5.439     11.145
REMARK SMILES O=C(NCCCNC(=O)c1cn(C2C[NH+](CCC[C@@H]3CCCO3)C2)nn1)c1ccc(-c2c3nc(c(-c4c(F)cccc4F)c4ccc([nH]4)c(-c4c(F)cccc4F)c4nc(c(-c5c(F)cccc5F)c5ccc2[nH]5)C=C4)C=C3)cc1
REMARK SMILES IDX 7 1 8 2 9 3 6 5 5 6 4 7 3 8 1 9 2 10 27 12 28 13 80 14 29 15
REMARK SMILES IDX 79 16 30 17 31 18 32 19 73 20 33 21 78 22 72 23 74 24 34 25
REMARK SMILES IDX 77 26 71 27 70 28 35 30 61 31 44 32 60 33 45 34 48 35 59 36
REMARK SMILES IDX 75 37 46 38 47 39 58 41 76 42 49 43 36 44 37 45 42 46 38 47
REMARK SMILES IDX 39 48 41 49 43 50 40 51 62 52 63 53 68 54 64 55 65 56 67 57
REMARK SMILES IDX 69 58 66 59 50 60 51 61 56 62 52 63 53 64 55 65 57 66 54 67
REMARK SMILES IDX 10 68 11 69 26 70 12 71 25 72 13 73 14 74 24 75 15 76 16 78
REMARK SMILES IDX 17 79 18 80 19 81 20 82 23 83 21 84 22 85
REMARK H PARENT 7 4 3 11 74 29 48 40 15 77
REMARK Flexibility Score: inf
ROOT
ATOM      1  N   UNL A   1      34.293  20.161  25.489  1.00  0.00    -0.351 N 
ATOM      2  C   UNL A   1      32.964  20.097  25.155  1.00  0.00     0.273 C 
ATOM      3  O   UNL A   1      32.433  18.982  25.085  1.00  0.00    -0.267 OA
ATOM      4  H   UNL A   1      34.765  19.296  25.477  1.00  0.00     0.163 HD
ENDROOT
BRANCH   1   5
ATOM      5  C   UNL A   1      35.115  21.303  25.858  1.00  0.00     0.118 C 
BRANCH   5   6
ATOM      6  C   UNL A   1      36.208  21.603  24.830  1.00  0.00     0.042 C 
BRANCH   6   7
ATOM      7  C   UNL A   1      37.359  22.459  25.351  1.00  0.00     0.118 C 
BRANCH   7   8
ATOM      8  N   UNL A   1      38.607  21.748  25.540  1.00  0.00    -0.352 N 
ATOM      9  O   UNL A   1      40.519  20.998  26.332  1.00  0.00    -0.269 OA
ATOM     10  C   UNL A   1      39.733  21.948  26.288  1.00  0.00     0.251 C 
ATOM     11  H   UNL A   1      38.654  20.926  25.002  1.00  0.00     0.163 HD
BRANCH  10  12
ATOM     12  C   UNL A   1      40.113  23.217  26.966  1.00  0.00     0.039 A 
ATOM     13  C   UNL A   1      41.231  23.425  27.772  1.00  0.00     0.014 A 
ATOM     14  C   UNL A   1      39.219  24.291  26.772  1.00  0.00     0.014 A 
ATOM     15  C   UNL A   1      41.405  24.646  28.430  1.00  0.00     0.010 A 
ATOM     16  C   UNL A   1      39.385  25.507  27.424  1.00  0.00     0.010 A 
ATOM     17  C   UNL A   1      40.465  25.676  28.279  1.00  0.00    -0.014 A 
BRANCH  17  18
ATOM     18  C   UNL A   1      40.753  26.989  28.857  1.00  0.00     0.031 A 
ATOM     19  C   UNL A   1      41.930  27.661  28.236  1.00  0.00     0.074 A 
ATOM     20  C   UNL A   1      39.973  27.637  29.750  1.00  0.00     0.049 A 
ATOM     21  N   UNL A   1      43.067  27.929  28.788  1.00  0.00    -0.248 NA
ATOM     22  C   UNL A   1      41.887  27.952  26.793  1.00  0.00     0.031 C 
ATOM     23  C   UNL A   1      38.644  27.258  30.231  1.00  0.00     0.029 A 
ATOM     24  N   UNL A   1      40.183  28.841  30.366  1.00  0.00    -0.354 N 
ATOM     25  C   UNL A   1      43.818  28.598  27.823  1.00  0.00     0.074 A 
ATOM     26  C   UNL A   1      43.111  28.439  26.579  1.00  0.00     0.031 C 
ATOM     27  C   UNL A   1      38.086  28.304  30.887  1.00  0.00     0.029 A 
ATOM     28  C   UNL A   1      39.060  29.378  30.992  1.00  0.00     0.049 A 
ATOM     29  H   UNL A   1      41.059  29.292  30.367  1.00  0.00     0.167 HD
ATOM     30  C   UNL A   1      44.843  29.421  28.175  1.00  0.00     0.037 A 
ATOM     31  C   UNL A   1      38.935  30.623  31.526  1.00  0.00     0.037 A 
ATOM     32  C   UNL A   1      45.251  29.189  29.536  1.00  0.00     0.049 A 
ATOM     33  C   UNL A   1      40.298  31.150  31.763  1.00  0.00     0.074 A 
ATOM     34  C   UNL A   1      45.763  28.117  30.238  1.00  0.00     0.029 A 
ATOM     35  N   UNL A   1      44.812  30.081  30.481  1.00  0.00    -0.354 N 
ATOM     36  N   UNL A   1      41.106  30.691  32.675  1.00  0.00    -0.248 NA
ATOM     37  C   UNL A   1      40.924  31.907  30.693  1.00  0.00     0.031 C 
ATOM     38  C   UNL A   1      45.167  28.206  31.530  1.00  0.00     0.029 A 
ATOM     39  C   UNL A   1      44.386  29.362  31.563  1.00  0.00     0.049 A 
ATOM     40  H   UNL A   1      44.804  31.063  30.395  1.00  0.00     0.167 HD
ATOM     41  C   UNL A   1      42.349  30.690  32.063  1.00  0.00     0.074 A 
ATOM     42  C   UNL A   1      42.193  31.539  30.883  1.00  0.00     0.031 C 
ATOM     43  C   UNL A   1      43.297  29.775  32.414  1.00  0.00     0.037 A 
BRANCH  30  44
ATOM     44  C   UNL A   1      45.206  30.698  27.452  1.00  0.00     0.057 A 
ATOM     45  C   UNL A   1      46.511  30.847  26.944  1.00  0.00     0.134 A 
ATOM     46  C   UNL A   1      44.453  31.887  27.520  1.00  0.00     0.134 A 
ATOM     47  F   UNL A   1      47.334  29.792  26.838  1.00  0.00    -0.206 F 
ATOM     48  C   UNL A   1      47.054  32.097  26.619  1.00  0.00     0.040 A 
ATOM     49  C   UNL A   1      44.969  33.132  27.148  1.00  0.00     0.040 A 
ATOM     50  F   UNL A   1      43.223  31.930  28.043  1.00  0.00    -0.206 F 
ATOM     51  C   UNL A   1      46.284  33.246  26.731  1.00  0.00     0.006 A 
ENDBRANCH  30  44
BRANCH  31  52
ATOM     52  C   UNL A   1      37.754  31.521  31.604  1.00  0.00     0.057 A 
ATOM     53  C   UNL A   1      37.073  31.937  30.447  1.00  0.00     0.134 A 
ATOM     54  C   UNL A   1      37.081  31.735  32.818  1.00  0.00     0.134 A 
ATOM     55  F   UNL A   1      37.610  31.743  29.232  1.00  0.00    -0.206 F 
ATOM     56  C   UNL A   1      35.788  32.497  30.491  1.00  0.00     0.040 A 
ATOM     57  C   UNL A   1      35.799  32.296  32.877  1.00  0.00     0.040 A 
ATOM     58  F   UNL A   1      37.603  31.316  33.979  1.00  0.00    -0.206 F 
ATOM     59  C   UNL A   1      35.140  32.665  31.710  1.00  0.00     0.006 A 
ENDBRANCH  31  52
BRANCH  43  60
ATOM     60  C   UNL A   1      43.077  28.977  33.668  1.00  0.00     0.057 A 
ATOM     61  C   UNL A   1      43.423  29.407  34.959  1.00  0.00     0.134 A 
ATOM     62  C   UNL A   1      42.356  27.781  33.572  1.00  0.00     0.134 A 
ATOM     63  F   UNL A   1      44.030  30.584  35.163  1.00  0.00    -0.206 F 
ATOM     64  C   UNL A   1      43.099  28.657  36.095  1.00  0.00     0.040 A 
ATOM     65  C   UNL A   1      41.995  27.043  34.699  1.00  0.00     0.040 A 
ATOM     66  F   UNL A   1      41.948  27.334  32.373  1.00  0.00    -0.206 F 
ATOM     67  C   UNL A   1      42.377  27.474  35.966  1.00  0.00     0.006 A 
ENDBRANCH  43  60
ENDBRANCH  17  18
ENDBRANCH  10  12
ENDBRANCH   7   8
ENDBRANCH   6   7
ENDBRANCH   5   6
ENDBRANCH   1   5
BRANCH   2  68
ATOM     68  C   UNL A   1      32.232  21.318  24.895  1.00  0.00     0.170 A 
ATOM     69  C   UNL A   1      32.201  22.075  23.737  1.00  0.00     0.145 A 
ATOM     70  N   UNL A   1      31.396  21.891  25.820  1.00  0.00    -0.125 NA
ATOM     71  N   UNL A   1      31.422  23.143  24.067  1.00  0.00    -0.237 N 
ATOM     72  N   UNL A   1      30.918  23.014  25.308  1.00  0.00    -0.066 NA
BRANCH  71  73
ATOM     73  C   UNL A   1      31.252  24.365  23.354  1.00  0.00     0.218 C 
ATOM     74  C   UNL A   1      30.321  25.370  24.089  1.00  0.00     0.295 C 
ATOM     75  C   UNL A   1      32.324  25.455  23.550  1.00  0.00     0.295 C 
ATOM     76  N   UNL A   1      31.247  26.450  23.737  1.00  0.00    -0.331 N 
ATOM     77  H   UNL A   1      31.391  27.245  24.359  1.00  0.00     0.348 HD
BRANCH  76  78
ATOM     78  C   UNL A   1      30.861  27.184  22.518  1.00  0.00     0.262 C 
BRANCH  78  79
ATOM     79  C   UNL A   1      30.138  28.548  22.534  1.00  0.00     0.064 C 
BRANCH  79  80
ATOM     80  C   UNL A   1      28.627  28.610  22.816  1.00  0.00     0.038 C 
BRANCH  80  81
ATOM     81  C   UNL A   1      27.883  29.846  22.306  1.00  0.00     0.118 C 
ATOM     82  C   UNL A   1      28.796  30.805  21.549  1.00  0.00     0.034 C 
ATOM     83  O   UNL A   1      27.303  30.583  23.389  1.00  0.00    -0.378 OA
ATOM     84  C   UNL A   1      28.191  32.149  21.867  1.00  0.00     0.031 C 
ATOM     85  C   UNL A   1      27.707  31.949  23.284  1.00  0.00     0.160 C 
ENDBRANCH  80  81
ENDBRANCH  79  80
ENDBRANCH  78  79
ENDBRANCH  76  78
ENDBRANCH  71  73
ENDBRANCH   2  68
TORSDOF 15
ENDMDL
MODEL 3
REMARK VINA RESULT:     -10.5      4.707      8.286
REMARK SMILES O=C(NCCCNC(=O)c1cn(C2C[NH+](CCC[C@@H]3CCCO3)C2)nn1)c1ccc(-c2c3nc(c(-c4c(F)cccc4F)c4ccc([nH]4)c(-c4c(F)cccc4F)c4nc(c(-c5c(F)cccc5F)c5ccc2[nH]5)C=C4)C=C3)cc1
REMARK SMILES IDX 7 1 8 2 9 3 6 5 5 6 4 7 3 8 1 9 2 10 27 12 28 13 80 14 29 15
REMARK SMILES IDX 79 16 30 17 31 18 32 19 73 20 33 21 78 22 72 23 74 24 34 25
REMARK SMILES IDX 77 26 71 27 70 28 35 30 61 31 44 32 60 33 45 34 48 35 59 36
REMARK SMILES IDX 75 37 46 38 47 39 58 41 76 42 49 43 36 44 37 45 42 46 38 47
REMARK SMILES IDX 39 48 41 49 43 50 40 51 62 52 63 53 68 54 64 55 65 56 67 57
REMARK SMILES IDX 69 58 66 59 50 60 51 61 56 62 52 63 53 64 55 65 57 66 54 67
REMARK SMILES IDX 10 68 11 69 26 70 12 71 25 72 13 73 14 74 24 75 15 76 16 78
REMARK SMILES IDX 17 79 18 80 19 81 20 82 23 83 21 84 22 85
REMARK H PARENT 7 4 3 11 74 29 48 40 15 77
REMARK Flexibility Score: inf
ROOT
ATOM      1  N   UNL A   1      31.063  30.362  24.962  1.00  0.00    -0.351 N 
ATOM      2  C   UNL A   1      30.376  29.650  24.012  1.00  0.00     0.273 C 
ATOM      3  O   UNL A   1      29.423  30.200  23.446  1.00  0.00    -0.267 OA
ATOM      4  H   UNL A   1      30.632  31.202  25.243  1.00  0.00     0.163 HD
ENDROOT
BRANCH   1   5
ATOM      5  C   UNL A   1      32.329  30.073  25.619  1.00  0.00     0.118 C 
BRANCH   5   6
ATOM      6  C   UNL A   1      32.460  30.762  26.980  1.00  0.00     0.042 C 
BRANCH   6   7
ATOM      7  C   UNL A   1      33.895  30.959  27.462  1.00  0.00     0.118 C 
BRANCH   7   8
ATOM      8  N   UNL A   1      34.026  31.745  28.672  1.00  0.00    -0.352 N 
ATOM      9  O   UNL A   1      34.809  32.922  30.359  1.00  0.00    -0.269 OA
ATOM     10  C   UNL A   1      35.047  32.040  29.529  1.00  0.00     0.251 C 
ATOM     11  H   UNL A   1      33.177  32.164  28.939  1.00  0.00     0.163 HD
BRANCH  10  12
ATOM     12  C   UNL A   1      36.360  31.341  29.592  1.00  0.00     0.039 A 
ATOM     13  C   UNL A   1      37.621  31.936  29.540  1.00  0.00     0.014 A 
ATOM     14  C   UNL A   1      36.287  29.936  29.691  1.00  0.00     0.014 A 
ATOM     15  C   UNL A   1      38.770  31.142  29.506  1.00  0.00     0.010 A 
ATOM     16  C   UNL A   1      37.426  29.141  29.655  1.00  0.00     0.010 A 
ATOM     17  C   UNL A   1      38.670  29.743  29.532  1.00  0.00    -0.014 A 
BRANCH  17  18
ATOM     18  C   UNL A   1      39.893  28.947  29.647  1.00  0.00     0.031 A 
ATOM     19  C   UNL A   1      40.341  28.756  31.057  1.00  0.00     0.074 A 
ATOM     20  C   UNL A   1      40.502  28.299  28.630  1.00  0.00     0.049 A 
ATOM     21  N   UNL A   1      41.409  29.224  31.614  1.00  0.00    -0.248 NA
ATOM     22  C   UNL A   1      39.430  28.077  31.993  1.00  0.00     0.031 C 
ATOM     23  C   UNL A   1      40.030  28.133  27.255  1.00  0.00     0.029 A 
ATOM     24  N   UNL A   1      41.659  27.569  28.641  1.00  0.00    -0.354 N 
ATOM     25  C   UNL A   1      41.408  28.737  32.920  1.00  0.00     0.074 A 
ATOM     26  C   UNL A   1      40.100  28.180  33.143  1.00  0.00     0.031 C 
ATOM     27  C   UNL A   1      40.775  27.188  26.632  1.00  0.00     0.029 A 
ATOM     28  C   UNL A   1      41.857  26.776  27.512  1.00  0.00     0.049 A 
ATOM     29  H   UNL A   1      42.300  27.602  29.387  1.00  0.00     0.167 HD
ATOM     30  C   UNL A   1      42.563  28.629  33.632  1.00  0.00     0.037 A 
ATOM     31  C   UNL A   1      42.820  25.831  27.332  1.00  0.00     0.037 A 
ATOM     32  C   UNL A   1      43.616  29.406  33.032  1.00  0.00     0.049 A 
ATOM     33  C   UNL A   1      43.899  26.097  28.310  1.00  0.00     0.074 A 
ATOM     34  C   UNL A   1      43.814  30.744  32.757  1.00  0.00     0.029 A 
ATOM     35  N   UNL A   1      44.547  28.728  32.286  1.00  0.00    -0.354 N 
ATOM     36  N   UNL A   1      44.701  27.121  28.248  1.00  0.00    -0.248 NA
ATOM     37  C   UNL A   1      43.809  25.447  29.607  1.00  0.00     0.031 C 
ATOM     38  C   UNL A   1      44.511  30.765  31.514  1.00  0.00     0.029 A 
ATOM     39  C   UNL A   1      44.759  29.443  31.140  1.00  0.00     0.049 A 
ATOM     40  H   UNL A   1      44.983  27.880  32.532  1.00  0.00     0.167 HD
ATOM     41  C   UNL A   1      44.843  27.525  29.565  1.00  0.00     0.074 A 
ATOM     42  C   UNL A   1      44.353  26.402  30.364  1.00  0.00     0.031 C 
ATOM     43  C   UNL A   1      45.072  28.835  29.870  1.00  0.00     0.037 A 
BRANCH  30  44
ATOM     44  C   UNL A   1      42.866  27.523  34.617  1.00  0.00     0.057 A 
ATOM     45  C   UNL A   1      43.124  26.227  34.130  1.00  0.00     0.134 A 
ATOM     46  C   UNL A   1      42.600  27.599  35.998  1.00  0.00     0.134 A 
ATOM     47  F   UNL A   1      43.382  26.018  32.829  1.00  0.00    -0.206 F 
ATOM     48  C   UNL A   1      43.029  25.087  34.938  1.00  0.00     0.040 A 
ATOM     49  C   UNL A   1      42.554  26.472  36.823  1.00  0.00     0.040 A 
ATOM     50  F   UNL A   1      42.266  28.744  36.604  1.00  0.00    -0.206 F 
ATOM     51  C   UNL A   1      42.732  25.207  36.288  1.00  0.00     0.006 A 
ENDBRANCH  30  44
BRANCH  31  52
ATOM     52  C   UNL A   1      42.781  24.551  26.578  1.00  0.00     0.057 A 
ATOM     53  C   UNL A   1      43.637  24.318  25.488  1.00  0.00     0.134 A 
ATOM     54  C   UNL A   1      42.133  23.420  27.099  1.00  0.00     0.134 A 
ATOM     55  F   UNL A   1      44.335  25.324  24.940  1.00  0.00    -0.206 F 
ATOM     56  C   UNL A   1      43.863  23.033  24.971  1.00  0.00     0.040 A 
ATOM     57  C   UNL A   1      42.346  22.132  26.591  1.00  0.00     0.040 A 
ATOM     58  F   UNL A   1      41.348  23.512  28.181  1.00  0.00    -0.206 F 
ATOM     59  C   UNL A   1      43.226  21.932  25.533  1.00  0.00     0.006 A 
ENDBRANCH  31  52
BRANCH  43  60
ATOM     60  C   UNL A   1      45.464  29.761  28.753  1.00  0.00     0.057 A 
ATOM     61  C   UNL A   1      46.775  29.932  28.281  1.00  0.00     0.134 A 
ATOM     62  C   UNL A   1      44.446  30.400  28.038  1.00  0.00     0.134 A 
ATOM     63  F   UNL A   1      47.807  29.286  28.840  1.00  0.00    -0.206 F 
ATOM     64  C   UNL A   1      47.057  30.735  27.171  1.00  0.00     0.040 A 
ATOM     65  C   UNL A   1      44.710  31.174  26.907  1.00  0.00     0.040 A 
ATOM     66  F   UNL A   1      43.163  30.241  28.402  1.00  0.00    -0.206 F 
ATOM     67  C   UNL A   1      46.021  31.353  26.477  1.00  0.00     0.006 A 
ENDBRANCH  43  60
ENDBRANCH  17  18
ENDBRANCH  10  12
ENDBRANCH   7   8
ENDBRANCH   6   7
ENDBRANCH   5   6
ENDBRANCH   1   5
BRANCH   2  68
ATOM     68  C   UNL A   1      30.777  28.293  23.706  1.00  0.00     0.170 A 
ATOM     69  C   UNL A   1      30.586  27.148  24.457  1.00  0.00     0.145 A 
ATOM     70  N   UNL A   1      31.407  27.955  22.536  1.00  0.00    -0.125 NA
ATOM     71  N   UNL A   1      31.220  26.178  23.740  1.00  0.00    -0.237 N 
ATOM     72  N   UNL A   1      31.687  26.661  22.574  1.00  0.00    -0.066 NA
BRANCH  71  73
ATOM     73  C   UNL A   1      31.566  24.859  24.153  1.00  0.00     0.218 C 
ATOM     74  C   UNL A   1      30.671  23.767  23.503  1.00  0.00     0.295 C 
ATOM     75  C   UNL A   1      32.708  24.155  23.393  1.00  0.00     0.295 C 
ATOM     76  N   UNL A   1      31.866  22.944  23.295  1.00  0.00    -0.331 N 
ATOM     77  H   UNL A   1      31.950  22.330  22.485  1.00  0.00     0.348 HD
BRANCH  76  78
ATOM     78  C   UNL A   1      32.088  21.946  24.358  1.00  0.00     0.262 C 
BRANCH  78  79
ATOM     79  C   UNL A   1      33.247  20.927  24.345  1.00  0.00     0.064 C 
BRANCH  79  80
ATOM     80  C   UNL A   1      33.280  19.792  25.384  1.00  0.00     0.038 C 
BRANCH  80  81
ATOM     81  C   UNL A   1      33.177  18.364  24.844  1.00  0.00     0.118 C 
ATOM     82  C   UNL A   1      34.493  17.869  24.251  1.00  0.00     0.034 C 
ATOM     83  O   UNL A   1      32.189  18.272  23.811  1.00  0.00    -0.378 OA
ATOM     84  C   UNL A   1      34.028  16.956  23.145  1.00  0.00     0.031 C 
ATOM     85  C   UNL A   1      32.777  17.654  22.665  1.00  0.00     0.160 C 
ENDBRANCH  80  81
ENDBRANCH  79  80
ENDBRANCH  78  79
ENDBRANCH  76  78
ENDBRANCH  71  73
ENDBRANCH   2  68
TORSDOF 15
ENDMDL
