MODEL 1
REMARK VINA RESULT:     -10.7      0.000      0.000
REMARK SMILES CC(C)[C@@H]([NH2+][C@@H]1CSCC(C)(C)C1)C(=O)NCCCNC(=O)c1ccc(-c2c3nc(c(-c4c(F)cccc4F)c4ccc([nH]4)c(-c4c(F)cccc4F)c4nc(c(-c5c(F)cccc5F)c5ccc2[nH]5)C=C4)C=C3)cc1
REMARK SMILES IDX 18 1 17 2 16 3 14 4 15 5 4 7 2 8 1 9 3 10 5 11 6 14 7 15
REMARK SMILES IDX 13 16 8 17 10 18 9 19 11 20 12 21 19 22 20 23 21 24 22 26
REMARK SMILES IDX 23 27 24 28 76 29 25 30 75 31 26 32 27 33 28 34 69 35 29 36
REMARK SMILES IDX 74 37 68 38 70 39 30 40 73 41 67 42 66 43 31 45 57 46 40 47
REMARK SMILES IDX 56 48 41 49 44 50 55 51 71 52 42 53 43 54 54 56 72 57 45 58
REMARK SMILES IDX 32 59 33 60 38 61 34 62 35 63 37 64 39 65 36 66 58 67 59 68
REMARK SMILES IDX 64 69 60 70 61 71 63 72 65 73 62 74 46 75 47 76 52 77 48 78
REMARK SMILES IDX 49 79 51 80 53 81 50 82
REMARK H PARENT 16 6 5 12 5 13 20 25 70 44 44 55
REMARK Flexibility Score: inf
ROOT
ATOM      1  C   UNL A   1      33.964  28.720  25.767  1.00  0.00     0.042 C 
ENDROOT
BRANCH   1   2
ATOM      2  C   UNL A   1      33.630  27.368  25.178  1.00  0.00     0.118 C 
BRANCH   2   3
ATOM      3  N   UNL A   1      33.866  27.294  23.751  1.00  0.00    -0.351 N 
ATOM      4  C   UNL A   1      33.656  26.225  22.924  1.00  0.00     0.278 C 
ATOM      5  O   UNL A   1      33.760  26.397  21.706  1.00  0.00    -0.268 OA
ATOM      6  H   UNL A   1      34.218  28.110  23.326  1.00  0.00     0.163 HD
BRANCH   4   7
ATOM      7  C   UNL A   1      33.399  24.811  23.502  1.00  0.00     0.275 C 
BRANCH   7   8
ATOM      8  C   UNL A   1      32.311  24.108  22.617  1.00  0.00     0.051 C 
ATOM      9  C   UNL A   1      32.803  22.789  22.015  1.00  0.00     0.014 C 
ATOM     10  C   UNL A   1      31.013  23.835  23.399  1.00  0.00     0.014 C 
ENDBRANCH   7   8
BRANCH   7  11
ATOM     11  N   UNL A   1      34.665  24.029  23.609  1.00  0.00    -0.333 N 
ATOM     12  H   UNL A   1      35.259  24.302  22.826  1.00  0.00     0.347 HD
ATOM     13  H   UNL A   1      34.370  23.053  23.612  1.00  0.00     0.347 HD
BRANCH  11  14
ATOM     14  C   UNL A   1      35.461  24.188  24.846  1.00  0.00     0.193 C 
ATOM     15  C   UNL A   1      36.900  23.648  24.886  1.00  0.00     0.134 C 
ATOM     16  C   UNL A   1      34.694  23.614  26.072  1.00  0.00     0.073 C 
ATOM     17  S   UNL A   1      37.021  21.852  24.663  1.00  0.00    -0.155 SA
ATOM     18  C   UNL A   1      34.524  22.070  26.163  1.00  0.00    -0.021 C 
ATOM     19  C   UNL A   1      35.821  21.269  25.883  1.00  0.00     0.076 C 
ATOM     20  C   UNL A   1      33.349  21.602  25.282  1.00  0.00     0.012 C 
ATOM     21  C   UNL A   1      34.106  21.702  27.611  1.00  0.00     0.012 C 
ENDBRANCH  11  14
ENDBRANCH   7  11
ENDBRANCH   4   7
ENDBRANCH   2   3
ENDBRANCH   1   2
BRANCH   1  22
ATOM     22  C   UNL A   1      33.676  28.787  27.255  1.00  0.00     0.118 C 
BRANCH  22  23
ATOM     23  N   UNL A   1      33.744  30.146  27.786  1.00  0.00    -0.352 N 
ATOM     24  C   UNL A   1      34.774  30.789  28.436  1.00  0.00     0.251 C 
ATOM     25  H   UNL A   1      32.930  30.685  27.662  1.00  0.00     0.163 HD
ATOM     26  O   UNL A   1      34.596  31.883  28.952  1.00  0.00    -0.269 OA
BRANCH  24  27
ATOM     27  C   UNL A   1      36.091  30.125  28.535  1.00  0.00     0.039 A 
ATOM     28  C   UNL A   1      36.982  30.209  27.462  1.00  0.00     0.014 A 
ATOM     29  C   UNL A   1      36.463  29.462  29.706  1.00  0.00     0.014 A 
ATOM     30  C   UNL A   1      38.280  29.715  27.606  1.00  0.00     0.010 A 
ATOM     31  C   UNL A   1      37.783  29.077  29.888  1.00  0.00     0.010 A 
ATOM     32  C   UNL A   1      38.706  29.195  28.840  1.00  0.00    -0.014 A 
BRANCH  32  33
ATOM     33  C   UNL A   1      40.106  28.758  29.067  1.00  0.00     0.031 A 
ATOM     34  C   UNL A   1      41.095  29.713  29.677  1.00  0.00     0.074 A 
ATOM     35  C   UNL A   1      40.510  27.545  28.639  1.00  0.00     0.049 A 
ATOM     36  N   UNL A   1      42.388  29.580  29.833  1.00  0.00    -0.248 NA
ATOM     37  C   UNL A   1      40.568  31.009  30.136  1.00  0.00     0.031 C 
ATOM     38  C   UNL A   1      39.663  26.550  27.976  1.00  0.00     0.029 A 
ATOM     39  N   UNL A   1      41.745  26.947  28.685  1.00  0.00    -0.354 N 
ATOM     40  C   UNL A   1      42.826  30.781  30.375  1.00  0.00     0.074 A 
ATOM     41  C   UNL A   1      41.676  31.651  30.469  1.00  0.00     0.031 C 
ATOM     42  C   UNL A   1      40.396  25.458  27.704  1.00  0.00     0.029 A 
ATOM     43  C   UNL A   1      41.770  25.690  28.133  1.00  0.00     0.049 A 
ATOM     44  H   UNL A   1      42.538  27.380  29.076  1.00  0.00     0.167 HD
ATOM     45  C   UNL A   1      44.071  31.119  30.786  1.00  0.00     0.037 A 
ATOM     46  C   UNL A   1      42.790  24.824  27.986  1.00  0.00     0.037 A 
ATOM     47  C   UNL A   1      45.203  30.234  30.739  1.00  0.00     0.049 A 
ATOM     48  C   UNL A   1      44.157  25.213  28.477  1.00  0.00     0.074 A 
ATOM     49  C   UNL A   1      46.491  30.457  31.190  1.00  0.00     0.029 A 
ATOM     50  N   UNL A   1      45.175  28.949  30.218  1.00  0.00    -0.354 N 
ATOM     51  N   UNL A   1      44.545  26.331  29.041  1.00  0.00    -0.248 NA
ATOM     52  C   UNL A   1      45.227  24.218  28.316  1.00  0.00     0.031 C 
ATOM     53  C   UNL A   1      47.253  29.315  30.917  1.00  0.00     0.029 A 
ATOM     54  C   UNL A   1      46.427  28.369  30.329  1.00  0.00     0.049 A 
ATOM     55  H   UNL A   1      44.384  28.515  29.826  1.00  0.00     0.167 HD
ATOM     56  C   UNL A   1      45.894  26.164  29.327  1.00  0.00     0.074 A 
ATOM     57  C   UNL A   1      46.253  24.832  28.887  1.00  0.00     0.031 C 
ATOM     58  C   UNL A   1      46.758  27.035  29.902  1.00  0.00     0.037 A 
BRANCH  45  59
ATOM     59  C   UNL A   1      44.264  32.499  31.343  1.00  0.00     0.057 A 
ATOM     60  C   UNL A   1      44.090  32.773  32.706  1.00  0.00     0.134 A 
ATOM     61  C   UNL A   1      44.653  33.558  30.515  1.00  0.00     0.134 A 
ATOM     62  F   UNL A   1      43.703  31.805  33.550  1.00  0.00    -0.206 F 
ATOM     63  C   UNL A   1      44.273  34.057  33.221  1.00  0.00     0.040 A 
ATOM     64  C   UNL A   1      44.864  34.842  31.023  1.00  0.00     0.040 A 
ATOM     65  F   UNL A   1      44.840  33.365  29.201  1.00  0.00    -0.206 F 
ATOM     66  C   UNL A   1      44.668  35.094  32.380  1.00  0.00     0.006 A 
ENDBRANCH  45  59
BRANCH  46  67
ATOM     67  C   UNL A   1      42.559  23.491  27.374  1.00  0.00     0.057 A 
ATOM     68  C   UNL A   1      42.263  22.377  28.170  1.00  0.00     0.134 A 
ATOM     69  C   UNL A   1      42.645  23.291  25.992  1.00  0.00     0.134 A 
ATOM     70  F   UNL A   1      42.185  22.502  29.503  1.00  0.00    -0.206 F 
ATOM     71  C   UNL A   1      42.084  21.108  27.616  1.00  0.00     0.040 A 
ATOM     72  C   UNL A   1      42.445  22.032  25.423  1.00  0.00     0.040 A 
ATOM     73  F   UNL A   1      42.917  24.318  25.174  1.00  0.00    -0.206 F 
ATOM     74  C   UNL A   1      42.172  20.934  26.237  1.00  0.00     0.006 A 
ENDBRANCH  46  67
BRANCH  58  75
ATOM     75  C   UNL A   1      48.161  26.560  30.125  1.00  0.00     0.057 A 
ATOM     76  C   UNL A   1      48.532  25.873  31.286  1.00  0.00     0.134 A 
ATOM     77  C   UNL A   1      49.141  26.754  29.142  1.00  0.00     0.134 A 
ATOM     78  F   UNL A   1      47.643  25.667  32.268  1.00  0.00    -0.206 F 
ATOM     79  C   UNL A   1      49.837  25.412  31.473  1.00  0.00     0.040 A 
ATOM     80  C   UNL A   1      50.440  26.277  29.307  1.00  0.00     0.040 A 
ATOM     81  F   UNL A   1      48.846  27.397  28.003  1.00  0.00    -0.206 F 
ATOM     82  C   UNL A   1      50.793  25.608  30.478  1.00  0.00     0.006 A 
ENDBRANCH  58  75
ENDBRANCH  32  33
ENDBRANCH  24  27
ENDBRANCH  22  23
ENDBRANCH   1  22
TORSDOF 13
ENDMDL
MODEL 2
REMARK VINA RESULT:     -10.6      2.495      7.566
REMARK SMILES CC(C)[C@@H]([NH2+][C@@H]1CSCC(C)(C)C1)C(=O)NCCCNC(=O)c1ccc(-c2c3nc(c(-c4c(F)cccc4F)c4ccc([nH]4)c(-c4c(F)cccc4F)c4nc(c(-c5c(F)cccc5F)c5ccc2[nH]5)C=C4)C=C3)cc1
REMARK SMILES IDX 18 1 17 2 16 3 14 4 15 5 4 7 2 8 1 9 3 10 5 11 6 14 7 15
REMARK SMILES IDX 13 16 8 17 10 18 9 19 11 20 12 21 19 22 20 23 21 24 22 26
REMARK SMILES IDX 23 27 24 28 76 29 25 30 75 31 26 32 27 33 28 34 69 35 29 36
REMARK SMILES IDX 74 37 68 38 70 39 30 40 73 41 67 42 66 43 31 45 57 46 40 47
REMARK SMILES IDX 56 48 41 49 44 50 55 51 71 52 42 53 43 54 54 56 72 57 45 58
REMARK SMILES IDX 32 59 33 60 38 61 34 62 35 63 37 64 39 65 36 66 58 67 59 68
REMARK SMILES IDX 64 69 60 70 61 71 63 72 65 73 62 74 46 75 47 76 52 77 48 78
REMARK SMILES IDX 49 79 51 80 53 81 50 82
REMARK H PARENT 16 6 5 12 5 13 20 25 70 44 44 55
REMARK Flexibility Score: inf
ROOT
ATOM      1  C   UNL A   1      37.760  19.988  25.001  1.00  0.00     0.042 C 
ENDROOT
BRANCH   1   2
ATOM      2  C   UNL A   1      36.725  21.086  24.893  1.00  0.00     0.118 C 
BRANCH   2   3
ATOM      3  N   UNL A   1      35.857  21.166  26.049  1.00  0.00    -0.351 N 
ATOM      4  C   UNL A   1      34.509  21.401  26.068  1.00  0.00     0.278 C 
ATOM      5  O   UNL A   1      33.907  21.270  27.138  1.00  0.00    -0.268 OA
ATOM      6  H   UNL A   1      36.287  21.035  26.926  1.00  0.00     0.163 HD
BRANCH   4   7
ATOM      7  C   UNL A   1      33.776  21.918  24.805  1.00  0.00     0.275 C 
BRANCH   7   8
ATOM      8  C   UNL A   1      32.736  20.831  24.361  1.00  0.00     0.051 C 
ATOM      9  C   UNL A   1      32.148  21.109  22.975  1.00  0.00     0.014 C 
ATOM     10  C   UNL A   1      33.340  19.414  24.360  1.00  0.00     0.014 C 
ENDBRANCH   7   8
BRANCH   7  11
ATOM     11  N   UNL A   1      33.162  23.256  25.044  1.00  0.00    -0.333 N 
ATOM     12  H   UNL A   1      33.072  23.375  26.054  1.00  0.00     0.347 HD
ATOM     13  H   UNL A   1      32.282  23.236  24.529  1.00  0.00     0.347 HD
BRANCH  11  14
ATOM     14  C   UNL A   1      33.881  24.438  24.521  1.00  0.00     0.193 C 
ATOM     15  C   UNL A   1      34.069  25.664  25.430  1.00  0.00     0.134 C 
ATOM     16  C   UNL A   1      33.248  24.920  23.184  1.00  0.00     0.073 C 
ATOM     17  S   UNL A   1      32.516  26.445  25.949  1.00  0.00    -0.155 SA
ATOM     18  C   UNL A   1      31.839  25.577  23.243  1.00  0.00    -0.021 C 
ATOM     19  C   UNL A   1      31.678  26.641  24.358  1.00  0.00     0.076 C 
ATOM     20  C   UNL A   1      30.741  24.496  23.306  1.00  0.00     0.012 C 
ATOM     21  C   UNL A   1      31.583  26.325  21.907  1.00  0.00     0.012 C 
ENDBRANCH  11  14
ENDBRANCH   7  11
ENDBRANCH   4   7
ENDBRANCH   2   3
ENDBRANCH   1   2
BRANCH   1  22
ATOM     22  C   UNL A   1      39.008  20.444  25.735  1.00  0.00     0.118 C 
BRANCH  22  23
ATOM     23  N   UNL A   1      40.046  19.417  25.783  1.00  0.00    -0.352 N 
ATOM     24  C   UNL A   1      41.383  19.528  26.088  1.00  0.00     0.251 C 
ATOM     25  H   UNL A   1      39.743  18.506  25.563  1.00  0.00     0.163 HD
ATOM     26  O   UNL A   1      42.139  18.580  25.925  1.00  0.00    -0.269 OA
BRANCH  24  27
ATOM     27  C   UNL A   1      41.907  20.819  26.583  1.00  0.00     0.039 A 
ATOM     28  C   UNL A   1      42.384  21.759  25.667  1.00  0.00     0.014 A 
ATOM     29  C   UNL A   1      41.880  21.117  27.947  1.00  0.00     0.014 A 
ATOM     30  C   UNL A   1      42.740  23.035  26.113  1.00  0.00     0.010 A 
ATOM     31  C   UNL A   1      42.122  22.415  28.371  1.00  0.00     0.010 A 
ATOM     32  C   UNL A   1      42.558  23.388  27.460  1.00  0.00    -0.014 A 
BRANCH  32  33
ATOM     33  C   UNL A   1      42.822  24.763  27.954  1.00  0.00     0.031 A 
ATOM     34  C   UNL A   1      44.217  25.154  28.356  1.00  0.00     0.074 A 
ATOM     35  C   UNL A   1      41.799  25.622  28.131  1.00  0.00     0.049 A 
ATOM     36  N   UNL A   1      44.636  26.250  28.937  1.00  0.00    -0.248 NA
ATOM     37  C   UNL A   1      45.280  24.165  28.111  1.00  0.00     0.031 C 
ATOM     38  C   UNL A   1      40.391  25.343  27.838  1.00  0.00     0.029 A 
ATOM     39  N   UNL A   1      41.785  26.906  28.617  1.00  0.00    -0.354 N 
ATOM     40  C   UNL A   1      45.996  26.066  29.152  1.00  0.00     0.074 A 
ATOM     41  C   UNL A   1      46.323  24.734  28.693  1.00  0.00     0.031 C 
ATOM     42  C   UNL A   1      39.657  26.430  28.123  1.00  0.00     0.029 A 
ATOM     43  C   UNL A   1      40.532  27.467  28.657  1.00  0.00     0.049 A 
ATOM     44  H   UNL A   1      42.596  27.379  28.910  1.00  0.00     0.167 HD
ATOM     45  C   UNL A   1      46.898  26.938  29.659  1.00  0.00     0.037 A 
ATOM     46  C   UNL A   1      40.135  28.681  29.083  1.00  0.00     0.037 A 
ATOM     47  C   UNL A   1      46.580  28.280  30.067  1.00  0.00     0.049 A 
ATOM     48  C   UNL A   1      41.161  29.642  29.615  1.00  0.00     0.074 A 
ATOM     49  C   UNL A   1      47.432  29.264  30.533  1.00  0.00     0.029 A 
ATOM     50  N   UNL A   1      45.305  28.827  30.045  1.00  0.00    -0.354 N 
ATOM     51  N   UNL A   1      42.453  29.474  29.759  1.00  0.00    -0.248 NA
ATOM     52  C   UNL A   1      40.675  30.962  30.040  1.00  0.00     0.031 C 
ATOM     53  C   UNL A   1      46.669  30.402  30.819  1.00  0.00     0.029 A 
ATOM     54  C   UNL A   1      45.347  30.135  30.496  1.00  0.00     0.049 A 
ATOM     55  H   UNL A   1      44.493  28.356  29.753  1.00  0.00     0.167 HD
ATOM     56  C   UNL A   1      42.938  30.675  30.262  1.00  0.00     0.074 A 
ATOM     57  C   UNL A   1      41.803  31.566  30.386  1.00  0.00     0.031 C 
ATOM     58  C   UNL A   1      44.208  31.010  30.594  1.00  0.00     0.037 A 
BRANCH  45  59
ATOM     59  C   UNL A   1      48.319  26.473  29.778  1.00  0.00     0.057 A 
ATOM     60  C   UNL A   1      49.252  26.686  28.755  1.00  0.00     0.134 A 
ATOM     61  C   UNL A   1      48.767  25.827  30.936  1.00  0.00     0.134 A 
ATOM     62  F   UNL A   1      48.882  27.286  27.612  1.00  0.00    -0.206 F 
ATOM     63  C   UNL A   1      50.573  26.254  28.869  1.00  0.00     0.040 A 
ATOM     64  C   UNL A   1      50.094  25.412  31.073  1.00  0.00     0.040 A 
ATOM     65  F   UNL A   1      47.927  25.592  31.955  1.00  0.00    -0.206 F 
ATOM     66  C   UNL A   1      50.999  25.621  30.035  1.00  0.00     0.006 A 
ENDBRANCH  45  59
BRANCH  46  67
ATOM     67  C   UNL A   1      38.704  29.073  28.998  1.00  0.00     0.057 A 
ATOM     68  C   UNL A   1      38.164  29.559  27.801  1.00  0.00     0.134 A 
ATOM     69  C   UNL A   1      37.853  28.992  30.105  1.00  0.00     0.134 A 
ATOM     70  F   UNL A   1      38.935  29.678  26.711  1.00  0.00    -0.206 F 
ATOM     71  C   UNL A   1      36.833  29.973  27.714  1.00  0.00     0.040 A 
ATOM     72  C   UNL A   1      36.514  29.380  30.026  1.00  0.00     0.040 A 
ATOM     73  F   UNL A   1      38.308  28.527  31.278  1.00  0.00    -0.206 F 
ATOM     74  C   UNL A   1      36.003  29.880  28.830  1.00  0.00     0.006 A 
ENDBRANCH  46  67
BRANCH  58  75
ATOM     75  C   UNL A   1      44.443  32.407  31.080  1.00  0.00     0.057 A 
ATOM     76  C   UNL A   1      44.419  32.728  32.442  1.00  0.00     0.134 A 
ATOM     77  C   UNL A   1      44.740  33.434  30.174  1.00  0.00     0.134 A 
ATOM     78  F   UNL A   1      44.128  31.792  33.356  1.00  0.00    -0.206 F 
ATOM     79  C   UNL A   1      44.664  34.029  32.887  1.00  0.00     0.040 A 
ATOM     80  C   UNL A   1      45.009  34.731  30.608  1.00  0.00     0.040 A 
ATOM     81  F   UNL A   1      44.786  33.188  28.856  1.00  0.00    -0.206 F 
ATOM     82  C   UNL A   1      44.966  35.033  31.968  1.00  0.00     0.006 A 
ENDBRANCH  58  75
ENDBRANCH  32  33
ENDBRANCH  24  27
ENDBRANCH  22  23
ENDBRANCH   1  22
TORSDOF 13
ENDMDL
MODEL 3
REMARK VINA RESULT:     -10.5      2.424      7.259
REMARK SMILES CC(C)[C@@H]([NH2+][C@@H]1CSCC(C)(C)C1)C(=O)NCCCNC(=O)c1ccc(-c2c3nc(c(-c4c(F)cccc4F)c4ccc([nH]4)c(-c4c(F)cccc4F)c4nc(c(-c5c(F)cccc5F)c5ccc2[nH]5)C=C4)C=C3)cc1
REMARK SMILES IDX 18 1 17 2 16 3 14 4 15 5 4 7 2 8 1 9 3 10 5 11 6 14 7 15
REMARK SMILES IDX 13 16 8 17 10 18 9 19 11 20 12 21 19 22 20 23 21 24 22 26
REMARK SMILES IDX 23 27 24 28 76 29 25 30 75 31 26 32 27 33 28 34 69 35 29 36
REMARK SMILES IDX 74 37 68 38 70 39 30 40 73 41 67 42 66 43 31 45 57 46 40 47
REMARK SMILES IDX 56 48 41 49 44 50 55 51 71 52 42 53 43 54 54 56 72 57 45 58
REMARK SMILES IDX 32 59 33 60 38 61 34 62 35 63 37 64 39 65 36 66 58 67 59 68
REMARK SMILES IDX 64 69 60 70 61 71 63 72 65 73 62 74 46 75 47 76 52 77 48 78
REMARK SMILES IDX 49 79 51 80 53 81 50 82
REMARK H PARENT 16 6 5 12 5 13 20 25 70 44 44 55
REMARK Flexibility Score: inf
ROOT
ATOM      1  C   UNL A   1      37.403  21.049  24.605  1.00  0.00     0.042 C 
ENDROOT
BRANCH   1   2
ATOM      2  C   UNL A   1      35.986  20.808  25.075  1.00  0.00     0.118 C 
BRANCH   2   3
ATOM      3  N   UNL A   1      35.684  21.462  26.330  1.00  0.00    -0.351 N 
ATOM      4  C   UNL A   1      34.570  22.192  26.645  1.00  0.00     0.278 C 
ATOM      5  O   UNL A   1      34.408  22.537  27.819  1.00  0.00    -0.268 OA
ATOM      6  H   UNL A   1      36.358  21.370  27.042  1.00  0.00     0.163 HD
BRANCH   4   7
ATOM      7  C   UNL A   1      33.590  22.662  25.541  1.00  0.00     0.275 C 
BRANCH   7   8
ATOM      8  C   UNL A   1      32.418  21.625  25.449  1.00  0.00     0.051 C 
ATOM      9  C   UNL A   1      31.054  22.245  25.765  1.00  0.00     0.014 C 
ATOM     10  C   UNL A   1      32.341  20.956  24.063  1.00  0.00     0.014 C 
ENDBRANCH   7   8
BRANCH   7  11
ATOM     11  N   UNL A   1      33.123  24.057  25.789  1.00  0.00    -0.333 N 
ATOM     12  H   UNL A   1      33.034  24.175  26.798  1.00  0.00     0.347 HD
ATOM     13  H   UNL A   1      32.252  24.138  25.263  1.00  0.00     0.347 HD
BRANCH  11  14
ATOM     14  C   UNL A   1      33.973  25.159  25.287  1.00  0.00     0.193 C 
ATOM     15  C   UNL A   1      33.738  26.586  25.810  1.00  0.00     0.134 C 
ATOM     16  C   UNL A   1      33.954  25.205  23.732  1.00  0.00     0.073 C 
ATOM     17  S   UNL A   1      32.096  27.253  25.423  1.00  0.00    -0.155 SA
ATOM     18  C   UNL A   1      32.640  25.660  23.036  1.00  0.00    -0.021 C 
ATOM     19  C   UNL A   1      32.003  26.935  23.645  1.00  0.00     0.076 C 
ATOM     20  C   UNL A   1      31.637  24.491  22.955  1.00  0.00     0.012 C 
ATOM     21  C   UNL A   1      32.957  26.013  21.558  1.00  0.00     0.012 C 
ENDBRANCH  11  14
ENDBRANCH   7  11
ENDBRANCH   4   7
ENDBRANCH   2   3
ENDBRANCH   1   2
BRANCH   1  22
ATOM     22  C   UNL A   1      38.399  21.040  25.749  1.00  0.00     0.118 C 
BRANCH  22  23
ATOM     23  N   UNL A   1      39.331  19.917  25.684  1.00  0.00    -0.352 N 
ATOM     24  C   UNL A   1      40.677  19.869  25.968  1.00  0.00     0.251 C 
ATOM     25  H   UNL A   1      38.936  19.064  25.391  1.00  0.00     0.163 HD
ATOM     26  O   UNL A   1      41.332  18.872  25.705  1.00  0.00    -0.269 OA
BRANCH  24  27
ATOM     27  C   UNL A   1      41.332  21.053  26.564  1.00  0.00     0.039 A 
ATOM     28  C   UNL A   1      41.925  22.000  25.726  1.00  0.00     0.014 A 
ATOM     29  C   UNL A   1      41.316  21.250  27.946  1.00  0.00     0.014 A 
ATOM     30  C   UNL A   1      42.412  23.191  26.270  1.00  0.00     0.010 A 
ATOM     31  C   UNL A   1      41.692  22.478  28.469  1.00  0.00     0.010 A 
ATOM     32  C   UNL A   1      42.249  23.461  27.639  1.00  0.00    -0.014 A 
BRANCH  32  33
ATOM     33  C   UNL A   1      42.655  24.758  28.237  1.00  0.00     0.031 A 
ATOM     34  C   UNL A   1      41.625  25.830  28.461  1.00  0.00     0.074 A 
ATOM     35  C   UNL A   1      43.957  25.005  28.487  1.00  0.00     0.049 A 
ATOM     36  N   UNL A   1      41.790  27.072  28.841  1.00  0.00    -0.248 NA
ATOM     37  C   UNL A   1      40.224  25.471  28.182  1.00  0.00     0.031 C 
ATOM     38  C   UNL A   1      45.061  24.070  28.256  1.00  0.00     0.029 A 
ATOM     39  N   UNL A   1      44.574  26.127  28.979  1.00  0.00    -0.354 N 
ATOM     40  C   UNL A   1      40.525  27.644  28.814  1.00  0.00     0.074 A 
ATOM     41  C   UNL A   1      39.611  26.635  28.328  1.00  0.00     0.031 C 
ATOM     42  C   UNL A   1      46.213  24.647  28.632  1.00  0.00     0.029 A 
ATOM     43  C   UNL A   1      45.937  26.004  29.090  1.00  0.00     0.049 A 
ATOM     44  H   UNL A   1      44.085  26.944  29.229  1.00  0.00     0.167 HD
ATOM     45  C   UNL A   1      40.152  28.891  29.188  1.00  0.00     0.037 A 
ATOM     46  C   UNL A   1      46.860  26.889  29.509  1.00  0.00     0.037 A 
ATOM     47  C   UNL A   1      41.055  29.876  29.719  1.00  0.00     0.049 A 
ATOM     48  C   UNL A   1      46.417  28.258  29.947  1.00  0.00     0.074 A 
ATOM     49  C   UNL A   1      40.767  31.144  30.189  1.00  0.00     0.029 A 
ATOM     50  N   UNL A   1      42.422  29.694  29.862  1.00  0.00    -0.354 N 
ATOM     51  N   UNL A   1      45.209  28.766  29.970  1.00  0.00    -0.248 NA
ATOM     52  C   UNL A   1      47.464  29.173  30.421  1.00  0.00     0.031 C 
ATOM     53  C   UNL A   1      41.967  31.742  30.591  1.00  0.00     0.029 A 
ATOM     54  C   UNL A   1      42.994  30.831  30.406  1.00  0.00     0.049 A 
ATOM     55  H   UNL A   1      42.913  28.878  29.612  1.00  0.00     0.167 HD
ATOM     56  C   UNL A   1      45.346  30.048  30.487  1.00  0.00     0.074 A 
ATOM     57  C   UNL A   1      46.753  30.234  30.776  1.00  0.00     0.031 C 
ATOM     58  C   UNL A   1      44.394  30.987  30.703  1.00  0.00     0.037 A 
BRANCH  45  59
ATOM     59  C   UNL A   1      38.701  29.247  29.056  1.00  0.00     0.057 A 
ATOM     60  C   UNL A   1      38.146  29.632  27.829  1.00  0.00     0.134 A 
ATOM     61  C   UNL A   1      37.843  29.181  30.161  1.00  0.00     0.134 A 
ATOM     62  F   UNL A   1      38.917  29.730  26.735  1.00  0.00    -0.206 F 
ATOM     63  C   UNL A   1      36.795  29.962  27.710  1.00  0.00     0.040 A 
ATOM     64  C   UNL A   1      36.485  29.483  30.049  1.00  0.00     0.040 A 
ATOM     65  F   UNL A   1      38.308  28.818  31.365  1.00  0.00    -0.206 F 
ATOM     66  C   UNL A   1      35.960  29.880  28.820  1.00  0.00     0.006 A 
ENDBRANCH  45  59
BRANCH  46  67
ATOM     67  C   UNL A   1      48.295  26.506  29.566  1.00  0.00     0.057 A 
ATOM     68  C   UNL A   1      48.817  25.845  30.685  1.00  0.00     0.134 A 
ATOM     69  C   UNL A   1      49.177  26.804  28.522  1.00  0.00     0.134 A 
ATOM     70  F   UNL A   1      48.024  25.550  31.725  1.00  0.00    -0.206 F 
ATOM     71  C   UNL A   1      50.170  25.515  30.774  1.00  0.00     0.040 A 
ATOM     72  C   UNL A   1      50.528  26.458  28.588  1.00  0.00     0.040 A 
ATOM     73  F   UNL A   1      48.737  27.428  27.420  1.00  0.00    -0.206 F 
ATOM     74  C   UNL A   1      51.030  25.820  29.720  1.00  0.00     0.006 A 
ENDBRANCH  46  67
BRANCH  58  75
ATOM     75  C   UNL A   1      44.836  32.281  31.316  1.00  0.00     0.057 A 
ATOM     76  C   UNL A   1      45.221  33.375  30.533  1.00  0.00     0.134 A 
ATOM     77  C   UNL A   1      44.830  32.445  32.707  1.00  0.00     0.134 A 
ATOM     78  F   UNL A   1      45.259  33.275  29.196  1.00  0.00    -0.206 F 
ATOM     79  C   UNL A   1      45.607  34.585  31.114  1.00  0.00     0.040 A 
ATOM     80  C   UNL A   1      45.191  33.656  33.297  1.00  0.00     0.040 A 
ATOM     81  F   UNL A   1      44.463  31.437  33.511  1.00  0.00    -0.206 F 
ATOM     82  C   UNL A   1      45.586  34.729  32.500  1.00  0.00     0.006 A 
ENDBRANCH  58  75
ENDBRANCH  32  33
ENDBRANCH  24  27
ENDBRANCH  22  23
ENDBRANCH   1  22
TORSDOF 13
ENDMDL
