MODEL 1
REMARK VINA RESULT:     -12.2      0.000      0.000
REMARK SMILES O=C(NCCCNC(=O)c1ccc(-n2cccc2/C=N/NC(=O)c2cccs2)cc1)c1ccc(-c2c3nc(c(-c4c(F)cccc4F)c4ccc([nH]4)c(-c4c(F)cccc4F)c4nc(c(-c5c(F)cccc5F)c5ccc2[nH]5)C=C4)C=C3)cc1
REMARK SMILES IDX 6 1 5 2 4 3 3 4 1 5 2 6 31 8 32 9 84 10 33 11 83 12 34 13
REMARK SMILES IDX 35 14 36 15 77 16 37 17 82 18 76 19 78 20 38 21 81 22 75 23
REMARK SMILES IDX 74 24 39 26 65 27 48 28 64 29 49 30 52 31 63 32 79 33 50 34
REMARK SMILES IDX 51 35 62 37 80 38 53 39 40 40 41 41 46 42 42 43 43 44 45 45
REMARK SMILES IDX 47 46 44 47 66 48 67 49 72 50 68 51 69 52 71 53 73 54 70 55
REMARK SMILES IDX 54 56 55 57 60 58 56 59 57 60 59 61 61 62 58 63 7 64 8 65
REMARK SMILES IDX 9 67 10 68 11 69 30 70 12 71 29 72 13 73 14 74 15 75 18 76
REMARK SMILES IDX 16 77 17 78 19 79 20 80 21 81 22 82 23 84 24 85 25 86 28 87
REMARK SMILES IDX 26 88 27 89
REMARK H PARENT 3 7 78 25 52 36 7 66 21 83
REMARK Flexibility Score: inf
ROOT
ATOM      1  C   UNL A   1      32.354  29.239  25.894  1.00  0.00     0.118 C 
ENDROOT
BRANCH   1   2
ATOM      2  C   UNL A   1      33.026  28.658  27.136  1.00  0.00     0.042 C 
BRANCH   2   3
ATOM      3  C   UNL A   1      34.535  28.882  27.221  1.00  0.00     0.118 C 
BRANCH   3   4
ATOM      4  N   UNL A   1      34.955  30.179  27.720  1.00  0.00    -0.352 N 
ATOM      5  O   UNL A   1      36.225  31.883  28.403  1.00  0.00    -0.269 OA
ATOM      6  C   UNL A   1      36.173  30.699  28.074  1.00  0.00     0.251 C 
ATOM      7  H   UNL A   1      34.213  30.816  27.825  1.00  0.00     0.163 HD
BRANCH   6   8
ATOM      8  C   UNL A   1      37.411  29.886  28.141  1.00  0.00     0.039 A 
ATOM      9  C   UNL A   1      38.381  29.877  27.138  1.00  0.00     0.014 A 
ATOM     10  C   UNL A   1      37.625  29.140  29.314  1.00  0.00     0.014 A 
ATOM     11  C   UNL A   1      39.516  29.082  27.269  1.00  0.00     0.010 A 
ATOM     12  C   UNL A   1      38.776  28.366  29.465  1.00  0.00     0.010 A 
ATOM     13  C   UNL A   1      39.726  28.343  28.439  1.00  0.00    -0.014 A 
BRANCH  13  14
ATOM     14  C   UNL A   1      41.058  27.719  28.620  1.00  0.00     0.031 A 
ATOM     15  C   UNL A   1      41.068  26.239  28.230  1.00  0.00     0.074 A 
ATOM     16  C   UNL A   1      42.045  28.486  29.165  1.00  0.00     0.049 A 
ATOM     17  N   UNL A   1      41.801  25.266  28.677  1.00  0.00    -0.248 NA
ATOM     18  C   UNL A   1      40.059  25.753  27.249  1.00  0.00     0.031 C 
ATOM     19  C   UNL A   1      41.893  29.918  29.474  1.00  0.00     0.029 A 
ATOM     20  N   UNL A   1      43.343  28.244  29.579  1.00  0.00    -0.354 N 
ATOM     21  C   UNL A   1      41.488  24.122  27.915  1.00  0.00     0.074 A 
ATOM     22  C   UNL A   1      40.330  24.451  27.140  1.00  0.00     0.031 C 
ATOM     23  C   UNL A   1      43.000  30.393  30.078  1.00  0.00     0.029 A 
ATOM     24  C   UNL A   1      43.986  29.337  30.216  1.00  0.00     0.049 A 
ATOM     25  H   UNL A   1      43.788  27.376  29.441  1.00  0.00     0.167 HD
ATOM     26  C   UNL A   1      42.277  23.011  27.863  1.00  0.00     0.037 A 
ATOM     27  C   UNL A   1      45.203  29.393  30.843  1.00  0.00     0.037 A 
ATOM     28  C   UNL A   1      43.404  23.150  28.719  1.00  0.00     0.049 A 
ATOM     29  C   UNL A   1      45.838  28.084  30.621  1.00  0.00     0.074 A 
ATOM     30  C   UNL A   1      43.573  23.075  30.075  1.00  0.00     0.029 A 
ATOM     31  N   UNL A   1      44.545  23.665  28.158  1.00  0.00    -0.354 N 
ATOM     32  N   UNL A   1      46.364  27.697  29.497  1.00  0.00    -0.248 NA
ATOM     33  C   UNL A   1      45.858  27.106  31.716  1.00  0.00     0.031 C 
ATOM     34  C   UNL A   1      44.689  23.898  30.338  1.00  0.00     0.029 A 
ATOM     35  C   UNL A   1      45.196  24.384  29.128  1.00  0.00     0.049 A 
ATOM     36  H   UNL A   1      44.842  23.541  27.228  1.00  0.00     0.167 HD
ATOM     37  C   UNL A   1      46.466  26.336  29.669  1.00  0.00     0.074 A 
ATOM     38  C   UNL A   1      46.462  26.098  31.093  1.00  0.00     0.031 C 
ATOM     39  C   UNL A   1      46.002  25.508  28.700  1.00  0.00     0.037 A 
BRANCH  26  40
ATOM     40  C   UNL A   1      42.282  21.845  26.915  1.00  0.00     0.057 A 
ATOM     41  C   UNL A   1      41.614  20.659  27.303  1.00  0.00     0.134 A 
ATOM     42  C   UNL A   1      43.170  21.719  25.842  1.00  0.00     0.134 A 
ATOM     43  F   UNL A   1      40.712  20.668  28.298  1.00  0.00    -0.206 F 
ATOM     44  C   UNL A   1      41.901  19.413  26.740  1.00  0.00     0.040 A 
ATOM     45  C   UNL A   1      43.431  20.480  25.239  1.00  0.00     0.040 A 
ATOM     46  F   UNL A   1      43.887  22.762  25.403  1.00  0.00    -0.206 F 
ATOM     47  C   UNL A   1      42.828  19.319  25.713  1.00  0.00     0.006 A 
ENDBRANCH  26  40
BRANCH  27  48
ATOM     48  C   UNL A   1      45.980  30.374  31.701  1.00  0.00     0.057 A 
ATOM     49  C   UNL A   1      47.215  30.954  31.389  1.00  0.00     0.134 A 
ATOM     50  C   UNL A   1      45.445  30.833  32.940  1.00  0.00     0.134 A 
ATOM     51  F   UNL A   1      47.934  30.557  30.336  1.00  0.00    -0.206 F 
ATOM     52  C   UNL A   1      47.803  31.971  32.169  1.00  0.00     0.040 A 
ATOM     53  C   UNL A   1      46.001  31.862  33.709  1.00  0.00     0.040 A 
ATOM     54  F   UNL A   1      44.340  30.302  33.478  1.00  0.00    -0.206 F 
ATOM     55  C   UNL A   1      47.182  32.452  33.313  1.00  0.00     0.006 A 
ENDBRANCH  27  48
BRANCH  39  56
ATOM     56  C   UNL A   1      45.991  26.139  27.324  1.00  0.00     0.057 A 
ATOM     57  C   UNL A   1      47.190  26.362  26.637  1.00  0.00     0.134 A 
ATOM     58  C   UNL A   1      44.839  26.664  26.720  1.00  0.00     0.134 A 
ATOM     59  F   UNL A   1      48.347  25.900  27.133  1.00  0.00    -0.206 F 
ATOM     60  C   UNL A   1      47.236  27.078  25.432  1.00  0.00     0.040 A 
ATOM     61  C   UNL A   1      44.862  27.369  25.512  1.00  0.00     0.040 A 
ATOM     62  F   UNL A   1      43.647  26.525  27.298  1.00  0.00    -0.206 F 
ATOM     63  C   UNL A   1      46.069  27.586  24.866  1.00  0.00     0.006 A 
ENDBRANCH  39  56
ENDBRANCH  13  14
ENDBRANCH   6   8
ENDBRANCH   3   4
ENDBRANCH   2   3
ENDBRANCH   1   2
BRANCH   1  64
ATOM     64  N   UNL A   1      31.250  28.422  25.415  1.00  0.00    -0.352 N 
ATOM     65  C   UNL A   1      31.189  27.121  24.985  1.00  0.00     0.251 C 
ATOM     66  H   UNL A   1      30.384  28.891  25.394  1.00  0.00     0.163 HD
ATOM     67  O   UNL A   1      30.147  26.714  24.476  1.00  0.00    -0.269 OA
BRANCH  65  68
ATOM     68  C   UNL A   1      32.346  26.202  25.086  1.00  0.00     0.039 A 
ATOM     69  C   UNL A   1      32.396  25.322  26.175  1.00  0.00     0.016 A 
ATOM     70  C   UNL A   1      33.412  26.241  24.183  1.00  0.00     0.016 A 
ATOM     71  C   UNL A   1      33.445  24.406  26.300  1.00  0.00     0.027 A 
ATOM     72  C   UNL A   1      34.468  25.332  24.310  1.00  0.00     0.027 A 
ATOM     73  C   UNL A   1      34.462  24.382  25.344  1.00  0.00     0.046 A 
BRANCH  73  74
ATOM     74  N   UNL A   1      35.507  23.419  25.408  1.00  0.00    -0.316 N 
ATOM     75  C   UNL A   1      36.755  23.675  25.948  1.00  0.00     0.092 A 
ATOM     76  C   UNL A   1      35.529  22.137  24.860  1.00  0.00     0.066 A 
ATOM     77  C   UNL A   1      37.550  22.563  25.809  1.00  0.00     0.021 A 
ATOM     78  C   UNL A   1      36.788  21.606  25.115  1.00  0.00     0.030 A 
BRANCH  76  79
ATOM     79  C   UNL A   1      34.500  21.510  24.061  1.00  0.00     0.160 C 
ATOM     80  N   UNL A   1      33.780  20.566  24.583  1.00  0.00    -0.179 NA
BRANCH  80  81
ATOM     81  N   UNL A   1      32.826  19.941  23.827  1.00  0.00    -0.242 N 
ATOM     82  C   UNL A   1      32.618  18.603  23.507  1.00  0.00     0.281 C 
ATOM     83  H   UNL A   1      32.161  20.554  23.436  1.00  0.00     0.194 HD
ATOM     84  O   UNL A   1      31.766  18.349  22.665  1.00  0.00    -0.266 OA
BRANCH  82  85
ATOM     85  C   UNL A   1      33.376  17.574  24.200  1.00  0.00     0.094 A 
ATOM     86  C   UNL A   1      34.688  17.174  24.035  1.00  0.00     0.026 A 
ATOM     87  S   UNL A   1      32.606  16.697  25.455  1.00  0.00    -0.139 S 
ATOM     88  C   UNL A   1      35.040  16.102  24.903  1.00  0.00     0.012 A 
ATOM     89  C   UNL A   1      33.993  15.736  25.718  1.00  0.00     0.065 A 
ENDBRANCH  82  85
ENDBRANCH  80  81
ENDBRANCH  76  79
ENDBRANCH  73  74
ENDBRANCH  65  68
ENDBRANCH   1  64
TORSDOF 14
ENDMDL
MODEL 2
REMARK VINA RESULT:     -12.2      4.155      8.774
REMARK SMILES O=C(NCCCNC(=O)c1ccc(-n2cccc2/C=N/NC(=O)c2cccs2)cc1)c1ccc(-c2c3nc(c(-c4c(F)cccc4F)c4ccc([nH]4)c(-c4c(F)cccc4F)c4nc(c(-c5c(F)cccc5F)c5ccc2[nH]5)C=C4)C=C3)cc1
REMARK SMILES IDX 6 1 5 2 4 3 3 4 1 5 2 6 31 8 32 9 84 10 33 11 83 12 34 13
REMARK SMILES IDX 35 14 36 15 77 16 37 17 82 18 76 19 78 20 38 21 81 22 75 23
REMARK SMILES IDX 74 24 39 26 65 27 48 28 64 29 49 30 52 31 63 32 79 33 50 34
REMARK SMILES IDX 51 35 62 37 80 38 53 39 40 40 41 41 46 42 42 43 43 44 45 45
REMARK SMILES IDX 47 46 44 47 66 48 67 49 72 50 68 51 69 52 71 53 73 54 70 55
REMARK SMILES IDX 54 56 55 57 60 58 56 59 57 60 59 61 61 62 58 63 7 64 8 65
REMARK SMILES IDX 9 67 10 68 11 69 30 70 12 71 29 72 13 73 14 74 15 75 18 76
REMARK SMILES IDX 16 77 17 78 19 79 20 80 21 81 22 82 23 84 24 85 25 86 28 87
REMARK SMILES IDX 26 88 27 89
REMARK H PARENT 3 7 78 25 52 36 7 66 21 83
REMARK Flexibility Score: inf
ROOT
ATOM      1  C   UNL A   1      35.901  22.801  24.246  1.00  0.00     0.118 C 
ENDROOT
BRANCH   1   2
ATOM      2  C   UNL A   1      36.458  22.699  25.664  1.00  0.00     0.042 C 
BRANCH   2   3
ATOM      3  C   UNL A   1      37.478  23.773  26.038  1.00  0.00     0.118 C 
BRANCH   3   4
ATOM      4  N   UNL A   1      38.845  23.315  26.210  1.00  0.00    -0.352 N 
ATOM      5  O   UNL A   1      40.976  23.183  26.863  1.00  0.00    -0.269 OA
ATOM      6  C   UNL A   1      39.947  23.856  26.820  1.00  0.00     0.251 C 
ATOM      7  H   UNL A   1      39.016  22.435  25.804  1.00  0.00     0.163 HD
BRANCH   6   8
ATOM      8  C   UNL A   1      39.973  25.232  27.369  1.00  0.00     0.039 A 
ATOM      9  C   UNL A   1      39.710  25.533  28.706  1.00  0.00     0.014 A 
ATOM     10  C   UNL A   1      40.345  26.265  26.491  1.00  0.00     0.014 A 
ATOM     11  C   UNL A   1      39.748  26.852  29.148  1.00  0.00     0.010 A 
ATOM     12  C   UNL A   1      40.415  27.587  26.934  1.00  0.00     0.010 A 
ATOM     13  C   UNL A   1      40.120  27.877  28.270  1.00  0.00    -0.014 A 
BRANCH  13  14
ATOM     14  C   UNL A   1      40.380  29.213  28.856  1.00  0.00     0.031 A 
ATOM     15  C   UNL A   1      39.092  29.931  29.269  1.00  0.00     0.074 A 
ATOM     16  C   UNL A   1      41.671  29.653  28.877  1.00  0.00     0.049 A 
ATOM     17  N   UNL A   1      38.831  31.201  29.331  1.00  0.00    -0.248 NA
ATOM     18  C   UNL A   1      37.891  29.112  29.591  1.00  0.00     0.031 C 
ATOM     19  C   UNL A   1      42.821  28.834  28.459  1.00  0.00     0.029 A 
ATOM     20  N   UNL A   1      42.283  30.843  29.227  1.00  0.00    -0.354 N 
ATOM     21  C   UNL A   1      37.535  31.335  29.870  1.00  0.00     0.074 A 
ATOM     22  C   UNL A   1      36.965  30.022  29.895  1.00  0.00     0.031 C 
ATOM     23  C   UNL A   1      43.960  29.554  28.509  1.00  0.00     0.029 A 
ATOM     24  C   UNL A   1      43.678  30.900  28.971  1.00  0.00     0.049 A 
ATOM     25  H   UNL A   1      41.788  31.595  29.625  1.00  0.00     0.167 HD
ATOM     26  C   UNL A   1      37.052  32.498  30.391  1.00  0.00     0.037 A 
ATOM     27  C   UNL A   1      44.546  31.956  29.081  1.00  0.00     0.037 A 
ATOM     28  C   UNL A   1      38.003  33.547  30.256  1.00  0.00     0.049 A 
ATOM     29  C   UNL A   1      43.775  33.059  29.676  1.00  0.00     0.074 A 
ATOM     30  C   UNL A   1      38.416  34.316  29.202  1.00  0.00     0.029 A 
ATOM     31  N   UNL A   1      38.862  33.740  31.309  1.00  0.00    -0.354 N 
ATOM     32  N   UNL A   1      43.428  33.132  30.926  1.00  0.00    -0.248 NA
ATOM     33  C   UNL A   1      43.314  34.153  28.811  1.00  0.00     0.031 C 
ATOM     34  C   UNL A   1      39.741  34.679  29.527  1.00  0.00     0.029 A 
ATOM     35  C   UNL A   1      40.057  34.178  30.794  1.00  0.00     0.049 A 
ATOM     36  H   UNL A   1      38.658  33.590  32.259  1.00  0.00     0.167 HD
ATOM     37  C   UNL A   1      42.443  34.092  30.906  1.00  0.00     0.074 A 
ATOM     38  C   UNL A   1      42.653  34.874  29.711  1.00  0.00     0.031 C 
ATOM     39  C   UNL A   1      41.261  33.845  31.524  1.00  0.00     0.037 A 
BRANCH  26  40
ATOM     40  C   UNL A   1      35.855  32.773  31.257  1.00  0.00     0.057 A 
ATOM     41  C   UNL A   1      34.921  33.745  30.828  1.00  0.00     0.134 A 
ATOM     42  C   UNL A   1      35.766  32.397  32.602  1.00  0.00     0.134 A 
ATOM     43  F   UNL A   1      34.890  34.156  29.550  1.00  0.00    -0.206 F 
ATOM     44  C   UNL A   1      34.041  34.384  31.704  1.00  0.00     0.040 A 
ATOM     45  C   UNL A   1      34.854  32.999  33.480  1.00  0.00     0.040 A 
ATOM     46  F   UNL A   1      36.616  31.509  33.136  1.00  0.00    -0.206 F 
ATOM     47  C   UNL A   1      34.018  34.022  33.043  1.00  0.00     0.006 A 
ENDBRANCH  26  40
BRANCH  27  48
ATOM     48  C   UNL A   1      45.985  32.269  28.715  1.00  0.00     0.057 A 
ATOM     49  C   UNL A   1      47.098  32.168  29.558  1.00  0.00     0.134 A 
ATOM     50  C   UNL A   1      46.323  32.668  27.389  1.00  0.00     0.134 A 
ATOM     51  F   UNL A   1      46.972  31.932  30.866  1.00  0.00    -0.206 F 
ATOM     52  C   UNL A   1      48.422  32.334  29.102  1.00  0.00     0.040 A 
ATOM     53  C   UNL A   1      47.632  32.807  26.915  1.00  0.00     0.040 A 
ATOM     54  F   UNL A   1      45.390  32.949  26.471  1.00  0.00    -0.206 F 
ATOM     55  C   UNL A   1      48.696  32.621  27.772  1.00  0.00     0.006 A 
ENDBRANCH  27  48
BRANCH  39  56
ATOM     56  C   UNL A   1      41.370  32.838  32.650  1.00  0.00     0.057 A 
ATOM     57  C   UNL A   1      41.993  33.186  33.855  1.00  0.00     0.134 A 
ATOM     58  C   UNL A   1      41.006  31.489  32.523  1.00  0.00     0.134 A 
ATOM     59  F   UNL A   1      42.380  34.452  34.071  1.00  0.00    -0.206 F 
ATOM     60  C   UNL A   1      42.249  32.244  34.861  1.00  0.00     0.040 A 
ATOM     61  C   UNL A   1      41.240  30.537  33.521  1.00  0.00     0.040 A 
ATOM     62  F   UNL A   1      40.424  31.046  31.411  1.00  0.00    -0.206 F 
ATOM     63  C   UNL A   1      41.874  30.913  34.695  1.00  0.00     0.006 A 
ENDBRANCH  39  56
ENDBRANCH  13  14
ENDBRANCH   6   8
ENDBRANCH   3   4
ENDBRANCH   2   3
ENDBRANCH   1   2
BRANCH   1  64
ATOM     64  N   UNL A   1      34.490  22.457  24.167  1.00  0.00    -0.352 N 
ATOM     65  C   UNL A   1      33.355  23.146  24.510  1.00  0.00     0.251 C 
ATOM     66  H   UNL A   1      34.317  21.560  23.798  1.00  0.00     0.163 HD
ATOM     67  O   UNL A   1      32.276  22.559  24.490  1.00  0.00    -0.269 OA
BRANCH  65  68
ATOM     68  C   UNL A   1      33.394  24.565  24.935  1.00  0.00     0.039 A 
ATOM     69  C   UNL A   1      32.696  24.925  26.096  1.00  0.00     0.016 A 
ATOM     70  C   UNL A   1      34.029  25.554  24.181  1.00  0.00     0.016 A 
ATOM     71  C   UNL A   1      32.729  26.241  26.565  1.00  0.00     0.027 A 
ATOM     72  C   UNL A   1      34.057  26.874  24.642  1.00  0.00     0.027 A 
ATOM     73  C   UNL A   1      33.445  27.210  25.860  1.00  0.00     0.046 A 
BRANCH  73  74
ATOM     74  N   UNL A   1      33.551  28.543  26.347  1.00  0.00    -0.316 N 
ATOM     75  C   UNL A   1      34.514  28.954  27.254  1.00  0.00     0.092 A 
ATOM     76  C   UNL A   1      32.685  29.612  26.123  1.00  0.00     0.066 A 
ATOM     77  C   UNL A   1      34.313  30.277  27.563  1.00  0.00     0.021 A 
ATOM     78  C   UNL A   1      33.161  30.685  26.868  1.00  0.00     0.030 A 
BRANCH  76  79
ATOM     79  C   UNL A   1      31.451  29.593  25.372  1.00  0.00     0.160 C 
ATOM     80  N   UNL A   1      31.469  29.913  24.114  1.00  0.00    -0.179 NA
BRANCH  80  81
ATOM     81  N   UNL A   1      30.303  29.933  23.400  1.00  0.00    -0.242 N 
ATOM     82  C   UNL A   1      29.633  28.948  22.680  1.00  0.00     0.281 C 
ATOM     83  H   UNL A   1      29.852  30.809  23.394  1.00  0.00     0.194 HD
ATOM     84  O   UNL A   1      28.679  29.299  21.996  1.00  0.00    -0.266 OA
BRANCH  82  85
ATOM     85  C   UNL A   1      30.057  27.563  22.795  1.00  0.00     0.094 A 
ATOM     86  C   UNL A   1      31.053  26.879  22.126  1.00  0.00     0.026 A 
ATOM     87  S   UNL A   1      29.270  26.561  23.943  1.00  0.00    -0.139 S 
ATOM     88  C   UNL A   1      31.128  25.513  22.517  1.00  0.00     0.012 A 
ATOM     89  C   UNL A   1      30.202  25.204  23.488  1.00  0.00     0.065 A 
ENDBRANCH  82  85
ENDBRANCH  80  81
ENDBRANCH  76  79
ENDBRANCH  73  74
ENDBRANCH  65  68
ENDBRANCH   1  64
TORSDOF 14
ENDMDL
MODEL 3
REMARK VINA RESULT:     -12.1      4.151      9.061
REMARK SMILES O=C(NCCCNC(=O)c1ccc(-n2cccc2/C=N/NC(=O)c2cccs2)cc1)c1ccc(-c2c3nc(c(-c4c(F)cccc4F)c4ccc([nH]4)c(-c4c(F)cccc4F)c4nc(c(-c5c(F)cccc5F)c5ccc2[nH]5)C=C4)C=C3)cc1
REMARK SMILES IDX 6 1 5 2 4 3 3 4 1 5 2 6 31 8 32 9 84 10 33 11 83 12 34 13
REMARK SMILES IDX 35 14 36 15 77 16 37 17 82 18 76 19 78 20 38 21 81 22 75 23
REMARK SMILES IDX 74 24 39 26 65 27 48 28 64 29 49 30 52 31 63 32 79 33 50 34
REMARK SMILES IDX 51 35 62 37 80 38 53 39 40 40 41 41 46 42 42 43 43 44 45 45
REMARK SMILES IDX 47 46 44 47 66 48 67 49 72 50 68 51 69 52 71 53 73 54 70 55
REMARK SMILES IDX 54 56 55 57 60 58 56 59 57 60 59 61 61 62 58 63 7 64 8 65
REMARK SMILES IDX 9 67 10 68 11 69 30 70 12 71 29 72 13 73 14 74 15 75 18 76
REMARK SMILES IDX 16 77 17 78 19 79 20 80 21 81 22 82 23 84 24 85 25 86 28 87
REMARK SMILES IDX 26 88 27 89
REMARK H PARENT 3 7 78 25 52 36 7 66 21 83
REMARK Flexibility Score: inf
ROOT
ATOM      1  C   UNL A   1      35.392  22.419  25.298  1.00  0.00     0.118 C 
ENDROOT
BRANCH   1   2
ATOM      2  C   UNL A   1      36.599  23.271  24.913  1.00  0.00     0.042 C 
BRANCH   2   3
ATOM      3  C   UNL A   1      37.363  23.881  26.087  1.00  0.00     0.118 C 
BRANCH   3   4
ATOM      4  N   UNL A   1      38.766  23.518  26.185  1.00  0.00    -0.352 N 
ATOM      5  O   UNL A   1      40.917  23.491  26.781  1.00  0.00    -0.269 OA
ATOM      6  C   UNL A   1      39.839  24.081  26.825  1.00  0.00     0.251 C 
ATOM      7  H   UNL A   1      38.993  22.698  25.689  1.00  0.00     0.163 HD
BRANCH   6   8
ATOM      8  C   UNL A   1      39.774  25.395  27.509  1.00  0.00     0.039 A 
ATOM      9  C   UNL A   1      39.320  25.559  28.819  1.00  0.00     0.014 A 
ATOM     10  C   UNL A   1      40.258  26.510  26.802  1.00  0.00     0.014 A 
ATOM     11  C   UNL A   1      39.283  26.827  29.393  1.00  0.00     0.010 A 
ATOM     12  C   UNL A   1      40.252  27.779  27.383  1.00  0.00     0.010 A 
ATOM     13  C   UNL A   1      39.768  27.933  28.686  1.00  0.00    -0.014 A 
BRANCH  13  14
ATOM     14  C   UNL A   1      39.929  29.202  29.435  1.00  0.00     0.031 A 
ATOM     15  C   UNL A   1      38.745  30.153  29.236  1.00  0.00     0.074 A 
ATOM     16  C   UNL A   1      41.097  29.390  30.112  1.00  0.00     0.049 A 
ATOM     17  N   UNL A   1      38.706  31.450  29.272  1.00  0.00    -0.248 NA
ATOM     18  C   UNL A   1      37.422  29.577  28.869  1.00  0.00     0.031 C 
ATOM     19  C   UNL A   1      42.148  28.365  30.232  1.00  0.00     0.029 A 
ATOM     20  N   UNL A   1      41.651  30.446  30.814  1.00  0.00    -0.354 N 
ATOM     21  C   UNL A   1      37.356  31.830  29.130  1.00  0.00     0.074 A 
ATOM     22  C   UNL A   1      36.634  30.649  28.766  1.00  0.00     0.031 C 
ATOM     23  C   UNL A   1      43.220  28.858  30.885  1.00  0.00     0.029 A 
ATOM     24  C   UNL A   1      42.980  30.237  31.266  1.00  0.00     0.049 A 
ATOM     25  H   UNL A   1      41.159  31.281  30.986  1.00  0.00     0.167 HD
ATOM     26  C   UNL A   1      36.884  33.069  29.451  1.00  0.00     0.037 A 
ATOM     27  C   UNL A   1      43.847  31.111  31.870  1.00  0.00     0.037 A 
ATOM     28  C   UNL A   1      37.941  33.918  29.880  1.00  0.00     0.049 A 
ATOM     29  C   UNL A   1      43.083  32.345  32.111  1.00  0.00     0.074 A 
ATOM     30  C   UNL A   1      38.939  34.586  29.224  1.00  0.00     0.029 A 
ATOM     31  N   UNL A   1      38.194  33.954  31.228  1.00  0.00    -0.354 N 
ATOM     32  N   UNL A   1      42.187  32.492  33.041  1.00  0.00    -0.248 NA
ATOM     33  C   UNL A   1      43.295  33.498  31.227  1.00  0.00     0.031 C 
ATOM     34  C   UNL A   1      39.976  34.695  30.177  1.00  0.00     0.029 A 
ATOM     35  C   UNL A   1      39.542  34.154  31.392  1.00  0.00     0.049 A 
ATOM     36  H   UNL A   1      37.530  33.854  31.947  1.00  0.00     0.167 HD
ATOM     37  C   UNL A   1      41.515  33.621  32.631  1.00  0.00     0.074 A 
ATOM     38  C   UNL A   1      42.411  34.339  31.756  1.00  0.00     0.031 C 
ATOM     39  C   UNL A   1      40.160  33.606  32.580  1.00  0.00     0.037 A 
BRANCH  26  40
ATOM     40  C   UNL A   1      35.482  33.571  29.653  1.00  0.00     0.057 A 
ATOM     41  C   UNL A   1      34.847  34.243  28.583  1.00  0.00     0.134 A 
ATOM     42  C   UNL A   1      34.887  33.728  30.909  1.00  0.00     0.134 A 
ATOM     43  F   UNL A   1      35.309  34.136  27.327  1.00  0.00    -0.206 F 
ATOM     44  C   UNL A   1      33.765  35.108  28.772  1.00  0.00     0.040 A 
ATOM     45  C   UNL A   1      33.773  34.558  31.102  1.00  0.00     0.040 A 
ATOM     46  F   UNL A   1      35.414  33.168  32.007  1.00  0.00    -0.206 F 
ATOM     47  C   UNL A   1      33.235  35.280  30.041  1.00  0.00     0.006 A 
ENDBRANCH  26  40
BRANCH  27  48
ATOM     48  C   UNL A   1      45.311  31.144  32.270  1.00  0.00     0.057 A 
ATOM     49  C   UNL A   1      46.385  31.527  31.460  1.00  0.00     0.134 A 
ATOM     50  C   UNL A   1      45.704  30.810  33.599  1.00  0.00     0.134 A 
ATOM     51  F   UNL A   1      46.236  31.753  30.153  1.00  0.00    -0.206 F 
ATOM     52  C   UNL A   1      47.700  31.674  31.949  1.00  0.00     0.040 A 
ATOM     53  C   UNL A   1      46.997  30.979  34.107  1.00  0.00     0.040 A 
ATOM     54  F   UNL A   1      44.845  30.294  34.487  1.00  0.00    -0.206 F 
ATOM     55  C   UNL A   1      48.004  31.433  33.282  1.00  0.00     0.006 A 
ENDBRANCH  27  48
BRANCH  39  56
ATOM     56  C   UNL A   1      39.533  32.606  33.529  1.00  0.00     0.057 A 
ATOM     57  C   UNL A   1      39.537  32.842  34.909  1.00  0.00     0.134 A 
ATOM     58  C   UNL A   1      39.056  31.350  33.128  1.00  0.00     0.134 A 
ATOM     59  F   UNL A   1      39.976  34.013  35.392  1.00  0.00    -0.206 F 
ATOM     60  C   UNL A   1      39.105  31.876  35.830  1.00  0.00     0.040 A 
ATOM     61  C   UNL A   1      38.608  30.379  34.031  1.00  0.00     0.040 A 
ATOM     62  F   UNL A   1      39.026  31.015  31.840  1.00  0.00    -0.206 F 
ATOM     63  C   UNL A   1      38.640  30.638  35.392  1.00  0.00     0.006 A 
ENDBRANCH  39  56
ENDBRANCH  13  14
ENDBRANCH   6   8
ENDBRANCH   3   4
ENDBRANCH   2   3
ENDBRANCH   1   2
BRANCH   1  64
ATOM     64  N   UNL A   1      34.350  22.424  24.284  1.00  0.00    -0.352 N 
ATOM     65  C   UNL A   1      33.380  23.341  23.966  1.00  0.00     0.251 C 
ATOM     66  H   UNL A   1      34.338  21.617  23.719  1.00  0.00     0.163 HD
ATOM     67  O   UNL A   1      32.512  23.028  23.156  1.00  0.00    -0.269 OA
BRANCH  65  68
ATOM     68  C   UNL A   1      33.329  24.682  24.592  1.00  0.00     0.039 A 
ATOM     69  C   UNL A   1      33.988  25.737  23.947  1.00  0.00     0.016 A 
ATOM     70  C   UNL A   1      32.719  24.907  25.829  1.00  0.00     0.016 A 
ATOM     71  C   UNL A   1      33.940  27.032  24.471  1.00  0.00     0.027 A 
ATOM     72  C   UNL A   1      32.676  26.200  26.362  1.00  0.00     0.027 A 
ATOM     73  C   UNL A   1      33.248  27.273  25.660  1.00  0.00     0.046 A 
BRANCH  73  74
ATOM     74  N   UNL A   1      33.126  28.590  26.183  1.00  0.00    -0.316 N 
ATOM     75  C   UNL A   1      33.614  28.972  27.422  1.00  0.00     0.092 A 
ATOM     76  C   UNL A   1      32.423  29.667  25.646  1.00  0.00     0.066 A 
ATOM     77  C   UNL A   1      33.288  30.286  27.655  1.00  0.00     0.021 A 
ATOM     78  C   UNL A   1      32.530  30.717  26.551  1.00  0.00     0.030 A 
BRANCH  76  79
ATOM     79  C   UNL A   1      31.619  29.673  24.445  1.00  0.00     0.160 C 
ATOM     80  N   UNL A   1      30.546  30.402  24.404  1.00  0.00    -0.179 NA
BRANCH  80  81
ATOM     81  N   UNL A   1      29.758  30.390  23.286  1.00  0.00    -0.242 N 
ATOM     82  C   UNL A   1      29.271  29.351  22.498  1.00  0.00     0.281 C 
ATOM     83  H   UNL A   1      29.484  31.285  22.980  1.00  0.00     0.194 HD
ATOM     84  O   UNL A   1      28.716  29.650  21.448  1.00  0.00    -0.266 OA
BRANCH  82  85
ATOM     85  C   UNL A   1      29.401  27.979  22.962  1.00  0.00     0.094 A 
ATOM     86  C   UNL A   1      28.580  27.239  23.791  1.00  0.00     0.026 A 
ATOM     87  S   UNL A   1      30.736  27.055  22.413  1.00  0.00    -0.139 S 
ATOM     88  C   UNL A   1      29.085  25.929  24.022  1.00  0.00     0.012 A 
ATOM     89  C   UNL A   1      30.261  25.703  23.343  1.00  0.00     0.065 A 
ENDBRANCH  82  85
ENDBRANCH  80  81
ENDBRANCH  76  79
ENDBRANCH  73  74
ENDBRANCH  65  68
ENDBRANCH   1  64
TORSDOF 14
ENDMDL
