MODEL 1
REMARK VINA RESULT:      -9.9      0.000      0.000
REMARK SMILES O=C(Cc1ccccc1Nc1c(Cl)cccc1Cl)NCCCNC(=O)c1ccc(-c2c3nc(c(-c4c(F)cccc4F)c4ccc([nH]4)c(-c4c(F)cccc4F)c4nc(c(-c5c(F)cccc5F)c5ccc2[nH]5)C=C4)C=C3)cc1
REMARK SMILES IDX 20 1 19 2 1 3 2 4 3 6 4 7 5 8 9 9 6 10 8 11 7 12 10 13 11 15
REMARK SMILES IDX 12 16 17 17 13 18 14 19 16 20 18 21 15 22 21 23 22 24 23 25
REMARK SMILES IDX 24 26 25 28 26 29 27 30 79 31 28 32 78 33 29 34 30 35 31 36
REMARK SMILES IDX 72 37 32 38 77 39 71 40 73 41 33 42 76 43 70 44 69 45 34 47
REMARK SMILES IDX 60 48 43 49 59 50 44 51 47 52 58 53 74 54 45 55 46 56 57 58
REMARK SMILES IDX 75 59 48 60 35 61 36 62 41 63 37 64 38 65 40 66 42 67 39 68
REMARK SMILES IDX 61 69 62 70 67 71 63 72 64 73 66 74 68 75 65 76 49 77 50 78
REMARK SMILES IDX 55 79 51 80 52 81 54 82 56 83 53 84
REMARK H PARENT 19 5 10 14 23 27 73 46 47 57
REMARK Flexibility Score: inf
ROOT
ATOM      1  C   UNL A   1      33.911  36.132  33.339  1.00  0.00     0.117 C 
ENDROOT
BRANCH   1   2
ATOM      2  N   UNL A   1      34.449  34.811  33.592  1.00  0.00    -0.356 N 
ATOM      3  O   UNL A   1      36.672  35.360  33.367  1.00  0.00    -0.275 OA
ATOM      4  C   UNL A   1      35.800  34.533  33.616  1.00  0.00     0.224 C 
ATOM      5  H   UNL A   1      33.818  34.073  33.756  1.00  0.00     0.163 HD
BRANCH   4   6
ATOM      6  C   UNL A   1      36.139  33.086  33.949  1.00  0.00     0.137 C 
BRANCH   6   7
ATOM      7  C   UNL A   1      37.078  32.979  35.133  1.00  0.00    -0.015 A 
ATOM      8  C   UNL A   1      36.649  33.495  36.373  1.00  0.00     0.006 A 
ATOM      9  C   UNL A   1      38.378  32.443  35.006  1.00  0.00     0.042 A 
ATOM     10  C   UNL A   1      37.499  33.506  37.474  1.00  0.00     0.000 A 
ATOM     11  C   UNL A   1      39.212  32.463  36.136  1.00  0.00     0.026 A 
ATOM     12  C   UNL A   1      38.784  32.996  37.354  1.00  0.00     0.002 A 
BRANCH   9  13
ATOM     13  N   UNL A   1      38.801  31.857  33.793  1.00  0.00    -0.353 N 
ATOM     14  H   UNL A   1      38.735  32.443  33.005  1.00  0.00     0.167 HD
BRANCH  13  15
ATOM     15  C   UNL A   1      39.307  30.559  33.531  1.00  0.00     0.076 A 
ATOM     16  C   UNL A   1      38.475  29.615  32.889  1.00  0.00     0.066 A 
ATOM     17  C   UNL A   1      40.634  30.163  33.803  1.00  0.00     0.066 A 
ATOM     18  Cl  UNL A   1      36.821  29.991  32.537  1.00  0.00    -0.082 Cl
ATOM     19  C   UNL A   1      38.950  28.357  32.504  1.00  0.00     0.023 A 
ATOM     20  C   UNL A   1      41.110  28.904  33.408  1.00  0.00     0.023 A 
ATOM     21  Cl  UNL A   1      41.727  31.142  34.726  1.00  0.00    -0.082 Cl
ATOM     22  C   UNL A   1      40.273  28.005  32.752  1.00  0.00     0.003 A 
ENDBRANCH  13  15
ENDBRANCH   9  13
ENDBRANCH   6   7
ENDBRANCH   4   6
ENDBRANCH   1   2
BRANCH   1  23
ATOM     23  C   UNL A   1      32.880  36.141  32.216  1.00  0.00     0.042 C 
BRANCH  23  24
ATOM     24  C   UNL A   1      33.437  36.426  30.823  1.00  0.00     0.118 C 
BRANCH  24  25
ATOM     25  N   UNL A   1      32.717  35.752  29.752  1.00  0.00    -0.352 N 
ATOM     26  C   UNL A   1      33.079  34.682  28.971  1.00  0.00     0.251 C 
ATOM     27  H   UNL A   1      31.826  36.123  29.556  1.00  0.00     0.163 HD
ATOM     28  O   UNL A   1      32.340  34.336  28.049  1.00  0.00    -0.269 OA
BRANCH  26  29
ATOM     29  C   UNL A   1      34.352  33.958  29.190  1.00  0.00     0.039 A 
ATOM     30  C   UNL A   1      35.393  34.154  28.274  1.00  0.00     0.014 A 
ATOM     31  C   UNL A   1      34.530  33.071  30.255  1.00  0.00     0.014 A 
ATOM     32  C   UNL A   1      36.626  33.525  28.468  1.00  0.00     0.010 A 
ATOM     33  C   UNL A   1      35.782  32.493  30.483  1.00  0.00     0.010 A 
ATOM     34  C   UNL A   1      36.846  32.722  29.597  1.00  0.00    -0.014 A 
BRANCH  34  35
ATOM     35  C   UNL A   1      38.190  32.152  29.880  1.00  0.00     0.031 A 
ATOM     36  C   UNL A   1      39.220  32.939  30.641  1.00  0.00     0.074 A 
ATOM     37  C   UNL A   1      38.505  30.934  29.396  1.00  0.00     0.049 A 
ATOM     38  N   UNL A   1      40.453  32.615  30.941  1.00  0.00    -0.248 NA
ATOM     39  C   UNL A   1      38.821  34.275  31.109  1.00  0.00     0.031 C 
ATOM     40  C   UNL A   1      37.619  30.085  28.599  1.00  0.00     0.029 A 
ATOM     41  N   UNL A   1      39.662  30.201  29.498  1.00  0.00    -0.354 N 
ATOM     42  C   UNL A   1      40.980  33.705  31.620  1.00  0.00     0.074 A 
ATOM     43  C   UNL A   1      39.946  34.720  31.650  1.00  0.00     0.031 C 
ATOM     44  C   UNL A   1      38.255  28.940  28.304  1.00  0.00     0.029 A 
ATOM     45  C   UNL A   1      39.602  28.985  28.862  1.00  0.00     0.049 A 
ATOM     46  H   UNL A   1      40.459  30.518  29.983  1.00  0.00     0.167 HD
ATOM     47  C   UNL A   1      42.204  33.845  32.184  1.00  0.00     0.037 A 
ATOM     48  C   UNL A   1      40.528  28.016  28.736  1.00  0.00     0.037 A 
ATOM     49  C   UNL A   1      43.228  32.829  32.175  1.00  0.00     0.049 A 
ATOM     50  C   UNL A   1      41.875  28.191  29.378  1.00  0.00     0.074 A 
ATOM     51  C   UNL A   1      44.477  32.859  32.772  1.00  0.00     0.029 A 
ATOM     52  N   UNL A   1      43.120  31.603  31.537  1.00  0.00    -0.354 N 
ATOM     53  N   UNL A   1      42.335  29.203  30.073  1.00  0.00    -0.248 NA
ATOM     54  C   UNL A   1      42.830  27.084  29.222  1.00  0.00     0.031 C 
ATOM     55  C   UNL A   1      45.140  31.666  32.463  1.00  0.00     0.029 A 
ATOM     56  C   UNL A   1      44.287  30.876  31.710  1.00  0.00     0.049 A 
ATOM     57  H   UNL A   1      42.332  31.295  31.034  1.00  0.00     0.167 HD
ATOM     58  C   UNL A   1      43.620  28.845  30.460  1.00  0.00     0.074 A 
ATOM     59  C   UNL A   1      43.861  27.517  29.934  1.00  0.00     0.031 C 
ATOM     60  C   UNL A   1      44.518  29.554  31.186  1.00  0.00     0.037 A 
BRANCH  47  61
ATOM     61  C   UNL A   1      42.507  35.146  32.867  1.00  0.00     0.057 A 
ATOM     62  C   UNL A   1      42.131  35.386  34.195  1.00  0.00     0.134 A 
ATOM     63  C   UNL A   1      43.220  36.154  32.206  1.00  0.00     0.134 A 
ATOM     64  F   UNL A   1      41.438  34.464  34.882  1.00  0.00    -0.206 F 
ATOM     65  C   UNL A   1      42.431  36.590  34.833  1.00  0.00     0.040 A 
ATOM     66  C   UNL A   1      43.547  37.354  32.841  1.00  0.00     0.040 A 
ATOM     67  F   UNL A   1      43.617  35.987  30.935  1.00  0.00    -0.206 F 
ATOM     68  C   UNL A   1      43.148  37.576  34.157  1.00  0.00     0.006 A 
ENDBRANCH  47  61
BRANCH  48  69
ATOM     69  C   UNL A   1      40.203  26.774  27.993  1.00  0.00     0.057 A 
ATOM     70  C   UNL A   1      40.658  26.577  26.684  1.00  0.00     0.134 A 
ATOM     71  C   UNL A   1      39.430  25.759  28.567  1.00  0.00     0.134 A 
ATOM     72  F   UNL A   1      41.387  27.524  26.075  1.00  0.00    -0.206 F 
ATOM     73  C   UNL A   1      40.342  25.424  25.966  1.00  0.00     0.040 A 
ATOM     74  C   UNL A   1      39.124  24.590  27.869  1.00  0.00     0.040 A 
ATOM     75  F   UNL A   1      38.969  25.886  29.821  1.00  0.00    -0.206 F 
ATOM     76  C   UNL A   1      39.576  24.424  26.561  1.00  0.00     0.006 A 
ENDBRANCH  48  69
BRANCH  60  77
ATOM     77  C   UNL A   1      45.832  28.894  31.481  1.00  0.00     0.057 A 
ATOM     78  C   UNL A   1      46.017  28.090  32.613  1.00  0.00     0.134 A 
ATOM     79  C   UNL A   1      46.919  29.051  30.613  1.00  0.00     0.134 A 
ATOM     80  F   UNL A   1      45.019  27.912  33.491  1.00  0.00    -0.206 F 
ATOM     81  C   UNL A   1      47.246  27.486  32.884  1.00  0.00     0.040 A 
ATOM     82  C   UNL A   1      48.145  28.432  30.860  1.00  0.00     0.040 A 
ATOM     83  F   UNL A   1      46.806  29.803  29.507  1.00  0.00    -0.206 F 
ATOM     84  C   UNL A   1      48.313  27.652  32.002  1.00  0.00     0.006 A 
ENDBRANCH  60  77
ENDBRANCH  34  35
ENDBRANCH  26  29
ENDBRANCH  24  25
ENDBRANCH  23  24
ENDBRANCH   1  23
TORSDOF 13
ENDMDL
MODEL 2
REMARK VINA RESULT:      -9.8      4.956     11.080
REMARK SMILES O=C(Cc1ccccc1Nc1c(Cl)cccc1Cl)NCCCNC(=O)c1ccc(-c2c3nc(c(-c4c(F)cccc4F)c4ccc([nH]4)c(-c4c(F)cccc4F)c4nc(c(-c5c(F)cccc5F)c5ccc2[nH]5)C=C4)C=C3)cc1
REMARK SMILES IDX 20 1 19 2 1 3 2 4 3 6 4 7 5 8 9 9 6 10 8 11 7 12 10 13 11 15
REMARK SMILES IDX 12 16 17 17 13 18 14 19 16 20 18 21 15 22 21 23 22 24 23 25
REMARK SMILES IDX 24 26 25 28 26 29 27 30 79 31 28 32 78 33 29 34 30 35 31 36
REMARK SMILES IDX 72 37 32 38 77 39 71 40 73 41 33 42 76 43 70 44 69 45 34 47
REMARK SMILES IDX 60 48 43 49 59 50 44 51 47 52 58 53 74 54 45 55 46 56 57 58
REMARK SMILES IDX 75 59 48 60 35 61 36 62 41 63 37 64 38 65 40 66 42 67 39 68
REMARK SMILES IDX 61 69 62 70 67 71 63 72 64 73 66 74 68 75 65 76 49 77 50 78
REMARK SMILES IDX 55 79 51 80 52 81 54 82 56 83 53 84
REMARK H PARENT 19 5 10 14 23 27 73 46 47 57
REMARK Flexibility Score: inf
ROOT
ATOM      1  C   UNL A   1      45.163  20.684  23.866  1.00  0.00     0.117 C 
ENDROOT
BRANCH   1   2
ATOM      2  N   UNL A   1      45.767  21.663  24.747  1.00  0.00    -0.356 N 
ATOM      3  O   UNL A   1      44.827  23.531  23.787  1.00  0.00    -0.275 OA
ATOM      4  C   UNL A   1      45.525  23.019  24.657  1.00  0.00     0.224 C 
ATOM      5  H   UNL A   1      46.381  21.344  25.447  1.00  0.00     0.163 HD
BRANCH   4   6
ATOM      6  C   UNL A   1      46.228  23.855  25.716  1.00  0.00     0.137 C 
BRANCH   6   7
ATOM      7  C   UNL A   1      46.869  25.096  25.130  1.00  0.00    -0.015 A 
ATOM      8  C   UNL A   1      47.939  24.931  24.228  1.00  0.00     0.006 A 
ATOM      9  C   UNL A   1      46.468  26.394  25.515  1.00  0.00     0.042 A 
ATOM     10  C   UNL A   1      48.625  26.031  23.724  1.00  0.00     0.000 A 
ATOM     11  C   UNL A   1      47.176  27.486  24.988  1.00  0.00     0.026 A 
ATOM     12  C   UNL A   1      48.248  27.310  24.110  1.00  0.00     0.002 A 
BRANCH   9  13
ATOM     13  N   UNL A   1      45.354  26.583  26.362  1.00  0.00    -0.353 N 
ATOM     14  H   UNL A   1      45.217  25.873  27.030  1.00  0.00     0.167 HD
BRANCH  13  15
ATOM     15  C   UNL A   1      44.403  27.634  26.403  1.00  0.00     0.076 A 
ATOM     16  C   UNL A   1      43.153  27.452  25.771  1.00  0.00     0.066 A 
ATOM     17  C   UNL A   1      44.594  28.839  27.109  1.00  0.00     0.066 A 
ATOM     18  Cl  UNL A   1      42.827  26.019  24.853  1.00  0.00    -0.082 Cl
ATOM     19  C   UNL A   1      42.133  28.404  25.870  1.00  0.00     0.023 A 
ATOM     20  C   UNL A   1      43.567  29.789  27.214  1.00  0.00     0.023 A 
ATOM     21  Cl  UNL A   1      46.122  29.283  27.800  1.00  0.00    -0.082 Cl
ATOM     22  C   UNL A   1      42.335  29.569  26.603  1.00  0.00     0.003 A 
ENDBRANCH  13  15
ENDBRANCH   9  13
ENDBRANCH   6   7
ENDBRANCH   4   6
ENDBRANCH   1   2
BRANCH   1  23
ATOM     23  C   UNL A   1      45.166  19.279  24.459  1.00  0.00     0.042 C 
BRANCH  23  24
ATOM     24  C   UNL A   1      44.393  19.123  25.767  1.00  0.00     0.118 C 
BRANCH  24  25
ATOM     25  N   UNL A   1      42.983  18.809  25.582  1.00  0.00    -0.352 N 
ATOM     26  C   UNL A   1      41.860  19.525  25.916  1.00  0.00     0.251 C 
ATOM     27  H   UNL A   1      42.807  17.943  25.149  1.00  0.00     0.163 HD
ATOM     28  O   UNL A   1      40.752  19.015  25.749  1.00  0.00    -0.269 OA
BRANCH  26  29
ATOM     29  C   UNL A   1      41.952  20.883  26.502  1.00  0.00     0.039 A 
ATOM     30  C   UNL A   1      41.792  21.019  27.887  1.00  0.00     0.014 A 
ATOM     31  C   UNL A   1      42.159  22.019  25.717  1.00  0.00     0.014 A 
ATOM     32  C   UNL A   1      41.915  22.275  28.486  1.00  0.00     0.010 A 
ATOM     33  C   UNL A   1      42.346  23.264  26.324  1.00  0.00     0.010 A 
ATOM     34  C   UNL A   1      42.235  23.404  27.715  1.00  0.00    -0.014 A 
BRANCH  34  35
ATOM     35  C   UNL A   1      42.494  24.720  28.359  1.00  0.00     0.031 A 
ATOM     36  C   UNL A   1      43.833  25.035  28.965  1.00  0.00     0.074 A 
ATOM     37  C   UNL A   1      41.494  25.619  28.447  1.00  0.00     0.049 A 
ATOM     38  N   UNL A   1      44.220  26.113  29.601  1.00  0.00    -0.248 NA
ATOM     39  C   UNL A   1      44.867  23.995  28.865  1.00  0.00     0.031 C 
ATOM     40  C   UNL A   1      40.133  25.422  27.946  1.00  0.00     0.029 A 
ATOM     41  N   UNL A   1      41.466  26.877  28.996  1.00  0.00    -0.354 N 
ATOM     42  C   UNL A   1      45.533  25.878  29.985  1.00  0.00     0.074 A 
ATOM     43  C   UNL A   1      45.864  24.537  29.550  1.00  0.00     0.031 C 
ATOM     44  C   UNL A   1      39.411  26.527  28.191  1.00  0.00     0.029 A 
ATOM     45  C   UNL A   1      40.244  27.497  28.892  1.00  0.00     0.049 A 
ATOM     46  H   UNL A   1      42.248  27.296  29.424  1.00  0.00     0.167 HD
ATOM     47  C   UNL A   1      46.392  26.709  30.624  1.00  0.00     0.037 A 
ATOM     48  C   UNL A   1      39.838  28.708  29.317  1.00  0.00     0.037 A 
ATOM     49  C   UNL A   1      46.074  28.052  31.039  1.00  0.00     0.049 A 
ATOM     50  C   UNL A   1      40.812  29.613  30.016  1.00  0.00     0.074 A 
ATOM     51  C   UNL A   1      46.899  28.988  31.641  1.00  0.00     0.029 A 
ATOM     52  N   UNL A   1      44.831  28.650  30.898  1.00  0.00    -0.354 N 
ATOM     53  N   UNL A   1      42.071  29.401  30.314  1.00  0.00    -0.248 NA
ATOM     54  C   UNL A   1      40.309  30.931  30.433  1.00  0.00     0.031 C 
ATOM     55  C   UNL A   1      46.145  30.138  31.896  1.00  0.00     0.029 A 
ATOM     56  C   UNL A   1      44.862  29.935  31.416  1.00  0.00     0.049 A 
ATOM     57  H   UNL A   1      44.042  28.224  30.490  1.00  0.00     0.167 HD
ATOM     58  C   UNL A   1      42.517  30.564  30.927  1.00  0.00     0.074 A 
ATOM     59  C   UNL A   1      41.399  31.484  30.946  1.00  0.00     0.031 C 
ATOM     60  C   UNL A   1      43.745  30.844  31.428  1.00  0.00     0.037 A 
BRANCH  47  61
ATOM     61  C   UNL A   1      47.771  26.189  30.912  1.00  0.00     0.057 A 
ATOM     62  C   UNL A   1      48.114  25.668  32.166  1.00  0.00     0.134 A 
ATOM     63  C   UNL A   1      48.753  26.171  29.915  1.00  0.00     0.134 A 
ATOM     64  F   UNL A   1      47.222  25.665  33.169  1.00  0.00    -0.206 F 
ATOM     65  C   UNL A   1      49.392  25.169  32.425  1.00  0.00     0.040 A 
ATOM     66  C   UNL A   1      50.027  25.652  30.153  1.00  0.00     0.040 A 
ATOM     67  F   UNL A   1      48.489  26.648  28.689  1.00  0.00    -0.206 F 
ATOM     68  C   UNL A   1      50.351  25.154  31.414  1.00  0.00     0.006 A 
ENDBRANCH  47  61
BRANCH  48  69
ATOM     69  C   UNL A   1      38.444  29.150  29.067  1.00  0.00     0.057 A 
ATOM     70  C   UNL A   1      37.477  29.091  30.078  1.00  0.00     0.134 A 
ATOM     71  C   UNL A   1      38.044  29.637  27.818  1.00  0.00     0.134 A 
ATOM     72  F   UNL A   1      37.798  28.615  31.290  1.00  0.00    -0.206 F 
ATOM     73  C   UNL A   1      36.158  29.483  29.851  1.00  0.00     0.040 A 
ATOM     74  C   UNL A   1      36.733  30.054  27.583  1.00  0.00     0.040 A 
ATOM     75  F   UNL A   1      38.926  29.725  26.811  1.00  0.00    -0.206 F 
ATOM     76  C   UNL A   1      35.784  29.971  28.600  1.00  0.00     0.006 A 
ENDBRANCH  48  69
BRANCH  60  77
ATOM     77  C   UNL A   1      43.950  32.211  32.010  1.00  0.00     0.057 A 
ATOM     78  C   UNL A   1      43.734  32.476  33.368  1.00  0.00     0.134 A 
ATOM     79  C   UNL A   1      44.388  33.271  31.206  1.00  0.00     0.134 A 
ATOM     80  F   UNL A   1      43.300  31.508  34.189  1.00  0.00    -0.206 F 
ATOM     81  C   UNL A   1      43.920  33.754  33.900  1.00  0.00     0.040 A 
ATOM     82  C   UNL A   1      44.601  34.545  31.730  1.00  0.00     0.040 A 
ATOM     83  F   UNL A   1      44.620  33.082  29.897  1.00  0.00    -0.206 F 
ATOM     84  C   UNL A   1      44.361  34.792  33.081  1.00  0.00     0.006 A 
ENDBRANCH  60  77
ENDBRANCH  34  35
ENDBRANCH  26  29
ENDBRANCH  24  25
ENDBRANCH  23  24
ENDBRANCH   1  23
TORSDOF 13
ENDMDL
MODEL 3
REMARK VINA RESULT:      -9.4      4.949     11.168
REMARK SMILES O=C(Cc1ccccc1Nc1c(Cl)cccc1Cl)NCCCNC(=O)c1ccc(-c2c3nc(c(-c4c(F)cccc4F)c4ccc([nH]4)c(-c4c(F)cccc4F)c4nc(c(-c5c(F)cccc5F)c5ccc2[nH]5)C=C4)C=C3)cc1
REMARK SMILES IDX 20 1 19 2 1 3 2 4 3 6 4 7 5 8 9 9 6 10 8 11 7 12 10 13 11 15
REMARK SMILES IDX 12 16 17 17 13 18 14 19 16 20 18 21 15 22 21 23 22 24 23 25
REMARK SMILES IDX 24 26 25 28 26 29 27 30 79 31 28 32 78 33 29 34 30 35 31 36
REMARK SMILES IDX 72 37 32 38 77 39 71 40 73 41 33 42 76 43 70 44 69 45 34 47
REMARK SMILES IDX 60 48 43 49 59 50 44 51 47 52 58 53 74 54 45 55 46 56 57 58
REMARK SMILES IDX 75 59 48 60 35 61 36 62 41 63 37 64 38 65 40 66 42 67 39 68
REMARK SMILES IDX 61 69 62 70 67 71 63 72 64 73 66 74 68 75 65 76 49 77 50 78
REMARK SMILES IDX 55 79 51 80 52 81 54 82 56 83 53 84
REMARK H PARENT 19 5 10 14 23 27 73 46 47 57
REMARK Flexibility Score: inf
ROOT
ATOM      1  C   UNL A   1      44.900  21.024  23.881  1.00  0.00     0.117 C 
ENDROOT
BRANCH   1   2
ATOM      2  N   UNL A   1      45.772  21.919  24.614  1.00  0.00    -0.356 N 
ATOM      3  O   UNL A   1      44.646  23.868  24.138  1.00  0.00    -0.275 OA
ATOM      4  C   UNL A   1      45.557  23.278  24.712  1.00  0.00     0.224 C 
ATOM      5  H   UNL A   1      46.558  21.537  25.068  1.00  0.00     0.163 HD
BRANCH   4   6
ATOM      6  C   UNL A   1      46.573  24.016  25.573  1.00  0.00     0.137 C 
BRANCH   6   7
ATOM      7  C   UNL A   1      47.064  25.287  24.912  1.00  0.00    -0.015 A 
ATOM      8  C   UNL A   1      48.158  25.199  24.027  1.00  0.00     0.006 A 
ATOM      9  C   UNL A   1      46.502  26.547  25.212  1.00  0.00     0.042 A 
ATOM     10  C   UNL A   1      48.710  26.342  23.459  1.00  0.00     0.000 A 
ATOM     11  C   UNL A   1      47.078  27.683  24.621  1.00  0.00     0.026 A 
ATOM     12  C   UNL A   1      48.174  27.586  23.760  1.00  0.00     0.002 A 
BRANCH   9  13
ATOM     13  N   UNL A   1      45.363  26.650  26.040  1.00  0.00    -0.353 N 
ATOM     14  H   UNL A   1      45.147  25.836  26.550  1.00  0.00     0.167 HD
BRANCH  13  15
ATOM     15  C   UNL A   1      44.482  27.740  26.253  1.00  0.00     0.076 A 
ATOM     16  C   UNL A   1      43.158  27.656  25.769  1.00  0.00     0.066 A 
ATOM     17  C   UNL A   1      44.820  28.890  26.997  1.00  0.00     0.066 A 
ATOM     18  Cl  UNL A   1      42.649  26.299  24.819  1.00  0.00    -0.082 Cl
ATOM     19  C   UNL A   1      42.210  28.648  26.042  1.00  0.00     0.023 A 
ATOM     20  C   UNL A   1      43.865  29.879  27.277  1.00  0.00     0.023 A 
ATOM     21  Cl  UNL A   1      46.440  29.218  27.520  1.00  0.00    -0.082 Cl
ATOM     22  C   UNL A   1      42.560  29.755  26.808  1.00  0.00     0.003 A 
ENDBRANCH  13  15
ENDBRANCH   9  13
ENDBRANCH   6   7
ENDBRANCH   4   6
ENDBRANCH   1   2
BRANCH   1  23
ATOM     23  C   UNL A   1      45.031  19.574  24.335  1.00  0.00     0.042 C 
BRANCH  23  24
ATOM     24  C   UNL A   1      44.319  19.236  25.644  1.00  0.00     0.118 C 
BRANCH  24  25
ATOM     25  N   UNL A   1      42.898  18.960  25.486  1.00  0.00    -0.352 N 
ATOM     26  C   UNL A   1      41.801  19.688  25.875  1.00  0.00     0.251 C 
ATOM     27  H   UNL A   1      42.691  18.114  25.027  1.00  0.00     0.163 HD
ATOM     28  O   UNL A   1      40.678  19.208  25.720  1.00  0.00    -0.269 OA
BRANCH  26  29
ATOM     29  C   UNL A   1      41.938  21.021  26.506  1.00  0.00     0.039 A 
ATOM     30  C   UNL A   1      41.966  21.093  27.904  1.00  0.00     0.014 A 
ATOM     31  C   UNL A   1      42.008  22.196  25.754  1.00  0.00     0.014 A 
ATOM     32  C   UNL A   1      42.140  22.326  28.539  1.00  0.00     0.010 A 
ATOM     33  C   UNL A   1      42.245  23.419  26.387  1.00  0.00     0.010 A 
ATOM     34  C   UNL A   1      42.323  23.496  27.786  1.00  0.00    -0.014 A 
BRANCH  34  35
ATOM     35  C   UNL A   1      42.635  24.790  28.449  1.00  0.00     0.031 A 
ATOM     36  C   UNL A   1      41.581  25.850  28.610  1.00  0.00     0.074 A 
ATOM     37  C   UNL A   1      43.895  25.034  28.859  1.00  0.00     0.049 A 
ATOM     38  N   UNL A   1      41.688  27.049  29.126  1.00  0.00    -0.248 NA
ATOM     39  C   UNL A   1      40.237  25.531  28.108  1.00  0.00     0.031 C 
ATOM     40  C   UNL A   1      45.024  24.113  28.717  1.00  0.00     0.029 A 
ATOM     41  N   UNL A   1      44.441  26.135  29.473  1.00  0.00    -0.354 N 
ATOM     42  C   UNL A   1      40.434  27.631  29.000  1.00  0.00     0.074 A 
ATOM     43  C   UNL A   1      39.592  26.669  28.320  1.00  0.00     0.031 C 
ATOM     44  C   UNL A   1      46.120  24.677  29.249  1.00  0.00     0.029 A 
ATOM     45  C   UNL A   1      45.783  26.009  29.740  1.00  0.00     0.049 A 
ATOM     46  H   UNL A   1      43.918  26.938  29.701  1.00  0.00     0.167 HD
ATOM     47  C   UNL A   1      40.015  28.847  29.428  1.00  0.00     0.037 A 
ATOM     48  C   UNL A   1      46.646  26.869  30.310  1.00  0.00     0.037 A 
ATOM     49  C   UNL A   1      40.843  29.798  30.125  1.00  0.00     0.049 A 
ATOM     50  C   UNL A   1      46.154  28.208  30.784  1.00  0.00     0.074 A 
ATOM     51  C   UNL A   1      40.490  31.030  30.649  1.00  0.00     0.029 A 
ATOM     52  N   UNL A   1      42.193  29.624  30.394  1.00  0.00    -0.354 N 
ATOM     53  N   UNL A   1      44.948  28.716  30.717  1.00  0.00    -0.248 NA
ATOM     54  C   UNL A   1      47.144  29.089  31.420  1.00  0.00     0.031 C 
ATOM     55  C   UNL A   1      41.633  31.618  31.202  1.00  0.00     0.029 A 
ATOM     56  C   UNL A   1      42.689  30.734  31.060  1.00  0.00     0.049 A 
ATOM     57  H   UNL A   1      42.720  28.831  30.147  1.00  0.00     0.167 HD
ATOM     58  C   UNL A   1      45.028  29.963  31.324  1.00  0.00     0.074 A 
ATOM     59  C   UNL A   1      46.397  30.127  31.766  1.00  0.00     0.031 C 
ATOM     60  C   UNL A   1      44.053  30.887  31.499  1.00  0.00     0.037 A 
BRANCH  47  61
ATOM     61  C   UNL A   1      38.585  29.220  29.160  1.00  0.00     0.057 A 
ATOM     62  C   UNL A   1      38.153  29.610  27.886  1.00  0.00     0.134 A 
ATOM     63  C   UNL A   1      37.623  29.149  30.174  1.00  0.00     0.134 A 
ATOM     64  F   UNL A   1      39.027  29.707  26.872  1.00  0.00    -0.206 F 
ATOM     65  C   UNL A   1      36.820  29.938  27.635  1.00  0.00     0.040 A 
ATOM     66  C   UNL A   1      36.282  29.451  29.931  1.00  0.00     0.040 A 
ATOM     67  F   UNL A   1      37.968  28.775  31.416  1.00  0.00    -0.206 F 
ATOM     68  C   UNL A   1      35.878  29.852  28.659  1.00  0.00     0.006 A 
ENDBRANCH  47  61
BRANCH  48  69
ATOM     69  C   UNL A   1      48.066  26.480  30.494  1.00  0.00     0.057 A 
ATOM     70  C   UNL A   1      48.509  25.919  31.698  1.00  0.00     0.134 A 
ATOM     71  C   UNL A   1      49.011  26.662  29.479  1.00  0.00     0.134 A 
ATOM     72  F   UNL A   1      47.652  25.740  32.713  1.00  0.00    -0.206 F 
ATOM     73  C   UNL A   1      49.845  25.570  31.892  1.00  0.00     0.040 A 
ATOM     74  C   UNL A   1      50.347  26.295  29.651  1.00  0.00     0.040 A 
ATOM     75  F   UNL A   1      48.647  27.188  28.300  1.00  0.00    -0.206 F 
ATOM     76  C   UNL A   1      50.768  25.753  30.864  1.00  0.00     0.006 A 
ENDBRANCH  48  69
BRANCH  60  77
ATOM     77  C   UNL A   1      44.425  32.145  32.226  1.00  0.00     0.057 A 
ATOM     78  C   UNL A   1      44.326  32.250  33.620  1.00  0.00     0.134 A 
ATOM     79  C   UNL A   1      44.906  33.258  31.527  1.00  0.00     0.134 A 
ATOM     80  F   UNL A   1      43.859  31.224  34.347  1.00  0.00    -0.206 F 
ATOM     81  C   UNL A   1      44.668  33.427  34.288  1.00  0.00     0.040 A 
ATOM     82  C   UNL A   1      45.274  34.432  32.185  1.00  0.00     0.040 A 
ATOM     83  F   UNL A   1      45.032  33.222  30.191  1.00  0.00    -0.206 F 
ATOM     84  C   UNL A   1      45.149  34.521  33.570  1.00  0.00     0.006 A 
ENDBRANCH  60  77
ENDBRANCH  34  35
ENDBRANCH  26  29
ENDBRANCH  24  25
ENDBRANCH  23  24
ENDBRANCH   1  23
TORSDOF 13
ENDMDL
