MODEL 1
REMARK VINA RESULT:     -10.8      0.000      0.000
REMARK SMILES CO[C@H]1C[C@@H](C(=O)NCCCNC(=O)c2ccc(-c3c4nc(c(-c5c(F)cccc5F)c5ccc([nH]5)c(-c5c(F)cccc5F)c5nc(c(-c6c(F)cccc6F)c6ccc3[nH]6)C=C5)C=C4)cc2)N(C(=O)CSc2cccs2)C1
REMARK SMILES IDX 9 1 8 2 6 3 7 4 5 6 3 7 4 8 79 9 69 10 2 11 1 12 70 13 71 14
REMARK SMILES IDX 72 15 73 16 74 17 75 18 78 19 76 20 77 21 10 22 11 23 12 24
REMARK SMILES IDX 13 25 14 27 15 28 16 29 68 30 17 31 67 32 18 33 19 34 20 35
REMARK SMILES IDX 61 36 21 37 66 38 60 39 62 40 22 41 65 42 59 43 58 44 23 46
REMARK SMILES IDX 49 47 32 48 48 49 33 50 36 51 47 52 63 53 34 54 35 55 46 57
REMARK SMILES IDX 64 58 37 59 24 60 25 61 30 62 26 63 27 64 29 65 31 66 28 67
REMARK SMILES IDX 50 68 51 69 56 70 52 71 53 72 55 73 57 74 54 75 38 76 39 77
REMARK SMILES IDX 44 78 40 79 41 80 43 81 45 82 42 83
REMARK H PARENT 8 5 12 26 62 45 36 56
REMARK Flexibility Score: inf
ROOT
ATOM      1  C   UNL A   1      36.276  20.561  24.761  1.00  0.00     0.117 C 
ENDROOT
BRANCH   1   2
ATOM      2  N   UNL A   1      35.600  20.863  26.011  1.00  0.00    -0.354 N 
ATOM      3  C   UNL A   1      34.748  21.854  26.383  1.00  0.00     0.242 C 
ATOM      4  O   UNL A   1      34.323  21.803  27.543  1.00  0.00    -0.273 OA
ATOM      5  H   UNL A   1      35.799  20.223  26.733  1.00  0.00     0.163 HD
BRANCH   3   6
ATOM      6  C   UNL A   1      34.149  22.876  25.402  1.00  0.00     0.177 C 
ATOM      7  C   UNL A   1      33.044  25.031  25.434  1.00  0.00     0.139 C 
ATOM      8  C   UNL A   1      34.092  24.205  26.164  1.00  0.00     0.069 C 
ATOM      9  C   UNL A   1      32.047  23.970  24.961  1.00  0.00     0.152 C 
ATOM     10  N   UNL A   1      32.801  22.724  24.852  1.00  0.00    -0.327 N 
BRANCH   7  11
ATOM     11  O   UNL A   1      32.387  25.978  26.273  1.00  0.00    -0.380 OA
ATOM     12  C   UNL A   1      30.991  26.093  26.033  1.00  0.00     0.195 C 
ENDBRANCH   7  11
BRANCH  10  13
ATOM     13  C   UNL A   1      32.336  21.723  24.023  1.00  0.00     0.233 C 
ATOM     14  O   UNL A   1      31.959  21.979  22.875  1.00  0.00    -0.274 OA
BRANCH  13  15
ATOM     15  C   UNL A   1      32.248  20.302  24.557  1.00  0.00     0.175 C 
BRANCH  15  16
ATOM     16  S   UNL A   1      32.389  19.093  23.219  1.00  0.00    -0.105 SA
BRANCH  16  17
ATOM     17  C   UNL A   1      33.207  17.801  24.080  1.00  0.00     0.060 A 
ATOM     18  C   UNL A   1      34.416  17.248  23.723  1.00  0.00     0.027 A 
ATOM     19  S   UNL A   1      32.562  17.076  25.488  1.00  0.00    -0.137 S 
ATOM     20  C   UNL A   1      34.799  16.189  24.596  1.00  0.00     0.013 A 
ATOM     21  C   UNL A   1      33.874  15.982  25.595  1.00  0.00     0.066 A 
ENDBRANCH  16  17
ENDBRANCH  15  16
ENDBRANCH  13  15
ENDBRANCH  10  13
ENDBRANCH   3   6
ENDBRANCH   1   2
BRANCH   1  22
ATOM     22  C   UNL A   1      37.457  19.612  24.963  1.00  0.00     0.042 C 
BRANCH  22  23
ATOM     23  C   UNL A   1      38.721  20.277  25.509  1.00  0.00     0.118 C 
BRANCH  23  24
ATOM     24  N   UNL A   1      39.801  19.327  25.707  1.00  0.00    -0.352 N 
ATOM     25  C   UNL A   1      41.107  19.547  26.072  1.00  0.00     0.251 C 
ATOM     26  H   UNL A   1      39.561  18.383  25.557  1.00  0.00     0.163 HD
ATOM     27  O   UNL A   1      41.921  18.633  25.972  1.00  0.00    -0.269 OA
BRANCH  25  28
ATOM     28  C   UNL A   1      41.552  20.867  26.577  1.00  0.00     0.039 A 
ATOM     29  C   UNL A   1      41.441  21.130  27.946  1.00  0.00     0.014 A 
ATOM     30  C   UNL A   1      42.001  21.873  25.716  1.00  0.00     0.014 A 
ATOM     31  C   UNL A   1      41.808  22.380  28.454  1.00  0.00     0.010 A 
ATOM     32  C   UNL A   1      42.427  23.100  26.230  1.00  0.00     0.010 A 
ATOM     33  C   UNL A   1      42.318  23.372  27.602  1.00  0.00    -0.014 A 
BRANCH  33  34
ATOM     34  C   UNL A   1      42.710  24.706  28.133  1.00  0.00     0.031 A 
ATOM     35  C   UNL A   1      41.669  25.771  28.359  1.00  0.00     0.074 A 
ATOM     36  C   UNL A   1      44.005  24.976  28.383  1.00  0.00     0.049 A 
ATOM     37  N   UNL A   1      41.822  27.002  28.779  1.00  0.00    -0.248 NA
ATOM     38  C   UNL A   1      40.276  25.412  28.050  1.00  0.00     0.031 C 
ATOM     39  C   UNL A   1      45.119  24.050  28.173  1.00  0.00     0.029 A 
ATOM     40  N   UNL A   1      44.605  26.114  28.866  1.00  0.00    -0.354 N 
ATOM     41  C   UNL A   1      40.554  27.568  28.767  1.00  0.00     0.074 A 
ATOM     42  C   UNL A   1      39.648  26.561  28.257  1.00  0.00     0.031 C 
ATOM     43  C   UNL A   1      46.263  24.648  28.544  1.00  0.00     0.029 A 
ATOM     44  C   UNL A   1      45.968  26.007  28.991  1.00  0.00     0.049 A 
ATOM     45  H   UNL A   1      44.104  26.928  29.100  1.00  0.00     0.167 HD
ATOM     46  C   UNL A   1      40.171  28.805  29.163  1.00  0.00     0.037 A 
ATOM     47  C   UNL A   1      46.880  26.903  29.416  1.00  0.00     0.037 A 
ATOM     48  C   UNL A   1      41.061  29.799  29.705  1.00  0.00     0.049 A 
ATOM     49  C   UNL A   1      46.430  28.264  29.864  1.00  0.00     0.074 A 
ATOM     50  C   UNL A   1      40.755  31.057  30.194  1.00  0.00     0.029 A 
ATOM     51  N   UNL A   1      42.433  29.644  29.831  1.00  0.00    -0.354 N 
ATOM     52  N   UNL A   1      45.219  28.763  29.903  1.00  0.00    -0.248 NA
ATOM     53  C   UNL A   1      47.475  29.187  30.332  1.00  0.00     0.031 C 
ATOM     54  C   UNL A   1      41.946  31.677  30.587  1.00  0.00     0.029 A 
ATOM     55  C   UNL A   1      42.989  30.791  30.376  1.00  0.00     0.049 A 
ATOM     56  H   UNL A   1      42.937  28.840  29.572  1.00  0.00     0.167 HD
ATOM     57  C   UNL A   1      45.351  30.045  30.419  1.00  0.00     0.074 A 
ATOM     58  C   UNL A   1      46.759  30.244  30.691  1.00  0.00     0.031 C 
ATOM     59  C   UNL A   1      44.391  30.974  30.646  1.00  0.00     0.037 A 
BRANCH  46  60
ATOM     60  C   UNL A   1      38.718  29.156  29.030  1.00  0.00     0.057 A 
ATOM     61  C   UNL A   1      37.837  29.071  30.117  1.00  0.00     0.134 A 
ATOM     62  C   UNL A   1      38.201  29.614  27.813  1.00  0.00     0.134 A 
ATOM     63  F   UNL A   1      38.267  28.628  31.308  1.00  0.00    -0.206 F 
ATOM     64  C   UNL A   1      36.488  29.407  29.990  1.00  0.00     0.040 A 
ATOM     65  C   UNL A   1      36.858  29.976  27.680  1.00  0.00     0.040 A 
ATOM     66  F   UNL A   1      38.991  29.725  26.734  1.00  0.00    -0.206 F 
ATOM     67  C   UNL A   1      35.997  29.867  28.770  1.00  0.00     0.006 A 
ENDBRANCH  46  60
BRANCH  47  68
ATOM     68  C   UNL A   1      48.315  26.528  29.467  1.00  0.00     0.057 A 
ATOM     69  C   UNL A   1      49.179  26.843  28.413  1.00  0.00     0.134 A 
ATOM     70  C   UNL A   1      48.854  25.849  30.566  1.00  0.00     0.134 A 
ATOM     71  F   UNL A   1      48.714  27.475  27.326  1.00  0.00    -0.206 F 
ATOM     72  C   UNL A   1      50.527  26.484  28.442  1.00  0.00     0.040 A 
ATOM     73  C   UNL A   1      50.205  25.502  30.618  1.00  0.00     0.040 A 
ATOM     74  F   UNL A   1      48.077  25.523  31.609  1.00  0.00    -0.206 F 
ATOM     75  C   UNL A   1      51.045  25.816  29.550  1.00  0.00     0.006 A 
ENDBRANCH  47  68
BRANCH  59  76
ATOM     76  C   UNL A   1      44.828  32.279  31.242  1.00  0.00     0.057 A 
ATOM     77  C   UNL A   1      44.904  32.465  32.628  1.00  0.00     0.134 A 
ATOM     78  C   UNL A   1      45.209  33.347  30.421  1.00  0.00     0.134 A 
ATOM     79  F   UNL A   1      44.540  31.484  33.467  1.00  0.00    -0.206 F 
ATOM     80  C   UNL A   1      45.328  33.677  33.177  1.00  0.00     0.040 A 
ATOM     81  C   UNL A   1      45.655  34.555  30.958  1.00  0.00     0.040 A 
ATOM     82  F   UNL A   1      45.165  33.229  29.086  1.00  0.00    -0.206 F 
ATOM     83  C   UNL A   1      45.711  34.724  32.341  1.00  0.00     0.006 A 
ENDBRANCH  59  76
ENDBRANCH  33  34
ENDBRANCH  25  28
ENDBRANCH  23  24
ENDBRANCH  22  23
ENDBRANCH   1  22
TORSDOF 15
ENDMDL
MODEL 2
REMARK VINA RESULT:     -10.8      0.983      6.469
REMARK SMILES CO[C@H]1C[C@@H](C(=O)NCCCNC(=O)c2ccc(-c3c4nc(c(-c5c(F)cccc5F)c5ccc([nH]5)c(-c5c(F)cccc5F)c5nc(c(-c6c(F)cccc6F)c6ccc3[nH]6)C=C5)C=C4)cc2)N(C(=O)CSc2cccs2)C1
REMARK SMILES IDX 9 1 8 2 6 3 7 4 5 6 3 7 4 8 79 9 69 10 2 11 1 12 70 13 71 14
REMARK SMILES IDX 72 15 73 16 74 17 75 18 78 19 76 20 77 21 10 22 11 23 12 24
REMARK SMILES IDX 13 25 14 27 15 28 16 29 68 30 17 31 67 32 18 33 19 34 20 35
REMARK SMILES IDX 61 36 21 37 66 38 60 39 62 40 22 41 65 42 59 43 58 44 23 46
REMARK SMILES IDX 49 47 32 48 48 49 33 50 36 51 47 52 63 53 34 54 35 55 46 57
REMARK SMILES IDX 64 58 37 59 24 60 25 61 30 62 26 63 27 64 29 65 31 66 28 67
REMARK SMILES IDX 50 68 51 69 56 70 52 71 53 72 55 73 57 74 54 75 38 76 39 77
REMARK SMILES IDX 44 78 40 79 41 80 43 81 45 82 42 83
REMARK H PARENT 8 5 12 26 62 45 36 56
REMARK Flexibility Score: inf
ROOT
ATOM      1  C   UNL A   1      36.743  20.079  24.861  1.00  0.00     0.117 C 
ENDROOT
BRANCH   1   2
ATOM      2  N   UNL A   1      36.985  21.491  25.104  1.00  0.00    -0.354 N 
ATOM      3  C   UNL A   1      36.317  22.616  24.740  1.00  0.00     0.242 C 
ATOM      4  O   UNL A   1      36.788  23.686  25.144  1.00  0.00    -0.273 OA
ATOM      5  H   UNL A   1      37.795  21.667  25.635  1.00  0.00     0.163 HD
BRANCH   3   6
ATOM      6  C   UNL A   1      34.940  22.607  24.056  1.00  0.00     0.177 C 
ATOM      7  C   UNL A   1      33.288  24.169  23.219  1.00  0.00     0.139 C 
ATOM      8  C   UNL A   1      34.787  23.985  23.402  1.00  0.00     0.069 C 
ATOM      9  C   UNL A   1      32.708  23.435  24.431  1.00  0.00     0.152 C 
ATOM     10  N   UNL A   1      33.699  22.434  24.813  1.00  0.00    -0.327 N 
BRANCH   7  11
ATOM     11  O   UNL A   1      32.882  25.534  23.233  1.00  0.00    -0.380 OA
ATOM     12  C   UNL A   1      33.324  26.281  22.107  1.00  0.00     0.195 C 
ENDBRANCH   7  11
BRANCH  10  13
ATOM     13  C   UNL A   1      33.298  21.327  25.534  1.00  0.00     0.233 C 
ATOM     14  O   UNL A   1      33.923  20.965  26.536  1.00  0.00    -0.274 OA
BRANCH  13  15
ATOM     15  C   UNL A   1      32.098  20.527  25.051  1.00  0.00     0.175 C 
BRANCH  15  16
ATOM     16  S   UNL A   1      32.483  19.630  23.528  1.00  0.00    -0.105 SA
BRANCH  16  17
ATOM     17  C   UNL A   1      33.197  18.183  24.216  1.00  0.00     0.060 A 
ATOM     18  C   UNL A   1      34.305  17.531  23.723  1.00  0.00     0.027 A 
ATOM     19  S   UNL A   1      32.567  17.412  25.606  1.00  0.00    -0.137 S 
ATOM     20  C   UNL A   1      34.617  16.361  24.475  1.00  0.00     0.013 A 
ATOM     21  C   UNL A   1      33.743  16.172  25.522  1.00  0.00     0.066 A 
ENDBRANCH  16  17
ENDBRANCH  15  16
ENDBRANCH  13  15
ENDBRANCH  10  13
ENDBRANCH   3   6
ENDBRANCH   1   2
BRANCH   1  22
ATOM     22  C   UNL A   1      38.019  19.247  24.994  1.00  0.00     0.042 C 
BRANCH  22  23
ATOM     23  C   UNL A   1      39.149  19.936  25.758  1.00  0.00     0.118 C 
BRANCH  23  24
ATOM     24  N   UNL A   1      40.356  19.130  25.801  1.00  0.00    -0.352 N 
ATOM     25  C   UNL A   1      41.656  19.507  26.033  1.00  0.00     0.251 C 
ATOM     26  H   UNL A   1      40.223  18.167  25.640  1.00  0.00     0.163 HD
ATOM     27  O   UNL A   1      42.563  18.711  25.809  1.00  0.00    -0.269 OA
BRANCH  25  28
ATOM     28  C   UNL A   1      41.984  20.861  26.541  1.00  0.00     0.039 A 
ATOM     29  C   UNL A   1      41.874  21.103  27.914  1.00  0.00     0.014 A 
ATOM     30  C   UNL A   1      42.321  21.910  25.680  1.00  0.00     0.014 A 
ATOM     31  C   UNL A   1      42.131  22.378  28.426  1.00  0.00     0.010 A 
ATOM     32  C   UNL A   1      42.640  23.168  26.197  1.00  0.00     0.010 A 
ATOM     33  C   UNL A   1      42.531  23.420  27.573  1.00  0.00    -0.014 A 
BRANCH  33  34
ATOM     34  C   UNL A   1      42.805  24.781  28.108  1.00  0.00     0.031 A 
ATOM     35  C   UNL A   1      44.204  25.175  28.505  1.00  0.00     0.074 A 
ATOM     36  C   UNL A   1      41.795  25.656  28.271  1.00  0.00     0.049 A 
ATOM     37  N   UNL A   1      44.632  26.299  29.022  1.00  0.00    -0.248 NA
ATOM     38  C   UNL A   1      45.256  24.164  28.314  1.00  0.00     0.031 C 
ATOM     39  C   UNL A   1      40.388  25.392  27.965  1.00  0.00     0.029 A 
ATOM     40  N   UNL A   1      41.796  26.946  28.741  1.00  0.00    -0.354 N 
ATOM     41  C   UNL A   1      45.993  26.125  29.236  1.00  0.00     0.074 A 
ATOM     42  C   UNL A   1      46.313  24.772  28.833  1.00  0.00     0.031 C 
ATOM     43  C   UNL A   1      39.667  26.492  28.234  1.00  0.00     0.029 A 
ATOM     44  C   UNL A   1      40.553  27.528  28.757  1.00  0.00     0.049 A 
ATOM     45  H   UNL A   1      42.612  27.411  29.036  1.00  0.00     0.167 HD
ATOM     46  C   UNL A   1      46.901  27.014  29.706  1.00  0.00     0.037 A 
ATOM     47  C   UNL A   1      40.166  28.757  29.151  1.00  0.00     0.037 A 
ATOM     48  C   UNL A   1      46.596  28.372  30.075  1.00  0.00     0.049 A 
ATOM     49  C   UNL A   1      41.194  29.731  29.656  1.00  0.00     0.074 A 
ATOM     50  C   UNL A   1      47.460  29.366  30.499  1.00  0.00     0.029 A 
ATOM     51  N   UNL A   1      45.325  28.926  30.061  1.00  0.00    -0.354 N 
ATOM     52  N   UNL A   1      42.487  29.570  29.795  1.00  0.00    -0.248 NA
ATOM     53  C   UNL A   1      40.707  31.060  30.053  1.00  0.00     0.031 C 
ATOM     54  C   UNL A   1      46.708  30.514  30.773  1.00  0.00     0.029 A 
ATOM     55  C   UNL A   1      45.381  30.244  30.484  1.00  0.00     0.049 A 
ATOM     56  H   UNL A   1      44.505  28.454  29.791  1.00  0.00     0.167 HD
ATOM     57  C   UNL A   1      42.972  30.780  30.273  1.00  0.00     0.074 A 
ATOM     58  C   UNL A   1      41.836  31.671  30.388  1.00  0.00     0.031 C 
ATOM     59  C   UNL A   1      44.244  31.122  30.589  1.00  0.00     0.037 A 
BRANCH  46  60
ATOM     60  C   UNL A   1      48.320  26.546  29.844  1.00  0.00     0.057 A 
ATOM     61  C   UNL A   1      49.264  26.750  28.829  1.00  0.00     0.134 A 
ATOM     62  C   UNL A   1      48.756  25.917  31.016  1.00  0.00     0.134 A 
ATOM     63  F   UNL A   1      48.908  27.337  27.676  1.00  0.00    -0.206 F 
ATOM     64  C   UNL A   1      50.586  26.321  28.966  1.00  0.00     0.040 A 
ATOM     65  C   UNL A   1      50.081  25.505  31.174  1.00  0.00     0.040 A 
ATOM     66  F   UNL A   1      47.905  25.697  32.030  1.00  0.00    -0.206 F 
ATOM     67  C   UNL A   1      50.999  25.702  30.144  1.00  0.00     0.006 A 
ENDBRANCH  46  60
BRANCH  47  68
ATOM     68  C   UNL A   1      38.739  29.148  29.056  1.00  0.00     0.057 A 
ATOM     69  C   UNL A   1      37.900  29.092  30.175  1.00  0.00     0.134 A 
ATOM     70  C   UNL A   1      38.180  29.586  27.850  1.00  0.00     0.134 A 
ATOM     71  F   UNL A   1      38.376  28.663  31.352  1.00  0.00    -0.206 F 
ATOM     72  C   UNL A   1      36.553  29.444  30.096  1.00  0.00     0.040 A 
ATOM     73  C   UNL A   1      36.839  29.961  27.761  1.00  0.00     0.040 A 
ATOM     74  F   UNL A   1      38.933  29.664  26.743  1.00  0.00    -0.206 F 
ATOM     75  C   UNL A   1      36.019  29.885  28.886  1.00  0.00     0.006 A 
ENDBRANCH  47  68
BRANCH  59  76
ATOM     76  C   UNL A   1      44.480  32.525  31.062  1.00  0.00     0.057 A 
ATOM     77  C   UNL A   1      44.732  33.571  30.166  1.00  0.00     0.134 A 
ATOM     78  C   UNL A   1      44.418  32.838  32.426  1.00  0.00     0.134 A 
ATOM     79  F   UNL A   1      44.816  33.332  28.849  1.00  0.00    -0.206 F 
ATOM     80  C   UNL A   1      44.933  34.879  30.612  1.00  0.00     0.040 A 
ATOM     81  C   UNL A   1      44.595  34.145  32.882  1.00  0.00     0.040 A 
ATOM     82  F   UNL A   1      44.172  31.882  33.334  1.00  0.00    -0.206 F 
ATOM     83  C   UNL A   1      44.859  35.169  31.973  1.00  0.00     0.006 A 
ENDBRANCH  59  76
ENDBRANCH  33  34
ENDBRANCH  25  28
ENDBRANCH  23  24
ENDBRANCH  22  23
ENDBRANCH   1  22
TORSDOF 15
ENDMDL
MODEL 3
REMARK VINA RESULT:     -10.8      5.108     10.010
REMARK SMILES CO[C@H]1C[C@@H](C(=O)NCCCNC(=O)c2ccc(-c3c4nc(c(-c5c(F)cccc5F)c5ccc([nH]5)c(-c5c(F)cccc5F)c5nc(c(-c6c(F)cccc6F)c6ccc3[nH]6)C=C5)C=C4)cc2)N(C(=O)CSc2cccs2)C1
REMARK SMILES IDX 9 1 8 2 6 3 7 4 5 6 3 7 4 8 79 9 69 10 2 11 1 12 70 13 71 14
REMARK SMILES IDX 72 15 73 16 74 17 75 18 78 19 76 20 77 21 10 22 11 23 12 24
REMARK SMILES IDX 13 25 14 27 15 28 16 29 68 30 17 31 67 32 18 33 19 34 20 35
REMARK SMILES IDX 61 36 21 37 66 38 60 39 62 40 22 41 65 42 59 43 58 44 23 46
REMARK SMILES IDX 49 47 32 48 48 49 33 50 36 51 47 52 63 53 34 54 35 55 46 57
REMARK SMILES IDX 64 58 37 59 24 60 25 61 30 62 26 63 27 64 29 65 31 66 28 67
REMARK SMILES IDX 50 68 51 69 56 70 52 71 53 72 55 73 57 74 54 75 38 76 39 77
REMARK SMILES IDX 44 78 40 79 41 80 43 81 45 82 42 83
REMARK H PARENT 8 5 12 26 62 45 36 56
REMARK Flexibility Score: inf
ROOT
ATOM      1  C   UNL A   1      31.034  30.879  25.375  1.00  0.00     0.117 C 
ENDROOT
BRANCH   1   2
ATOM      2  N   UNL A   1      32.258  30.097  25.380  1.00  0.00    -0.354 N 
ATOM      3  C   UNL A   1      32.498  28.761  25.436  1.00  0.00     0.242 C 
ATOM      4  O   UNL A   1      33.685  28.417  25.393  1.00  0.00    -0.273 OA
ATOM      5  H   UNL A   1      33.077  30.643  25.334  1.00  0.00     0.163 HD
BRANCH   3   6
ATOM      6  C   UNL A   1      31.397  27.691  25.344  1.00  0.00     0.177 C 
ATOM      7  C   UNL A   1      30.867  25.509  26.251  1.00  0.00     0.139 C 
ATOM      8  C   UNL A   1      31.547  26.824  26.598  1.00  0.00     0.069 C 
ATOM      9  C   UNL A   1      31.151  25.368  24.753  1.00  0.00     0.152 C 
ATOM     10  N   UNL A   1      31.347  26.724  24.247  1.00  0.00    -0.327 N 
BRANCH   7  11
ATOM     11  O   UNL A   1      31.402  24.393  26.957  1.00  0.00    -0.380 OA
ATOM     12  C   UNL A   1      30.766  23.158  26.655  1.00  0.00     0.195 C 
ENDBRANCH   7  11
BRANCH  10  13
ATOM     13  C   UNL A   1      31.150  26.978  22.905  1.00  0.00     0.233 C 
ATOM     14  O   UNL A   1      31.525  26.172  22.047  1.00  0.00    -0.274 OA
BRANCH  13  15
ATOM     15  C   UNL A   1      30.505  28.291  22.489  1.00  0.00     0.175 C 
BRANCH  15  16
ATOM     16  S   UNL A   1      28.741  28.306  22.890  1.00  0.00    -0.105 SA
BRANCH  16  17
ATOM     17  C   UNL A   1      28.409  30.015  22.675  1.00  0.00     0.060 A 
ATOM     18  C   UNL A   1      27.831  30.838  23.615  1.00  0.00     0.027 A 
ATOM     19  S   UNL A   1      28.777  30.854  21.231  1.00  0.00    -0.137 S 
ATOM     20  C   UNL A   1      27.653  32.166  23.129  1.00  0.00     0.013 A 
ATOM     21  C   UNL A   1      28.115  32.310  21.840  1.00  0.00     0.066 A 
ENDBRANCH  16  17
ENDBRANCH  15  16
ENDBRANCH  13  15
ENDBRANCH  10  13
ENDBRANCH   3   6
ENDBRANCH   1   2
BRANCH   1  22
ATOM     22  C   UNL A   1      31.027  31.938  26.478  1.00  0.00     0.042 C 
BRANCH  22  23
ATOM     23  C   UNL A   1      32.410  32.460  26.866  1.00  0.00     0.118 C 
BRANCH  23  24
ATOM     24  N   UNL A   1      32.367  33.831  27.344  1.00  0.00    -0.352 N 
ATOM     25  C   UNL A   1      33.086  34.433  28.347  1.00  0.00     0.251 C 
ATOM     26  H   UNL A   1      31.726  34.417  26.879  1.00  0.00     0.163 HD
ATOM     27  O   UNL A   1      32.748  35.544  28.746  1.00  0.00    -0.269 OA
BRANCH  25  28
ATOM     28  C   UNL A   1      34.259  33.764  28.960  1.00  0.00     0.039 A 
ATOM     29  C   UNL A   1      34.036  32.699  29.839  1.00  0.00     0.014 A 
ATOM     30  C   UNL A   1      35.563  34.220  28.744  1.00  0.00     0.014 A 
ATOM     31  C   UNL A   1      35.114  32.073  30.471  1.00  0.00     0.010 A 
ATOM     32  C   UNL A   1      36.644  33.554  29.326  1.00  0.00     0.010 A 
ATOM     33  C   UNL A   1      36.430  32.485  30.210  1.00  0.00    -0.014 A 
BRANCH  33  34
ATOM     34  C   UNL A   1      37.584  31.826  30.879  1.00  0.00     0.031 A 
ATOM     35  C   UNL A   1      38.396  30.788  30.149  1.00  0.00     0.074 A 
ATOM     36  C   UNL A   1      37.886  32.131  32.155  1.00  0.00     0.049 A 
ATOM     37  N   UNL A   1      39.410  30.080  30.576  1.00  0.00    -0.248 NA
ATOM     38  C   UNL A   1      38.000  30.491  28.763  1.00  0.00     0.031 C 
ATOM     39  C   UNL A   1      37.160  33.089  32.991  1.00  0.00     0.029 A 
ATOM     40  N   UNL A   1      38.884  31.664  32.975  1.00  0.00    -0.354 N 
ATOM     41  C   UNL A   1      39.761  29.244  29.524  1.00  0.00     0.074 A 
ATOM     42  C   UNL A   1      38.824  29.501  28.451  1.00  0.00     0.031 C 
ATOM     43  C   UNL A   1      37.749  33.153  34.196  1.00  0.00     0.029 A 
ATOM     44  C   UNL A   1      38.874  32.224  34.228  1.00  0.00     0.049 A 
ATOM     45  H   UNL A   1      39.544  30.992  32.690  1.00  0.00     0.167 HD
ATOM     46  C   UNL A   1      40.782  28.357  29.446  1.00  0.00     0.037 A 
ATOM     47  C   UNL A   1      39.679  32.011  35.288  1.00  0.00     0.037 A 
ATOM     48  C   UNL A   1      41.739  28.122  30.495  1.00  0.00     0.049 A 
ATOM     49  C   UNL A   1      40.813  31.033  35.173  1.00  0.00     0.074 A 
ATOM     50  C   UNL A   1      42.846  27.291  30.484  1.00  0.00     0.029 A 
ATOM     51  N   UNL A   1      41.703  28.722  31.745  1.00  0.00    -0.354 N 
ATOM     52  N   UNL A   1      41.168  30.294  34.149  1.00  0.00    -0.248 NA
ATOM     53  C   UNL A   1      41.663  30.862  36.360  1.00  0.00     0.031 C 
ATOM     54  C   UNL A   1      43.463  27.364  31.738  1.00  0.00     0.029 A 
ATOM     55  C   UNL A   1      42.760  28.268  32.517  1.00  0.00     0.049 A 
ATOM     56  H   UNL A   1      41.028  29.375  32.039  1.00  0.00     0.167 HD
ATOM     57  C   UNL A   1      42.292  29.590  34.559  1.00  0.00     0.074 A 
ATOM     58  C   UNL A   1      42.569  29.998  35.921  1.00  0.00     0.031 C 
ATOM     59  C   UNL A   1      43.027  28.686  33.869  1.00  0.00     0.037 A 
BRANCH  46  60
ATOM     60  C   UNL A   1      40.922  27.573  28.174  1.00  0.00     0.057 A 
ATOM     61  C   UNL A   1      40.284  26.338  27.997  1.00  0.00     0.134 A 
ATOM     62  C   UNL A   1      41.673  28.072  27.104  1.00  0.00     0.134 A 
ATOM     63  F   UNL A   1      39.558  25.798  28.988  1.00  0.00    -0.206 F 
ATOM     64  C   UNL A   1      40.410  25.616  26.808  1.00  0.00     0.040 A 
ATOM     65  C   UNL A   1      41.786  27.371  25.901  1.00  0.00     0.040 A 
ATOM     66  F   UNL A   1      42.304  29.252  27.205  1.00  0.00    -0.206 F 
ATOM     67  C   UNL A   1      41.158  26.136  25.754  1.00  0.00     0.006 A 
ENDBRANCH  46  60
BRANCH  47  68
ATOM     68  C   UNL A   1      39.458  32.765  36.546  1.00  0.00     0.057 A 
ATOM     69  C   UNL A   1      38.526  32.329  37.493  1.00  0.00     0.134 A 
ATOM     70  C   UNL A   1      40.170  33.936  36.831  1.00  0.00     0.134 A 
ATOM     71  F   UNL A   1      37.800  31.224  37.266  1.00  0.00    -0.206 F 
ATOM     72  C   UNL A   1      38.298  33.036  38.674  1.00  0.00     0.040 A 
ATOM     73  C   UNL A   1      39.968  34.642  38.017  1.00  0.00     0.040 A 
ATOM     74  F   UNL A   1      41.080  34.403  35.964  1.00  0.00    -0.206 F 
ATOM     75  C   UNL A   1      39.025  34.195  38.941  1.00  0.00     0.006 A 
ENDBRANCH  47  68
BRANCH  59  76
ATOM     76  C   UNL A   1      44.218  28.097  34.564  1.00  0.00     0.057 A 
ATOM     77  C   UNL A   1      45.469  28.727  34.542  1.00  0.00     0.134 A 
ATOM     78  C   UNL A   1      44.103  26.907  35.293  1.00  0.00     0.134 A 
ATOM     79  F   UNL A   1      45.646  29.862  33.851  1.00  0.00    -0.206 F 
ATOM     80  C   UNL A   1      46.570  28.182  35.206  1.00  0.00     0.040 A 
ATOM     81  C   UNL A   1      45.191  26.364  35.979  1.00  0.00     0.040 A 
ATOM     82  F   UNL A   1      42.931  26.259  35.359  1.00  0.00    -0.206 F 
ATOM     83  C   UNL A   1      46.431  27.000  35.932  1.00  0.00     0.006 A 
ENDBRANCH  59  76
ENDBRANCH  33  34
ENDBRANCH  25  28
ENDBRANCH  23  24
ENDBRANCH  22  23
ENDBRANCH   1  22
TORSDOF 15
ENDMDL
