MODEL 1
REMARK VINA RESULT:     -11.2      0.000      0.000
REMARK SMILES C[C@@H](CC(=O)NCCCNC(=O)c1ccc(-c2c3nc(c(-c4c(F)cccc4F)c4ccc([nH]4)c(-c4c(F)cccc4F)c4nc(c(-c5c(F)cccc5F)c5ccc2[nH]5)C=C4)C=C3)cc1)NC(=O)N[C@H]1CCOC1
REMARK SMILES IDX 7 1 6 2 4 3 5 4 3 6 2 7 1 8 67 9 68 10 69 12 70 13 71 15
REMARK SMILES IDX 72 16 75 17 73 18 74 19 8 20 9 21 10 22 11 23 12 25 13 26
REMARK SMILES IDX 14 27 66 28 15 29 65 30 16 31 17 32 18 33 59 34 19 35 64 36
REMARK SMILES IDX 58 37 60 38 20 39 63 40 57 41 56 42 21 44 47 45 30 46 46 47
REMARK SMILES IDX 31 48 34 49 45 50 61 51 32 52 33 53 44 55 62 56 35 57 22 58
REMARK SMILES IDX 23 59 28 60 24 61 25 62 27 63 29 64 26 65 48 66 49 67 54 68
REMARK SMILES IDX 50 69 51 70 53 71 55 72 52 73 36 74 37 75 42 76 38 77 39 78
REMARK SMILES IDX 41 79 43 80 40 81
REMARK H PARENT 6 5 67 11 70 14 10 24 60 43 34 54
REMARK Flexibility Score: inf
ROOT
ATOM      1  C   UNL A   1      36.083  20.665  25.004  1.00  0.00     0.117 C 
ENDROOT
BRANCH   1   2
ATOM      2  N   UNL A   1      34.834  19.929  25.144  1.00  0.00    -0.356 N 
ATOM      3  C   UNL A   1      33.544  20.357  25.233  1.00  0.00     0.222 C 
ATOM      4  O   UNL A   1      32.664  19.523  25.453  1.00  0.00    -0.275 OA
ATOM      5  H   UNL A   1      34.941  18.950  25.179  1.00  0.00     0.163 HD
BRANCH   3   6
ATOM      6  C   UNL A   1      33.206  21.818  25.070  1.00  0.00     0.124 C 
BRANCH   6   7
ATOM      7  C   UNL A   1      32.661  22.489  26.333  1.00  0.00     0.090 C 
ATOM      8  C   UNL A   1      33.452  22.217  27.603  1.00  0.00     0.031 C 
BRANCH   7   9
ATOM      9  N   UNL A   1      31.255  22.215  26.565  1.00  0.00    -0.335 N 
ATOM     10  C   UNL A   1      30.252  23.048  26.877  1.00  0.00     0.315 C 
ATOM     11  H   UNL A   1      30.996  21.268  26.481  1.00  0.00     0.165 HD
ATOM     12  O   UNL A   1      29.300  22.602  27.519  1.00  0.00    -0.249 OA
ATOM     13  N   UNL A   1      30.209  24.343  26.533  1.00  0.00    -0.333 N 
ATOM     14  H   UNL A   1      29.552  24.838  27.075  1.00  0.00     0.165 HD
BRANCH  13  15
ATOM     15  C   UNL A   1      30.875  25.220  25.567  1.00  0.00     0.112 C 
ATOM     16  C   UNL A   1      30.044  25.618  24.367  1.00  0.00     0.056 C 
ATOM     17  C   UNL A   1      31.487  26.507  26.108  1.00  0.00     0.185 C 
ATOM     18  C   UNL A   1      30.388  27.074  24.127  1.00  0.00     0.162 C 
ATOM     19  O   UNL A   1      31.008  27.596  25.305  1.00  0.00    -0.379 OA
ENDBRANCH  13  15
ENDBRANCH   7   9
ENDBRANCH   6   7
ENDBRANCH   3   6
ENDBRANCH   1   2
BRANCH   1  20
ATOM     20  C   UNL A   1      37.300  19.743  24.951  1.00  0.00     0.042 C 
BRANCH  20  21
ATOM     21  C   UNL A   1      38.584  20.361  25.484  1.00  0.00     0.118 C 
BRANCH  21  22
ATOM     22  N   UNL A   1      39.635  19.374  25.649  1.00  0.00    -0.352 N 
ATOM     23  C   UNL A   1      40.942  19.561  26.021  1.00  0.00     0.251 C 
ATOM     24  H   UNL A   1      39.374  18.441  25.469  1.00  0.00     0.163 HD
ATOM     25  O   UNL A   1      41.753  18.645  25.872  1.00  0.00    -0.269 OA
BRANCH  23  26
ATOM     26  C   UNL A   1      41.393  20.855  26.581  1.00  0.00     0.039 A 
ATOM     27  C   UNL A   1      41.921  21.818  25.717  1.00  0.00     0.014 A 
ATOM     28  C   UNL A   1      41.331  21.113  27.955  1.00  0.00     0.014 A 
ATOM     29  C   UNL A   1      42.340  23.053  26.220  1.00  0.00     0.010 A 
ATOM     30  C   UNL A   1      41.679  22.371  28.445  1.00  0.00     0.010 A 
ATOM     31  C   UNL A   1      42.197  23.350  27.585  1.00  0.00    -0.014 A 
BRANCH  31  32
ATOM     32  C   UNL A   1      42.602  24.671  28.131  1.00  0.00     0.031 A 
ATOM     33  C   UNL A   1      41.577  25.751  28.343  1.00  0.00     0.074 A 
ATOM     34  C   UNL A   1      43.901  24.920  28.386  1.00  0.00     0.049 A 
ATOM     35  N   UNL A   1      41.745  26.981  28.760  1.00  0.00    -0.248 NA
ATOM     36  C   UNL A   1      40.182  25.412  28.022  1.00  0.00     0.031 C 
ATOM     37  C   UNL A   1      44.999  23.974  28.184  1.00  0.00     0.029 A 
ATOM     38  N   UNL A   1      44.518  26.050  28.862  1.00  0.00    -0.354 N 
ATOM     39  C   UNL A   1      40.484  27.564  28.736  1.00  0.00     0.074 A 
ATOM     40  C   UNL A   1      39.570  26.570  28.217  1.00  0.00     0.031 C 
ATOM     41  C   UNL A   1      46.151  24.552  28.560  1.00  0.00     0.029 A 
ATOM     42  C   UNL A   1      45.879  25.920  28.993  1.00  0.00     0.049 A 
ATOM     43  H   UNL A   1      44.031  26.875  29.089  1.00  0.00     0.167 HD
ATOM     44  C   UNL A   1      40.116  28.807  29.132  1.00  0.00     0.037 A 
ATOM     45  C   UNL A   1      46.805  26.804  29.408  1.00  0.00     0.037 A 
ATOM     46  C   UNL A   1      41.021  29.787  29.672  1.00  0.00     0.049 A 
ATOM     47  C   UNL A   1      46.377  28.184  29.822  1.00  0.00     0.074 A 
ATOM     48  C   UNL A   1      40.731  31.043  30.176  1.00  0.00     0.029 A 
ATOM     49  N   UNL A   1      42.394  29.622  29.774  1.00  0.00    -0.354 N 
ATOM     50  N   UNL A   1      45.171  28.698  29.861  1.00  0.00    -0.248 NA
ATOM     51  C   UNL A   1      47.439  29.107  30.245  1.00  0.00     0.031 C 
ATOM     52  C   UNL A   1      41.935  31.656  30.542  1.00  0.00     0.029 A 
ATOM     53  C   UNL A   1      42.970  30.766  30.302  1.00  0.00     0.049 A 
ATOM     54  H   UNL A   1      42.886  28.811  29.510  1.00  0.00     0.167 HD
ATOM     55  C   UNL A   1      45.327  29.996  30.325  1.00  0.00     0.074 A 
ATOM     56  C   UNL A   1      46.741  30.187  30.570  1.00  0.00     0.031 C 
ATOM     57  C   UNL A   1      44.381  30.946  30.529  1.00  0.00     0.037 A 
BRANCH  44  58
ATOM     58  C   UNL A   1      38.668  29.171  28.990  1.00  0.00     0.057 A 
ATOM     59  C   UNL A   1      37.776  29.084  30.069  1.00  0.00     0.134 A 
ATOM     60  C   UNL A   1      38.160  29.631  27.769  1.00  0.00     0.134 A 
ATOM     61  F   UNL A   1      38.195  28.639  31.263  1.00  0.00    -0.206 F 
ATOM     62  C   UNL A   1      36.425  29.408  29.927  1.00  0.00     0.040 A 
ATOM     63  C   UNL A   1      36.818  29.983  27.622  1.00  0.00     0.040 A 
ATOM     64  F   UNL A   1      38.961  29.746  26.698  1.00  0.00    -0.206 F 
ATOM     65  C   UNL A   1      35.944  29.864  28.701  1.00  0.00     0.006 A 
ENDBRANCH  44  58
BRANCH  45  66
ATOM     66  C   UNL A   1      48.231  26.400  29.476  1.00  0.00     0.057 A 
ATOM     67  C   UNL A   1      49.101  26.659  28.412  1.00  0.00     0.134 A 
ATOM     68  C   UNL A   1      48.758  25.764  30.606  1.00  0.00     0.134 A 
ATOM     69  F   UNL A   1      48.647  27.248  27.298  1.00  0.00    -0.206 F 
ATOM     70  C   UNL A   1      50.447  26.294  28.466  1.00  0.00     0.040 A 
ATOM     71  C   UNL A   1      50.107  25.412  30.681  1.00  0.00     0.040 A 
ATOM     72  F   UNL A   1      47.975  25.494  31.660  1.00  0.00    -0.206 F 
ATOM     73  C   UNL A   1      50.955  25.674  29.605  1.00  0.00     0.006 A 
ENDBRANCH  45  66
BRANCH  57  74
ATOM     74  C   UNL A   1      44.846  32.274  31.048  1.00  0.00     0.057 A 
ATOM     75  C   UNL A   1      44.973  32.520  32.421  1.00  0.00     0.134 A 
ATOM     76  C   UNL A   1      45.204  33.303  30.169  1.00  0.00     0.134 A 
ATOM     77  F   UNL A   1      44.632  31.579  33.315  1.00  0.00    -0.206 F 
ATOM     78  C   UNL A   1      45.427  33.748  32.901  1.00  0.00     0.040 A 
ATOM     79  C   UNL A   1      45.679  34.528  30.637  1.00  0.00     0.040 A 
ATOM     80  F   UNL A   1      45.110  33.128  28.842  1.00  0.00    -0.206 F 
ATOM     81  C   UNL A   1      45.788  34.755  32.007  1.00  0.00     0.006 A 
ENDBRANCH  57  74
ENDBRANCH  31  32
ENDBRANCH  23  26
ENDBRANCH  21  22
ENDBRANCH  20  21
ENDBRANCH   1  20
TORSDOF 13
ENDMDL
MODEL 2
REMARK VINA RESULT:     -11.1      0.308      6.405
REMARK SMILES C[C@@H](CC(=O)NCCCNC(=O)c1ccc(-c2c3nc(c(-c4c(F)cccc4F)c4ccc([nH]4)c(-c4c(F)cccc4F)c4nc(c(-c5c(F)cccc5F)c5ccc2[nH]5)C=C4)C=C3)cc1)NC(=O)N[C@H]1CCOC1
REMARK SMILES IDX 7 1 6 2 4 3 5 4 3 6 2 7 1 8 67 9 68 10 69 12 70 13 71 15
REMARK SMILES IDX 72 16 75 17 73 18 74 19 8 20 9 21 10 22 11 23 12 25 13 26
REMARK SMILES IDX 14 27 66 28 15 29 65 30 16 31 17 32 18 33 59 34 19 35 64 36
REMARK SMILES IDX 58 37 60 38 20 39 63 40 57 41 56 42 21 44 47 45 30 46 46 47
REMARK SMILES IDX 31 48 34 49 45 50 61 51 32 52 33 53 44 55 62 56 35 57 22 58
REMARK SMILES IDX 23 59 28 60 24 61 25 62 27 63 29 64 26 65 48 66 49 67 54 68
REMARK SMILES IDX 50 69 51 70 53 71 55 72 52 73 36 74 37 75 42 76 38 77 39 78
REMARK SMILES IDX 41 79 43 80 40 81
REMARK H PARENT 6 5 67 11 70 14 10 24 60 43 34 54
REMARK Flexibility Score: inf
ROOT
ATOM      1  C   UNL A   1      36.061  20.483  24.948  1.00  0.00     0.117 C 
ENDROOT
BRANCH   1   2
ATOM      2  N   UNL A   1      34.813  19.761  25.156  1.00  0.00    -0.356 N 
ATOM      3  C   UNL A   1      33.527  20.200  25.251  1.00  0.00     0.222 C 
ATOM      4  O   UNL A   1      32.650  19.383  25.536  1.00  0.00    -0.275 OA
ATOM      5  H   UNL A   1      34.917  18.785  25.242  1.00  0.00     0.163 HD
BRANCH   3   6
ATOM      6  C   UNL A   1      33.191  21.651  25.016  1.00  0.00     0.124 C 
BRANCH   6   7
ATOM      7  C   UNL A   1      32.705  22.400  26.259  1.00  0.00     0.090 C 
ATOM      8  C   UNL A   1      33.523  22.162  27.518  1.00  0.00     0.031 C 
BRANCH   7   9
ATOM      9  N   UNL A   1      31.298  22.187  26.542  1.00  0.00    -0.335 N 
ATOM     10  C   UNL A   1      30.357  23.051  26.946  1.00  0.00     0.315 C 
ATOM     11  H   UNL A   1      30.985  21.261  26.419  1.00  0.00     0.165 HD
ATOM     12  O   UNL A   1      29.411  22.619  27.607  1.00  0.00    -0.249 OA
ATOM     13  N   UNL A   1      30.368  24.364  26.675  1.00  0.00    -0.333 N 
ATOM     14  H   UNL A   1      29.764  24.861  27.274  1.00  0.00     0.165 HD
BRANCH  13  15
ATOM     15  C   UNL A   1      31.037  25.259  25.728  1.00  0.00     0.112 C 
ATOM     16  C   UNL A   1      30.210  25.679  24.533  1.00  0.00     0.056 C 
ATOM     17  C   UNL A   1      31.648  26.536  26.295  1.00  0.00     0.185 C 
ATOM     18  C   UNL A   1      30.555  27.139  24.321  1.00  0.00     0.162 C 
ATOM     19  O   UNL A   1      31.171  27.640  25.511  1.00  0.00    -0.379 OA
ENDBRANCH  13  15
ENDBRANCH   7   9
ENDBRANCH   6   7
ENDBRANCH   3   6
ENDBRANCH   1   2
BRANCH   1  20
ATOM     20  C   UNL A   1      37.280  19.561  24.983  1.00  0.00     0.042 C 
BRANCH  20  21
ATOM     21  C   UNL A   1      38.576  20.245  25.391  1.00  0.00     0.118 C 
BRANCH  21  22
ATOM     22  N   UNL A   1      39.639  19.290  25.644  1.00  0.00    -0.352 N 
ATOM     23  C   UNL A   1      40.923  19.522  26.066  1.00  0.00     0.251 C 
ATOM     24  H   UNL A   1      39.406  18.345  25.490  1.00  0.00     0.163 HD
ATOM     25  O   UNL A   1      41.760  18.620  25.993  1.00  0.00    -0.269 OA
BRANCH  23  26
ATOM     26  C   UNL A   1      41.321  20.847  26.592  1.00  0.00     0.039 A 
ATOM     27  C   UNL A   1      41.884  21.780  25.717  1.00  0.00     0.014 A 
ATOM     28  C   UNL A   1      41.175  21.165  27.947  1.00  0.00     0.014 A 
ATOM     29  C   UNL A   1      42.253  23.044  26.187  1.00  0.00     0.010 A 
ATOM     30  C   UNL A   1      41.474  22.449  28.399  1.00  0.00     0.010 A 
ATOM     31  C   UNL A   1      42.027  23.399  27.527  1.00  0.00    -0.014 A 
BRANCH  31  32
ATOM     32  C   UNL A   1      42.378  24.750  28.034  1.00  0.00     0.031 A 
ATOM     33  C   UNL A   1      43.800  25.079  28.396  1.00  0.00     0.074 A 
ATOM     34  C   UNL A   1      41.410  25.667  28.221  1.00  0.00     0.049 A 
ATOM     35  N   UNL A   1      44.292  26.182  28.901  1.00  0.00    -0.248 NA
ATOM     36  C   UNL A   1      44.799  24.020  28.183  1.00  0.00     0.031 C 
ATOM     37  C   UNL A   1      39.986  25.462  27.949  1.00  0.00     0.029 A 
ATOM     38  N   UNL A   1      41.476  26.954  28.693  1.00  0.00    -0.354 N 
ATOM     39  C   UNL A   1      45.649  25.945  29.081  1.00  0.00     0.074 A 
ATOM     40  C   UNL A   1      45.895  24.577  28.678  1.00  0.00     0.031 C 
ATOM     41  C   UNL A   1      39.318  26.591  28.233  1.00  0.00     0.029 A 
ATOM     42  C   UNL A   1      40.258  27.586  28.740  1.00  0.00     0.049 A 
ATOM     43  H   UNL A   1      42.318  27.384  28.971  1.00  0.00     0.167 HD
ATOM     44  C   UNL A   1      46.608  26.795  29.520  1.00  0.00     0.037 A 
ATOM     45  C   UNL A   1      39.933  28.826  29.152  1.00  0.00     0.037 A 
ATOM     46  C   UNL A   1      46.369  28.164  29.897  1.00  0.00     0.049 A 
ATOM     47  C   UNL A   1      41.009  29.745  29.656  1.00  0.00     0.074 A 
ATOM     48  C   UNL A   1      47.287  29.126  30.277  1.00  0.00     0.029 A 
ATOM     49  N   UNL A   1      45.119  28.761  29.946  1.00  0.00    -0.354 N 
ATOM     50  N   UNL A   1      42.299  29.529  29.754  1.00  0.00    -0.248 NA
ATOM     51  C   UNL A   1      40.585  31.076  30.110  1.00  0.00     0.031 C 
ATOM     52  C   UNL A   1      46.587  30.295  30.599  1.00  0.00     0.029 A 
ATOM     53  C   UNL A   1      45.237  30.071  30.381  1.00  0.00     0.049 A 
ATOM     54  H   UNL A   1      44.272  28.319  29.706  1.00  0.00     0.167 HD
ATOM     55  C   UNL A   1      42.841  30.699  30.266  1.00  0.00     0.074 A 
ATOM     56  C   UNL A   1      41.744  31.628  30.442  1.00  0.00     0.031 C 
ATOM     57  C   UNL A   1      44.134  30.980  30.563  1.00  0.00     0.037 A 
BRANCH  44  58
ATOM     58  C   UNL A   1      48.007  26.261  29.617  1.00  0.00     0.057 A 
ATOM     59  C   UNL A   1      48.503  25.700  30.802  1.00  0.00     0.134 A 
ATOM     60  C   UNL A   1      48.863  26.291  28.509  1.00  0.00     0.134 A 
ATOM     61  F   UNL A   1      47.739  25.652  31.904  1.00  0.00    -0.206 F 
ATOM     62  C   UNL A   1      49.812  25.220  30.891  1.00  0.00     0.040 A 
ATOM     63  C   UNL A   1      50.164  25.790  28.578  1.00  0.00     0.040 A 
ATOM     64  F   UNL A   1      48.449  26.807  27.342  1.00  0.00    -0.206 F 
ATOM     65  C   UNL A   1      50.645  25.260  29.774  1.00  0.00     0.006 A 
ENDBRANCH  44  58
BRANCH  45  66
ATOM     66  C   UNL A   1      38.521  29.279  29.082  1.00  0.00     0.057 A 
ATOM     67  C   UNL A   1      37.977  29.742  27.880  1.00  0.00     0.134 A 
ATOM     68  C   UNL A   1      37.684  29.243  30.202  1.00  0.00     0.134 A 
ATOM     69  F   UNL A   1      38.736  29.816  26.778  1.00  0.00    -0.206 F 
ATOM     70  C   UNL A   1      36.648  30.161  27.795  1.00  0.00     0.040 A 
ATOM     71  C   UNL A   1      36.348  29.641  30.127  1.00  0.00     0.040 A 
ATOM     72  F   UNL A   1      38.147  28.804  31.381  1.00  0.00    -0.206 F 
ATOM     73  C   UNL A   1      35.828  30.105  28.920  1.00  0.00     0.006 A 
ENDBRANCH  45  66
BRANCH  57  74
ATOM     74  C   UNL A   1      44.431  32.346  31.105  1.00  0.00     0.057 A 
ATOM     75  C   UNL A   1      44.685  33.431  30.256  1.00  0.00     0.134 A 
ATOM     76  C   UNL A   1      44.427  32.588  32.484  1.00  0.00     0.134 A 
ATOM     77  F   UNL A   1      44.718  33.260  28.926  1.00  0.00    -0.206 F 
ATOM     78  C   UNL A   1      44.940  34.706  30.762  1.00  0.00     0.040 A 
ATOM     79  C   UNL A   1      44.659  33.863  33.001  1.00  0.00     0.040 A 
ATOM     80  F   UNL A   1      44.185  31.592  33.349  1.00  0.00    -0.206 F 
ATOM     81  C   UNL A   1      44.920  34.926  32.139  1.00  0.00     0.006 A 
ENDBRANCH  57  74
ENDBRANCH  31  32
ENDBRANCH  23  26
ENDBRANCH  21  22
ENDBRANCH  20  21
ENDBRANCH   1  20
TORSDOF 13
ENDMDL
MODEL 3
REMARK VINA RESULT:     -10.8      4.858      9.597
REMARK SMILES C[C@@H](CC(=O)NCCCNC(=O)c1ccc(-c2c3nc(c(-c4c(F)cccc4F)c4ccc([nH]4)c(-c4c(F)cccc4F)c4nc(c(-c5c(F)cccc5F)c5ccc2[nH]5)C=C4)C=C3)cc1)NC(=O)N[C@H]1CCOC1
REMARK SMILES IDX 7 1 6 2 4 3 5 4 3 6 2 7 1 8 67 9 68 10 69 12 70 13 71 15
REMARK SMILES IDX 72 16 75 17 73 18 74 19 8 20 9 21 10 22 11 23 12 25 13 26
REMARK SMILES IDX 14 27 66 28 15 29 65 30 16 31 17 32 18 33 59 34 19 35 64 36
REMARK SMILES IDX 58 37 60 38 20 39 63 40 57 41 56 42 21 44 47 45 30 46 46 47
REMARK SMILES IDX 31 48 34 49 45 50 61 51 32 52 33 53 44 55 62 56 35 57 22 58
REMARK SMILES IDX 23 59 28 60 24 61 25 62 27 63 29 64 26 65 48 66 49 67 54 68
REMARK SMILES IDX 50 69 51 70 53 71 55 72 52 73 36 74 37 75 42 76 38 77 39 78
REMARK SMILES IDX 41 79 43 80 40 81
REMARK H PARENT 6 5 67 11 70 14 10 24 60 43 34 54
REMARK Flexibility Score: inf
ROOT
ATOM      1  C   UNL A   1      31.402  30.751  25.777  1.00  0.00     0.117 C 
ENDROOT
BRANCH   1   2
ATOM      2  N   UNL A   1      32.764  30.235  25.823  1.00  0.00    -0.356 N 
ATOM      3  C   UNL A   1      33.240  28.973  26.018  1.00  0.00     0.222 C 
ATOM      4  O   UNL A   1      34.458  28.817  26.116  1.00  0.00    -0.275 OA
ATOM      5  H   UNL A   1      33.462  30.916  25.687  1.00  0.00     0.163 HD
BRANCH   3   6
ATOM      6  C   UNL A   1      32.296  27.802  26.116  1.00  0.00     0.124 C 
BRANCH   6   7
ATOM      7  C   UNL A   1      32.548  26.695  25.090  1.00  0.00     0.090 C 
ATOM      8  C   UNL A   1      33.191  25.433  25.644  1.00  0.00     0.031 C 
BRANCH   7   9
ATOM      9  N   UNL A   1      33.288  27.150  23.927  1.00  0.00    -0.335 N 
ATOM     10  C   UNL A   1      32.863  27.424  22.686  1.00  0.00     0.315 C 
ATOM     11  H   UNL A   1      34.254  27.276  24.072  1.00  0.00     0.165 HD
ATOM     12  O   UNL A   1      33.658  27.290  21.754  1.00  0.00    -0.249 OA
ATOM     13  N   UNL A   1      31.626  27.844  22.384  1.00  0.00    -0.333 N 
ATOM     14  H   UNL A   1      31.429  27.725  21.427  1.00  0.00     0.165 HD
BRANCH  13  15
ATOM     15  C   UNL A   1      30.489  28.431  23.095  1.00  0.00     0.112 C 
ATOM     16  C   UNL A   1      29.829  29.608  22.410  1.00  0.00     0.056 C 
ATOM     17  C   UNL A   1      29.363  27.487  23.501  1.00  0.00     0.185 C 
ATOM     18  C   UNL A   1      28.345  29.408  22.647  1.00  0.00     0.162 C 
ATOM     19  O   UNL A   1      28.125  28.051  23.041  1.00  0.00    -0.379 OA
ENDBRANCH  13  15
ENDBRANCH   7   9
ENDBRANCH   6   7
ENDBRANCH   3   6
ENDBRANCH   1   2
BRANCH   1  20
ATOM     20  C   UNL A   1      31.262  32.089  26.501  1.00  0.00     0.042 C 
BRANCH  20  21
ATOM     21  C   UNL A   1      32.536  32.577  27.176  1.00  0.00     0.118 C 
BRANCH  21  22
ATOM     22  N   UNL A   1      32.446  33.975  27.559  1.00  0.00    -0.352 N 
ATOM     23  C   UNL A   1      33.122  34.641  28.549  1.00  0.00     0.251 C 
ATOM     24  H   UNL A   1      31.813  34.518  27.037  1.00  0.00     0.163 HD
ATOM     25  O   UNL A   1      32.745  35.762  28.895  1.00  0.00    -0.269 OA
BRANCH  23  26
ATOM     26  C   UNL A   1      34.288  34.022  29.220  1.00  0.00     0.039 A 
ATOM     27  C   UNL A   1      34.070  33.170  30.306  1.00  0.00     0.014 A 
ATOM     28  C   UNL A   1      35.596  34.303  28.809  1.00  0.00     0.014 A 
ATOM     29  C   UNL A   1      35.154  32.563  30.946  1.00  0.00     0.010 A 
ATOM     30  C   UNL A   1      36.670  33.640  29.399  1.00  0.00     0.010 A 
ATOM     31  C   UNL A   1      36.462  32.771  30.481  1.00  0.00    -0.014 A 
BRANCH  31  32
ATOM     32  C   UNL A   1      37.622  32.104  31.125  1.00  0.00     0.031 A 
ATOM     33  C   UNL A   1      38.361  31.006  30.409  1.00  0.00     0.074 A 
ATOM     34  C   UNL A   1      37.981  32.447  32.377  1.00  0.00     0.049 A 
ATOM     35  N   UNL A   1      39.362  30.273  30.827  1.00  0.00    -0.248 NA
ATOM     36  C   UNL A   1      37.898  30.673  29.053  1.00  0.00     0.031 C 
ATOM     37  C   UNL A   1      37.323  33.466  33.197  1.00  0.00     0.029 A 
ATOM     38  N   UNL A   1      38.984  31.969  33.183  1.00  0.00    -0.354 N 
ATOM     39  C   UNL A   1      39.637  29.384  29.796  1.00  0.00     0.074 A 
ATOM     40  C   UNL A   1      38.667  29.636  28.752  1.00  0.00     0.031 C 
ATOM     41  C   UNL A   1      37.955  33.555  34.377  1.00  0.00     0.029 A 
ATOM     42  C   UNL A   1      39.038  32.577  34.413  1.00  0.00     0.049 A 
ATOM     43  H   UNL A   1      39.606  31.258  32.905  1.00  0.00     0.167 HD
ATOM     44  C   UNL A   1      40.622  28.458  29.714  1.00  0.00     0.037 A 
ATOM     45  C   UNL A   1      39.863  32.366  35.456  1.00  0.00     0.037 A 
ATOM     46  C   UNL A   1      41.604  28.224  30.740  1.00  0.00     0.049 A 
ATOM     47  C   UNL A   1      40.935  31.319  35.351  1.00  0.00     0.074 A 
ATOM     48  C   UNL A   1      42.688  27.365  30.717  1.00  0.00     0.029 A 
ATOM     49  N   UNL A   1      41.615  28.850  31.977  1.00  0.00    -0.354 N 
ATOM     50  N   UNL A   1      41.228  30.535  34.342  1.00  0.00    -0.248 NA
ATOM     51  C   UNL A   1      41.788  31.124  36.532  1.00  0.00     0.031 C 
ATOM     52  C   UNL A   1      43.331  27.439  31.958  1.00  0.00     0.029 A 
ATOM     53  C   UNL A   1      42.669  28.373  32.739  1.00  0.00     0.049 A 
ATOM     54  H   UNL A   1      40.969  29.533  32.270  1.00  0.00     0.167 HD
ATOM     55  C   UNL A   1      42.305  29.765  34.758  1.00  0.00     0.074 A 
ATOM     56  C   UNL A   1      42.625  30.188  36.106  1.00  0.00     0.031 C 
ATOM     57  C   UNL A   1      42.969  28.794  34.084  1.00  0.00     0.037 A 
BRANCH  44  58
ATOM     58  C   UNL A   1      40.681  27.627  28.466  1.00  0.00     0.057 A 
ATOM     59  C   UNL A   1      41.424  28.027  27.347  1.00  0.00     0.134 A 
ATOM     60  C   UNL A   1      40.001  26.405  28.385  1.00  0.00     0.134 A 
ATOM     61  F   UNL A   1      42.089  29.193  27.353  1.00  0.00    -0.206 F 
ATOM     62  C   UNL A   1      41.462  27.259  26.181  1.00  0.00     0.040 A 
ATOM     63  C   UNL A   1      40.053  25.616  27.236  1.00  0.00     0.040 A 
ATOM     64  F   UNL A   1      39.277  25.959  29.423  1.00  0.00    -0.206 F 
ATOM     65  C   UNL A   1      40.778  26.045  26.126  1.00  0.00     0.006 A 
ENDBRANCH  44  58
BRANCH  45  66
ATOM     66  C   UNL A   1      39.721  33.186  36.684  1.00  0.00     0.057 A 
ATOM     67  C   UNL A   1      38.825  32.816  37.693  1.00  0.00     0.134 A 
ATOM     68  C   UNL A   1      40.484  34.342  36.886  1.00  0.00     0.134 A 
ATOM     69  F   UNL A   1      38.055  31.729  37.546  1.00  0.00    -0.206 F 
ATOM     70  C   UNL A   1      38.688  33.571  38.859  1.00  0.00     0.040 A 
ATOM     71  C   UNL A   1      40.371  35.095  38.055  1.00  0.00     0.040 A 
ATOM     72  F   UNL A   1      41.363  34.744  35.958  1.00  0.00    -0.206 F 
ATOM     73  C   UNL A   1      39.467  34.711  39.046  1.00  0.00     0.006 A 
ENDBRANCH  45  66
BRANCH  57  74
ATOM     74  C   UNL A   1      44.110  28.128  34.792  1.00  0.00     0.057 A 
ATOM     75  C   UNL A   1      43.930  26.946  35.522  1.00  0.00     0.134 A 
ATOM     76  C   UNL A   1      45.407  28.649  34.712  1.00  0.00     0.134 A 
ATOM     77  F   UNL A   1      42.708  26.405  35.648  1.00  0.00    -0.206 F 
ATOM     78  C   UNL A   1      44.997  26.316  36.161  1.00  0.00     0.040 A 
ATOM     79  C   UNL A   1      46.486  28.016  35.329  1.00  0.00     0.040 A 
ATOM     80  F   UNL A   1      45.647  29.775  34.023  1.00  0.00    -0.206 F 
ATOM     81  C   UNL A   1      46.282  26.848  36.060  1.00  0.00     0.006 A 
ENDBRANCH  57  74
ENDBRANCH  31  32
ENDBRANCH  23  26
ENDBRANCH  21  22
ENDBRANCH  20  21
ENDBRANCH   1  20
TORSDOF 13
ENDMDL
