MODEL 1
REMARK VINA RESULT:     -12.0      0.000      0.000
REMARK SMILES CCC[C@@H]1C[N@@H+](Cc2cc(OC)c3c(c2)OCO3)C[C@H]1C(=O)NCCCNC(=O)c1ccc(-c2c3nc(c(-c4c(F)cccc4F)c4ccc([nH]4)c(-c4c(F)cccc4F)c4nc(c(-c5c(F)cccc5F)c5ccc2[nH]5)C=C4)C=C3)cc1
REMARK SMILES IDX 24 1 23 2 21 3 22 4 20 6 4 7 5 8 6 9 19 10 3 12 2 13 1 14
REMARK SMILES IDX 7 15 8 16 9 17 15 18 10 19 14 20 13 21 16 22 18 23 17 24
REMARK SMILES IDX 11 25 12 26 25 27 26 28 27 29 28 30 29 32 30 33 31 34 83 35
REMARK SMILES IDX 32 36 82 37 33 38 34 39 35 40 76 41 36 42 81 43 75 44 77 45
REMARK SMILES IDX 37 46 80 47 74 48 73 49 38 51 64 52 47 53 63 54 48 55 51 56
REMARK SMILES IDX 62 57 78 58 49 59 50 60 61 62 79 63 52 64 39 65 40 66 45 67
REMARK SMILES IDX 41 68 42 69 44 70 46 71 43 72 65 73 66 74 71 75 67 76 68 77
REMARK SMILES IDX 70 78 72 79 69 80 53 81 54 82 59 83 55 84 56 85 58 86 60 87
REMARK SMILES IDX 57 88
REMARK H PARENT 23 5 6 11 27 31 77 50 51 61
REMARK Flexibility Score: inf
ROOT
ATOM      1  C   UNL A   1      37.827  21.961  25.356  1.00  0.00     0.117 C 
ENDROOT
BRANCH   1   2
ATOM      2  N   UNL A   1      36.588  21.953  26.144  1.00  0.00    -0.356 N 
ATOM      3  C   UNL A   1      35.280  21.601  26.000  1.00  0.00     0.229 C 
ATOM      4  O   UNL A   1      34.665  21.521  27.076  1.00  0.00    -0.275 OA
ATOM      5  H   UNL A   1      36.752  22.307  27.048  1.00  0.00     0.163 HD
BRANCH   3   6
ATOM      6  C   UNL A   1      34.486  21.344  24.701  1.00  0.00     0.142 C 
ATOM      7  C   UNL A   1      33.384  20.261  24.903  1.00  0.00     0.062 C 
ATOM      8  C   UNL A   1      32.301  20.640  23.891  1.00  0.00     0.267 C 
ATOM      9  N   UNL A   1      32.321  22.098  23.850  1.00  0.00    -0.330 N 
ATOM     10  C   UNL A   1      33.716  22.509  24.061  1.00  0.00     0.276 C 
ATOM     11  H   UNL A   1      32.015  22.418  22.931  1.00  0.00     0.348 HD
BRANCH   7  12
ATOM     12  C   UNL A   1      33.662  18.752  24.946  1.00  0.00     0.010 C 
BRANCH  12  13
ATOM     13  C   UNL A   1      32.729  17.785  24.232  1.00  0.00    -0.003 C 
ATOM     14  C   UNL A   1      33.280  17.350  22.882  1.00  0.00     0.004 C 
ENDBRANCH  12  13
ENDBRANCH   7  12
BRANCH   9  15
ATOM     15  C   UNL A   1      31.279  22.803  24.632  1.00  0.00     0.299 C 
BRANCH  15  16
ATOM     16  C   UNL A   1      31.104  24.309  24.494  1.00  0.00     0.014 A 
ATOM     17  C   UNL A   1      31.152  25.145  25.616  1.00  0.00     0.060 A 
ATOM     18  C   UNL A   1      30.966  24.948  23.261  1.00  0.00     0.060 A 
ATOM     19  C   UNL A   1      30.909  26.518  25.623  1.00  0.00     0.165 A 
ATOM     20  C   UNL A   1      30.812  26.332  23.250  1.00  0.00     0.170 A 
ATOM     21  C   UNL A   1      30.756  27.100  24.398  1.00  0.00     0.207 A 
ATOM     22  O   UNL A   1      30.709  27.092  22.123  1.00  0.00    -0.453 OA
ATOM     23  O   UNL A   1      30.587  28.420  24.130  1.00  0.00    -0.450 OA
ATOM     24  C   UNL A   1      30.623  28.414  22.692  1.00  0.00     0.468 C 
BRANCH  19  25
ATOM     25  O   UNL A   1      30.914  27.067  26.865  1.00  0.00    -0.493 OA
ATOM     26  C   UNL A   1      32.037  27.840  27.252  1.00  0.00     0.278 C 
ENDBRANCH  19  25
ENDBRANCH  15  16
ENDBRANCH   9  15
ENDBRANCH   3   6
ENDBRANCH   1   2
BRANCH   1  27
ATOM     27  C   UNL A   1      39.165  21.648  26.077  1.00  0.00     0.042 C 
BRANCH  27  28
ATOM     28  C   UNL A   1      39.837  22.779  26.893  1.00  0.00     0.118 C 
BRANCH  28  29
ATOM     29  N   UNL A   1      40.939  23.410  26.180  1.00  0.00    -0.352 N 
ATOM     30  C   UNL A   1      41.433  24.696  26.190  1.00  0.00     0.251 C 
ATOM     31  H   UNL A   1      41.423  22.802  25.575  1.00  0.00     0.163 HD
ATOM     32  O   UNL A   1      42.270  24.987  25.336  1.00  0.00    -0.269 OA
BRANCH  30  33
ATOM     33  C   UNL A   1      41.040  25.757  27.167  1.00  0.00     0.039 A 
ATOM     34  C   UNL A   1      41.874  26.882  27.276  1.00  0.00     0.014 A 
ATOM     35  C   UNL A   1      40.027  25.596  28.114  1.00  0.00     0.014 A 
ATOM     36  C   UNL A   1      41.704  27.824  28.306  1.00  0.00     0.010 A 
ATOM     37  C   UNL A   1      39.845  26.553  29.142  1.00  0.00     0.010 A 
ATOM     38  C   UNL A   1      40.689  27.671  29.263  1.00  0.00    -0.014 A 
BRANCH  38  39
ATOM     39  C   UNL A   1      40.547  28.671  30.374  1.00  0.00     0.031 A 
ATOM     40  C   UNL A   1      39.509  29.768  30.324  1.00  0.00     0.074 A 
ATOM     41  C   UNL A   1      41.335  28.597  31.468  1.00  0.00     0.049 A 
ATOM     42  N   UNL A   1      39.227  30.687  31.221  1.00  0.00    -0.248 NA
ATOM     43  C   UNL A   1      38.681  29.845  29.114  1.00  0.00     0.031 C 
ATOM     44  C   UNL A   1      42.382  27.603  31.690  1.00  0.00     0.029 A 
ATOM     45  N   UNL A   1      41.376  29.379  32.602  1.00  0.00    -0.354 N 
ATOM     46  C   UNL A   1      38.191  31.446  30.687  1.00  0.00     0.074 A 
ATOM     47  C   UNL A   1      37.921  30.903  29.370  1.00  0.00     0.031 C 
ATOM     48  C   UNL A   1      42.966  27.835  32.877  1.00  0.00     0.029 A 
ATOM     49  C   UNL A   1      42.337  28.995  33.507  1.00  0.00     0.049 A 
ATOM     50  H   UNL A   1      40.773  30.143  32.751  1.00  0.00     0.167 HD
ATOM     51  C   UNL A   1      37.510  32.482  31.239  1.00  0.00     0.037 A 
ATOM     52  C   UNL A   1      42.679  29.505  34.707  1.00  0.00     0.037 A 
ATOM     53  C   UNL A   1      37.740  33.031  32.553  1.00  0.00     0.049 A 
ATOM     54  C   UNL A   1      41.932  30.675  35.286  1.00  0.00     0.074 A 
ATOM     55  C   UNL A   1      37.049  34.047  33.197  1.00  0.00     0.029 A 
ATOM     56  N   UNL A   1      38.736  32.621  33.423  1.00  0.00    -0.354 N 
ATOM     57  N   UNL A   1      40.917  31.334  34.789  1.00  0.00    -0.248 NA
ATOM     58  C   UNL A   1      42.376  31.164  36.603  1.00  0.00     0.031 C 
ATOM     59  C   UNL A   1      37.649  34.274  34.439  1.00  0.00     0.029 A 
ATOM     60  C   UNL A   1      38.692  33.378  34.584  1.00  0.00     0.049 A 
ATOM     61  H   UNL A   1      39.380  31.897  33.243  1.00  0.00     0.167 HD
ATOM     62  C   UNL A   1      40.581  32.290  35.741  1.00  0.00     0.074 A 
ATOM     63  C   UNL A   1      41.495  32.125  36.849  1.00  0.00     0.031 C 
ATOM     64  C   UNL A   1      39.595  33.217  35.694  1.00  0.00     0.037 A 
BRANCH  51  65
ATOM     65  C   UNL A   1      36.421  33.110  30.416  1.00  0.00     0.057 A 
ATOM     66  C   UNL A   1      36.709  34.013  29.386  1.00  0.00     0.134 A 
ATOM     67  C   UNL A   1      35.080  32.751  30.608  1.00  0.00     0.134 A 
ATOM     68  F   UNL A   1      37.974  34.395  29.151  1.00  0.00    -0.206 F 
ATOM     69  C   UNL A   1      35.699  34.556  28.588  1.00  0.00     0.040 A 
ATOM     70  C   UNL A   1      34.065  33.271  29.803  1.00  0.00     0.040 A 
ATOM     71  F   UNL A   1      34.740  31.877  31.566  1.00  0.00    -0.206 F 
ATOM     72  C   UNL A   1      34.373  34.180  28.793  1.00  0.00     0.006 A 
ENDBRANCH  51  65
BRANCH  52  73
ATOM     73  C   UNL A   1      43.789  28.890  35.478  1.00  0.00     0.057 A 
ATOM     74  C   UNL A   1      43.543  27.893  36.428  1.00  0.00     0.134 A 
ATOM     75  C   UNL A   1      45.114  29.304  35.299  1.00  0.00     0.134 A 
ATOM     76  F   UNL A   1      42.289  27.478  36.661  1.00  0.00    -0.206 F 
ATOM     77  C   UNL A   1      44.575  27.336  37.186  1.00  0.00     0.040 A 
ATOM     78  C   UNL A   1      46.157  28.742  36.035  1.00  0.00     0.040 A 
ATOM     79  F   UNL A   1      45.409  30.258  34.405  1.00  0.00    -0.206 F 
ATOM     80  C   UNL A   1      45.887  27.758  36.986  1.00  0.00     0.006 A 
ENDBRANCH  52  73
BRANCH  64  81
ATOM     81  C   UNL A   1      39.428  34.115  36.886  1.00  0.00     0.057 A 
ATOM     82  C   UNL A   1      39.952  35.414  36.912  1.00  0.00     0.134 A 
ATOM     83  C   UNL A   1      38.707  33.688  38.010  1.00  0.00     0.134 A 
ATOM     84  F   UNL A   1      40.663  35.879  35.875  1.00  0.00    -0.206 F 
ATOM     85  C   UNL A   1      39.780  36.249  38.018  1.00  0.00     0.040 A 
ATOM     86  C   UNL A   1      38.512  34.521  39.113  1.00  0.00     0.040 A 
ATOM     87  F   UNL A   1      38.175  32.457  38.049  1.00  0.00    -0.206 F 
ATOM     88  C   UNL A   1      39.053  35.805  39.122  1.00  0.00     0.006 A 
ENDBRANCH  64  81
ENDBRANCH  38  39
ENDBRANCH  30  33
ENDBRANCH  28  29
ENDBRANCH  27  28
ENDBRANCH   1  27
TORSDOF 15
ENDMDL
MODEL 2
REMARK VINA RESULT:     -12.0      4.437      8.058
REMARK SMILES CCC[C@@H]1C[N@@H+](Cc2cc(OC)c3c(c2)OCO3)C[C@H]1C(=O)NCCCNC(=O)c1ccc(-c2c3nc(c(-c4c(F)cccc4F)c4ccc([nH]4)c(-c4c(F)cccc4F)c4nc(c(-c5c(F)cccc5F)c5ccc2[nH]5)C=C4)C=C3)cc1
REMARK SMILES IDX 24 1 23 2 21 3 22 4 20 6 4 7 5 8 6 9 19 10 3 12 2 13 1 14
REMARK SMILES IDX 7 15 8 16 9 17 15 18 10 19 14 20 13 21 16 22 18 23 17 24
REMARK SMILES IDX 11 25 12 26 25 27 26 28 27 29 28 30 29 32 30 33 31 34 83 35
REMARK SMILES IDX 32 36 82 37 33 38 34 39 35 40 76 41 36 42 81 43 75 44 77 45
REMARK SMILES IDX 37 46 80 47 74 48 73 49 38 51 64 52 47 53 63 54 48 55 51 56
REMARK SMILES IDX 62 57 78 58 49 59 50 60 61 62 79 63 52 64 39 65 40 66 45 67
REMARK SMILES IDX 41 68 42 69 44 70 46 71 43 72 65 73 66 74 71 75 67 76 68 77
REMARK SMILES IDX 70 78 72 79 69 80 53 81 54 82 59 83 55 84 56 85 58 86 60 87
REMARK SMILES IDX 57 88
REMARK H PARENT 23 5 6 11 27 31 77 50 51 61
REMARK Flexibility Score: inf
ROOT
ATOM      1  C   UNL A   1      36.426  19.565  25.001  1.00  0.00     0.117 C 
ENDROOT
BRANCH   1   2
ATOM      2  N   UNL A   1      35.818  20.700  25.706  1.00  0.00    -0.356 N 
ATOM      3  C   UNL A   1      34.834  21.623  25.514  1.00  0.00     0.229 C 
ATOM      4  O   UNL A   1      34.500  22.218  26.551  1.00  0.00    -0.275 OA
ATOM      5  H   UNL A   1      36.249  20.834  26.580  1.00  0.00     0.163 HD
BRANCH   3   6
ATOM      6  C   UNL A   1      34.140  22.034  24.197  1.00  0.00     0.142 C 
ATOM      7  C   UNL A   1      32.741  21.365  24.049  1.00  0.00     0.062 C 
ATOM      8  C   UNL A   1      31.941  22.359  23.204  1.00  0.00     0.267 C 
ATOM      9  N   UNL A   1      32.418  23.673  23.620  1.00  0.00    -0.330 N 
ATOM     10  C   UNL A   1      33.842  23.521  23.951  1.00  0.00     0.276 C 
ATOM     11  H   UNL A   1      32.325  24.331  22.846  1.00  0.00     0.348 HD
BRANCH   7  12
ATOM     12  C   UNL A   1      32.528  19.907  23.620  1.00  0.00     0.010 C 
BRANCH  12  13
ATOM     13  C   UNL A   1      32.527  18.799  24.662  1.00  0.00    -0.003 C 
ATOM     14  C   UNL A   1      33.407  17.627  24.253  1.00  0.00     0.004 C 
ENDBRANCH  12  13
ENDBRANCH   7  12
BRANCH   9  15
ATOM     15  C   UNL A   1      31.573  24.418  24.580  1.00  0.00     0.299 C 
BRANCH  15  16
ATOM     16  C   UNL A   1      31.270  25.893  24.353  1.00  0.00     0.014 A 
ATOM     17  C   UNL A   1      31.668  26.860  25.283  1.00  0.00     0.060 A 
ATOM     18  C   UNL A   1      30.660  26.373  23.194  1.00  0.00     0.060 A 
ATOM     19  C   UNL A   1      31.362  28.220  25.229  1.00  0.00     0.165 A 
ATOM     20  C   UNL A   1      30.430  27.742  23.089  1.00  0.00     0.170 A 
ATOM     21  C   UNL A   1      30.744  28.645  24.088  1.00  0.00     0.207 A 
ATOM     22  O   UNL A   1      29.883  28.356  22.002  1.00  0.00    -0.453 OA
ATOM     23  O   UNL A   1      30.412  29.919  23.759  1.00  0.00    -0.450 OA
ATOM     24  C   UNL A   1      29.929  29.737  22.416  1.00  0.00     0.468 C 
BRANCH  19  25
ATOM     25  O   UNL A   1      31.780  28.918  26.317  1.00  0.00    -0.493 OA
ATOM     26  C   UNL A   1      33.144  29.298  26.386  1.00  0.00     0.278 C 
ENDBRANCH  19  25
ENDBRANCH  15  16
ENDBRANCH   9  15
ENDBRANCH   3   6
ENDBRANCH   1   2
BRANCH   1  27
ATOM     27  C   UNL A   1      37.933  19.641  24.637  1.00  0.00     0.042 C 
BRANCH  27  28
ATOM     28  C   UNL A   1      38.932  20.048  25.748  1.00  0.00     0.118 C 
BRANCH  28  29
ATOM     29  N   UNL A   1      40.095  19.174  25.809  1.00  0.00    -0.352 N 
ATOM     30  C   UNL A   1      41.434  19.428  26.007  1.00  0.00     0.251 C 
ATOM     31  H   UNL A   1      39.885  18.220  25.684  1.00  0.00     0.163 HD
ATOM     32  O   UNL A   1      42.219  18.497  25.825  1.00  0.00    -0.269 OA
BRANCH  30  33
ATOM     33  C   UNL A   1      42.002  20.741  26.442  1.00  0.00     0.039 A 
ATOM     34  C   UNL A   1      41.900  21.076  27.802  1.00  0.00     0.014 A 
ATOM     35  C   UNL A   1      42.428  21.729  25.551  1.00  0.00     0.014 A 
ATOM     36  C   UNL A   1      42.213  22.367  28.264  1.00  0.00     0.010 A 
ATOM     37  C   UNL A   1      42.759  23.023  26.019  1.00  0.00     0.010 A 
ATOM     38  C   UNL A   1      42.641  23.367  27.378  1.00  0.00    -0.014 A 
BRANCH  38  39
ATOM     39  C   UNL A   1      42.937  24.747  27.888  1.00  0.00     0.031 A 
ATOM     40  C   UNL A   1      44.353  25.213  28.138  1.00  0.00     0.074 A 
ATOM     41  C   UNL A   1      41.935  25.624  28.115  1.00  0.00     0.049 A 
ATOM     42  N   UNL A   1      44.783  26.389  28.537  1.00  0.00    -0.248 NA
ATOM     43  C   UNL A   1      45.424  24.235  27.909  1.00  0.00     0.031 C 
ATOM     44  C   UNL A   1      40.513  25.351  27.923  1.00  0.00     0.029 A 
ATOM     45  N   UNL A   1      41.964  26.928  28.560  1.00  0.00    -0.354 N 
ATOM     46  C   UNL A   1      46.169  26.294  28.604  1.00  0.00     0.074 A 
ATOM     47  C   UNL A   1      46.504  24.931  28.241  1.00  0.00     0.031 C 
ATOM     48  C   UNL A   1      39.805  26.444  28.253  1.00  0.00     0.029 A 
ATOM     49  C   UNL A   1      40.720  27.501  28.680  1.00  0.00     0.049 A 
ATOM     50  H   UNL A   1      42.799  27.405  28.774  1.00  0.00     0.167 HD
ATOM     51  C   UNL A   1      47.083  27.247  28.917  1.00  0.00     0.037 A 
ATOM     52  C   UNL A   1      40.347  28.733  29.080  1.00  0.00     0.037 A 
ATOM     53  C   UNL A   1      46.783  28.616  29.262  1.00  0.00     0.049 A 
ATOM     54  C   UNL A   1      41.376  29.765  29.453  1.00  0.00     0.074 A 
ATOM     55  C   UNL A   1      47.666  29.649  29.536  1.00  0.00     0.029 A 
ATOM     56  N   UNL A   1      45.509  29.142  29.387  1.00  0.00    -0.354 N 
ATOM     57  N   UNL A   1      42.680  29.669  29.449  1.00  0.00    -0.248 NA
ATOM     58  C   UNL A   1      40.875  31.084  29.878  1.00  0.00     0.031 C 
ATOM     59  C   UNL A   1      46.925  30.791  29.862  1.00  0.00     0.029 A 
ATOM     60  C   UNL A   1      45.582  30.477  29.758  1.00  0.00     0.049 A 
ATOM     61  H   UNL A   1      44.674  28.643  29.235  1.00  0.00     0.167 HD
ATOM     62  C   UNL A   1      43.156  30.917  29.836  1.00  0.00     0.074 A 
ATOM     63  C   UNL A   1      42.001  31.758  30.064  1.00  0.00     0.031 C 
ATOM     64  C   UNL A   1      44.439  31.323  29.982  1.00  0.00     0.037 A 
BRANCH  51  65
ATOM     65  C   UNL A   1      48.531  26.848  28.899  1.00  0.00     0.057 A 
ATOM     66  C   UNL A   1      49.334  27.055  27.771  1.00  0.00     0.134 A 
ATOM     67  C   UNL A   1      49.144  26.323  30.044  1.00  0.00     0.134 A 
ATOM     68  F   UNL A   1      48.807  27.557  26.644  1.00  0.00    -0.206 F 
ATOM     69  C   UNL A   1      50.693  26.732  27.774  1.00  0.00     0.040 A 
ATOM     70  C   UNL A   1      50.507  26.016  30.066  1.00  0.00     0.040 A 
ATOM     71  F   UNL A   1      48.435  26.119  31.164  1.00  0.00    -0.206 F 
ATOM     72  C   UNL A   1      51.283  26.216  28.926  1.00  0.00     0.006 A 
ENDBRANCH  51  65
BRANCH  52  73
ATOM     73  C   UNL A   1      38.905  29.084  29.130  1.00  0.00     0.057 A 
ATOM     74  C   UNL A   1      38.237  29.557  27.994  1.00  0.00     0.134 A 
ATOM     75  C   UNL A   1      38.173  28.981  30.318  1.00  0.00     0.134 A 
ATOM     76  F   UNL A   1      38.897  29.703  26.835  1.00  0.00    -0.206 F 
ATOM     77  C   UNL A   1      36.892  29.926  28.040  1.00  0.00     0.040 A 
ATOM     78  C   UNL A   1      36.823  29.329  30.373  1.00  0.00     0.040 A 
ATOM     79  F   UNL A   1      38.761  28.539  31.438  1.00  0.00    -0.206 F 
ATOM     80  C   UNL A   1      36.180  29.809  29.232  1.00  0.00     0.006 A 
ENDBRANCH  52  73
BRANCH  64  81
ATOM     81  C   UNL A   1      44.675  32.750  30.384  1.00  0.00     0.057 A 
ATOM     82  C   UNL A   1      44.832  33.124  31.725  1.00  0.00     0.134 A 
ATOM     83  C   UNL A   1      44.779  33.760  29.417  1.00  0.00     0.134 A 
ATOM     84  F   UNL A   1      44.730  32.210  32.700  1.00  0.00    -0.206 F 
ATOM     85  C   UNL A   1      45.066  34.452  32.091  1.00  0.00     0.040 A 
ATOM     86  C   UNL A   1      45.032  35.087  29.769  1.00  0.00     0.040 A 
ATOM     87  F   UNL A   1      44.643  33.470  28.114  1.00  0.00    -0.206 F 
ATOM     88  C   UNL A   1      45.173  35.437  31.110  1.00  0.00     0.006 A 
ENDBRANCH  64  81
ENDBRANCH  38  39
ENDBRANCH  30  33
ENDBRANCH  28  29
ENDBRANCH  27  28
ENDBRANCH   1  27
TORSDOF 15
ENDMDL
MODEL 3
REMARK VINA RESULT:     -11.9      4.399      7.904
REMARK SMILES CCC[C@@H]1C[N@@H+](Cc2cc(OC)c3c(c2)OCO3)C[C@H]1C(=O)NCCCNC(=O)c1ccc(-c2c3nc(c(-c4c(F)cccc4F)c4ccc([nH]4)c(-c4c(F)cccc4F)c4nc(c(-c5c(F)cccc5F)c5ccc2[nH]5)C=C4)C=C3)cc1
REMARK SMILES IDX 24 1 23 2 21 3 22 4 20 6 4 7 5 8 6 9 19 10 3 12 2 13 1 14
REMARK SMILES IDX 7 15 8 16 9 17 15 18 10 19 14 20 13 21 16 22 18 23 17 24
REMARK SMILES IDX 11 25 12 26 25 27 26 28 27 29 28 30 29 32 30 33 31 34 83 35
REMARK SMILES IDX 32 36 82 37 33 38 34 39 35 40 76 41 36 42 81 43 75 44 77 45
REMARK SMILES IDX 37 46 80 47 74 48 73 49 38 51 64 52 47 53 63 54 48 55 51 56
REMARK SMILES IDX 62 57 78 58 49 59 50 60 61 62 79 63 52 64 39 65 40 66 45 67
REMARK SMILES IDX 41 68 42 69 44 70 46 71 43 72 65 73 66 74 71 75 67 76 68 77
REMARK SMILES IDX 70 78 72 79 69 80 53 81 54 82 59 83 55 84 56 85 58 86 60 87
REMARK SMILES IDX 57 88
REMARK H PARENT 23 5 6 11 27 31 77 50 51 61
REMARK Flexibility Score: inf
ROOT
ATOM      1  C   UNL A   1      37.749  21.694  25.301  1.00  0.00     0.117 C 
ENDROOT
BRANCH   1   2
ATOM      2  N   UNL A   1      36.535  21.759  26.122  1.00  0.00    -0.356 N 
ATOM      3  C   UNL A   1      35.210  21.455  26.025  1.00  0.00     0.229 C 
ATOM      4  O   UNL A   1      34.624  21.430  27.119  1.00  0.00    -0.275 OA
ATOM      5  H   UNL A   1      36.738  22.133  27.010  1.00  0.00     0.163 HD
BRANCH   3   6
ATOM      6  C   UNL A   1      34.370  21.190  24.757  1.00  0.00     0.142 C 
ATOM      7  C   UNL A   1      33.252  20.137  25.015  1.00  0.00     0.062 C 
ATOM      8  C   UNL A   1      32.145  20.520  24.030  1.00  0.00     0.267 C 
ATOM      9  N   UNL A   1      32.196  21.976  23.960  1.00  0.00    -0.330 N 
ATOM     10  C   UNL A   1      33.606  22.360  24.118  1.00  0.00     0.276 C 
ATOM     11  H   UNL A   1      31.868  22.285  23.045  1.00  0.00     0.348 HD
BRANCH   7  12
ATOM     12  C   UNL A   1      33.497  18.623  25.080  1.00  0.00     0.010 C 
BRANCH  12  13
ATOM     13  C   UNL A   1      34.581  17.989  24.220  1.00  0.00    -0.003 C 
ATOM     14  C   UNL A   1      34.003  17.057  23.166  1.00  0.00     0.004 C 
ENDBRANCH  12  13
ENDBRANCH   7  12
BRANCH   9  15
ATOM     15  C   UNL A   1      31.195  22.720  24.760  1.00  0.00     0.299 C 
BRANCH  15  16
ATOM     16  C   UNL A   1      31.074  24.231  24.624  1.00  0.00     0.014 A 
ATOM     17  C   UNL A   1      31.174  25.064  25.745  1.00  0.00     0.060 A 
ATOM     18  C   UNL A   1      30.936  24.874  23.394  1.00  0.00     0.060 A 
ATOM     19  C   UNL A   1      30.983  26.446  25.755  1.00  0.00     0.165 A 
ATOM     20  C   UNL A   1      30.834  26.264  23.384  1.00  0.00     0.170 A 
ATOM     21  C   UNL A   1      30.828  27.033  24.533  1.00  0.00     0.207 A 
ATOM     22  O   UNL A   1      30.737  27.027  22.259  1.00  0.00    -0.453 OA
ATOM     23  O   UNL A   1      30.704  28.358  24.268  1.00  0.00    -0.450 OA
ATOM     24  C   UNL A   1      30.712  28.351  22.829  1.00  0.00     0.468 C 
BRANCH  19  25
ATOM     25  O   UNL A   1      31.033  26.995  26.997  1.00  0.00    -0.493 OA
ATOM     26  C   UNL A   1      32.078  27.907  27.285  1.00  0.00     0.278 C 
ENDBRANCH  19  25
ENDBRANCH  15  16
ENDBRANCH   9  15
ENDBRANCH   3   6
ENDBRANCH   1   2
BRANCH   1  27
ATOM     27  C   UNL A   1      38.298  20.299  24.899  1.00  0.00     0.042 C 
BRANCH  27  28
ATOM     28  C   UNL A   1      38.711  19.324  26.030  1.00  0.00     0.118 C 
BRANCH  28  29
ATOM     29  N   UNL A   1      40.089  18.868  25.906  1.00  0.00    -0.352 N 
ATOM     30  C   UNL A   1      41.295  19.522  26.027  1.00  0.00     0.251 C 
ATOM     31  H   UNL A   1      40.175  17.910  25.694  1.00  0.00     0.163 HD
ATOM     32  O   UNL A   1      42.307  18.910  25.685  1.00  0.00    -0.269 OA
BRANCH  30  33
ATOM     33  C   UNL A   1      41.468  20.909  26.556  1.00  0.00     0.039 A 
ATOM     34  C   UNL A   1      41.371  21.971  25.641  1.00  0.00     0.014 A 
ATOM     35  C   UNL A   1      41.926  21.192  27.845  1.00  0.00     0.014 A 
ATOM     36  C   UNL A   1      41.725  23.283  26.001  1.00  0.00     0.010 A 
ATOM     37  C   UNL A   1      42.266  22.516  28.212  1.00  0.00     0.010 A 
ATOM     38  C   UNL A   1      42.186  23.578  27.293  1.00  0.00    -0.014 A 
BRANCH  38  39
ATOM     39  C   UNL A   1      42.591  24.980  27.646  1.00  0.00     0.031 A 
ATOM     40  C   UNL A   1      43.983  25.497  27.366  1.00  0.00     0.074 A 
ATOM     41  C   UNL A   1      41.703  25.830  28.205  1.00  0.00     0.049 A 
ATOM     42  N   UNL A   1      44.481  26.696  27.569  1.00  0.00    -0.248 NA
ATOM     43  C   UNL A   1      44.939  24.548  26.780  1.00  0.00     0.031 C 
ATOM     44  C   UNL A   1      40.318  25.507  28.539  1.00  0.00     0.029 A 
ATOM     45  N   UNL A   1      41.838  27.145  28.594  1.00  0.00    -0.354 N 
ATOM     46  C   UNL A   1      45.802  26.647  27.136  1.00  0.00     0.074 A 
ATOM     47  C   UNL A   1      46.038  25.287  26.695  1.00  0.00     0.031 C 
ATOM     48  C   UNL A   1      39.733  26.585  29.086  1.00  0.00     0.029 A 
ATOM     49  C   UNL A   1      40.698  27.682  29.144  1.00  0.00     0.049 A 
ATOM     50  H   UNL A   1      42.674  27.654  28.488  1.00  0.00     0.167 HD
ATOM     51  C   UNL A   1      46.729  27.637  27.089  1.00  0.00     0.037 A 
ATOM     52  C   UNL A   1      40.444  28.911  29.635  1.00  0.00     0.037 A 
ATOM     53  C   UNL A   1      46.519  29.004  27.500  1.00  0.00     0.049 A 
ATOM     54  C   UNL A   1      41.497  29.984  29.601  1.00  0.00     0.074 A 
ATOM     55  C   UNL A   1      47.400  30.072  27.427  1.00  0.00     0.029 A 
ATOM     56  N   UNL A   1      45.354  29.492  28.066  1.00  0.00    -0.354 N 
ATOM     57  N   UNL A   1      42.717  29.930  29.131  1.00  0.00    -0.248 NA
ATOM     58  C   UNL A   1      41.130  31.297  30.160  1.00  0.00     0.031 C 
ATOM     59  C   UNL A   1      46.781  31.197  27.982  1.00  0.00     0.029 A 
ATOM     60  C   UNL A   1      45.503  30.838  28.369  1.00  0.00     0.049 A 
ATOM     61  H   UNL A   1      44.540  28.962  28.230  1.00  0.00     0.167 HD
ATOM     62  C   UNL A   1      43.250  31.202  29.306  1.00  0.00     0.074 A 
ATOM     63  C   UNL A   1      42.222  32.011  29.922  1.00  0.00     0.031 C 
ATOM     64  C   UNL A   1      44.484  31.653  28.977  1.00  0.00     0.037 A 
BRANCH  51  65
ATOM     65  C   UNL A   1      48.090  27.284  26.558  1.00  0.00     0.057 A 
ATOM     66  C   UNL A   1      48.396  27.391  25.196  1.00  0.00     0.134 A 
ATOM     67  C   UNL A   1      49.123  26.908  27.427  1.00  0.00     0.134 A 
ATOM     68  F   UNL A   1      47.451  27.748  24.314  1.00  0.00    -0.206 F 
ATOM     69  C   UNL A   1      49.676  27.112  24.712  1.00  0.00     0.040 A 
ATOM     70  C   UNL A   1      50.412  26.648  26.957  1.00  0.00     0.040 A 
ATOM     71  F   UNL A   1      48.900  26.806  28.746  1.00  0.00    -0.206 F 
ATOM     72  C   UNL A   1      50.690  26.745  25.596  1.00  0.00     0.006 A 
ENDBRANCH  51  65
BRANCH  52  73
ATOM     73  C   UNL A   1      39.103  29.217  30.193  1.00  0.00     0.057 A 
ATOM     74  C   UNL A   1      38.814  28.995  31.544  1.00  0.00     0.134 A 
ATOM     75  C   UNL A   1      38.075  29.712  29.382  1.00  0.00     0.134 A 
ATOM     76  F   UNL A   1      39.753  28.495  32.361  1.00  0.00    -0.206 F 
ATOM     77  C   UNL A   1      37.545  29.242  32.069  1.00  0.00     0.040 A 
ATOM     78  C   UNL A   1      36.807  29.982  29.898  1.00  0.00     0.040 A 
ATOM     79  F   UNL A   1      38.292  29.940  28.079  1.00  0.00    -0.206 F 
ATOM     80  C   UNL A   1      36.539  29.741  31.245  1.00  0.00     0.006 A 
ENDBRANCH  52  73
BRANCH  64  81
ATOM     81  C   UNL A   1      44.792  33.097  29.249  1.00  0.00     0.057 A 
ATOM     82  C   UNL A   1      44.497  34.103  28.321  1.00  0.00     0.134 A 
ATOM     83  C   UNL A   1      45.362  33.491  30.468  1.00  0.00     0.134 A 
ATOM     84  F   UNL A   1      43.963  33.793  27.131  1.00  0.00    -0.206 F 
ATOM     85  C   UNL A   1      44.772  35.446  28.587  1.00  0.00     0.040 A 
ATOM     86  C   UNL A   1      45.624  34.832  30.753  1.00  0.00     0.040 A 
ATOM     87  F   UNL A   1      45.666  32.578  31.403  1.00  0.00    -0.206 F 
ATOM     88  C   UNL A   1      45.332  35.815  29.809  1.00  0.00     0.006 A 
ENDBRANCH  64  81
ENDBRANCH  38  39
ENDBRANCH  30  33
ENDBRANCH  28  29
ENDBRANCH  27  28
ENDBRANCH   1  27
TORSDOF 15
ENDMDL
