MODEL 1
REMARK VINA RESULT:     -10.8      0.000      0.000
REMARK SMILES C[C@@H](CC(=O)NCCCNC(=O)c1ccc(-c2c3nc(c(-c4c(F)cccc4F)c4ccc([nH]4)c(-c4c(F)cccc4F)c4nc(c(-c5c(F)cccc5F)c5ccc2[nH]5)C=C4)C=C3)cc1)NC(=O)CCCN1C(=O)CN(C)C1=O
REMARK SMILES IDX 4 1 5 2 6 3 3 5 2 6 1 7 67 8 68 9 69 11 70 12 71 13 72 14
REMARK SMILES IDX 73 15 74 16 79 17 75 18 76 19 77 20 80 21 78 22 7 23 8 24
REMARK SMILES IDX 9 25 10 26 11 27 12 29 13 30 14 31 66 32 15 33 65 34 16 35
REMARK SMILES IDX 17 36 18 37 59 38 19 39 64 40 58 41 60 42 20 43 63 44 57 45
REMARK SMILES IDX 56 46 21 48 47 49 30 50 46 51 31 52 34 53 45 54 61 55 32 56
REMARK SMILES IDX 33 57 44 59 62 60 35 61 22 62 23 63 28 64 24 65 25 66 27 67
REMARK SMILES IDX 29 68 26 69 48 70 49 71 54 72 50 73 51 74 53 75 55 76 52 77
REMARK SMILES IDX 36 78 37 79 42 80 38 81 39 82 41 83 43 84 40 85
REMARK H PARENT 6 4 67 10 10 28 60 47 34 58
REMARK Flexibility Score: inf
ROOT
ATOM      1  C   UNL A   1      33.639  20.292  25.239  1.00  0.00     0.222 C 
ATOM      2  O   UNL A   1      32.763  19.465  25.499  1.00  0.00    -0.275 OA
ATOM      3  N   UNL A   1      34.933  19.871  25.222  1.00  0.00    -0.356 N 
ATOM      4  H   UNL A   1      35.041  18.908  25.399  1.00  0.00     0.163 HD
ENDROOT
BRANCH   1   5
ATOM      5  C   UNL A   1      33.280  21.723  24.933  1.00  0.00     0.124 C 
BRANCH   5   6
ATOM      6  C   UNL A   1      32.716  22.530  26.101  1.00  0.00     0.088 C 
ATOM      7  C   UNL A   1      33.580  22.522  27.347  1.00  0.00     0.031 C 
BRANCH   6   8
ATOM      8  N   UNL A   1      31.374  22.197  26.526  1.00  0.00    -0.353 N 
ATOM      9  C   UNL A   1      30.415  23.160  26.740  1.00  0.00     0.220 C 
ATOM     10  H   UNL A   1      31.139  21.251  26.668  1.00  0.00     0.163 HD
ATOM     11  O   UNL A   1      29.630  23.036  27.678  1.00  0.00    -0.275 OA
BRANCH   9  12
ATOM     12  C   UNL A   1      30.315  24.312  25.746  1.00  0.00     0.102 C 
BRANCH  12  13
ATOM     13  C   UNL A   1      30.601  25.748  26.205  1.00  0.00     0.032 C 
BRANCH  13  14
ATOM     14  C   UNL A   1      31.683  26.616  25.533  1.00  0.00     0.131 C 
BRANCH  14  15
ATOM     15  N   UNL A   1      32.307  26.189  24.289  1.00  0.00    -0.263 N 
ATOM     16  C   UNL A   1      33.587  25.688  24.248  1.00  0.00     0.250 C 
ATOM     17  C   UNL A   1      31.819  26.305  23.020  1.00  0.00     0.326 C 
ATOM     18  O   UNL A   1      34.318  25.474  25.207  1.00  0.00    -0.272 OA
ATOM     19  C   UNL A   1      33.985  25.442  22.805  1.00  0.00     0.221 C 
ATOM     20  N   UNL A   1      32.741  25.747  22.151  1.00  0.00    -0.318 N 
ATOM     21  O   UNL A   1      30.754  26.802  22.684  1.00  0.00    -0.248 OA
ATOM     22  C   UNL A   1      32.563  25.608  20.727  1.00  0.00     0.149 C 
ENDBRANCH  14  15
ENDBRANCH  13  14
ENDBRANCH  12  13
ENDBRANCH   9  12
ENDBRANCH   6   8
ENDBRANCH   5   6
ENDBRANCH   1   5
BRANCH   3  23
ATOM     23  C   UNL A   1      36.191  20.573  24.992  1.00  0.00     0.117 C 
BRANCH  23  24
ATOM     24  C   UNL A   1      37.410  19.645  24.979  1.00  0.00     0.042 C 
BRANCH  24  25
ATOM     25  C   UNL A   1      38.723  20.313  25.353  1.00  0.00     0.118 C 
BRANCH  25  26
ATOM     26  N   UNL A   1      39.739  19.328  25.663  1.00  0.00    -0.352 N 
ATOM     27  C   UNL A   1      41.035  19.539  26.065  1.00  0.00     0.251 C 
ATOM     28  H   UNL A   1      39.465  18.386  25.575  1.00  0.00     0.163 HD
ATOM     29  O   UNL A   1      41.858  18.633  25.966  1.00  0.00    -0.269 OA
BRANCH  27  30
ATOM     30  C   UNL A   1      41.447  20.857  26.603  1.00  0.00     0.039 A 
ATOM     31  C   UNL A   1      42.026  21.790  25.738  1.00  0.00     0.014 A 
ATOM     32  C   UNL A   1      41.295  21.165  27.959  1.00  0.00     0.014 A 
ATOM     33  C   UNL A   1      42.407  23.044  26.223  1.00  0.00     0.010 A 
ATOM     34  C   UNL A   1      41.598  22.444  28.422  1.00  0.00     0.010 A 
ATOM     35  C   UNL A   1      42.168  23.394  27.561  1.00  0.00    -0.014 A 
BRANCH  35  36
ATOM     36  C   UNL A   1      42.500  24.747  28.076  1.00  0.00     0.031 A 
ATOM     37  C   UNL A   1      43.912  25.092  28.461  1.00  0.00     0.074 A 
ATOM     38  C   UNL A   1      41.517  25.651  28.252  1.00  0.00     0.049 A 
ATOM     39  N   UNL A   1      44.385  26.202  28.971  1.00  0.00    -0.248 NA
ATOM     40  C   UNL A   1      44.923  24.041  28.269  1.00  0.00     0.031 C 
ATOM     41  C   UNL A   1      40.104  25.430  27.947  1.00  0.00     0.029 A 
ATOM     42  N   UNL A   1      41.558  26.935  28.734  1.00  0.00    -0.354 N 
ATOM     43  C   UNL A   1      45.743  25.980  29.169  1.00  0.00     0.074 A 
ATOM     44  C   UNL A   1      46.004  24.610  28.782  1.00  0.00     0.031 C 
ATOM     45  C   UNL A   1      39.417  26.552  28.215  1.00  0.00     0.029 A 
ATOM     46  C   UNL A   1      40.331  27.553  28.756  1.00  0.00     0.049 A 
ATOM     47  H   UNL A   1      42.387  27.372  29.035  1.00  0.00     0.167 HD
ATOM     48  C   UNL A   1      46.689  26.844  29.612  1.00  0.00     0.037 A 
ATOM     49  C   UNL A   1      39.980  28.784  29.172  1.00  0.00     0.037 A 
ATOM     50  C   UNL A   1      46.422  28.205  29.998  1.00  0.00     0.049 A 
ATOM     51  C   UNL A   1      41.035  29.705  29.716  1.00  0.00     0.074 A 
ATOM     52  C   UNL A   1      47.317  29.177  30.409  1.00  0.00     0.029 A 
ATOM     53  N   UNL A   1      45.160  28.782  30.038  1.00  0.00    -0.354 N 
ATOM     54  N   UNL A   1      42.326  29.509  29.829  1.00  0.00    -0.248 NA
ATOM     55  C   UNL A   1      40.581  31.019  30.194  1.00  0.00     0.031 C 
ATOM     56  C   UNL A   1      46.591  30.322  30.758  1.00  0.00     0.029 A 
ATOM     57  C   UNL A   1      45.249  30.084  30.506  1.00  0.00     0.049 A 
ATOM     58  H   UNL A   1      44.326  28.333  29.773  1.00  0.00     0.167 HD
ATOM     59  C   UNL A   1      42.843  30.679  30.369  1.00  0.00     0.074 A 
ATOM     60  C   UNL A   1      41.728  31.586  30.546  1.00  0.00     0.031 C 
ATOM     61  C   UNL A   1      44.128  30.975  30.686  1.00  0.00     0.037 A 
BRANCH  48  62
ATOM     62  C   UNL A   1      48.096  26.323  29.717  1.00  0.00     0.057 A 
ATOM     63  C   UNL A   1      48.588  25.743  30.896  1.00  0.00     0.134 A 
ATOM     64  C   UNL A   1      48.974  26.405  28.629  1.00  0.00     0.134 A 
ATOM     65  F   UNL A   1      47.805  25.638  31.981  1.00  0.00    -0.206 F 
ATOM     66  C   UNL A   1      49.912  25.312  31.003  1.00  0.00     0.040 A 
ATOM     67  C   UNL A   1      50.290  25.946  28.713  1.00  0.00     0.040 A 
ATOM     68  F   UNL A   1      48.570  26.935  27.465  1.00  0.00    -0.206 F 
ATOM     69  C   UNL A   1      50.767  25.410  29.908  1.00  0.00     0.006 A 
ENDBRANCH  48  62
BRANCH  49  70
ATOM     70  C   UNL A   1      38.567  29.223  29.057  1.00  0.00     0.057 A 
ATOM     71  C   UNL A   1      37.713  29.186  30.166  1.00  0.00     0.134 A 
ATOM     72  C   UNL A   1      38.041  29.711  27.855  1.00  0.00     0.134 A 
ATOM     73  F   UNL A   1      38.154  28.710  31.340  1.00  0.00    -0.206 F 
ATOM     74  C   UNL A   1      36.387  29.611  30.082  1.00  0.00     0.040 A 
ATOM     75  C   UNL A   1      36.724  30.164  27.763  1.00  0.00     0.040 A 
ATOM     76  F   UNL A   1      38.809  29.780  26.758  1.00  0.00    -0.206 F 
ATOM     77  C   UNL A   1      35.891  30.111  28.879  1.00  0.00     0.006 A 
ENDBRANCH  49  70
BRANCH  61  78
ATOM     78  C   UNL A   1      44.402  32.344  31.241  1.00  0.00     0.057 A 
ATOM     79  C   UNL A   1      44.653  33.444  30.410  1.00  0.00     0.134 A 
ATOM     80  C   UNL A   1      44.370  32.574  32.623  1.00  0.00     0.134 A 
ATOM     81  F   UNL A   1      44.713  33.290  29.079  1.00  0.00    -0.206 F 
ATOM     82  C   UNL A   1      44.882  34.717  30.935  1.00  0.00     0.040 A 
ATOM     83  C   UNL A   1      44.567  33.848  33.157  1.00  0.00     0.040 A 
ATOM     84  F   UNL A   1      44.128  31.567  33.477  1.00  0.00    -0.206 F 
ATOM     85  C   UNL A   1      44.830  34.923  32.312  1.00  0.00     0.006 A 
ENDBRANCH  61  78
ENDBRANCH  35  36
ENDBRANCH  27  30
ENDBRANCH  25  26
ENDBRANCH  24  25
ENDBRANCH  23  24
ENDBRANCH   3  23
TORSDOF 16
ENDMDL
MODEL 2
REMARK VINA RESULT:     -10.8      1.903      6.553
REMARK SMILES C[C@@H](CC(=O)NCCCNC(=O)c1ccc(-c2c3nc(c(-c4c(F)cccc4F)c4ccc([nH]4)c(-c4c(F)cccc4F)c4nc(c(-c5c(F)cccc5F)c5ccc2[nH]5)C=C4)C=C3)cc1)NC(=O)CCCN1C(=O)CN(C)C1=O
REMARK SMILES IDX 4 1 5 2 6 3 3 5 2 6 1 7 67 8 68 9 69 11 70 12 71 13 72 14
REMARK SMILES IDX 73 15 74 16 79 17 75 18 76 19 77 20 80 21 78 22 7 23 8 24
REMARK SMILES IDX 9 25 10 26 11 27 12 29 13 30 14 31 66 32 15 33 65 34 16 35
REMARK SMILES IDX 17 36 18 37 59 38 19 39 64 40 58 41 60 42 20 43 63 44 57 45
REMARK SMILES IDX 56 46 21 48 47 49 30 50 46 51 31 52 34 53 45 54 61 55 32 56
REMARK SMILES IDX 33 57 44 59 62 60 35 61 22 62 23 63 28 64 24 65 25 66 27 67
REMARK SMILES IDX 29 68 26 69 48 70 49 71 54 72 50 73 51 74 53 75 55 76 52 77
REMARK SMILES IDX 36 78 37 79 42 80 38 81 39 82 41 83 43 84 40 85
REMARK H PARENT 6 4 67 10 10 28 60 47 34 58
REMARK Flexibility Score: inf
ROOT
ATOM      1  C   UNL A   1      34.125  20.268  25.043  1.00  0.00     0.222 C 
ATOM      2  O   UNL A   1      33.220  19.434  25.098  1.00  0.00    -0.275 OA
ATOM      3  N   UNL A   1      35.409  19.819  25.002  1.00  0.00    -0.356 N 
ATOM      4  H   UNL A   1      35.487  18.838  24.994  1.00  0.00     0.163 HD
ENDROOT
BRANCH   1   5
ATOM      5  C   UNL A   1      33.812  21.742  25.007  1.00  0.00     0.124 C 
BRANCH   5   6
ATOM      6  C   UNL A   1      33.215  22.326  26.285  1.00  0.00     0.088 C 
ATOM      7  C   UNL A   1      33.926  21.911  27.559  1.00  0.00     0.031 C 
BRANCH   6   8
ATOM      8  N   UNL A   1      31.804  22.091  26.504  1.00  0.00    -0.353 N 
ATOM      9  C   UNL A   1      30.891  23.119  26.552  1.00  0.00     0.220 C 
ATOM     10  H   UNL A   1      31.487  21.166  26.623  1.00  0.00     0.163 HD
ATOM     11  O   UNL A   1      29.966  23.070  27.359  1.00  0.00    -0.275 OA
BRANCH   9  12
ATOM     12  C   UNL A   1      31.022  24.248  25.536  1.00  0.00     0.102 C 
BRANCH  12  13
ATOM     13  C   UNL A   1      30.674  23.997  24.061  1.00  0.00     0.032 C 
BRANCH  13  14
ATOM     14  C   UNL A   1      31.111  24.968  22.947  1.00  0.00     0.131 C 
BRANCH  14  15
ATOM     15  N   UNL A   1      31.289  26.385  23.227  1.00  0.00    -0.263 N 
ATOM     16  C   UNL A   1      32.533  26.947  23.396  1.00  0.00     0.250 C 
ATOM     17  C   UNL A   1      30.326  27.322  23.469  1.00  0.00     0.326 C 
ATOM     18  O   UNL A   1      33.611  26.380  23.272  1.00  0.00    -0.272 OA
ATOM     19  C   UNL A   1      32.378  28.405  23.783  1.00  0.00     0.221 C 
ATOM     20  N   UNL A   1      30.952  28.542  23.665  1.00  0.00    -0.318 N 
ATOM     21  O   UNL A   1      29.117  27.144  23.501  1.00  0.00    -0.248 OA
ATOM     22  C   UNL A   1      30.276  29.798  23.875  1.00  0.00     0.149 C 
ENDBRANCH  14  15
ENDBRANCH  13  14
ENDBRANCH  12  13
ENDBRANCH   9  12
ENDBRANCH   6   8
ENDBRANCH   5   6
ENDBRANCH   1   5
BRANCH   3  23
ATOM     23  C   UNL A   1      36.692  20.514  24.970  1.00  0.00     0.117 C 
BRANCH  23  24
ATOM     24  C   UNL A   1      37.896  19.568  25.042  1.00  0.00     0.042 C 
BRANCH  24  25
ATOM     25  C   UNL A   1      39.116  20.144  25.741  1.00  0.00     0.118 C 
BRANCH  25  26
ATOM     26  N   UNL A   1      40.113  19.120  25.976  1.00  0.00    -0.352 N 
ATOM     27  C   UNL A   1      41.471  19.271  26.121  1.00  0.00     0.251 C 
ATOM     28  H   UNL A   1      39.775  18.198  26.041  1.00  0.00     0.163 HD
ATOM     29  O   UNL A   1      42.209  18.300  25.981  1.00  0.00    -0.269 OA
BRANCH  27  30
ATOM     30  C   UNL A   1      42.047  20.601  26.431  1.00  0.00     0.039 A 
ATOM     31  C   UNL A   1      42.465  21.419  25.378  1.00  0.00     0.014 A 
ATOM     32  C   UNL A   1      42.207  21.030  27.753  1.00  0.00     0.014 A 
ATOM     33  C   UNL A   1      42.998  22.682  25.649  1.00  0.00     0.010 A 
ATOM     34  C   UNL A   1      42.660  22.321  28.017  1.00  0.00     0.010 A 
ATOM     35  C   UNL A   1      43.071  23.158  26.968  1.00  0.00    -0.014 A 
BRANCH  35  36
ATOM     36  C   UNL A   1      43.566  24.525  27.269  1.00  0.00     0.031 A 
ATOM     37  C   UNL A   1      42.616  25.597  27.728  1.00  0.00     0.074 A 
ATOM     38  C   UNL A   1      44.866  24.820  27.074  1.00  0.00     0.049 A 
ATOM     39  N   UNL A   1      42.854  26.857  27.993  1.00  0.00    -0.248 NA
ATOM     40  C   UNL A   1      41.207  25.205  27.886  1.00  0.00     0.031 C 
ATOM     41  C   UNL A   1      45.882  23.879  26.603  1.00  0.00     0.029 A 
ATOM     42  N   UNL A   1      45.552  25.995  27.244  1.00  0.00    -0.354 N 
ATOM     43  C   UNL A   1      41.626  27.409  28.340  1.00  0.00     0.074 A 
ATOM     44  C   UNL A   1      40.639  26.363  28.191  1.00  0.00     0.031 C 
ATOM     45  C   UNL A   1      47.069  24.503  26.556  1.00  0.00     0.029 A 
ATOM     46  C   UNL A   1      46.889  25.899  26.946  1.00  0.00     0.049 A 
ATOM     47  H   UNL A   1      45.127  26.829  27.552  1.00  0.00     0.167 HD
ATOM     48  C   UNL A   1      41.350  28.667  28.764  1.00  0.00     0.037 A 
ATOM     49  C   UNL A   1      47.861  26.830  26.974  1.00  0.00     0.037 A 
ATOM     50  C   UNL A   1      42.337  29.706  28.907  1.00  0.00     0.049 A 
ATOM     51  C   UNL A   1      47.522  28.234  27.389  1.00  0.00     0.074 A 
ATOM     52  C   UNL A   1      42.170  30.996  29.380  1.00  0.00     0.029 A 
ATOM     53  N   UNL A   1      43.675  29.577  28.562  1.00  0.00    -0.354 N 
ATOM     54  N   UNL A   1      46.373  28.724  27.785  1.00  0.00    -0.248 NA
ATOM     55  C   UNL A   1      48.616  29.214  27.358  1.00  0.00     0.031 C 
ATOM     56  C   UNL A   1      43.393  31.667  29.260  1.00  0.00     0.029 A 
ATOM     57  C   UNL A   1      44.337  30.777  28.771  1.00  0.00     0.049 A 
ATOM     58  H   UNL A   1      44.093  28.755  28.218  1.00  0.00     0.167 HD
ATOM     59  C   UNL A   1      46.608  30.063  28.072  1.00  0.00     0.074 A 
ATOM     60  C   UNL A   1      48.014  30.303  27.818  1.00  0.00     0.031 C 
ATOM     61  C   UNL A   1      45.737  31.006  28.507  1.00  0.00     0.037 A 
BRANCH  48  62
ATOM     62  C   UNL A   1      39.914  28.983  29.082  1.00  0.00     0.057 A 
ATOM     63  C   UNL A   1      39.413  28.929  30.391  1.00  0.00     0.134 A 
ATOM     64  C   UNL A   1      39.018  29.342  28.067  1.00  0.00     0.134 A 
ATOM     65  F   UNL A   1      40.213  28.585  31.412  1.00  0.00    -0.206 F 
ATOM     66  C   UNL A   1      38.066  29.170  30.671  1.00  0.00     0.040 A 
ATOM     67  C   UNL A   1      37.677  29.619  28.340  1.00  0.00     0.040 A 
ATOM     68  F   UNL A   1      39.428  29.427  26.793  1.00  0.00    -0.206 F 
ATOM     69  C   UNL A   1      37.194  29.520  29.643  1.00  0.00     0.006 A 
ENDBRANCH  48  62
BRANCH  49  70
ATOM     70  C   UNL A   1      49.253  26.451  26.627  1.00  0.00     0.057 A 
ATOM     71  C   UNL A   1      49.753  26.665  25.338  1.00  0.00     0.134 A 
ATOM     72  C   UNL A   1      50.123  25.893  27.572  1.00  0.00     0.134 A 
ATOM     73  F   UNL A   1      48.962  27.179  24.384  1.00  0.00    -0.206 F 
ATOM     74  C   UNL A   1      51.065  26.332  24.997  1.00  0.00     0.040 A 
ATOM     75  C   UNL A   1      51.445  25.578  27.252  1.00  0.00     0.040 A 
ATOM     76  F   UNL A   1      49.707  25.670  28.827  1.00  0.00    -0.206 F 
ATOM     77  C   UNL A   1      51.918  25.795  25.960  1.00  0.00     0.006 A 
ENDBRANCH  49  70
BRANCH  61  78
ATOM     78  C   UNL A   1      46.282  32.383  28.757  1.00  0.00     0.057 A 
ATOM     79  C   UNL A   1      46.830  32.750  29.994  1.00  0.00     0.134 A 
ATOM     80  C   UNL A   1      46.300  33.341  27.734  1.00  0.00     0.134 A 
ATOM     81  F   UNL A   1      46.829  31.887  31.020  1.00  0.00    -0.206 F 
ATOM     82  C   UNL A   1      47.357  34.025  30.209  1.00  0.00     0.040 A 
ATOM     83  C   UNL A   1      46.852  34.608  27.929  1.00  0.00     0.040 A 
ATOM     84  F   UNL A   1      45.799  33.054  26.523  1.00  0.00    -0.206 F 
ATOM     85  C   UNL A   1      47.377  34.955  29.171  1.00  0.00     0.006 A 
ENDBRANCH  61  78
ENDBRANCH  35  36
ENDBRANCH  27  30
ENDBRANCH  25  26
ENDBRANCH  24  25
ENDBRANCH  23  24
ENDBRANCH   3  23
TORSDOF 16
ENDMDL
MODEL 3
REMARK VINA RESULT:     -10.5      1.660      6.485
REMARK SMILES C[C@@H](CC(=O)NCCCNC(=O)c1ccc(-c2c3nc(c(-c4c(F)cccc4F)c4ccc([nH]4)c(-c4c(F)cccc4F)c4nc(c(-c5c(F)cccc5F)c5ccc2[nH]5)C=C4)C=C3)cc1)NC(=O)CCCN1C(=O)CN(C)C1=O
REMARK SMILES IDX 4 1 5 2 6 3 3 5 2 6 1 7 67 8 68 9 69 11 70 12 71 13 72 14
REMARK SMILES IDX 73 15 74 16 79 17 75 18 76 19 77 20 80 21 78 22 7 23 8 24
REMARK SMILES IDX 9 25 10 26 11 27 12 29 13 30 14 31 66 32 15 33 65 34 16 35
REMARK SMILES IDX 17 36 18 37 59 38 19 39 64 40 58 41 60 42 20 43 63 44 57 45
REMARK SMILES IDX 56 46 21 48 47 49 30 50 46 51 31 52 34 53 45 54 61 55 32 56
REMARK SMILES IDX 33 57 44 59 62 60 35 61 22 62 23 63 28 64 24 65 25 66 27 67
REMARK SMILES IDX 29 68 26 69 48 70 49 71 54 72 50 73 51 74 53 75 55 76 52 77
REMARK SMILES IDX 36 78 37 79 42 80 38 81 39 82 41 83 43 84 40 85
REMARK H PARENT 6 4 67 10 10 28 60 47 34 58
REMARK Flexibility Score: inf
ROOT
ATOM      1  C   UNL A   1      33.990  20.009  25.003  1.00  0.00     0.222 C 
ATOM      2  O   UNL A   1      33.107  19.226  25.358  1.00  0.00    -0.275 OA
ATOM      3  N   UNL A   1      35.278  19.572  25.020  1.00  0.00    -0.356 N 
ATOM      4  H   UNL A   1      35.377  18.633  25.299  1.00  0.00     0.163 HD
ENDROOT
BRANCH   1   5
ATOM      5  C   UNL A   1      33.645  21.404  24.549  1.00  0.00     0.124 C 
BRANCH   5   6
ATOM      6  C   UNL A   1      33.165  22.358  25.641  1.00  0.00     0.088 C 
ATOM      7  C   UNL A   1      34.122  22.510  26.809  1.00  0.00     0.031 C 
BRANCH   6   8
ATOM      8  N   UNL A   1      31.861  22.087  26.207  1.00  0.00    -0.353 N 
ATOM      9  C   UNL A   1      31.016  23.096  26.608  1.00  0.00     0.220 C 
ATOM     10  H   UNL A   1      31.570  21.152  26.310  1.00  0.00     0.163 HD
ATOM     11  O   UNL A   1      30.342  22.953  27.626  1.00  0.00    -0.275 OA
BRANCH   9  12
ATOM     12  C   UNL A   1      30.889  24.327  25.718  1.00  0.00     0.102 C 
BRANCH  12  13
ATOM     13  C   UNL A   1      31.562  25.644  26.131  1.00  0.00     0.032 C 
BRANCH  13  14
ATOM     14  C   UNL A   1      32.212  26.584  25.097  1.00  0.00     0.131 C 
BRANCH  14  15
ATOM     15  N   UNL A   1      31.462  27.696  24.532  1.00  0.00    -0.263 N 
ATOM     16  C   UNL A   1      31.657  28.993  24.944  1.00  0.00     0.250 C 
ATOM     17  C   UNL A   1      30.429  27.647  23.641  1.00  0.00     0.326 C 
ATOM     18  O   UNL A   1      32.492  29.385  25.749  1.00  0.00    -0.272 OA
ATOM     19  C   UNL A   1      30.654  29.897  24.251  1.00  0.00     0.221 C 
ATOM     20  N   UNL A   1      30.034  28.946  23.368  1.00  0.00    -0.318 N 
ATOM     21  O   UNL A   1      29.928  26.647  23.149  1.00  0.00    -0.248 OA
ATOM     22  C   UNL A   1      29.018  29.324  22.417  1.00  0.00     0.149 C 
ENDBRANCH  14  15
ENDBRANCH  13  14
ENDBRANCH  12  13
ENDBRANCH   9  12
ENDBRANCH   6   8
ENDBRANCH   5   6
ENDBRANCH   1   5
BRANCH   3  23
ATOM     23  C   UNL A   1      36.543  20.229  24.705  1.00  0.00     0.117 C 
BRANCH  23  24
ATOM     24  C   UNL A   1      37.767  19.345  24.964  1.00  0.00     0.042 C 
BRANCH  24  25
ATOM     25  C   UNL A   1      38.880  20.016  25.752  1.00  0.00     0.118 C 
BRANCH  25  26
ATOM     26  N   UNL A   1      39.996  19.112  25.950  1.00  0.00    -0.352 N 
ATOM     27  C   UNL A   1      41.324  19.420  26.110  1.00  0.00     0.251 C 
ATOM     28  H   UNL A   1      39.772  18.153  25.974  1.00  0.00     0.163 HD
ATOM     29  O   UNL A   1      42.175  18.554  25.934  1.00  0.00    -0.269 OA
BRANCH  27  30
ATOM     30  C   UNL A   1      41.733  20.796  26.479  1.00  0.00     0.039 A 
ATOM     31  C   UNL A   1      41.857  21.125  27.832  1.00  0.00     0.014 A 
ATOM     32  C   UNL A   1      41.962  21.770  25.502  1.00  0.00     0.014 A 
ATOM     33  C   UNL A   1      42.256  22.413  28.200  1.00  0.00     0.010 A 
ATOM     34  C   UNL A   1      42.439  23.027  25.868  1.00  0.00     0.010 A 
ATOM     35  C   UNL A   1      42.581  23.366  27.221  1.00  0.00    -0.014 A 
BRANCH  35  36
ATOM     36  C   UNL A   1      43.075  24.716  27.594  1.00  0.00     0.031 A 
ATOM     37  C   UNL A   1      42.116  25.782  28.049  1.00  0.00     0.074 A 
ATOM     38  C   UNL A   1      44.385  25.003  27.467  1.00  0.00     0.049 A 
ATOM     39  N   UNL A   1      42.354  27.029  28.370  1.00  0.00    -0.248 NA
ATOM     40  C   UNL A   1      40.698  25.401  28.130  1.00  0.00     0.031 C 
ATOM     41  C   UNL A   1      45.412  24.068  27.008  1.00  0.00     0.029 A 
ATOM     42  N   UNL A   1      45.075  26.164  27.710  1.00  0.00    -0.354 N 
ATOM     43  C   UNL A   1      41.118  27.582  28.681  1.00  0.00     0.074 A 
ATOM     44  C   UNL A   1      40.128  26.553  28.451  1.00  0.00     0.031 C 
ATOM     45  C   UNL A   1      46.606  24.680  27.036  1.00  0.00     0.029 A 
ATOM     46  C   UNL A   1      46.423  26.063  27.468  1.00  0.00     0.049 A 
ATOM     47  H   UNL A   1      44.645  26.990  28.029  1.00  0.00     0.167 HD
ATOM     48  C   UNL A   1      40.836  28.827  29.139  1.00  0.00     0.037 A 
ATOM     49  C   UNL A   1      47.402  26.981  27.573  1.00  0.00     0.037 A 
ATOM     50  C   UNL A   1      41.826  29.848  29.363  1.00  0.00     0.049 A 
ATOM     51  C   UNL A   1      47.058  28.373  28.023  1.00  0.00     0.074 A 
ATOM     52  C   UNL A   1      41.651  31.122  29.874  1.00  0.00     0.029 A 
ATOM     53  N   UNL A   1      43.176  29.717  29.073  1.00  0.00    -0.354 N 
ATOM     54  N   UNL A   1      45.897  28.862  28.386  1.00  0.00    -0.248 NA
ATOM     55  C   UNL A   1      48.162  29.341  28.076  1.00  0.00     0.031 C 
ATOM     56  C   UNL A   1      42.884  31.784  29.834  1.00  0.00     0.029 A 
ATOM     57  C   UNL A   1      43.840  30.901  29.355  1.00  0.00     0.049 A 
ATOM     58  H   UNL A   1      43.601  28.903  28.718  1.00  0.00     0.167 HD
ATOM     59  C   UNL A   1      46.133  30.186  28.731  1.00  0.00     0.074 A 
ATOM     60  C   UNL A   1      47.551  30.419  28.549  1.00  0.00     0.031 C 
ATOM     61  C   UNL A   1      45.253  31.123  29.162  1.00  0.00     0.037 A 
BRANCH  48  62
ATOM     62  C   UNL A   1      39.390  29.148  29.404  1.00  0.00     0.057 A 
ATOM     63  C   UNL A   1      38.523  29.569  28.385  1.00  0.00     0.134 A 
ATOM     64  C   UNL A   1      38.857  29.038  30.694  1.00  0.00     0.134 A 
ATOM     65  F   UNL A   1      38.967  29.703  27.126  1.00  0.00    -0.206 F 
ATOM     66  C   UNL A   1      37.197  29.918  28.649  1.00  0.00     0.040 A 
ATOM     67  C   UNL A   1      37.523  29.351  30.964  1.00  0.00     0.040 A 
ATOM     68  F   UNL A   1      39.623  28.629  31.717  1.00  0.00    -0.206 F 
ATOM     69  C   UNL A   1      36.692  29.806  29.942  1.00  0.00     0.006 A 
ENDBRANCH  48  62
BRANCH  49  70
ATOM     70  C   UNL A   1      48.804  26.598  27.274  1.00  0.00     0.057 A 
ATOM     71  C   UNL A   1      49.620  26.041  28.264  1.00  0.00     0.134 A 
ATOM     72  C   UNL A   1      49.356  26.755  25.997  1.00  0.00     0.134 A 
ATOM     73  F   UNL A   1      49.155  25.883  29.513  1.00  0.00    -0.206 F 
ATOM     74  C   UNL A   1      50.936  25.658  27.999  1.00  0.00     0.040 A 
ATOM     75  C   UNL A   1      50.661  26.354  25.710  1.00  0.00     0.040 A 
ATOM     76  F   UNL A   1      48.623  27.276  25.002  1.00  0.00    -0.206 F 
ATOM     77  C   UNL A   1      51.457  25.807  26.714  1.00  0.00     0.006 A 
ENDBRANCH  49  70
BRANCH  61  78
ATOM     78  C   UNL A   1      45.800  32.484  29.485  1.00  0.00     0.057 A 
ATOM     79  C   UNL A   1      46.314  32.794  30.752  1.00  0.00     0.134 A 
ATOM     80  C   UNL A   1      45.854  33.484  28.505  1.00  0.00     0.134 A 
ATOM     81  F   UNL A   1      46.278  31.888  31.740  1.00  0.00    -0.206 F 
ATOM     82  C   UNL A   1      46.843  34.054  31.036  1.00  0.00     0.040 A 
ATOM     83  C   UNL A   1      46.408  34.737  28.769  1.00  0.00     0.040 A 
ATOM     84  F   UNL A   1      45.386  33.253  27.269  1.00  0.00    -0.206 F 
ATOM     85  C   UNL A   1      46.900  35.027  30.039  1.00  0.00     0.006 A 
ENDBRANCH  61  78
ENDBRANCH  35  36
ENDBRANCH  27  30
ENDBRANCH  25  26
ENDBRANCH  24  25
ENDBRANCH  23  24
ENDBRANCH   3  23
TORSDOF 16
ENDMDL
