MODEL 1
REMARK VINA RESULT:     -11.9      0.000      0.000
REMARK SMILES CCS(=O)(=O)Nc1ccc(N2CC[NH+](C)CC2)cc1C(=O)NCCCNC(=O)c1ccc(-c2c3nc(c(-c4c(F)cccc4F)c4ccc([nH]4)c(-c4c(F)cccc4F)c4nc(c(-c5c(F)cccc5F)c5ccc2[nH]5)C=C4)C=C3)cc1
REMARK SMILES IDX 23 1 22 2 20 3 21 4 19 6 7 7 8 8 9 9 18 10 10 11 6 12 3 14
REMARK SMILES IDX 4 15 5 16 2 17 1 18 11 19 12 20 17 21 13 22 16 23 14 24
REMARK SMILES IDX 15 25 24 27 25 28 26 29 27 30 28 32 29 33 30 34 82 35 31 36
REMARK SMILES IDX 81 37 32 38 33 39 34 40 75 41 35 42 80 43 74 44 76 45 36 46
REMARK SMILES IDX 79 47 73 48 72 49 37 51 63 52 46 53 62 54 47 55 50 56 61 57
REMARK SMILES IDX 77 58 48 59 49 60 60 62 78 63 51 64 38 65 39 66 44 67 40 68
REMARK SMILES IDX 41 69 43 70 45 71 42 72 64 73 65 74 70 75 66 76 67 77 69 78
REMARK SMILES IDX 71 79 68 80 52 81 53 82 58 83 54 84 55 85 57 86 59 87 56 88
REMARK H PARENT 22 5 6 13 14 26 26 31 76 50 50 61
REMARK Flexibility Score: inf
ROOT
ATOM      1  C   UNL A   1      37.051  22.391  25.626  1.00  0.00     0.118 C 
ENDROOT
BRANCH   1   2
ATOM      2  N   UNL A   1      35.922  22.018  26.454  1.00  0.00    -0.352 N 
ATOM      3  C   UNL A   1      34.591  21.754  26.330  1.00  0.00     0.253 C 
ATOM      4  O   UNL A   1      34.096  21.341  27.389  1.00  0.00    -0.269 OA
ATOM      5  H   UNL A   1      36.203  21.927  27.394  1.00  0.00     0.163 HD
BRANCH   3   6
ATOM      6  C   UNL A   1      33.671  21.916  25.149  1.00  0.00     0.066 A 
ATOM      7  C   UNL A   1      32.785  21.010  24.552  1.00  0.00     0.061 A 
ATOM      8  C   UNL A   1      32.187  21.333  23.326  1.00  0.00     0.030 A 
ATOM      9  C   UNL A   1      32.332  22.600  22.764  1.00  0.00     0.028 A 
ATOM     10  C   UNL A   1      33.750  23.208  24.559  1.00  0.00     0.042 A 
ATOM     11  C   UNL A   1      33.076  23.594  23.392  1.00  0.00     0.038 A 
BRANCH   7  12
ATOM     12  N   UNL A   1      32.554  19.708  25.073  1.00  0.00    -0.283 N 
ATOM     13  H   UNL A   1      31.903  19.596  25.805  1.00  0.00     0.180 HD
BRANCH  12  14
ATOM     14  S   UNL A   1      33.355  18.357  24.481  1.00  0.00     0.232 S 
ATOM     15  O   UNL A   1      34.755  18.739  24.517  1.00  0.00    -0.207 OA
ATOM     16  O   UNL A   1      32.738  18.017  23.217  1.00  0.00    -0.207 OA
BRANCH  14  17
ATOM     17  C   UNL A   1      33.115  16.983  25.613  1.00  0.00     0.156 C 
ATOM     18  C   UNL A   1      32.950  15.606  25.015  1.00  0.00     0.023 C 
ENDBRANCH  14  17
ENDBRANCH  12  14
ENDBRANCH   7  12
BRANCH  11  19
ATOM     19  N   UNL A   1      33.135  24.877  22.899  1.00  0.00    -0.360 N 
ATOM     20  C   UNL A   1      33.704  26.017  23.639  1.00  0.00     0.178 C 
ATOM     21  C   UNL A   1      32.608  25.230  21.572  1.00  0.00     0.178 C 
ATOM     22  C   UNL A   1      32.682  27.174  23.717  1.00  0.00     0.283 C 
ATOM     23  C   UNL A   1      31.623  26.419  21.684  1.00  0.00     0.283 C 
ATOM     24  N   UNL A   1      32.199  27.590  22.379  1.00  0.00    -0.334 N 
ATOM     25  C   UNL A   1      31.207  28.657  22.496  1.00  0.00     0.332 C 
ATOM     26  H   UNL A   1      32.984  27.952  21.836  1.00  0.00     0.347 HD
ENDBRANCH  11  19
ENDBRANCH   3   6
ENDBRANCH   1   2
BRANCH   1  27
ATOM     27  C   UNL A   1      37.896  21.203  25.189  1.00  0.00     0.042 C 
BRANCH  27  28
ATOM     28  C   UNL A   1      39.129  21.036  26.061  1.00  0.00     0.118 C 
BRANCH  28  29
ATOM     29  N   UNL A   1      39.951  19.865  25.796  1.00  0.00    -0.352 N 
ATOM     30  C   UNL A   1      41.315  19.747  26.026  1.00  0.00     0.251 C 
ATOM     31  H   UNL A   1      39.495  19.079  25.415  1.00  0.00     0.163 HD
ATOM     32  O   UNL A   1      41.939  18.755  25.736  1.00  0.00    -0.269 OA
BRANCH  30  33
ATOM     33  C   UNL A   1      42.020  20.942  26.559  1.00  0.00     0.039 A 
ATOM     34  C   UNL A   1      42.513  21.882  25.651  1.00  0.00     0.014 A 
ATOM     35  C   UNL A   1      42.048  21.201  27.929  1.00  0.00     0.014 A 
ATOM     36  C   UNL A   1      42.917  23.136  26.111  1.00  0.00     0.010 A 
ATOM     37  C   UNL A   1      42.354  22.483  28.373  1.00  0.00     0.010 A 
ATOM     38  C   UNL A   1      42.770  23.472  27.467  1.00  0.00    -0.014 A 
BRANCH  38  39
ATOM     39  C   UNL A   1      43.008  24.852  27.965  1.00  0.00     0.031 A 
ATOM     40  C   UNL A   1      44.389  25.267  28.391  1.00  0.00     0.074 A 
ATOM     41  C   UNL A   1      41.969  25.692  28.146  1.00  0.00     0.049 A 
ATOM     42  N   UNL A   1      44.774  26.352  29.011  1.00  0.00    -0.248 NA
ATOM     43  C   UNL A   1      45.474  24.310  28.123  1.00  0.00     0.031 C 
ATOM     44  C   UNL A   1      40.568  25.395  27.838  1.00  0.00     0.029 A 
ATOM     45  N   UNL A   1      41.930  26.968  28.653  1.00  0.00    -0.354 N 
ATOM     46  C   UNL A   1      46.131  26.187  29.251  1.00  0.00     0.074 A 
ATOM     47  C   UNL A   1      46.496  24.882  28.742  1.00  0.00     0.031 C 
ATOM     48  C   UNL A   1      39.813  26.464  28.137  1.00  0.00     0.029 A 
ATOM     49  C   UNL A   1      40.666  27.507  28.696  1.00  0.00     0.049 A 
ATOM     50  H   UNL A   1      42.732  27.451  28.958  1.00  0.00     0.167 HD
ATOM     51  C   UNL A   1      47.001  27.050  29.827  1.00  0.00     0.037 A 
ATOM     52  C   UNL A   1      40.242  28.705  29.142  1.00  0.00     0.037 A 
ATOM     53  C   UNL A   1      46.655  28.374  30.269  1.00  0.00     0.049 A 
ATOM     54  C   UNL A   1      41.239  29.675  29.710  1.00  0.00     0.074 A 
ATOM     55  C   UNL A   1      47.481  29.354  30.788  1.00  0.00     0.029 A 
ATOM     56  N   UNL A   1      45.376  28.908  30.226  1.00  0.00    -0.354 N 
ATOM     57  N   UNL A   1      42.529  29.523  29.886  1.00  0.00    -0.248 NA
ATOM     58  C   UNL A   1      40.723  30.984  30.139  1.00  0.00     0.031 C 
ATOM     59  C   UNL A   1      46.699  30.478  31.074  1.00  0.00     0.029 A 
ATOM     60  C   UNL A   1      45.390  30.205  30.710  1.00  0.00     0.049 A 
ATOM     61  H   UNL A   1      44.576  28.435  29.900  1.00  0.00     0.167 HD
ATOM     62  C   UNL A   1      42.981  30.719  30.425  1.00  0.00     0.074 A 
ATOM     63  C   UNL A   1      41.831  31.593  30.537  1.00  0.00     0.031 C 
ATOM     64  C   UNL A   1      44.238  31.062  30.796  1.00  0.00     0.037 A 
BRANCH  51  65
ATOM     65  C   UNL A   1      48.416  26.587  29.998  1.00  0.00     0.057 A 
ATOM     66  C   UNL A   1      48.825  25.864  31.127  1.00  0.00     0.134 A 
ATOM     67  C   UNL A   1      49.379  26.857  29.018  1.00  0.00     0.134 A 
ATOM     68  F   UNL A   1      47.954  25.587  32.108  1.00  0.00    -0.206 F 
ATOM     69  C   UNL A   1      50.149  25.454  31.289  1.00  0.00     0.040 A 
ATOM     70  C   UNL A   1      50.701  26.430  29.157  1.00  0.00     0.040 A 
ATOM     71  F   UNL A   1      49.051  27.541  27.911  1.00  0.00    -0.206 F 
ATOM     72  C   UNL A   1      51.090  25.733  30.299  1.00  0.00     0.006 A 
ENDBRANCH  51  65
BRANCH  52  73
ATOM     73  C   UNL A   1      38.808  29.070  29.043  1.00  0.00     0.057 A 
ATOM     74  C   UNL A   1      38.268  29.533  27.837  1.00  0.00     0.134 A 
ATOM     75  C   UNL A   1      37.947  28.974  30.141  1.00  0.00     0.134 A 
ATOM     76  F   UNL A   1      39.050  29.664  26.756  1.00  0.00    -0.206 F 
ATOM     77  C   UNL A   1      36.926  29.902  27.729  1.00  0.00     0.040 A 
ATOM     78  C   UNL A   1      36.597  29.323  30.043  1.00  0.00     0.040 A 
ATOM     79  F   UNL A   1      38.402  28.532  31.322  1.00  0.00    -0.206 F 
ATOM     80  C   UNL A   1      36.086  29.794  28.836  1.00  0.00     0.006 A 
ENDBRANCH  52  73
BRANCH  64  81
ATOM     81  C   UNL A   1      44.441  32.449  31.324  1.00  0.00     0.057 A 
ATOM     82  C   UNL A   1      44.374  32.732  32.693  1.00  0.00     0.134 A 
ATOM     83  C   UNL A   1      44.757  33.501  30.455  1.00  0.00     0.134 A 
ATOM     84  F   UNL A   1      44.063  31.767  33.571  1.00  0.00    -0.206 F 
ATOM     85  C   UNL A   1      44.604  34.019  33.180  1.00  0.00     0.040 A 
ATOM     86  C   UNL A   1      45.006  34.788  30.932  1.00  0.00     0.040 A 
ATOM     87  F   UNL A   1      44.840  33.291  29.133  1.00  0.00    -0.206 F 
ATOM     88  C   UNL A   1      44.928  35.050  32.299  1.00  0.00     0.006 A 
ENDBRANCH  64  81
ENDBRANCH  38  39
ENDBRANCH  30  33
ENDBRANCH  28  29
ENDBRANCH  27  28
ENDBRANCH   1  27
TORSDOF 14
ENDMDL
MODEL 2
REMARK VINA RESULT:     -11.8      0.837      6.223
REMARK SMILES CCS(=O)(=O)Nc1ccc(N2CC[NH+](C)CC2)cc1C(=O)NCCCNC(=O)c1ccc(-c2c3nc(c(-c4c(F)cccc4F)c4ccc([nH]4)c(-c4c(F)cccc4F)c4nc(c(-c5c(F)cccc5F)c5ccc2[nH]5)C=C4)C=C3)cc1
REMARK SMILES IDX 23 1 22 2 20 3 21 4 19 6 7 7 8 8 9 9 18 10 10 11 6 12 3 14
REMARK SMILES IDX 4 15 5 16 2 17 1 18 11 19 12 20 17 21 13 22 16 23 14 24
REMARK SMILES IDX 15 25 24 27 25 28 26 29 27 30 28 32 29 33 30 34 82 35 31 36
REMARK SMILES IDX 81 37 32 38 33 39 34 40 75 41 35 42 80 43 74 44 76 45 36 46
REMARK SMILES IDX 79 47 73 48 72 49 37 51 63 52 46 53 62 54 47 55 50 56 61 57
REMARK SMILES IDX 77 58 48 59 49 60 60 62 78 63 51 64 38 65 39 66 44 67 40 68
REMARK SMILES IDX 41 69 43 70 45 71 42 72 64 73 65 74 70 75 66 76 67 77 69 78
REMARK SMILES IDX 71 79 68 80 52 81 53 82 58 83 54 84 55 85 57 86 59 87 56 88
REMARK H PARENT 22 5 6 13 14 26 26 31 76 50 50 61
REMARK Flexibility Score: inf
ROOT
ATOM      1  C   UNL A   1      36.993  22.674  25.749  1.00  0.00     0.118 C 
ENDROOT
BRANCH   1   2
ATOM      2  N   UNL A   1      35.876  22.175  26.526  1.00  0.00    -0.352 N 
ATOM      3  C   UNL A   1      34.577  21.806  26.348  1.00  0.00     0.253 C 
ATOM      4  O   UNL A   1      34.088  21.310  27.375  1.00  0.00    -0.269 OA
ATOM      5  H   UNL A   1      36.136  22.070  27.470  1.00  0.00     0.163 HD
BRANCH   3   6
ATOM      6  C   UNL A   1      33.681  21.937  25.145  1.00  0.00     0.066 A 
ATOM      7  C   UNL A   1      32.825  21.008  24.539  1.00  0.00     0.061 A 
ATOM      8  C   UNL A   1      32.249  21.305  23.297  1.00  0.00     0.030 A 
ATOM      9  C   UNL A   1      32.385  22.568  22.721  1.00  0.00     0.028 A 
ATOM     10  C   UNL A   1      33.751  23.223  24.541  1.00  0.00     0.042 A 
ATOM     11  C   UNL A   1      33.097  23.583  23.354  1.00  0.00     0.038 A 
BRANCH   7  12
ATOM     12  N   UNL A   1      32.604  19.709  25.072  1.00  0.00    -0.283 N 
ATOM     13  H   UNL A   1      31.956  19.598  25.805  1.00  0.00     0.180 HD
BRANCH  12  14
ATOM     14  S   UNL A   1      33.415  18.359  24.489  1.00  0.00     0.232 S 
ATOM     15  O   UNL A   1      34.814  18.741  24.548  1.00  0.00    -0.207 OA
ATOM     16  O   UNL A   1      32.817  18.022  23.215  1.00  0.00    -0.207 OA
BRANCH  14  17
ATOM     17  C   UNL A   1      33.158  16.982  25.615  1.00  0.00     0.156 C 
ATOM     18  C   UNL A   1      33.036  15.602  25.014  1.00  0.00     0.023 C 
ENDBRANCH  14  17
ENDBRANCH  12  14
ENDBRANCH   7  12
BRANCH  11  19
ATOM     19  N   UNL A   1      33.145  24.860  22.847  1.00  0.00    -0.360 N 
ATOM     20  C   UNL A   1      33.832  25.983  23.509  1.00  0.00     0.178 C 
ATOM     21  C   UNL A   1      32.486  25.225  21.582  1.00  0.00     0.178 C 
ATOM     22  C   UNL A   1      32.865  27.176  23.689  1.00  0.00     0.283 C 
ATOM     23  C   UNL A   1      31.561  26.448  21.793  1.00  0.00     0.283 C 
ATOM     24  N   UNL A   1      32.251  27.602  22.409  1.00  0.00    -0.334 N 
ATOM     25  C   UNL A   1      31.316  28.704  22.626  1.00  0.00     0.332 C 
ATOM     26  H   UNL A   1      32.982  27.934  21.780  1.00  0.00     0.347 HD
ENDBRANCH  11  19
ENDBRANCH   3   6
ENDBRANCH   1   2
BRANCH   1  27
ATOM     27  C   UNL A   1      37.851  21.569  25.149  1.00  0.00     0.042 C 
BRANCH  27  28
ATOM     28  C   UNL A   1      39.118  21.338  25.957  1.00  0.00     0.118 C 
BRANCH  28  29
ATOM     29  N   UNL A   1      39.779  20.057  25.762  1.00  0.00    -0.352 N 
ATOM     30  C   UNL A   1      41.106  19.763  26.048  1.00  0.00     0.251 C 
ATOM     31  H   UNL A   1      39.233  19.326  25.390  1.00  0.00     0.163 HD
ATOM     32  O   UNL A   1      41.597  18.685  25.815  1.00  0.00    -0.269 OA
BRANCH  30  33
ATOM     33  C   UNL A   1      41.951  20.871  26.569  1.00  0.00     0.039 A 
ATOM     34  C   UNL A   1      42.490  21.779  25.655  1.00  0.00     0.014 A 
ATOM     35  C   UNL A   1      42.069  21.093  27.940  1.00  0.00     0.014 A 
ATOM     36  C   UNL A   1      43.037  22.977  26.119  1.00  0.00     0.010 A 
ATOM     37  C   UNL A   1      42.520  22.328  28.392  1.00  0.00     0.010 A 
ATOM     38  C   UNL A   1      42.988  23.293  27.486  1.00  0.00    -0.014 A 
BRANCH  38  39
ATOM     39  C   UNL A   1      43.385  24.631  27.998  1.00  0.00     0.031 A 
ATOM     40  C   UNL A   1      42.331  25.656  28.309  1.00  0.00     0.074 A 
ATOM     41  C   UNL A   1      44.690  24.965  28.071  1.00  0.00     0.049 A 
ATOM     42  N   UNL A   1      42.468  26.925  28.595  1.00  0.00    -0.248 NA
ATOM     43  C   UNL A   1      40.933  25.202  28.246  1.00  0.00     0.031 C 
ATOM     44  C   UNL A   1      45.815  24.090  27.735  1.00  0.00     0.029 A 
ATOM     45  N   UNL A   1      45.290  26.145  28.437  1.00  0.00    -0.354 N 
ATOM     46  C   UNL A   1      41.179  27.430  28.696  1.00  0.00     0.074 A 
ATOM     47  C   UNL A   1      40.273  26.339  28.405  1.00  0.00     0.031 C 
ATOM     48  C   UNL A   1      46.966  24.752  27.935  1.00  0.00     0.029 A 
ATOM     49  C   UNL A   1      46.663  26.110  28.373  1.00  0.00     0.049 A 
ATOM     50  H   UNL A   1      44.784  26.941  28.719  1.00  0.00     0.167 HD
ATOM     51  C   UNL A   1      40.782  28.683  29.018  1.00  0.00     0.037 A 
ATOM     52  C   UNL A   1      47.574  27.067  28.630  1.00  0.00     0.037 A 
ATOM     53  C   UNL A   1      41.679  29.749  29.376  1.00  0.00     0.049 A 
ATOM     54  C   UNL A   1      47.109  28.431  29.059  1.00  0.00     0.074 A 
ATOM     55  C   UNL A   1      41.372  31.029  29.799  1.00  0.00     0.029 A 
ATOM     56  N   UNL A   1      43.062  29.649  29.369  1.00  0.00    -0.354 N 
ATOM     57  N   UNL A   1      45.886  28.879  29.195  1.00  0.00    -0.248 NA
ATOM     58  C   UNL A   1      48.152  29.420  29.370  1.00  0.00     0.031 C 
ATOM     59  C   UNL A   1      42.571  31.711  30.034  1.00  0.00     0.029 A 
ATOM     60  C   UNL A   1      43.623  30.846  29.780  1.00  0.00     0.049 A 
ATOM     61  H   UNL A   1      43.569  28.846  29.110  1.00  0.00     0.167 HD
ATOM     62  C   UNL A   1      46.010  30.192  29.628  1.00  0.00     0.074 A 
ATOM     63  C   UNL A   1      47.427  30.466  29.742  1.00  0.00     0.031 C 
ATOM     64  C   UNL A   1      45.035  31.092  29.903  1.00  0.00     0.037 A 
BRANCH  51  65
ATOM     65  C   UNL A   1      39.309  28.961  29.009  1.00  0.00     0.057 A 
ATOM     66  C   UNL A   1      38.523  28.810  30.160  1.00  0.00     0.134 A 
ATOM     67  C   UNL A   1      38.671  29.393  27.841  1.00  0.00     0.134 A 
ATOM     68  F   UNL A   1      39.073  28.383  31.307  1.00  0.00    -0.206 F 
ATOM     69  C   UNL A   1      37.149  29.050  30.139  1.00  0.00     0.040 A 
ATOM     70  C   UNL A   1      37.301  29.661  27.815  1.00  0.00     0.040 A 
ATOM     71  F   UNL A   1      39.367  29.562  26.706  1.00  0.00    -0.206 F 
ATOM     72  C   UNL A   1      36.535  29.482  28.965  1.00  0.00     0.006 A 
ENDBRANCH  51  65
BRANCH  52  73
ATOM     73  C   UNL A   1      49.022  26.764  28.522  1.00  0.00     0.057 A 
ATOM     74  C   UNL A   1      49.754  26.353  29.642  1.00  0.00     0.134 A 
ATOM     75  C   UNL A   1      49.709  26.882  27.309  1.00  0.00     0.134 A 
ATOM     76  F   UNL A   1      49.152  26.242  30.835  1.00  0.00    -0.206 F 
ATOM     77  C   UNL A   1      51.121  26.084  29.565  1.00  0.00     0.040 A 
ATOM     78  C   UNL A   1      51.074  26.598  27.213  1.00  0.00     0.040 A 
ATOM     79  F   UNL A   1      49.063  27.265  26.199  1.00  0.00    -0.206 F 
ATOM     80  C   UNL A   1      51.784  26.204  28.345  1.00  0.00     0.006 A 
ENDBRANCH  52  73
BRANCH  64  81
ATOM     81  C   UNL A   1      45.467  32.441  30.388  1.00  0.00     0.057 A 
ATOM     82  C   UNL A   1      45.667  33.509  29.506  1.00  0.00     0.134 A 
ATOM     83  C   UNL A   1      45.634  32.686  31.756  1.00  0.00     0.134 A 
ATOM     84  F   UNL A   1      45.535  33.332  28.183  1.00  0.00    -0.206 F 
ATOM     85  C   UNL A   1      46.030  34.774  29.969  1.00  0.00     0.040 A 
ATOM     86  C   UNL A   1      45.979  33.950  32.232  1.00  0.00     0.040 A 
ATOM     87  F   UNL A   1      45.451  31.703  32.651  1.00  0.00    -0.206 F 
ATOM     88  C   UNL A   1      46.180  34.999  31.337  1.00  0.00     0.006 A 
ENDBRANCH  64  81
ENDBRANCH  38  39
ENDBRANCH  30  33
ENDBRANCH  28  29
ENDBRANCH  27  28
ENDBRANCH   1  27
TORSDOF 14
ENDMDL
MODEL 3
REMARK VINA RESULT:     -11.7      3.892      8.966
REMARK SMILES CCS(=O)(=O)Nc1ccc(N2CC[NH+](C)CC2)cc1C(=O)NCCCNC(=O)c1ccc(-c2c3nc(c(-c4c(F)cccc4F)c4ccc([nH]4)c(-c4c(F)cccc4F)c4nc(c(-c5c(F)cccc5F)c5ccc2[nH]5)C=C4)C=C3)cc1
REMARK SMILES IDX 23 1 22 2 20 3 21 4 19 6 7 7 8 8 9 9 18 10 10 11 6 12 3 14
REMARK SMILES IDX 4 15 5 16 2 17 1 18 11 19 12 20 17 21 13 22 16 23 14 24
REMARK SMILES IDX 15 25 24 27 25 28 26 29 27 30 28 32 29 33 30 34 82 35 31 36
REMARK SMILES IDX 81 37 32 38 33 39 34 40 75 41 35 42 80 43 74 44 76 45 36 46
REMARK SMILES IDX 79 47 73 48 72 49 37 51 63 52 46 53 62 54 47 55 50 56 61 57
REMARK SMILES IDX 77 58 48 59 49 60 60 62 78 63 51 64 38 65 39 66 44 67 40 68
REMARK SMILES IDX 41 69 43 70 45 71 42 72 64 73 65 74 70 75 66 76 67 77 69 78
REMARK SMILES IDX 71 79 68 80 52 81 53 82 58 83 54 84 55 85 57 86 59 87 56 88
REMARK H PARENT 22 5 6 13 14 26 26 31 76 50 50 61
REMARK Flexibility Score: inf
ROOT
ATOM      1  C   UNL A   1      33.137  29.409  26.365  1.00  0.00     0.118 C 
ENDROOT
BRANCH   1   2
ATOM      2  N   UNL A   1      33.671  29.367  25.019  1.00  0.00    -0.352 N 
ATOM      3  C   UNL A   1      33.592  28.593  23.900  1.00  0.00     0.253 C 
ATOM      4  O   UNL A   1      34.184  29.104  22.937  1.00  0.00    -0.269 OA
ATOM      5  H   UNL A   1      34.276  30.130  24.866  1.00  0.00     0.163 HD
BRANCH   3   6
ATOM      6  C   UNL A   1      32.943  27.252  23.685  1.00  0.00     0.066 A 
ATOM      7  C   UNL A   1      31.850  26.884  22.890  1.00  0.00     0.061 A 
ATOM      8  C   UNL A   1      31.301  25.601  23.018  1.00  0.00     0.030 A 
ATOM      9  C   UNL A   1      31.916  24.629  23.807  1.00  0.00     0.028 A 
ATOM     10  C   UNL A   1      33.558  26.213  24.438  1.00  0.00     0.042 A 
ATOM     11  C   UNL A   1      33.094  24.892  24.499  1.00  0.00     0.038 A 
BRANCH   7  12
ATOM     12  N   UNL A   1      31.182  27.802  22.035  1.00  0.00    -0.283 N 
ATOM     13  H   UNL A   1      31.400  27.805  21.074  1.00  0.00     0.180 HD
BRANCH  12  14
ATOM     14  S   UNL A   1      30.033  28.881  22.613  1.00  0.00     0.232 S 
ATOM     15  O   UNL A   1      29.678  29.670  21.448  1.00  0.00    -0.207 OA
ATOM     16  O   UNL A   1      30.606  29.532  23.772  1.00  0.00    -0.207 OA
BRANCH  14  17
ATOM     17  C   UNL A   1      28.577  27.969  23.142  1.00  0.00     0.156 C 
ATOM     18  C   UNL A   1      27.256  28.700  23.142  1.00  0.00     0.023 C 
ENDBRANCH  14  17
ENDBRANCH  12  14
ENDBRANCH   7  12
BRANCH  11  19
ATOM     19  N   UNL A   1      33.763  23.909  25.190  1.00  0.00    -0.360 N 
ATOM     20  C   UNL A   1      35.126  24.064  25.728  1.00  0.00     0.178 C 
ATOM     21  C   UNL A   1      33.170  22.586  25.441  1.00  0.00     0.178 C 
ATOM     22  C   UNL A   1      36.038  22.921  25.226  1.00  0.00     0.283 C 
ATOM     23  C   UNL A   1      34.129  21.468  24.965  1.00  0.00     0.283 C 
ATOM     24  N   UNL A   1      35.487  21.581  25.540  1.00  0.00    -0.334 N 
ATOM     25  C   UNL A   1      36.356  20.530  25.015  1.00  0.00     0.332 C 
ATOM     26  H   UNL A   1      35.437  21.468  26.552  1.00  0.00     0.347 HD
ENDBRANCH  11  19
ENDBRANCH   3   6
ENDBRANCH   1   2
BRANCH   1  27
ATOM     27  C   UNL A   1      32.366  30.687  26.667  1.00  0.00     0.042 C 
BRANCH  27  28
ATOM     28  C   UNL A   1      33.236  31.719  27.366  1.00  0.00     0.118 C 
BRANCH  28  29
ATOM     29  N   UNL A   1      32.618  33.010  27.624  1.00  0.00    -0.352 N 
ATOM     30  C   UNL A   1      33.156  34.045  28.378  1.00  0.00     0.251 C 
ATOM     31  H   UNL A   1      31.731  33.166  27.226  1.00  0.00     0.163 HD
ATOM     32  O   UNL A   1      32.561  35.074  28.586  1.00  0.00    -0.269 OA
BRANCH  30  33
ATOM     33  C   UNL A   1      34.476  33.803  29.020  1.00  0.00     0.039 A 
ATOM     34  C   UNL A   1      34.505  33.115  30.235  1.00  0.00     0.014 A 
ATOM     35  C   UNL A   1      35.660  34.109  28.352  1.00  0.00     0.014 A 
ATOM     36  C   UNL A   1      35.720  32.622  30.716  1.00  0.00     0.010 A 
ATOM     37  C   UNL A   1      36.851  33.531  28.779  1.00  0.00     0.010 A 
ATOM     38  C   UNL A   1      36.890  32.763  29.954  1.00  0.00    -0.014 A 
BRANCH  38  39
ATOM     39  C   UNL A   1      38.161  32.093  30.334  1.00  0.00     0.031 A 
ATOM     40  C   UNL A   1      39.127  32.786  31.254  1.00  0.00     0.074 A 
ATOM     41  C   UNL A   1      38.502  30.919  29.763  1.00  0.00     0.049 A 
ATOM     42  N   UNL A   1      40.354  32.457  31.568  1.00  0.00    -0.248 NA
ATOM     43  C   UNL A   1      38.665  34.041  31.868  1.00  0.00     0.031 C 
ATOM     44  C   UNL A   1      37.690  30.170  28.802  1.00  0.00     0.029 A 
ATOM     45  N   UNL A   1      39.637  30.158  29.897  1.00  0.00    -0.354 N 
ATOM     46  C   UNL A   1      40.825  33.487  32.372  1.00  0.00     0.074 A 
ATOM     47  C   UNL A   1      39.765  34.468  32.468  1.00  0.00     0.031 C 
ATOM     48  C   UNL A   1      38.339  29.047  28.454  1.00  0.00     0.029 A 
ATOM     49  C   UNL A   1      39.629  29.014  29.133  1.00  0.00     0.049 A 
ATOM     50  H   UNL A   1      40.387  30.406  30.485  1.00  0.00     0.167 HD
ATOM     51  C   UNL A   1      42.025  33.599  32.989  1.00  0.00     0.037 A 
ATOM     52  C   UNL A   1      40.561  28.053  28.991  1.00  0.00     0.037 A 
ATOM     53  C   UNL A   1      43.051  32.593  32.951  1.00  0.00     0.049 A 
ATOM     54  C   UNL A   1      41.856  28.163  29.745  1.00  0.00     0.074 A 
ATOM     55  C   UNL A   1      44.267  32.575  33.611  1.00  0.00     0.029 A 
ATOM     56  N   UNL A   1      42.972  31.415  32.223  1.00  0.00    -0.354 N 
ATOM     57  N   UNL A   1      42.267  29.120  30.540  1.00  0.00    -0.248 NA
ATOM     58  C   UNL A   1      42.814  27.059  29.584  1.00  0.00     0.031 C 
ATOM     59  C   UNL A   1      44.931  31.391  33.270  1.00  0.00     0.029 A 
ATOM     60  C   UNL A   1      44.117  30.662  32.418  1.00  0.00     0.049 A 
ATOM     61  H   UNL A   1      42.213  31.152  31.653  1.00  0.00     0.167 HD
ATOM     62  C   UNL A   1      43.520  28.726  30.989  1.00  0.00     0.074 A 
ATOM     63  C   UNL A   1      43.797  27.437  30.389  1.00  0.00     0.031 C 
ATOM     64  C   UNL A   1      44.366  29.376  31.825  1.00  0.00     0.037 A 
BRANCH  51  65
ATOM     65  C   UNL A   1      42.281  34.853  33.769  1.00  0.00     0.057 A 
ATOM     66  C   UNL A   1      42.883  35.975  33.185  1.00  0.00     0.134 A 
ATOM     67  C   UNL A   1      41.913  34.943  35.117  1.00  0.00     0.134 A 
ATOM     68  F   UNL A   1      43.273  35.946  31.901  1.00  0.00    -0.206 F 
ATOM     69  C   UNL A   1      43.138  37.131  33.922  1.00  0.00     0.040 A 
ATOM     70  C   UNL A   1      42.140  36.104  35.858  1.00  0.00     0.040 A 
ATOM     71  F   UNL A   1      41.328  33.905  35.734  1.00  0.00    -0.206 F 
ATOM     72  C   UNL A   1      42.761  37.199  35.262  1.00  0.00     0.006 A 
ENDBRANCH  51  65
BRANCH  52  73
ATOM     73  C   UNL A   1      40.293  26.881  28.121  1.00  0.00     0.057 A 
ATOM     74  C   UNL A   1      39.478  25.832  28.563  1.00  0.00     0.134 A 
ATOM     75  C   UNL A   1      40.843  26.776  26.839  1.00  0.00     0.134 A 
ATOM     76  F   UNL A   1      38.939  25.869  29.790  1.00  0.00    -0.206 F 
ATOM     77  C   UNL A   1      39.232  24.711  27.768  1.00  0.00     0.040 A 
ATOM     78  C   UNL A   1      40.590  25.669  26.025  1.00  0.00     0.040 A 
ATOM     79  F   UNL A   1      41.627  27.750  26.356  1.00  0.00    -0.206 F 
ATOM     80  C   UNL A   1      39.787  24.630  26.492  1.00  0.00     0.006 A 
ENDBRANCH  52  73
BRANCH  64  81
ATOM     81  C   UNL A   1      45.653  28.689  32.165  1.00  0.00     0.057 A 
ATOM     82  C   UNL A   1      46.818  28.900  31.419  1.00  0.00     0.134 A 
ATOM     83  C   UNL A   1      45.736  27.848  33.281  1.00  0.00     0.134 A 
ATOM     84  F   UNL A   1      46.795  29.685  30.331  1.00  0.00    -0.206 F 
ATOM     85  C   UNL A   1      48.023  28.288  31.766  1.00  0.00     0.040 A 
ATOM     86  C   UNL A   1      46.939  27.245  33.649  1.00  0.00     0.040 A 
ATOM     87  F   UNL A   1      44.654  27.611  34.038  1.00  0.00    -0.206 F 
ATOM     88  C   UNL A   1      48.087  27.463  32.888  1.00  0.00     0.006 A 
ENDBRANCH  64  81
ENDBRANCH  38  39
ENDBRANCH  30  33
ENDBRANCH  28  29
ENDBRANCH  27  28
ENDBRANCH   1  27
TORSDOF 14
ENDMDL
