MODEL 1
REMARK VINA RESULT:     -11.4      0.000      0.000
REMARK SMILES CCSc1nc(CC(=O)N[C@@H](C(=O)NCCCNC(=O)c2ccc(-c3c4nc(c(-c5c(F)cccc5F)c5ccc([nH]5)c(-c5c(F)cccc5F)c5nc(c(-c6c(F)cccc6F)c6ccc3[nH]6)C=C5)C=C4)cc2)C2=C(C)N=N[C@@H]2C)cs1
REMARK SMILES IDX 12 1 13 2 14 3 11 5 10 6 8 7 9 8 7 10 6 11 4 12 5 13 83 14
REMARK SMILES IDX 82 15 3 16 2 17 1 18 75 19 76 20 80 21 77 22 78 23 79 24
REMARK SMILES IDX 81 25 15 26 16 27 17 28 18 29 19 30 20 32 21 33 22 34 74 35
REMARK SMILES IDX 23 36 73 37 24 38 25 39 26 40 67 41 27 42 72 43 66 44 68 45
REMARK SMILES IDX 28 46 71 47 65 48 64 49 29 51 55 52 38 53 54 54 39 55 42 56
REMARK SMILES IDX 53 57 69 58 40 59 41 60 52 62 70 63 43 64 30 65 31 66 36 67
REMARK SMILES IDX 32 68 33 69 35 70 37 71 34 72 56 73 57 74 62 75 58 76 59 77
REMARK SMILES IDX 61 78 63 79 60 80 44 81 45 82 50 83 46 84 47 85 49 86 51 87
REMARK SMILES IDX 48 88
REMARK H PARENT 14 4 10 9 18 31 68 50 42 61
REMARK Flexibility Score: inf
ROOT
ATOM      1  C   UNL A   1      33.944  20.152  24.908  1.00  0.00     0.247 C 
ATOM      2  O   UNL A   1      33.252  19.337  24.289  1.00  0.00    -0.272 OA
ATOM      3  N   UNL A   1      35.223  19.740  25.182  1.00  0.00    -0.354 N 
ATOM      4  H   UNL A   1      35.352  18.817  25.498  1.00  0.00     0.163 HD
ENDROOT
BRANCH   1   5
ATOM      5  C   UNL A   1      33.415  21.595  25.305  1.00  0.00     0.202 C 
BRANCH   5   6
ATOM      6  N   UNL A   1      31.966  21.640  25.550  1.00  0.00    -0.340 N 
ATOM      7  C   UNL A   1      31.207  22.494  26.301  1.00  0.00     0.226 C 
ATOM      8  O   UNL A   1      30.035  22.167  26.513  1.00  0.00    -0.275 OA
ATOM      9  H   UNL A   1      31.454  20.934  25.094  1.00  0.00     0.164 HD
BRANCH   7  10
ATOM     10  C   UNL A   1      31.749  23.801  26.867  1.00  0.00     0.157 C 
BRANCH  10  11
ATOM     11  C   UNL A   1      31.534  24.974  25.971  1.00  0.00     0.062 A 
ATOM     12  C   UNL A   1      32.097  27.003  25.256  1.00  0.00     0.150 A 
ATOM     13  N   UNL A   1      32.458  26.008  26.034  1.00  0.00    -0.234 NA
ATOM     14  S   UNL A   1      30.641  26.758  24.386  1.00  0.00    -0.116 S 
ATOM     15  C   UNL A   1      30.485  25.200  25.098  1.00  0.00     0.092 A 
BRANCH  12  16
ATOM     16  S   UNL A   1      33.024  28.484  25.296  1.00  0.00    -0.096 SA
BRANCH  16  17
ATOM     17  C   UNL A   1      31.748  29.768  25.360  1.00  0.00     0.074 C 
ATOM     18  C   UNL A   1      31.934  30.722  26.528  1.00  0.00     0.016 C 
ENDBRANCH  16  17
ENDBRANCH  12  16
ENDBRANCH  10  11
ENDBRANCH   7  10
ENDBRANCH   5   6
BRANCH   5  19
ATOM     19  C   UNL A   1      33.705  22.598  24.213  1.00  0.00     0.011 C 
ATOM     20  C   UNL A   1      34.528  23.657  24.195  1.00  0.00     0.064 C 
ATOM     21  C   UNL A   1      33.170  22.529  22.810  1.00  0.00     0.156 C 
ATOM     22  C   UNL A   1      35.387  24.217  25.270  1.00  0.00     0.069 C 
ATOM     23  N   UNL A   1      34.566  24.285  22.975  1.00  0.00    -0.160 NA
ATOM     24  N   UNL A   1      33.823  23.694  22.151  1.00  0.00    -0.181 NA
ATOM     25  C   UNL A   1      31.663  22.703  22.672  1.00  0.00     0.040 C 
ENDBRANCH   5  19
ENDBRANCH   1   5
BRANCH   3  26
ATOM     26  C   UNL A   1      36.387  20.572  25.037  1.00  0.00     0.117 C 
BRANCH  26  27
ATOM     27  C   UNL A   1      37.679  19.832  24.771  1.00  0.00     0.042 C 
BRANCH  27  28
ATOM     28  C   UNL A   1      38.820  20.308  25.652  1.00  0.00     0.118 C 
BRANCH  28  29
ATOM     29  N   UNL A   1      39.906  19.334  25.753  1.00  0.00    -0.352 N 
ATOM     30  C   UNL A   1      41.225  19.499  26.105  1.00  0.00     0.251 C 
ATOM     31  H   UNL A   1      39.651  18.408  25.533  1.00  0.00     0.163 HD
ATOM     32  O   UNL A   1      42.012  18.571  25.977  1.00  0.00    -0.269 OA
BRANCH  30  33
ATOM     33  C   UNL A   1      41.695  20.807  26.608  1.00  0.00     0.039 A 
ATOM     34  C   UNL A   1      42.229  21.731  25.706  1.00  0.00     0.014 A 
ATOM     35  C   UNL A   1      41.594  21.128  27.961  1.00  0.00     0.014 A 
ATOM     36  C   UNL A   1      42.574  23.009  26.150  1.00  0.00     0.010 A 
ATOM     37  C   UNL A   1      41.831  22.429  28.380  1.00  0.00     0.010 A 
ATOM     38  C   UNL A   1      42.331  23.382  27.481  1.00  0.00    -0.014 A 
BRANCH  38  39
ATOM     39  C   UNL A   1      42.607  24.754  27.976  1.00  0.00     0.031 A 
ATOM     40  C   UNL A   1      44.008  25.129  28.377  1.00  0.00     0.074 A 
ATOM     41  C   UNL A   1      41.594  25.625  28.147  1.00  0.00     0.049 A 
ATOM     42  N   UNL A   1      44.438  26.213  28.971  1.00  0.00    -0.248 NA
ATOM     43  C   UNL A   1      45.061  24.133  28.112  1.00  0.00     0.031 C 
ATOM     44  C   UNL A   1      40.185  25.365  27.839  1.00  0.00     0.029 A 
ATOM     45  N   UNL A   1      41.593  26.905  28.639  1.00  0.00    -0.354 N 
ATOM     46  C   UNL A   1      45.800  26.019  29.167  1.00  0.00     0.074 A 
ATOM     47  C   UNL A   1      46.114  24.690  28.689  1.00  0.00     0.031 C 
ATOM     48  C   UNL A   1      39.463  26.462  28.121  1.00  0.00     0.029 A 
ATOM     49  C   UNL A   1      40.346  27.483  28.672  1.00  0.00     0.049 A 
ATOM     50  H   UNL A   1      42.409  27.368  28.939  1.00  0.00     0.167 HD
ATOM     51  C   UNL A   1      46.713  26.882  29.669  1.00  0.00     0.037 A 
ATOM     52  C   UNL A   1      39.961  28.696  29.109  1.00  0.00     0.037 A 
ATOM     53  C   UNL A   1      46.405  28.217  30.105  1.00  0.00     0.049 A 
ATOM     54  C   UNL A   1      40.997  29.635  29.665  1.00  0.00     0.074 A 
ATOM     55  C   UNL A   1      47.263  29.184  30.595  1.00  0.00     0.029 A 
ATOM     56  N   UNL A   1      45.136  28.775  30.087  1.00  0.00    -0.354 N 
ATOM     57  N   UNL A   1      42.288  29.454  29.807  1.00  0.00    -0.248 NA
ATOM     58  C   UNL A   1      40.523  30.949  30.121  1.00  0.00     0.031 C 
ATOM     59  C   UNL A   1      46.509  30.322  30.898  1.00  0.00     0.029 A 
ATOM     60  C   UNL A   1      45.188  30.075  30.561  1.00  0.00     0.049 A 
ATOM     61  H   UNL A   1      44.320  28.316  29.784  1.00  0.00     0.167 HD
ATOM     62  C   UNL A   1      42.783  30.640  30.330  1.00  0.00     0.074 A 
ATOM     63  C   UNL A   1      41.656  31.537  30.473  1.00  0.00     0.031 C 
ATOM     64  C   UNL A   1      44.057  30.960  30.665  1.00  0.00     0.037 A 
BRANCH  51  65
ATOM     65  C   UNL A   1      48.136  26.413  29.748  1.00  0.00     0.057 A 
ATOM     66  C   UNL A   1      49.047  26.657  28.710  1.00  0.00     0.134 A 
ATOM     67  C   UNL A   1      48.612  25.743  30.881  1.00  0.00     0.134 A 
ATOM     68  F   UNL A   1      48.650  27.279  27.591  1.00  0.00    -0.206 F 
ATOM     69  C   UNL A   1      50.373  26.228  28.787  1.00  0.00     0.040 A 
ATOM     70  C   UNL A   1      49.943  25.334  30.981  1.00  0.00     0.040 A 
ATOM     71  F   UNL A   1      47.794  25.481  31.912  1.00  0.00    -0.206 F 
ATOM     72  C   UNL A   1      50.825  25.571  29.929  1.00  0.00     0.006 A 
ENDBRANCH  51  65
BRANCH  52  73
ATOM     73  C   UNL A   1      38.539  29.115  29.018  1.00  0.00     0.057 A 
ATOM     74  C   UNL A   1      38.026  29.661  27.836  1.00  0.00     0.134 A 
ATOM     75  C   UNL A   1      37.671  29.014  30.111  1.00  0.00     0.134 A 
ATOM     76  F   UNL A   1      38.814  29.801  26.759  1.00  0.00    -0.206 F 
ATOM     77  C   UNL A   1      36.710  30.121  27.751  1.00  0.00     0.040 A 
ATOM     78  C   UNL A   1      36.345  29.445  30.033  1.00  0.00     0.040 A 
ATOM     79  F   UNL A   1      38.098  28.492  31.270  1.00  0.00    -0.206 F 
ATOM     80  C   UNL A   1      35.865  30.011  28.853  1.00  0.00     0.006 A 
ENDBRANCH  52  73
BRANCH  64  81
ATOM     81  C   UNL A   1      44.308  32.352  31.159  1.00  0.00     0.057 A 
ATOM     82  C   UNL A   1      44.540  33.418  30.281  1.00  0.00     0.134 A 
ATOM     83  C   UNL A   1      44.274  32.635  32.530  1.00  0.00     0.134 A 
ATOM     84  F   UNL A   1      44.599  33.209  28.957  1.00  0.00    -0.206 F 
ATOM     85  C   UNL A   1      44.748  34.715  30.752  1.00  0.00     0.040 A 
ATOM     86  C   UNL A   1      44.455  33.931  33.012  1.00  0.00     0.040 A 
ATOM     87  F   UNL A   1      44.048  31.657  33.421  1.00  0.00    -0.206 F 
ATOM     88  C   UNL A   1      44.699  34.974  32.121  1.00  0.00     0.006 A 
ENDBRANCH  64  81
ENDBRANCH  38  39
ENDBRANCH  30  33
ENDBRANCH  28  29
ENDBRANCH  27  28
ENDBRANCH  26  27
ENDBRANCH   3  26
TORSDOF 16
ENDMDL
MODEL 2
REMARK VINA RESULT:     -11.2      0.749      6.338
REMARK SMILES CCSc1nc(CC(=O)N[C@@H](C(=O)NCCCNC(=O)c2ccc(-c3c4nc(c(-c5c(F)cccc5F)c5ccc([nH]5)c(-c5c(F)cccc5F)c5nc(c(-c6c(F)cccc6F)c6ccc3[nH]6)C=C5)C=C4)cc2)C2=C(C)N=N[C@@H]2C)cs1
REMARK SMILES IDX 12 1 13 2 14 3 11 5 10 6 8 7 9 8 7 10 6 11 4 12 5 13 83 14
REMARK SMILES IDX 82 15 3 16 2 17 1 18 75 19 76 20 80 21 77 22 78 23 79 24
REMARK SMILES IDX 81 25 15 26 16 27 17 28 18 29 19 30 20 32 21 33 22 34 74 35
REMARK SMILES IDX 23 36 73 37 24 38 25 39 26 40 67 41 27 42 72 43 66 44 68 45
REMARK SMILES IDX 28 46 71 47 65 48 64 49 29 51 55 52 38 53 54 54 39 55 42 56
REMARK SMILES IDX 53 57 69 58 40 59 41 60 52 62 70 63 43 64 30 65 31 66 36 67
REMARK SMILES IDX 32 68 33 69 35 70 37 71 34 72 56 73 57 74 62 75 58 76 59 77
REMARK SMILES IDX 61 78 63 79 60 80 44 81 45 82 50 83 46 84 47 85 49 86 51 87
REMARK SMILES IDX 48 88
REMARK H PARENT 14 4 10 9 18 31 68 50 42 61
REMARK Flexibility Score: inf
ROOT
ATOM      1  C   UNL A   1      33.930  20.399  24.863  1.00  0.00     0.247 C 
ATOM      2  O   UNL A   1      33.394  19.480  24.236  1.00  0.00    -0.272 OA
ATOM      3  N   UNL A   1      35.159  20.103  25.393  1.00  0.00    -0.354 N 
ATOM      4  H   UNL A   1      35.274  19.229  25.832  1.00  0.00     0.163 HD
ENDROOT
BRANCH   1   5
ATOM      5  C   UNL A   1      33.274  21.839  24.996  1.00  0.00     0.202 C 
BRANCH   5   6
ATOM      6  N   UNL A   1      31.834  21.802  25.289  1.00  0.00    -0.340 N 
ATOM      7  C   UNL A   1      31.081  22.497  26.194  1.00  0.00     0.226 C 
ATOM      8  O   UNL A   1      29.925  22.106  26.384  1.00  0.00    -0.275 OA
ATOM      9  H   UNL A   1      31.323  21.166  24.737  1.00  0.00     0.164 HD
BRANCH   7  10
ATOM     10  C   UNL A   1      31.612  23.707  26.954  1.00  0.00     0.157 C 
BRANCH  10  11
ATOM     11  C   UNL A   1      31.498  24.985  26.193  1.00  0.00     0.062 A 
ATOM     12  C   UNL A   1      32.355  26.914  25.495  1.00  0.00     0.150 A 
ATOM     13  N   UNL A   1      32.626  25.791  26.119  1.00  0.00    -0.234 NA
ATOM     14  S   UNL A   1      30.741  27.071  24.940  1.00  0.00    -0.116 S 
ATOM     15  C   UNL A   1      30.379  25.516  25.577  1.00  0.00     0.092 A 
BRANCH  12  16
ATOM     16  S   UNL A   1      33.583  28.155  25.423  1.00  0.00    -0.096 SA
BRANCH  16  17
ATOM     17  C   UNL A   1      33.470  28.751  23.716  1.00  0.00     0.074 C 
ATOM     18  C   UNL A   1      33.381  27.622  22.705  1.00  0.00     0.016 C 
ENDBRANCH  16  17
ENDBRANCH  12  16
ENDBRANCH  10  11
ENDBRANCH   7  10
ENDBRANCH   5   6
BRANCH   5  19
ATOM     19  C   UNL A   1      33.440  22.630  23.720  1.00  0.00     0.011 C 
ATOM     20  C   UNL A   1      32.874  22.471  22.514  1.00  0.00     0.064 C 
ATOM     21  C   UNL A   1      34.243  23.894  23.581  1.00  0.00     0.156 C 
ATOM     22  C   UNL A   1      31.934  21.428  22.029  1.00  0.00     0.069 C 
ATOM     23  N   UNL A   1      33.232  23.451  21.622  1.00  0.00    -0.160 NA
ATOM     24  N   UNL A   1      34.000  24.284  22.165  1.00  0.00    -0.181 NA
ATOM     25  C   UNL A   1      35.746  23.740  23.770  1.00  0.00     0.040 C 
ENDBRANCH   5  19
ENDBRANCH   1   5
BRANCH   3  26
ATOM     26  C   UNL A   1      36.291  20.989  25.350  1.00  0.00     0.117 C 
BRANCH  26  27
ATOM     27  C   UNL A   1      37.576  20.369  24.848  1.00  0.00     0.042 C 
BRANCH  27  28
ATOM     28  C   UNL A   1      38.773  20.719  25.713  1.00  0.00     0.118 C 
BRANCH  28  29
ATOM     29  N   UNL A   1      39.789  19.667  25.732  1.00  0.00    -0.352 N 
ATOM     30  C   UNL A   1      41.127  19.721  26.045  1.00  0.00     0.251 C 
ATOM     31  H   UNL A   1      39.461  18.773  25.480  1.00  0.00     0.163 HD
ATOM     32  O   UNL A   1      41.840  18.746  25.848  1.00  0.00    -0.269 OA
BRANCH  30  33
ATOM     33  C   UNL A   1      41.706  20.967  26.590  1.00  0.00     0.039 A 
ATOM     34  C   UNL A   1      42.104  21.975  25.707  1.00  0.00     0.014 A 
ATOM     35  C   UNL A   1      41.840  21.149  27.966  1.00  0.00     0.014 A 
ATOM     36  C   UNL A   1      42.549  23.198  26.213  1.00  0.00     0.010 A 
ATOM     37  C   UNL A   1      42.176  22.398  28.467  1.00  0.00     0.010 A 
ATOM     38  C   UNL A   1      42.541  23.435  27.596  1.00  0.00    -0.014 A 
BRANCH  38  39
ATOM     39  C   UNL A   1      42.929  24.746  28.172  1.00  0.00     0.031 A 
ATOM     40  C   UNL A   1      41.875  25.794  28.408  1.00  0.00     0.074 A 
ATOM     41  C   UNL A   1      44.228  25.025  28.397  1.00  0.00     0.049 A 
ATOM     42  N   UNL A   1      42.015  27.047  28.758  1.00  0.00    -0.248 NA
ATOM     43  C   UNL A   1      40.477  25.389  28.180  1.00  0.00     0.031 C 
ATOM     44  C   UNL A   1      45.348  24.110  28.165  1.00  0.00     0.029 A 
ATOM     45  N   UNL A   1      44.827  26.169  28.859  1.00  0.00    -0.354 N 
ATOM     46  C   UNL A   1      40.732  27.579  28.771  1.00  0.00     0.074 A 
ATOM     47  C   UNL A   1      39.833  26.535  28.332  1.00  0.00     0.031 C 
ATOM     48  C   UNL A   1      46.494  24.718  28.514  1.00  0.00     0.029 A 
ATOM     49  C   UNL A   1      46.196  26.078  28.949  1.00  0.00     0.049 A 
ATOM     50  H   UNL A   1      44.324  26.979  29.105  1.00  0.00     0.167 HD
ATOM     51  C   UNL A   1      40.334  28.817  29.147  1.00  0.00     0.037 A 
ATOM     52  C   UNL A   1      47.105  26.995  29.329  1.00  0.00     0.037 A 
ATOM     53  C   UNL A   1      41.226  29.840  29.622  1.00  0.00     0.049 A 
ATOM     54  C   UNL A   1      46.634  28.365  29.739  1.00  0.00     0.074 A 
ATOM     55  C   UNL A   1      40.920  31.115  30.061  1.00  0.00     0.029 A 
ATOM     56  N   UNL A   1      42.600  29.694  29.731  1.00  0.00    -0.354 N 
ATOM     57  N   UNL A   1      45.414  28.841  29.784  1.00  0.00    -0.248 NA
ATOM     58  C   UNL A   1      47.669  29.323  30.151  1.00  0.00     0.031 C 
ATOM     59  C   UNL A   1      42.114  31.752  30.414  1.00  0.00     0.029 A 
ATOM     60  C   UNL A   1      43.157  30.859  30.230  1.00  0.00     0.049 A 
ATOM     61  H   UNL A   1      43.104  28.884  29.489  1.00  0.00     0.167 HD
ATOM     62  C   UNL A   1      45.530  30.138  30.266  1.00  0.00     0.074 A 
ATOM     63  C   UNL A   1      46.939  30.371  30.505  1.00  0.00     0.031 C 
ATOM     64  C   UNL A   1      44.559  31.056  30.489  1.00  0.00     0.037 A 
BRANCH  51  65
ATOM     65  C   UNL A   1      38.866  29.120  29.081  1.00  0.00     0.057 A 
ATOM     66  C   UNL A   1      38.045  29.017  30.212  1.00  0.00     0.134 A 
ATOM     67  C   UNL A   1      38.271  29.550  27.888  1.00  0.00     0.134 A 
ATOM     68  F   UNL A   1      38.550  28.594  31.381  1.00  0.00    -0.206 F 
ATOM     69  C   UNL A   1      36.681  29.306  30.154  1.00  0.00     0.040 A 
ATOM     70  C   UNL A   1      36.914  29.869  27.825  1.00  0.00     0.040 A 
ATOM     71  F   UNL A   1      39.000  29.673  26.769  1.00  0.00    -0.206 F 
ATOM     72  C   UNL A   1      36.114  29.741  28.959  1.00  0.00     0.006 A 
ENDBRANCH  51  65
BRANCH  52  73
ATOM     73  C   UNL A   1      48.549  26.653  29.371  1.00  0.00     0.057 A 
ATOM     74  C   UNL A   1      49.108  26.033  30.495  1.00  0.00     0.134 A 
ATOM     75  C   UNL A   1      49.410  26.964  28.312  1.00  0.00     0.134 A 
ATOM     76  F   UNL A   1      48.336  25.726  31.549  1.00  0.00    -0.206 F 
ATOM     77  C   UNL A   1      50.475  25.763  30.580  1.00  0.00     0.040 A 
ATOM     78  C   UNL A   1      50.775  26.675  28.372  1.00  0.00     0.040 A 
ATOM     79  F   UNL A   1      48.937  27.551  27.204  1.00  0.00    -0.206 F 
ATOM     80  C   UNL A   1      51.313  26.083  29.514  1.00  0.00     0.006 A 
ENDBRANCH  52  73
BRANCH  64  81
ATOM     81  C   UNL A   1      44.979  32.371  31.074  1.00  0.00     0.057 A 
ATOM     82  C   UNL A   1      45.050  32.576  32.457  1.00  0.00     0.134 A 
ATOM     83  C   UNL A   1      45.358  33.429  30.240  1.00  0.00     0.134 A 
ATOM     84  F   UNL A   1      44.687  31.605  33.309  1.00  0.00    -0.206 F 
ATOM     85  C   UNL A   1      45.466  33.797  32.990  1.00  0.00     0.040 A 
ATOM     86  C   UNL A   1      45.800  34.645  30.760  1.00  0.00     0.040 A 
ATOM     87  F   UNL A   1      45.319  33.292  28.905  1.00  0.00    -0.206 F 
ATOM     88  C   UNL A   1      45.849  34.833  32.140  1.00  0.00     0.006 A 
ENDBRANCH  64  81
ENDBRANCH  38  39
ENDBRANCH  30  33
ENDBRANCH  28  29
ENDBRANCH  27  28
ENDBRANCH  26  27
ENDBRANCH   3  26
TORSDOF 16
ENDMDL
MODEL 3
REMARK VINA RESULT:     -11.1      4.304      9.309
REMARK SMILES CCSc1nc(CC(=O)N[C@@H](C(=O)NCCCNC(=O)c2ccc(-c3c4nc(c(-c5c(F)cccc5F)c5ccc([nH]5)c(-c5c(F)cccc5F)c5nc(c(-c6c(F)cccc6F)c6ccc3[nH]6)C=C5)C=C4)cc2)C2=C(C)N=N[C@@H]2C)cs1
REMARK SMILES IDX 12 1 13 2 14 3 11 5 10 6 8 7 9 8 7 10 6 11 4 12 5 13 83 14
REMARK SMILES IDX 82 15 3 16 2 17 1 18 75 19 76 20 80 21 77 22 78 23 79 24
REMARK SMILES IDX 81 25 15 26 16 27 17 28 18 29 19 30 20 32 21 33 22 34 74 35
REMARK SMILES IDX 23 36 73 37 24 38 25 39 26 40 67 41 27 42 72 43 66 44 68 45
REMARK SMILES IDX 28 46 71 47 65 48 64 49 29 51 55 52 38 53 54 54 39 55 42 56
REMARK SMILES IDX 53 57 69 58 40 59 41 60 52 62 70 63 43 64 30 65 31 66 36 67
REMARK SMILES IDX 32 68 33 69 35 70 37 71 34 72 56 73 57 74 62 75 58 76 59 77
REMARK SMILES IDX 61 78 63 79 60 80 44 81 45 82 50 83 46 84 47 85 49 86 51 87
REMARK SMILES IDX 48 88
REMARK H PARENT 14 4 10 9 18 31 68 50 42 61
REMARK Flexibility Score: inf
ROOT
ATOM      1  C   UNL A   1      30.771  29.269  23.964  1.00  0.00     0.247 C 
ATOM      2  O   UNL A   1      29.706  29.172  23.346  1.00  0.00    -0.272 OA
ATOM      3  N   UNL A   1      30.984  30.480  24.571  1.00  0.00    -0.354 N 
ATOM      4  H   UNL A   1      30.766  31.295  24.063  1.00  0.00     0.163 HD
ENDROOT
BRANCH   1   5
ATOM      5  C   UNL A   1      31.794  28.062  24.099  1.00  0.00     0.202 C 
BRANCH   5   6
ATOM      6  N   UNL A   1      32.051  27.367  22.829  1.00  0.00    -0.340 N 
ATOM      7  C   UNL A   1      33.080  26.555  22.440  1.00  0.00     0.226 C 
ATOM      8  O   UNL A   1      33.160  26.286  21.237  1.00  0.00    -0.275 OA
ATOM      9  H   UNL A   1      31.362  27.512  22.140  1.00  0.00     0.164 HD
BRANCH   7  10
ATOM     10  C   UNL A   1      34.100  25.988  23.419  1.00  0.00     0.157 C 
BRANCH  10  11
ATOM     11  C   UNL A   1      33.860  24.558  23.769  1.00  0.00     0.062 A 
ATOM     12  C   UNL A   1      34.566  22.610  24.573  1.00  0.00     0.150 A 
ATOM     13  N   UNL A   1      34.885  23.872  24.404  1.00  0.00    -0.234 NA
ATOM     14  S   UNL A   1      33.012  22.166  24.001  1.00  0.00    -0.116 S 
ATOM     15  C   UNL A   1      32.744  23.788  23.495  1.00  0.00     0.092 A 
BRANCH  12  16
ATOM     16  S   UNL A   1      35.769  21.513  25.208  1.00  0.00    -0.096 SA
BRANCH  16  17
ATOM     17  C   UNL A   1      37.323  22.407  24.947  1.00  0.00     0.074 C 
ATOM     18  C   UNL A   1      38.475  21.828  25.749  1.00  0.00     0.016 C 
ENDBRANCH  16  17
ENDBRANCH  12  16
ENDBRANCH  10  11
ENDBRANCH   7  10
ENDBRANCH   5   6
BRANCH   5  19
ATOM     19  C   UNL A   1      31.280  27.023  25.069  1.00  0.00     0.011 C 
ATOM     20  C   UNL A   1      30.260  26.159  24.964  1.00  0.00     0.064 C 
ATOM     21  C   UNL A   1      31.926  26.667  26.379  1.00  0.00     0.156 C 
ATOM     22  C   UNL A   1      29.269  25.978  23.872  1.00  0.00     0.069 C 
ATOM     23  N   UNL A   1      30.157  25.318  26.044  1.00  0.00    -0.160 NA
ATOM     24  N   UNL A   1      31.070  25.554  26.875  1.00  0.00    -0.181 NA
ATOM     25  C   UNL A   1      31.919  27.765  27.434  1.00  0.00     0.040 C 
ENDBRANCH   5  19
ENDBRANCH   1   5
BRANCH   3  26
ATOM     26  C   UNL A   1      31.507  30.635  25.901  1.00  0.00     0.117 C 
BRANCH  26  27
ATOM     27  C   UNL A   1      31.341  32.013  26.502  1.00  0.00     0.042 C 
BRANCH  27  28
ATOM     28  C   UNL A   1      32.597  32.505  27.198  1.00  0.00     0.118 C 
BRANCH  28  29
ATOM     29  N   UNL A   1      32.509  33.904  27.612  1.00  0.00    -0.352 N 
ATOM     30  C   UNL A   1      33.203  34.599  28.575  1.00  0.00     0.251 C 
ATOM     31  H   UNL A   1      31.842  34.438  27.120  1.00  0.00     0.163 HD
ATOM     32  O   UNL A   1      32.866  35.737  28.870  1.00  0.00    -0.269 OA
BRANCH  30  33
ATOM     33  C   UNL A   1      34.337  33.956  29.272  1.00  0.00     0.039 A 
ATOM     34  C   UNL A   1      34.077  33.077  30.327  1.00  0.00     0.014 A 
ATOM     35  C   UNL A   1      35.651  34.204  28.875  1.00  0.00     0.014 A 
ATOM     36  C   UNL A   1      35.132  32.380  30.920  1.00  0.00     0.010 A 
ATOM     37  C   UNL A   1      36.683  33.432  29.388  1.00  0.00     0.010 A 
ATOM     38  C   UNL A   1      36.436  32.516  30.421  1.00  0.00    -0.014 A 
BRANCH  38  39
ATOM     39  C   UNL A   1      37.573  31.735  30.968  1.00  0.00     0.031 A 
ATOM     40  C   UNL A   1      38.089  32.044  32.348  1.00  0.00     0.074 A 
ATOM     41  C   UNL A   1      38.192  30.818  30.200  1.00  0.00     0.049 A 
ATOM     42  N   UNL A   1      39.156  31.591  32.954  1.00  0.00    -0.248 NA
ATOM     43  C   UNL A   1      37.324  33.026  33.136  1.00  0.00     0.031 C 
ATOM     44  C   UNL A   1      37.816  30.460  28.830  1.00  0.00     0.029 A 
ATOM     45  N   UNL A   1      39.283  30.028  30.459  1.00  0.00    -0.354 N 
ATOM     46  C   UNL A   1      39.199  32.246  34.178  1.00  0.00     0.074 A 
ATOM     47  C   UNL A   1      38.091  33.174  34.204  1.00  0.00     0.031 C 
ATOM     48  C   UNL A   1      38.643  29.502  28.381  1.00  0.00     0.029 A 
ATOM     49  C   UNL A   1      39.634  29.211  29.411  1.00  0.00     0.049 A 
ATOM     50  H   UNL A   1      39.768  30.043  31.316  1.00  0.00     0.167 HD
ATOM     51  C   UNL A   1      40.065  32.067  35.203  1.00  0.00     0.037 A 
ATOM     52  C   UNL A   1      40.649  28.335  29.293  1.00  0.00     0.037 A 
ATOM     53  C   UNL A   1      41.142  31.114  35.190  1.00  0.00     0.049 A 
ATOM     54  C   UNL A   1      41.599  28.158  30.448  1.00  0.00     0.074 A 
ATOM     55  C   UNL A   1      42.053  30.829  36.190  1.00  0.00     0.029 A 
ATOM     56  N   UNL A   1      41.440  30.281  34.123  1.00  0.00    -0.354 N 
ATOM     57  N   UNL A   1      41.603  28.755  31.614  1.00  0.00    -0.248 NA
ATOM     58  C   UNL A   1      42.684  27.183  30.268  1.00  0.00     0.031 C 
ATOM     59  C   UNL A   1      42.921  29.838  35.720  1.00  0.00     0.029 A 
ATOM     60  C   UNL A   1      42.525  29.482  34.441  1.00  0.00     0.049 A 
ATOM     61  H   UNL A   1      40.954  30.261  33.268  1.00  0.00     0.167 HD
ATOM     62  C   UNL A   1      42.664  28.202  32.320  1.00  0.00     0.074 A 
ATOM     63  C   UNL A   1      43.274  27.216  31.453  1.00  0.00     0.031 C 
ATOM     64  C   UNL A   1      43.096  28.485  33.573  1.00  0.00     0.037 A 
BRANCH  51  65
ATOM     65  C   UNL A   1      39.864  32.904  36.432  1.00  0.00     0.057 A 
ATOM     66  C   UNL A   1      40.602  34.076  36.648  1.00  0.00     0.134 A 
ATOM     67  C   UNL A   1      38.904  32.559  37.391  1.00  0.00     0.134 A 
ATOM     68  F   UNL A   1      41.548  34.454  35.776  1.00  0.00    -0.206 F 
ATOM     69  C   UNL A   1      40.410  34.861  37.787  1.00  0.00     0.040 A 
ATOM     70  C   UNL A   1      38.684  33.350  38.519  1.00  0.00     0.040 A 
ATOM     71  F   UNL A   1      38.161  31.452  37.243  1.00  0.00    -0.206 F 
ATOM     72  C   UNL A   1      39.442  34.501  38.722  1.00  0.00     0.006 A 
ENDBRANCH  51  65
BRANCH  52  73
ATOM     73  C   UNL A   1      40.814  27.533  28.055  1.00  0.00     0.057 A 
ATOM     74  C   UNL A   1      40.220  26.272  27.931  1.00  0.00     0.134 A 
ATOM     75  C   UNL A   1      41.592  27.986  26.983  1.00  0.00     0.134 A 
ATOM     76  F   UNL A   1      39.477  25.775  28.932  1.00  0.00    -0.206 F 
ATOM     77  C   UNL A   1      40.417  25.475  26.802  1.00  0.00     0.040 A 
ATOM     78  C   UNL A   1      41.777  27.212  25.836  1.00  0.00     0.040 A 
ATOM     79  F   UNL A   1      42.183  29.189  27.035  1.00  0.00    -0.206 F 
ATOM     80  C   UNL A   1      41.197  25.947  25.748  1.00  0.00     0.006 A 
ENDBRANCH  52  73
BRANCH  64  81
ATOM     81  C   UNL A   1      44.243  27.679  34.102  1.00  0.00     0.057 A 
ATOM     82  C   UNL A   1      45.567  28.123  34.006  1.00  0.00     0.134 A 
ATOM     83  C   UNL A   1      44.012  26.461  34.754  1.00  0.00     0.134 A 
ATOM     84  F   UNL A   1      45.854  29.275  33.380  1.00  0.00    -0.206 F 
ATOM     85  C   UNL A   1      46.624  27.375  34.525  1.00  0.00     0.040 A 
ATOM     86  C   UNL A   1      45.057  25.716  35.299  1.00  0.00     0.040 A 
ATOM     87  F   UNL A   1      42.764  25.985  34.885  1.00  0.00    -0.206 F 
ATOM     88  C   UNL A   1      46.369  26.171  35.180  1.00  0.00     0.006 A 
ENDBRANCH  64  81
ENDBRANCH  38  39
ENDBRANCH  30  33
ENDBRANCH  28  29
ENDBRANCH  27  28
ENDBRANCH  26  27
ENDBRANCH   3  26
TORSDOF 16
ENDMDL
