MODEL 1
REMARK VINA RESULT:     -12.2      0.000      0.000
REMARK SMILES COc1ccc(-c2nc3ccc(C)cc3[nH]2)c(C(=O)NCCCNC(=O)c2ccc(-c3c4nc(c(-c5c(F)cccc5F)c5ccc([nH]5)c(-c5c(F)cccc5F)c5nc(c(-c6c(F)cccc6F)c6ccc3[nH]6)C=C5)C=C4)cc2)c1OC
REMARK SMILES IDX 22 1 21 2 20 3 18 4 19 5 17 7 3 8 4 9 81 10 5 11 6 12 2 13
REMARK SMILES IDX 1 14 82 15 83 16 7 17 8 18 16 19 9 20 15 21 10 23 14 24
REMARK SMILES IDX 11 25 12 26 13 27 23 28 24 29 25 30 26 32 27 33 28 34 80 35
REMARK SMILES IDX 29 36 79 37 30 38 31 39 32 40 73 41 33 42 78 43 72 44 74 45
REMARK SMILES IDX 34 46 77 47 71 48 70 49 35 51 61 52 44 53 60 54 45 55 48 56
REMARK SMILES IDX 59 57 75 58 46 59 47 60 58 62 76 63 49 64 36 65 37 66 42 67
REMARK SMILES IDX 38 68 39 69 41 70 43 71 40 72 62 73 63 74 68 75 64 76 65 77
REMARK SMILES IDX 67 78 69 79 66 80 50 81 51 82 56 83 52 84 53 85 55 86 57 87
REMARK SMILES IDX 54 88
REMARK H PARENT 20 6 16 22 24 31 74 50 48 61
REMARK Flexibility Score: inf
ROOT
ATOM      1  C   UNL A   1      37.566  21.692  24.302  1.00  0.00     0.042 C 
ENDROOT
BRANCH   1   2
ATOM      2  C   UNL A   1      36.446  22.710  24.373  1.00  0.00     0.118 C 
BRANCH   2   3
ATOM      3  N   UNL A   1      35.882  23.010  25.669  1.00  0.00    -0.352 N 
ATOM      4  C   UNL A   1      34.537  22.959  26.002  1.00  0.00     0.255 C 
ATOM      5  O   UNL A   1      34.201  22.712  27.157  1.00  0.00    -0.269 OA
ATOM      6  H   UNL A   1      36.509  23.275  26.381  1.00  0.00     0.163 HD
BRANCH   4   7
ATOM      7  C   UNL A   1      33.497  23.289  24.986  1.00  0.00     0.096 A 
ATOM      8  C   UNL A   1      32.051  24.875  23.860  1.00  0.00     0.161 A 
ATOM      9  C   UNL A   1      31.387  23.804  23.246  1.00  0.00     0.051 A 
ATOM     10  C   UNL A   1      33.159  24.634  24.685  1.00  0.00     0.174 A 
ATOM     11  C   UNL A   1      31.801  22.484  23.455  1.00  0.00     0.017 A 
ATOM     12  C   UNL A   1      32.835  22.204  24.355  1.00  0.00     0.034 A 
BRANCH   8  13
ATOM     13  O   UNL A   1      31.401  26.077  23.761  1.00  0.00    -0.493 OA
ATOM     14  C   UNL A   1      30.224  26.206  24.547  1.00  0.00     0.278 C 
ENDBRANCH   8  13
BRANCH  10  15
ATOM     15  O   UNL A   1      34.017  25.593  25.163  1.00  0.00    -0.492 OA
ATOM     16  C   UNL A   1      33.545  26.536  26.117  1.00  0.00     0.278 C 
ENDBRANCH  10  15
BRANCH  12  17
ATOM     17  C   UNL A   1      33.170  20.805  24.649  1.00  0.00     0.139 A 
ATOM     18  N   UNL A   1      34.305  20.196  24.356  1.00  0.00    -0.228 NA
ATOM     19  N   UNL A   1      32.293  19.914  25.231  1.00  0.00    -0.338 N 
ATOM     20  C   UNL A   1      34.098  18.864  24.626  1.00  0.00     0.089 A 
ATOM     21  C   UNL A   1      32.848  18.658  25.192  1.00  0.00     0.066 A 
ATOM     22  H   UNL A   1      31.413  20.141  25.612  1.00  0.00     0.168 HD
ATOM     23  C   UNL A   1      34.931  17.762  24.390  1.00  0.00     0.031 A 
ATOM     24  C   UNL A   1      32.368  17.394  25.557  1.00  0.00     0.031 A 
ATOM     25  C   UNL A   1      34.466  16.481  24.719  1.00  0.00     0.006 A 
ATOM     26  C   UNL A   1      33.201  16.291  25.296  1.00  0.00    -0.049 A 
ATOM     27  C   UNL A   1      32.741  14.893  25.609  1.00  0.00     0.044 C 
ENDBRANCH  12  17
ENDBRANCH   4   7
ENDBRANCH   2   3
ENDBRANCH   1   2
BRANCH   1  28
ATOM     28  C   UNL A   1      37.950  21.065  25.632  1.00  0.00     0.118 C 
BRANCH  28  29
ATOM     29  N   UNL A   1      38.939  19.995  25.537  1.00  0.00    -0.352 N 
ATOM     30  C   UNL A   1      40.271  19.907  25.884  1.00  0.00     0.251 C 
ATOM     31  H   UNL A   1      38.581  19.166  25.145  1.00  0.00     0.163 HD
ATOM     32  O   UNL A   1      40.890  18.887  25.617  1.00  0.00    -0.269 OA
BRANCH  30  33
ATOM     33  C   UNL A   1      40.987  21.042  26.516  1.00  0.00     0.039 A 
ATOM     34  C   UNL A   1      41.595  21.997  25.690  1.00  0.00     0.014 A 
ATOM     35  C   UNL A   1      41.075  21.186  27.897  1.00  0.00     0.014 A 
ATOM     36  C   UNL A   1      42.166  23.147  26.247  1.00  0.00     0.010 A 
ATOM     37  C   UNL A   1      41.529  22.382  28.444  1.00  0.00     0.010 A 
ATOM     38  C   UNL A   1      42.068  23.385  27.625  1.00  0.00    -0.014 A 
BRANCH  38  39
ATOM     39  C   UNL A   1      42.489  24.672  28.244  1.00  0.00     0.031 A 
ATOM     40  C   UNL A   1      41.479  25.764  28.480  1.00  0.00     0.074 A 
ATOM     41  C   UNL A   1      43.796  24.905  28.478  1.00  0.00     0.049 A 
ATOM     42  N   UNL A   1      41.674  27.009  28.833  1.00  0.00    -0.248 NA
ATOM     43  C   UNL A   1      40.067  25.420  28.250  1.00  0.00     0.031 C 
ATOM     44  C   UNL A   1      44.885  23.954  28.244  1.00  0.00     0.029 A 
ATOM     45  N   UNL A   1      44.436  26.028  28.943  1.00  0.00    -0.354 N 
ATOM     46  C   UNL A   1      40.417  27.602  28.830  1.00  0.00     0.074 A 
ATOM     47  C   UNL A   1      39.475  26.596  28.394  1.00  0.00     0.031 C 
ATOM     48  C   UNL A   1      46.051  24.524  28.585  1.00  0.00     0.029 A 
ATOM     49  C   UNL A   1      45.803  25.896  29.011  1.00  0.00     0.049 A 
ATOM     50  H   UNL A   1      43.960  26.850  29.204  1.00  0.00     0.167 HD
ATOM     51  C   UNL A   1      40.076  28.865  29.182  1.00  0.00     0.037 A 
ATOM     52  C   UNL A   1      46.754  26.786  29.355  1.00  0.00     0.037 A 
ATOM     53  C   UNL A   1      41.008  29.850  29.661  1.00  0.00     0.049 A 
ATOM     54  C   UNL A   1      46.349  28.181  29.742  1.00  0.00     0.074 A 
ATOM     55  C   UNL A   1      40.749  31.130  30.121  1.00  0.00     0.029 A 
ATOM     56  N   UNL A   1      42.379  29.666  29.743  1.00  0.00    -0.354 N 
ATOM     57  N   UNL A   1      45.150  28.708  29.796  1.00  0.00    -0.248 NA
ATOM     58  C   UNL A   1      47.430  29.106  30.112  1.00  0.00     0.031 C 
ATOM     59  C   UNL A   1      41.968  31.734  30.443  1.00  0.00     0.029 A 
ATOM     60  C   UNL A   1      42.982  30.816  30.224  1.00  0.00     0.049 A 
ATOM     61  H   UNL A   1      42.854  28.839  29.496  1.00  0.00     0.167 HD
ATOM     62  C   UNL A   1      45.329  30.015  30.226  1.00  0.00     0.074 A 
ATOM     63  C   UNL A   1      46.750  30.199  30.433  1.00  0.00     0.031 C 
ATOM     64  C   UNL A   1      44.398  30.980  30.431  1.00  0.00     0.037 A 
BRANCH  51  65
ATOM     65  C   UNL A   1      38.629  29.248  29.071  1.00  0.00     0.057 A 
ATOM     66  C   UNL A   1      37.775  29.245  30.182  1.00  0.00     0.134 A 
ATOM     67  C   UNL A   1      38.089  29.657  27.845  1.00  0.00     0.134 A 
ATOM     68  F   UNL A   1      38.226  28.854  31.384  1.00  0.00    -0.206 F 
ATOM     69  C   UNL A   1      36.431  29.605  30.073  1.00  0.00     0.040 A 
ATOM     70  C   UNL A   1      36.754  30.047  27.729  1.00  0.00     0.040 A 
ATOM     71  F   UNL A   1      38.852  29.692  26.741  1.00  0.00    -0.206 F 
ATOM     72  C   UNL A   1      35.918  30.014  28.843  1.00  0.00     0.006 A 
ENDBRANCH  51  65
BRANCH  52  73
ATOM     73  C   UNL A   1      48.183  26.384  29.358  1.00  0.00     0.057 A 
ATOM     74  C   UNL A   1      48.754  25.773  30.481  1.00  0.00     0.134 A 
ATOM     75  C   UNL A   1      49.012  26.599  28.251  1.00  0.00     0.134 A 
ATOM     76  F   UNL A   1      48.015  25.558  31.580  1.00  0.00    -0.206 F 
ATOM     77  C   UNL A   1      50.100  25.407  30.511  1.00  0.00     0.040 A 
ATOM     78  C   UNL A   1      50.354  26.216  28.257  1.00  0.00     0.040 A 
ATOM     79  F   UNL A   1      48.524  27.174  27.142  1.00  0.00    -0.206 F 
ATOM     80  C   UNL A   1      50.904  25.624  29.393  1.00  0.00     0.006 A 
ENDBRANCH  52  73
BRANCH  64  81
ATOM     81  C   UNL A   1      44.882  32.309  30.928  1.00  0.00     0.057 A 
ATOM     82  C   UNL A   1      45.036  32.572  32.294  1.00  0.00     0.134 A 
ATOM     83  C   UNL A   1      45.251  33.315  30.027  1.00  0.00     0.134 A 
ATOM     84  F   UNL A   1      44.686  31.654  33.208  1.00  0.00    -0.206 F 
ATOM     85  C   UNL A   1      45.529  33.796  32.748  1.00  0.00     0.040 A 
ATOM     86  C   UNL A   1      45.768  34.534  30.468  1.00  0.00     0.040 A 
ATOM     87  F   UNL A   1      45.135  33.123  28.705  1.00  0.00    -0.206 F 
ATOM     88  C   UNL A   1      45.905  34.778  31.834  1.00  0.00     0.006 A 
ENDBRANCH  64  81
ENDBRANCH  38  39
ENDBRANCH  30  33
ENDBRANCH  28  29
ENDBRANCH   1  28
TORSDOF 13
ENDMDL
MODEL 2
REMARK VINA RESULT:     -12.2      1.887      2.704
REMARK SMILES COc1ccc(-c2nc3ccc(C)cc3[nH]2)c(C(=O)NCCCNC(=O)c2ccc(-c3c4nc(c(-c5c(F)cccc5F)c5ccc([nH]5)c(-c5c(F)cccc5F)c5nc(c(-c6c(F)cccc6F)c6ccc3[nH]6)C=C5)C=C4)cc2)c1OC
REMARK SMILES IDX 22 1 21 2 20 3 18 4 19 5 17 7 3 8 4 9 81 10 5 11 6 12 2 13
REMARK SMILES IDX 1 14 82 15 83 16 7 17 8 18 16 19 9 20 15 21 10 23 14 24
REMARK SMILES IDX 11 25 12 26 13 27 23 28 24 29 25 30 26 32 27 33 28 34 80 35
REMARK SMILES IDX 29 36 79 37 30 38 31 39 32 40 73 41 33 42 78 43 72 44 74 45
REMARK SMILES IDX 34 46 77 47 71 48 70 49 35 51 61 52 44 53 60 54 45 55 48 56
REMARK SMILES IDX 59 57 75 58 46 59 47 60 58 62 76 63 49 64 36 65 37 66 42 67
REMARK SMILES IDX 38 68 39 69 41 70 43 71 40 72 62 73 63 74 68 75 64 76 65 77
REMARK SMILES IDX 67 78 69 79 66 80 50 81 51 82 56 83 52 84 53 85 55 86 57 87
REMARK SMILES IDX 54 88
REMARK H PARENT 20 6 16 22 24 31 74 50 48 61
REMARK Flexibility Score: inf
ROOT
ATOM      1  C   UNL A   1      35.729  21.604  25.368  1.00  0.00     0.042 C 
ENDROOT
BRANCH   1   2
ATOM      2  C   UNL A   1      35.105  22.952  25.670  1.00  0.00     0.118 C 
BRANCH   2   3
ATOM      3  N   UNL A   1      34.219  23.052  26.807  1.00  0.00    -0.352 N 
ATOM      4  C   UNL A   1      32.833  23.027  26.762  1.00  0.00     0.255 C 
ATOM      5  O   UNL A   1      32.198  22.600  27.722  1.00  0.00    -0.269 OA
ATOM      6  H   UNL A   1      34.636  23.146  27.694  1.00  0.00     0.163 HD
BRANCH   4   7
ATOM      7  C   UNL A   1      32.108  23.597  25.592  1.00  0.00     0.096 A 
ATOM      8  C   UNL A   1      30.843  25.373  24.532  1.00  0.00     0.161 A 
ATOM      9  C   UNL A   1      30.562  24.509  23.464  1.00  0.00     0.051 A 
ATOM     10  C   UNL A   1      31.678  24.950  25.577  1.00  0.00     0.174 A 
ATOM     11  C   UNL A   1      31.087  23.213  23.429  1.00  0.00     0.017 A 
ATOM     12  C   UNL A   1      31.834  22.725  24.506  1.00  0.00     0.034 A 
BRANCH   8  13
ATOM     13  O   UNL A   1      30.081  26.511  24.557  1.00  0.00    -0.493 OA
ATOM     14  C   UNL A   1      30.517  27.563  23.708  1.00  0.00     0.278 C 
ENDBRANCH   8  13
BRANCH  10  15
ATOM     15  O   UNL A   1      32.200  25.760  26.554  1.00  0.00    -0.492 OA
ATOM     16  C   UNL A   1      33.227  26.684  26.216  1.00  0.00     0.278 C 
ENDBRANCH  10  15
BRANCH  12  17
ATOM     17  C   UNL A   1      32.272  21.323  24.499  1.00  0.00     0.139 A 
ATOM     18  N   UNL A   1      32.724  20.652  23.456  1.00  0.00    -0.228 NA
ATOM     19  N   UNL A   1      32.207  20.496  25.601  1.00  0.00    -0.338 N 
ATOM     20  C   UNL A   1      32.815  19.341  23.862  1.00  0.00     0.089 A 
ATOM     21  C   UNL A   1      32.512  19.215  25.210  1.00  0.00     0.066 A 
ATOM     22  H   UNL A   1      31.979  20.777  26.517  1.00  0.00     0.168 HD
ATOM     23  C   UNL A   1      33.131  18.194  23.122  1.00  0.00     0.031 A 
ATOM     24  C   UNL A   1      32.514  17.989  25.886  1.00  0.00     0.031 A 
ATOM     25  C   UNL A   1      33.113  16.949  23.766  1.00  0.00     0.006 A 
ATOM     26  C   UNL A   1      32.810  16.839  25.132  1.00  0.00    -0.049 A 
ATOM     27  C   UNL A   1      32.783  15.477  25.769  1.00  0.00     0.044 C 
ENDBRANCH  12  17
ENDBRANCH   4   7
ENDBRANCH   2   3
ENDBRANCH   1   2
BRANCH   1  28
ATOM     28  C   UNL A   1      37.081  21.662  24.677  1.00  0.00     0.118 C 
BRANCH  28  29
ATOM     29  N   UNL A   1      38.029  20.639  25.109  1.00  0.00    -0.352 N 
ATOM     30  C   UNL A   1      39.169  20.675  25.884  1.00  0.00     0.251 C 
ATOM     31  H   UNL A   1      37.808  19.738  24.779  1.00  0.00     0.163 HD
ATOM     32  O   UNL A   1      39.825  19.655  26.027  1.00  0.00    -0.269 OA
BRANCH  30  33
ATOM     33  C   UNL A   1      39.652  21.937  26.499  1.00  0.00     0.039 A 
ATOM     34  C   UNL A   1      40.691  21.873  27.436  1.00  0.00     0.014 A 
ATOM     35  C   UNL A   1      39.105  23.174  26.177  1.00  0.00     0.014 A 
ATOM     36  C   UNL A   1      41.258  23.049  27.939  1.00  0.00     0.010 A 
ATOM     37  C   UNL A   1      39.745  24.343  26.577  1.00  0.00     0.010 A 
ATOM     38  C   UNL A   1      40.840  24.296  27.452  1.00  0.00    -0.014 A 
BRANCH  38  39
ATOM     39  C   UNL A   1      41.532  25.564  27.810  1.00  0.00     0.031 A 
ATOM     40  C   UNL A   1      40.794  26.645  28.555  1.00  0.00     0.074 A 
ATOM     41  C   UNL A   1      42.782  25.794  27.360  1.00  0.00     0.049 A 
ATOM     42  N   UNL A   1      41.157  27.879  28.797  1.00  0.00    -0.248 NA
ATOM     43  C   UNL A   1      39.454  26.304  29.059  1.00  0.00     0.031 C 
ATOM     44  C   UNL A   1      43.592  24.854  26.581  1.00  0.00     0.029 A 
ATOM     45  N   UNL A   1      43.584  26.904  27.471  1.00  0.00    -0.354 N 
ATOM     46  C   UNL A   1      40.077  28.468  29.446  1.00  0.00     0.074 A 
ATOM     47  C   UNL A   1      39.031  27.473  29.516  1.00  0.00     0.031 C 
ATOM     48  C   UNL A   1      44.778  25.417  26.304  1.00  0.00     0.029 A 
ATOM     49  C   UNL A   1      44.796  26.774  26.836  1.00  0.00     0.049 A 
ATOM     50  H   UNL A   1      43.316  27.715  27.960  1.00  0.00     0.167 HD
ATOM     51  C   UNL A   1      39.977  29.718  29.958  1.00  0.00     0.037 A 
ATOM     52  C   UNL A   1      45.802  27.656  26.679  1.00  0.00     0.037 A 
ATOM     53  C   UNL A   1      41.036  30.691  29.930  1.00  0.00     0.049 A 
ATOM     54  C   UNL A   1      45.667  29.036  27.257  1.00  0.00     0.074 A 
ATOM     55  C   UNL A   1      41.061  31.954  30.494  1.00  0.00     0.029 A 
ATOM     56  N   UNL A   1      42.259  30.508  29.303  1.00  0.00    -0.354 N 
ATOM     57  N   UNL A   1      44.666  29.558  27.924  1.00  0.00    -0.248 NA
ATOM     58  C   UNL A   1      46.799  29.953  27.058  1.00  0.00     0.031 C 
ATOM     59  C   UNL A   1      42.285  32.552  30.175  1.00  0.00     0.029 A 
ATOM     60  C   UNL A   1      43.038  31.644  29.447  1.00  0.00     0.049 A 
ATOM     61  H   UNL A   1      42.533  29.691  28.827  1.00  0.00     0.167 HD
ATOM     62  C   UNL A   1      45.054  30.852  28.242  1.00  0.00     0.074 A 
ATOM     63  C   UNL A   1      46.388  31.033  27.709  1.00  0.00     0.031 C 
ATOM     64  C   UNL A   1      44.367  31.806  28.916  1.00  0.00     0.037 A 
BRANCH  51  65
ATOM     65  C   UNL A   1      38.677  30.100  30.603  1.00  0.00     0.057 A 
ATOM     66  C   UNL A   1      37.651  30.729  29.884  1.00  0.00     0.134 A 
ATOM     67  C   UNL A   1      38.433  29.808  31.952  1.00  0.00     0.134 A 
ATOM     68  F   UNL A   1      37.823  31.047  28.592  1.00  0.00    -0.206 F 
ATOM     69  C   UNL A   1      36.443  31.080  30.489  1.00  0.00     0.040 A 
ATOM     70  C   UNL A   1      37.218  30.128  32.560  1.00  0.00     0.040 A 
ATOM     71  F   UNL A   1      39.368  29.200  32.697  1.00  0.00    -0.206 F 
ATOM     72  C   UNL A   1      36.222  30.774  31.830  1.00  0.00     0.006 A 
ENDBRANCH  51  65
BRANCH  52  73
ATOM     73  C   UNL A   1      47.033  27.258  25.949  1.00  0.00     0.057 A 
ATOM     74  C   UNL A   1      47.139  27.444  24.565  1.00  0.00     0.134 A 
ATOM     75  C   UNL A   1      48.127  26.684  26.607  1.00  0.00     0.134 A 
ATOM     76  F   UNL A   1      46.116  27.972  23.876  1.00  0.00    -0.206 F 
ATOM     77  C   UNL A   1      48.279  27.059  23.860  1.00  0.00     0.040 A 
ATOM     78  C   UNL A   1      49.284  26.316  25.918  1.00  0.00     0.040 A 
ATOM     79  F   UNL A   1      48.091  26.486  27.933  1.00  0.00    -0.206 F 
ATOM     80  C   UNL A   1      49.359  26.497  24.538  1.00  0.00     0.006 A 
ENDBRANCH  52  73
BRANCH  64  81
ATOM     81  C   UNL A   1      45.052  33.120  29.140  1.00  0.00     0.057 A 
ATOM     82  C   UNL A   1      44.889  34.195  28.258  1.00  0.00     0.134 A 
ATOM     83  C   UNL A   1      45.837  33.330  30.280  1.00  0.00     0.134 A 
ATOM     84  F   UNL A   1      44.161  34.053  27.140  1.00  0.00    -0.206 F 
ATOM     85  C   UNL A   1      45.495  35.430  28.496  1.00  0.00     0.040 A 
ATOM     86  C   UNL A   1      46.427  34.567  30.542  1.00  0.00     0.040 A 
ATOM     87  F   UNL A   1      46.026  32.342  31.168  1.00  0.00    -0.206 F 
ATOM     88  C   UNL A   1      46.259  35.621  29.646  1.00  0.00     0.006 A 
ENDBRANCH  64  81
ENDBRANCH  38  39
ENDBRANCH  30  33
ENDBRANCH  28  29
ENDBRANCH   1  28
TORSDOF 13
ENDMDL
MODEL 3
REMARK VINA RESULT:     -12.2      2.740      7.941
REMARK SMILES COc1ccc(-c2nc3ccc(C)cc3[nH]2)c(C(=O)NCCCNC(=O)c2ccc(-c3c4nc(c(-c5c(F)cccc5F)c5ccc([nH]5)c(-c5c(F)cccc5F)c5nc(c(-c6c(F)cccc6F)c6ccc3[nH]6)C=C5)C=C4)cc2)c1OC
REMARK SMILES IDX 22 1 21 2 20 3 18 4 19 5 17 7 3 8 4 9 81 10 5 11 6 12 2 13
REMARK SMILES IDX 1 14 82 15 83 16 7 17 8 18 16 19 9 20 15 21 10 23 14 24
REMARK SMILES IDX 11 25 12 26 13 27 23 28 24 29 25 30 26 32 27 33 28 34 80 35
REMARK SMILES IDX 29 36 79 37 30 38 31 39 32 40 73 41 33 42 78 43 72 44 74 45
REMARK SMILES IDX 34 46 77 47 71 48 70 49 35 51 61 52 44 53 60 54 45 55 48 56
REMARK SMILES IDX 59 57 75 58 46 59 47 60 58 62 76 63 49 64 36 65 37 66 42 67
REMARK SMILES IDX 38 68 39 69 41 70 43 71 40 72 62 73 63 74 68 75 64 76 65 77
REMARK SMILES IDX 67 78 69 79 66 80 50 81 51 82 56 83 52 84 53 85 55 86 57 87
REMARK SMILES IDX 54 88
REMARK H PARENT 20 6 16 22 24 31 74 50 48 61
REMARK Flexibility Score: inf
ROOT
ATOM      1  C   UNL A   1      33.410  28.939  25.770  1.00  0.00     0.042 C 
ENDROOT
BRANCH   1   2
ATOM      2  C   UNL A   1      33.527  27.566  25.139  1.00  0.00     0.118 C 
BRANCH   2   3
ATOM      3  N   UNL A   1      33.995  27.483  23.774  1.00  0.00    -0.352 N 
ATOM      4  C   UNL A   1      33.390  26.772  22.749  1.00  0.00     0.255 C 
ATOM      5  O   UNL A   1      33.514  27.150  21.587  1.00  0.00    -0.269 OA
ATOM      6  H   UNL A   1      34.819  27.975  23.552  1.00  0.00     0.163 HD
BRANCH   4   7
ATOM      7  C   UNL A   1      32.664  25.504  23.039  1.00  0.00     0.096 A 
ATOM      8  C   UNL A   1      32.595  23.088  23.234  1.00  0.00     0.161 A 
ATOM      9  C   UNL A   1      31.200  23.158  23.355  1.00  0.00     0.051 A 
ATOM     10  C   UNL A   1      33.351  24.267  23.144  1.00  0.00     0.174 A 
ATOM     11  C   UNL A   1      30.538  24.390  23.369  1.00  0.00     0.017 A 
ATOM     12  C   UNL A   1      31.253  25.576  23.173  1.00  0.00     0.034 A 
BRANCH   8  13
ATOM     13  O   UNL A   1      33.082  21.831  22.996  1.00  0.00    -0.493 OA
ATOM     14  C   UNL A   1      32.499  20.789  23.765  1.00  0.00     0.278 C 
ENDBRANCH   8  13
BRANCH  10  15
ATOM     15  O   UNL A   1      34.718  24.342  23.241  1.00  0.00    -0.492 OA
ATOM     16  C   UNL A   1      35.341  24.103  24.498  1.00  0.00     0.278 C 
ENDBRANCH  10  15
BRANCH  12  17
ATOM     17  C   UNL A   1      30.522  26.845  23.071  1.00  0.00     0.139 A 
ATOM     18  N   UNL A   1      29.361  27.125  23.636  1.00  0.00    -0.228 NA
ATOM     19  N   UNL A   1      30.943  27.911  22.303  1.00  0.00    -0.338 N 
ATOM     20  C   UNL A   1      28.966  28.332  23.107  1.00  0.00     0.089 A 
ATOM     21  C   UNL A   1      29.947  28.858  22.278  1.00  0.00     0.066 A 
ATOM     22  H   UNL A   1      31.812  27.981  21.847  1.00  0.00     0.168 HD
ATOM     23  C   UNL A   1      27.764  29.033  23.274  1.00  0.00     0.031 A 
ATOM     24  C   UNL A   1      29.807  30.073  21.597  1.00  0.00     0.031 A 
ATOM     25  C   UNL A   1      27.584  30.238  22.581  1.00  0.00     0.006 A 
ATOM     26  C   UNL A   1      28.589  30.759  21.751  1.00  0.00    -0.049 A 
ATOM     27  C   UNL A   1      28.335  32.046  21.014  1.00  0.00     0.044 C 
ENDBRANCH  12  17
ENDBRANCH   4   7
ENDBRANCH   2   3
ENDBRANCH   1   2
BRANCH   1  28
ATOM     28  C   UNL A   1      33.423  28.950  27.289  1.00  0.00     0.118 C 
BRANCH  28  29
ATOM     29  N   UNL A   1      33.644  30.265  27.885  1.00  0.00    -0.352 N 
ATOM     30  C   UNL A   1      34.736  30.858  28.485  1.00  0.00     0.251 C 
ATOM     31  H   UNL A   1      32.851  30.848  27.852  1.00  0.00     0.163 HD
ATOM     32  O   UNL A   1      34.615  31.972  28.974  1.00  0.00    -0.269 OA
BRANCH  30  33
ATOM     33  C   UNL A   1      36.035  30.153  28.607  1.00  0.00     0.039 A 
ATOM     34  C   UNL A   1      36.931  30.205  27.531  1.00  0.00     0.014 A 
ATOM     35  C   UNL A   1      36.388  29.441  29.748  1.00  0.00     0.014 A 
ATOM     36  C   UNL A   1      38.215  29.662  27.658  1.00  0.00     0.010 A 
ATOM     37  C   UNL A   1      37.700  29.012  29.922  1.00  0.00     0.010 A 
ATOM     38  C   UNL A   1      38.636  29.130  28.885  1.00  0.00    -0.014 A 
BRANCH  38  39
ATOM     39  C   UNL A   1      40.043  28.711  29.131  1.00  0.00     0.031 A 
ATOM     40  C   UNL A   1      41.035  29.691  29.699  1.00  0.00     0.074 A 
ATOM     41  C   UNL A   1      40.458  27.493  28.731  1.00  0.00     0.049 A 
ATOM     42  N   UNL A   1      42.334  29.581  29.814  1.00  0.00    -0.248 NA
ATOM     43  C   UNL A   1      40.500  30.982  30.159  1.00  0.00     0.031 C 
ATOM     44  C   UNL A   1      39.613  26.465  28.117  1.00  0.00     0.029 A 
ATOM     45  N   UNL A   1      41.706  26.918  28.757  1.00  0.00    -0.354 N 
ATOM     46  C   UNL A   1      42.772  30.798  30.325  1.00  0.00     0.074 A 
ATOM     47  C   UNL A   1      41.608  31.647  30.449  1.00  0.00     0.031 C 
ATOM     48  C   UNL A   1      40.360  25.383  27.846  1.00  0.00     0.029 A 
ATOM     49  C   UNL A   1      41.744  25.656  28.215  1.00  0.00     0.049 A 
ATOM     50  H   UNL A   1      42.498  27.368  29.131  1.00  0.00     0.167 HD
ATOM     51  C   UNL A   1      44.026  31.166  30.679  1.00  0.00     0.037 A 
ATOM     52  C   UNL A   1      42.780  24.818  28.014  1.00  0.00     0.037 A 
ATOM     53  C   UNL A   1      45.175  30.303  30.598  1.00  0.00     0.049 A 
ATOM     54  C   UNL A   1      44.162  25.250  28.417  1.00  0.00     0.074 A 
ATOM     55  C   UNL A   1      46.472  30.555  31.011  1.00  0.00     0.029 A 
ATOM     56  N   UNL A   1      45.164  29.022  30.071  1.00  0.00    -0.354 N 
ATOM     57  N   UNL A   1      44.550  26.379  28.957  1.00  0.00    -0.248 NA
ATOM     58  C   UNL A   1      45.252  24.292  28.177  1.00  0.00     0.031 C 
ATOM     59  C   UNL A   1      47.255  29.439  30.695  1.00  0.00     0.029 A 
ATOM     60  C   UNL A   1      46.436  28.478  30.125  1.00  0.00     0.049 A 
ATOM     61  H   UNL A   1      44.369  28.565  29.711  1.00  0.00     0.167 HD
ATOM     62  C   UNL A   1      45.920  26.260  29.143  1.00  0.00     0.074 A 
ATOM     63  C   UNL A   1      46.296  24.944  28.672  1.00  0.00     0.031 C 
ATOM     64  C   UNL A   1      46.792  27.162  29.658  1.00  0.00     0.037 A 
BRANCH  51  65
ATOM     65  C   UNL A   1      44.219  32.561  31.197  1.00  0.00     0.057 A 
ATOM     66  C   UNL A   1      44.513  33.633  30.343  1.00  0.00     0.134 A 
ATOM     67  C   UNL A   1      44.079  32.844  32.562  1.00  0.00     0.134 A 
ATOM     68  F   UNL A   1      44.672  33.429  29.026  1.00  0.00    -0.206 F 
ATOM     69  C   UNL A   1      44.689  34.929  30.830  1.00  0.00     0.040 A 
ATOM     70  C   UNL A   1      44.224  34.141  33.057  1.00  0.00     0.040 A 
ATOM     71  F   UNL A   1      43.790  31.867  33.434  1.00  0.00    -0.206 F 
ATOM     72  C   UNL A   1      44.538  35.187  32.191  1.00  0.00     0.006 A 
ENDBRANCH  51  65
BRANCH  52  73
ATOM     73  C   UNL A   1      42.550  23.481  27.410  1.00  0.00     0.057 A 
ATOM     74  C   UNL A   1      42.246  22.375  28.212  1.00  0.00     0.134 A 
ATOM     75  C   UNL A   1      42.630  23.274  26.028  1.00  0.00     0.134 A 
ATOM     76  F   UNL A   1      42.174  22.507  29.544  1.00  0.00    -0.206 F 
ATOM     77  C   UNL A   1      42.046  21.107  27.664  1.00  0.00     0.040 A 
ATOM     78  C   UNL A   1      42.409  22.016  25.464  1.00  0.00     0.040 A 
ATOM     79  F   UNL A   1      42.911  24.294  25.205  1.00  0.00    -0.206 F 
ATOM     80  C   UNL A   1      42.123  20.926  26.284  1.00  0.00     0.006 A 
ENDBRANCH  52  73
BRANCH  64  81
ATOM     81  C   UNL A   1      48.228  26.748  29.765  1.00  0.00     0.057 A 
ATOM     82  C   UNL A   1      48.704  26.017  30.860  1.00  0.00     0.134 A 
ATOM     83  C   UNL A   1      49.132  27.036  28.735  1.00  0.00     0.134 A 
ATOM     84  F   UNL A   1      47.892  25.723  31.886  1.00  0.00    -0.206 F 
ATOM     85  C   UNL A   1      50.033  25.596  30.931  1.00  0.00     0.040 A 
ATOM     86  C   UNL A   1      50.456  26.600  28.783  1.00  0.00     0.040 A 
ATOM     87  F   UNL A   1      48.736  27.727  27.655  1.00  0.00    -0.206 F 
ATOM     88  C   UNL A   1      50.911  25.880  29.887  1.00  0.00     0.006 A 
ENDBRANCH  64  81
ENDBRANCH  38  39
ENDBRANCH  30  33
ENDBRANCH  28  29
ENDBRANCH   1  28
TORSDOF 13
ENDMDL
