MODEL 1
REMARK VINA RESULT:     -12.4      0.000      0.000
REMARK SMILES CC(C)(C)OC(=O)N1CCN(c2nc3ccccc3s2)[C@H](C(=O)NCCCNC(=O)c2ccc(-c3c4nc(c(-c5c(F)cccc5F)c5ccc([nH]5)c(-c5c(F)cccc5F)c5nc(c(-c6c(F)cccc6F)c6ccc3[nH]6)C=C5)C=C4)cc2)C1
REMARK SMILES IDX 25 1 24 2 22 3 23 4 21 6 8 7 9 8 85 9 10 10 11 11 6 12 7 13
REMARK SMILES IDX 5 14 2 15 1 16 3 17 4 18 12 19 13 20 20 21 14 22 19 23 15 24
REMARK SMILES IDX 18 25 16 26 17 27 26 28 27 29 28 30 29 31 30 33 31 34 32 35
REMARK SMILES IDX 84 36 33 37 83 38 34 39 35 40 36 41 77 42 37 43 82 44 76 45
REMARK SMILES IDX 78 46 38 47 81 48 75 49 74 50 39 52 65 53 48 54 64 55 49 56
REMARK SMILES IDX 52 57 63 58 79 59 50 60 51 61 62 63 80 64 53 65 40 66 41 67
REMARK SMILES IDX 46 68 42 69 43 70 45 71 47 72 44 73 66 74 67 75 72 76 68 77
REMARK SMILES IDX 69 78 71 79 73 80 70 81 54 82 55 83 60 84 56 85 57 86 59 87
REMARK SMILES IDX 61 88 58 89
REMARK H PARENT 24 5 28 32 78 51 52 62
REMARK Flexibility Score: inf
ROOT
ATOM      1  C   UNL A   1      35.953  20.951  25.001  1.00  0.00     0.117 C 
ENDROOT
BRANCH   1   2
ATOM      2  N   UNL A   1      35.528  21.426  26.309  1.00  0.00    -0.354 N 
ATOM      3  C   UNL A   1      34.497  22.237  26.692  1.00  0.00     0.244 C 
ATOM      4  O   UNL A   1      34.354  22.424  27.905  1.00  0.00    -0.273 OA
ATOM      5  H   UNL A   1      36.086  21.106  27.055  1.00  0.00     0.163 HD
BRANCH   3   6
ATOM      6  C   UNL A   1      33.517  22.860  25.683  1.00  0.00     0.193 C 
ATOM      7  N   UNL A   1      31.969  24.920  25.710  1.00  0.00    -0.304 N 
ATOM      8  C   UNL A   1      30.853  24.036  25.384  1.00  0.00     0.144 C 
ATOM      9  C   UNL A   1      33.235  24.315  26.128  1.00  0.00     0.158 C 
ATOM     10  C   UNL A   1      31.292  22.773  24.634  1.00  0.00     0.141 C 
ATOM     11  N   UNL A   1      32.290  22.042  25.436  1.00  0.00    -0.332 N 
BRANCH   7  12
ATOM     12  C   UNL A   1      31.705  26.252  25.998  1.00  0.00     0.410 C 
ATOM     13  O   UNL A   1      31.164  26.631  27.027  1.00  0.00    -0.224 OA
BRANCH  12  14
ATOM     14  O   UNL A   1      32.137  27.066  25.003  1.00  0.00    -0.444 OA
BRANCH  14  15
ATOM     15  C   UNL A   1      32.975  28.227  25.238  1.00  0.00     0.106 C 
ATOM     16  C   UNL A   1      33.763  28.391  23.930  1.00  0.00     0.056 C 
ATOM     17  C   UNL A   1      33.954  27.933  26.379  1.00  0.00     0.056 C 
ATOM     18  C   UNL A   1      32.179  29.510  25.491  1.00  0.00     0.056 C 
ENDBRANCH  14  15
ENDBRANCH  12  14
ENDBRANCH   7  12
BRANCH  11  19
ATOM     19  C   UNL A   1      32.478  20.730  25.086  1.00  0.00     0.187 A 
ATOM     20  N   UNL A   1      32.618  19.731  25.930  1.00  0.00    -0.220 NA
ATOM     21  S   UNL A   1      32.652  20.276  23.435  1.00  0.00    -0.097 S 
ATOM     22  C   UNL A   1      32.804  18.531  25.245  1.00  0.00     0.084 A 
ATOM     23  C   UNL A   1      32.855  18.641  23.858  1.00  0.00     0.056 A 
ATOM     24  C   UNL A   1      32.946  17.245  25.809  1.00  0.00     0.030 A 
ATOM     25  C   UNL A   1      33.050  17.539  23.010  1.00  0.00     0.021 A 
ATOM     26  C   UNL A   1      33.134  16.133  24.975  1.00  0.00     0.002 A 
ATOM     27  C   UNL A   1      33.187  16.280  23.593  1.00  0.00     0.002 A 
ENDBRANCH  11  19
ENDBRANCH   3   6
ENDBRANCH   1   2
BRANCH   1  28
ATOM     28  C   UNL A   1      37.137  19.986  25.015  1.00  0.00     0.042 C 
BRANCH  28  29
ATOM     29  C   UNL A   1      38.462  20.566  25.496  1.00  0.00     0.118 C 
BRANCH  29  30
ATOM     30  N   UNL A   1      39.491  19.548  25.621  1.00  0.00    -0.352 N 
ATOM     31  C   UNL A   1      40.806  19.704  25.989  1.00  0.00     0.251 C 
ATOM     32  H   UNL A   1      39.210  18.627  25.414  1.00  0.00     0.163 HD
ATOM     33  O   UNL A   1      41.606  18.789  25.823  1.00  0.00    -0.269 OA
BRANCH  31  34
ATOM     34  C   UNL A   1      41.260  20.986  26.572  1.00  0.00     0.039 A 
ATOM     35  C   UNL A   1      41.791  21.966  25.730  1.00  0.00     0.014 A 
ATOM     36  C   UNL A   1      41.182  21.213  27.949  1.00  0.00     0.014 A 
ATOM     37  C   UNL A   1      42.201  23.192  26.263  1.00  0.00     0.010 A 
ATOM     38  C   UNL A   1      41.522  22.459  28.469  1.00  0.00     0.010 A 
ATOM     39  C   UNL A   1      42.051  23.457  27.635  1.00  0.00    -0.014 A 
BRANCH  39  40
ATOM     40  C   UNL A   1      42.483  24.749  28.227  1.00  0.00     0.031 A 
ATOM     41  C   UNL A   1      41.473  25.840  28.458  1.00  0.00     0.074 A 
ATOM     42  C   UNL A   1      43.784  24.970  28.500  1.00  0.00     0.049 A 
ATOM     43  N   UNL A   1      41.658  27.070  28.870  1.00  0.00    -0.248 NA
ATOM     44  C   UNL A   1      40.070  25.515  28.158  1.00  0.00     0.031 C 
ATOM     45  C   UNL A   1      44.870  24.013  28.286  1.00  0.00     0.029 A 
ATOM     46  N   UNL A   1      44.414  26.080  29.005  1.00  0.00    -0.354 N 
ATOM     47  C   UNL A   1      40.404  27.667  28.850  1.00  0.00     0.074 A 
ATOM     48  C   UNL A   1      39.474  26.683  28.343  1.00  0.00     0.031 C 
ATOM     49  C   UNL A   1      46.030  24.571  28.675  1.00  0.00     0.029 A 
ATOM     50  C   UNL A   1      45.774  25.933  29.132  1.00  0.00     0.049 A 
ATOM     51  H   UNL A   1      43.936  26.904  29.253  1.00  0.00     0.167 HD
ATOM     52  C   UNL A   1      40.053  28.916  29.241  1.00  0.00     0.037 A 
ATOM     53  C   UNL A   1      46.709  26.802  29.561  1.00  0.00     0.037 A 
ATOM     54  C   UNL A   1      40.969  29.881  29.787  1.00  0.00     0.049 A 
ATOM     55  C   UNL A   1      46.293  28.177  30.003  1.00  0.00     0.074 A 
ATOM     56  C   UNL A   1      40.698  31.148  30.273  1.00  0.00     0.029 A 
ATOM     57  N   UNL A   1      42.333  29.682  29.927  1.00  0.00    -0.354 N 
ATOM     58  N   UNL A   1      45.096  28.711  30.029  1.00  0.00    -0.248 NA
ATOM     59  C   UNL A   1      47.358  29.071  30.482  1.00  0.00     0.031 C 
ATOM     60  C   UNL A   1      41.905  31.729  30.677  1.00  0.00     0.029 A 
ATOM     61  C   UNL A   1      42.921  30.808  30.479  1.00  0.00     0.049 A 
ATOM     62  H   UNL A   1      42.814  28.860  29.672  1.00  0.00     0.167 HD
ATOM     63  C   UNL A   1      45.259  29.988  30.549  1.00  0.00     0.074 A 
ATOM     64  C   UNL A   1      46.669  30.146  30.837  1.00  0.00     0.031 C 
ATOM     65  C   UNL A   1      44.325  30.944  30.769  1.00  0.00     0.037 A 
BRANCH  52  66
ATOM     66  C   UNL A   1      38.611  29.303  29.096  1.00  0.00     0.057 A 
ATOM     67  C   UNL A   1      37.733  29.305  30.188  1.00  0.00     0.134 A 
ATOM     68  C   UNL A   1      38.099  29.703  27.856  1.00  0.00     0.134 A 
ATOM     69  F   UNL A   1      38.157  28.920  31.401  1.00  0.00    -0.206 F 
ATOM     70  C   UNL A   1      36.392  29.662  30.046  1.00  0.00     0.040 A 
ATOM     71  C   UNL A   1      36.765  30.088  27.706  1.00  0.00     0.040 A 
ATOM     72  F   UNL A   1      38.886  29.729  26.769  1.00  0.00    -0.206 F 
ATOM     73  C   UNL A   1      35.906  30.061  28.803  1.00  0.00     0.006 A 
ENDBRANCH  52  66
BRANCH  53  74
ATOM     74  C   UNL A   1      48.134  26.390  29.617  1.00  0.00     0.057 A 
ATOM     75  C   UNL A   1      48.664  25.791  30.766  1.00  0.00     0.134 A 
ATOM     76  C   UNL A   1      48.999  26.593  28.536  1.00  0.00     0.134 A 
ATOM     77  F   UNL A   1      47.889  25.590  31.842  1.00  0.00    -0.206 F 
ATOM     78  C   UNL A   1      50.008  25.422  30.845  1.00  0.00     0.040 A 
ATOM     79  C   UNL A   1      50.340  26.209  28.593  1.00  0.00     0.040 A 
ATOM     80  F   UNL A   1      48.550  27.157  27.406  1.00  0.00    -0.206 F 
ATOM     81  C   UNL A   1      50.849  25.627  29.752  1.00  0.00     0.006 A 
ENDBRANCH  53  74
BRANCH  65  82
ATOM     82  C   UNL A   1      44.790  32.232  31.380  1.00  0.00     0.057 A 
ATOM     83  C   UNL A   1      44.839  32.417  32.766  1.00  0.00     0.134 A 
ATOM     84  C   UNL A   1      45.232  33.285  30.568  1.00  0.00     0.134 A 
ATOM     85  F   UNL A   1      44.417  31.452  33.596  1.00  0.00    -0.206 F 
ATOM     86  C   UNL A   1      45.296  33.612  33.325  1.00  0.00     0.040 A 
ATOM     87  C   UNL A   1      45.713  34.475  31.116  1.00  0.00     0.040 A 
ATOM     88  F   UNL A   1      45.217  33.168  29.231  1.00  0.00    -0.206 F 
ATOM     89  C   UNL A   1      45.741  34.642  32.498  1.00  0.00     0.006 A 
ENDBRANCH  65  82
ENDBRANCH  39  40
ENDBRANCH  31  34
ENDBRANCH  29  30
ENDBRANCH  28  29
ENDBRANCH   1  28
TORSDOF 14
ENDMDL
MODEL 2
REMARK VINA RESULT:     -12.2      2.445      6.795
REMARK SMILES CC(C)(C)OC(=O)N1CCN(c2nc3ccccc3s2)[C@H](C(=O)NCCCNC(=O)c2ccc(-c3c4nc(c(-c5c(F)cccc5F)c5ccc([nH]5)c(-c5c(F)cccc5F)c5nc(c(-c6c(F)cccc6F)c6ccc3[nH]6)C=C5)C=C4)cc2)C1
REMARK SMILES IDX 25 1 24 2 22 3 23 4 21 6 8 7 9 8 85 9 10 10 11 11 6 12 7 13
REMARK SMILES IDX 5 14 2 15 1 16 3 17 4 18 12 19 13 20 20 21 14 22 19 23 15 24
REMARK SMILES IDX 18 25 16 26 17 27 26 28 27 29 28 30 29 31 30 33 31 34 32 35
REMARK SMILES IDX 84 36 33 37 83 38 34 39 35 40 36 41 77 42 37 43 82 44 76 45
REMARK SMILES IDX 78 46 38 47 81 48 75 49 74 50 39 52 65 53 48 54 64 55 49 56
REMARK SMILES IDX 52 57 63 58 79 59 50 60 51 61 62 63 80 64 53 65 40 66 41 67
REMARK SMILES IDX 46 68 42 69 43 70 45 71 47 72 44 73 66 74 67 75 72 76 68 77
REMARK SMILES IDX 69 78 71 79 73 80 70 81 54 82 55 83 60 84 56 85 57 86 59 87
REMARK SMILES IDX 61 88 58 89
REMARK H PARENT 24 5 28 32 78 51 52 62
REMARK Flexibility Score: inf
ROOT
ATOM      1  C   UNL A   1      34.966  23.964  24.433  1.00  0.00     0.117 C 
ENDROOT
BRANCH   1   2
ATOM      2  N   UNL A   1      34.532  23.612  23.089  1.00  0.00    -0.354 N 
ATOM      3  C   UNL A   1      33.316  23.228  22.598  1.00  0.00     0.244 C 
ATOM      4  O   UNL A   1      33.240  23.041  21.379  1.00  0.00    -0.273 OA
ATOM      5  H   UNL A   1      35.244  23.657  22.410  1.00  0.00     0.163 HD
BRANCH   3   6
ATOM      6  C   UNL A   1      32.073  23.076  23.492  1.00  0.00     0.193 C 
ATOM      7  N   UNL A   1      30.765  24.664  25.044  1.00  0.00    -0.304 N 
ATOM      8  C   UNL A   1      30.960  23.703  26.126  1.00  0.00     0.144 C 
ATOM      9  C   UNL A   1      31.543  24.494  23.815  1.00  0.00     0.158 C 
ATOM     10  C   UNL A   1      31.142  22.267  25.622  1.00  0.00     0.141 C 
ATOM     11  N   UNL A   1      32.284  22.209  24.692  1.00  0.00    -0.332 N 
BRANCH   7  12
ATOM     12  C   UNL A   1      30.183  25.891  25.336  1.00  0.00     0.410 C 
ATOM     13  O   UNL A   1      29.245  26.364  24.711  1.00  0.00    -0.224 OA
BRANCH  12  14
ATOM     14  O   UNL A   1      30.779  26.477  26.403  1.00  0.00    -0.444 OA
BRANCH  14  15
ATOM     15  C   UNL A   1      31.824  27.476  26.277  1.00  0.00     0.106 C 
ATOM     16  C   UNL A   1      31.804  28.211  27.626  1.00  0.00     0.056 C 
ATOM     17  C   UNL A   1      31.461  28.462  25.162  1.00  0.00     0.056 C 
ATOM     18  C   UNL A   1      33.217  26.876  26.071  1.00  0.00     0.056 C 
ENDBRANCH  14  15
ENDBRANCH  12  14
ENDBRANCH   7  12
BRANCH  11  19
ATOM     19  C   UNL A   1      32.800  20.958  24.471  1.00  0.00     0.187 A 
ATOM     20  N   UNL A   1      32.231  20.020  23.746  1.00  0.00    -0.220 NA
ATOM     21  S   UNL A   1      34.256  20.458  25.239  1.00  0.00    -0.097 S 
ATOM     22  C   UNL A   1      33.013  18.865  23.735  1.00  0.00     0.084 A 
ATOM     23  C   UNL A   1      34.167  18.923  24.511  1.00  0.00     0.056 A 
ATOM     24  C   UNL A   1      32.750  17.670  23.033  1.00  0.00     0.030 A 
ATOM     25  C   UNL A   1      35.064  17.849  24.628  1.00  0.00     0.021 A 
ATOM     26  C   UNL A   1      33.640  16.589  23.134  1.00  0.00     0.002 A 
ATOM     27  C   UNL A   1      34.781  16.680  23.924  1.00  0.00     0.002 A 
ENDBRANCH  11  19
ENDBRANCH   3   6
ENDBRANCH   1   2
BRANCH   1  28
ATOM     28  C   UNL A   1      36.442  23.698  24.727  1.00  0.00     0.042 C 
BRANCH  28  29
ATOM     29  C   UNL A   1      36.773  23.299  26.160  1.00  0.00     0.118 C 
BRANCH  29  30
ATOM     30  N   UNL A   1      37.873  22.353  26.224  1.00  0.00    -0.352 N 
ATOM     31  C   UNL A   1      39.209  22.609  26.420  1.00  0.00     0.251 C 
ATOM     32  H   UNL A   1      37.631  21.406  26.112  1.00  0.00     0.163 HD
ATOM     33  O   UNL A   1      40.042  21.732  26.217  1.00  0.00    -0.269 OA
BRANCH  31  34
ATOM     34  C   UNL A   1      39.644  23.954  26.862  1.00  0.00     0.039 A 
ATOM     35  C   UNL A   1      39.971  24.913  25.899  1.00  0.00     0.014 A 
ATOM     36  C   UNL A   1      39.750  24.260  28.221  1.00  0.00     0.014 A 
ATOM     37  C   UNL A   1      40.359  26.194  26.302  1.00  0.00     0.010 A 
ATOM     38  C   UNL A   1      40.065  25.557  28.619  1.00  0.00     0.010 A 
ATOM     39  C   UNL A   1      40.390  26.533  27.665  1.00  0.00    -0.014 A 
BRANCH  39  40
ATOM     40  C   UNL A   1      40.804  27.886  28.117  1.00  0.00     0.031 A 
ATOM     41  C   UNL A   1      42.264  28.253  28.140  1.00  0.00     0.074 A 
ATOM     42  C   UNL A   1      39.885  28.764  28.566  1.00  0.00     0.049 A 
ATOM     43  N   UNL A   1      42.840  29.340  28.590  1.00  0.00    -0.248 NA
ATOM     44  C   UNL A   1      43.204  27.252  27.613  1.00  0.00     0.031 C 
ATOM     45  C   UNL A   1      38.444  28.521  28.635  1.00  0.00     0.029 A 
ATOM     46  N   UNL A   1      40.032  30.036  29.062  1.00  0.00    -0.354 N 
ATOM     47  C   UNL A   1      44.205  29.138  28.426  1.00  0.00     0.074 A 
ATOM     48  C   UNL A   1      44.374  27.810  27.879  1.00  0.00     0.031 C 
ATOM     49  C   UNL A   1      37.837  29.615  29.126  1.00  0.00     0.029 A 
ATOM     50  C   UNL A   1      38.848  30.621  29.438  1.00  0.00     0.049 A 
ATOM     51  H   UNL A   1      40.904  30.485  29.140  1.00  0.00     0.167 HD
ATOM     52  C   UNL A   1      45.225  29.991  28.685  1.00  0.00     0.037 A 
ATOM     53  C   UNL A   1      38.606  31.830  29.981  1.00  0.00     0.037 A 
ATOM     54  C   UNL A   1      45.056  31.328  29.187  1.00  0.00     0.049 A 
ATOM     55  C   UNL A   1      39.754  32.764  30.246  1.00  0.00     0.074 A 
ATOM     56  C   UNL A   1      46.022  32.291  29.419  1.00  0.00     0.029 A 
ATOM     57  N   UNL A   1      43.837  31.894  29.527  1.00  0.00    -0.354 N 
ATOM     58  N   UNL A   1      41.035  32.581  30.036  1.00  0.00    -0.248 NA
ATOM     59  C   UNL A   1      39.422  34.077  30.818  1.00  0.00     0.031 C 
ATOM     60  C   UNL A   1      45.391  33.429  29.932  1.00  0.00     0.029 A 
ATOM     61  C   UNL A   1      44.027  33.188  29.981  1.00  0.00     0.049 A 
ATOM     62  H   UNL A   1      42.965  31.442  29.456  1.00  0.00     0.167 HD
ATOM     63  C   UNL A   1      41.657  33.760  30.425  1.00  0.00     0.074 A 
ATOM     64  C   UNL A   1      40.612  34.657  30.871  1.00  0.00     0.031 C 
ATOM     65  C   UNL A   1      42.976  34.072  30.411  1.00  0.00     0.037 A 
BRANCH  52  66
ATOM     66  C   UNL A   1      46.618  29.499  28.421  1.00  0.00     0.057 A 
ATOM     67  C   UNL A   1      47.226  29.643  27.167  1.00  0.00     0.134 A 
ATOM     68  C   UNL A   1      47.369  28.897  29.437  1.00  0.00     0.134 A 
ATOM     69  F   UNL A   1      46.556  30.199  26.146  1.00  0.00    -0.206 F 
ATOM     70  C   UNL A   1      48.520  29.180  26.926  1.00  0.00     0.040 A 
ATOM     71  C   UNL A   1      48.674  28.453  29.216  1.00  0.00     0.040 A 
ATOM     72  F   UNL A   1      46.849  28.733  30.664  1.00  0.00    -0.206 F 
ATOM     73  C   UNL A   1      49.250  28.589  27.954  1.00  0.00     0.006 A 
ENDBRANCH  52  66
BRANCH  53  74
ATOM     74  C   UNL A   1      37.214  32.239  30.289  1.00  0.00     0.057 A 
ATOM     75  C   UNL A   1      36.624  31.918  31.518  1.00  0.00     0.134 A 
ATOM     76  C   UNL A   1      36.437  32.949  29.366  1.00  0.00     0.134 A 
ATOM     77  F   UNL A   1      37.312  31.221  32.434  1.00  0.00    -0.206 F 
ATOM     78  C   UNL A   1      35.307  32.272  31.813  1.00  0.00     0.040 A 
ATOM     79  C   UNL A   1      35.126  33.329  29.657  1.00  0.00     0.040 A 
ATOM     80  F   UNL A   1      36.946  33.291  28.174  1.00  0.00    -0.206 F 
ATOM     81  C   UNL A   1      34.555  32.986  30.881  1.00  0.00     0.006 A 
ENDBRANCH  53  74
BRANCH  65  82
ATOM     82  C   UNL A   1      43.360  35.449  30.862  1.00  0.00     0.057 A 
ATOM     83  C   UNL A   1      43.658  35.732  32.200  1.00  0.00     0.134 A 
ATOM     84  C   UNL A   1      43.474  36.495  29.936  1.00  0.00     0.134 A 
ATOM     85  F   UNL A   1      43.555  34.777  33.136  1.00  0.00    -0.206 F 
ATOM     86  C   UNL A   1      44.038  37.013  32.606  1.00  0.00     0.040 A 
ATOM     87  C   UNL A   1      43.876  37.772  30.326  1.00  0.00     0.040 A 
ATOM     88  F   UNL A   1      43.210  36.286  28.637  1.00  0.00    -0.206 F 
ATOM     89  C   UNL A   1      44.155  38.035  31.665  1.00  0.00     0.006 A 
ENDBRANCH  65  82
ENDBRANCH  39  40
ENDBRANCH  31  34
ENDBRANCH  29  30
ENDBRANCH  28  29
ENDBRANCH   1  28
TORSDOF 14
ENDMDL
MODEL 3
REMARK VINA RESULT:     -12.2      3.312      7.956
REMARK SMILES CC(C)(C)OC(=O)N1CCN(c2nc3ccccc3s2)[C@H](C(=O)NCCCNC(=O)c2ccc(-c3c4nc(c(-c5c(F)cccc5F)c5ccc([nH]5)c(-c5c(F)cccc5F)c5nc(c(-c6c(F)cccc6F)c6ccc3[nH]6)C=C5)C=C4)cc2)C1
REMARK SMILES IDX 25 1 24 2 22 3 23 4 21 6 8 7 9 8 85 9 10 10 11 11 6 12 7 13
REMARK SMILES IDX 5 14 2 15 1 16 3 17 4 18 12 19 13 20 20 21 14 22 19 23 15 24
REMARK SMILES IDX 18 25 16 26 17 27 26 28 27 29 28 30 29 31 30 33 31 34 32 35
REMARK SMILES IDX 84 36 33 37 83 38 34 39 35 40 36 41 77 42 37 43 82 44 76 45
REMARK SMILES IDX 78 46 38 47 81 48 75 49 74 50 39 52 65 53 48 54 64 55 49 56
REMARK SMILES IDX 52 57 63 58 79 59 50 60 51 61 62 63 80 64 53 65 40 66 41 67
REMARK SMILES IDX 46 68 42 69 43 70 45 71 47 72 44 73 66 74 67 75 72 76 68 77
REMARK SMILES IDX 69 78 71 79 73 80 70 81 54 82 55 83 60 84 56 85 57 86 59 87
REMARK SMILES IDX 61 88 58 89
REMARK H PARENT 24 5 28 32 78 51 52 62
REMARK Flexibility Score: inf
ROOT
ATOM      1  C   UNL A   1      32.909  26.720  26.196  1.00  0.00     0.117 C 
ENDROOT
BRANCH   1   2
ATOM      2  N   UNL A   1      31.539  26.357  26.527  1.00  0.00    -0.354 N 
ATOM      3  C   UNL A   1      30.550  25.770  25.789  1.00  0.00     0.244 C 
ATOM      4  O   UNL A   1      29.484  25.536  26.369  1.00  0.00    -0.273 OA
ATOM      5  H   UNL A   1      31.275  26.575  27.451  1.00  0.00     0.163 HD
BRANCH   3   6
ATOM      6  C   UNL A   1      30.746  25.366  24.318  1.00  0.00     0.193 C 
ATOM      7  N   UNL A   1      32.418  23.852  23.071  1.00  0.00    -0.304 N 
ATOM      8  C   UNL A   1      32.742  24.986  22.211  1.00  0.00     0.144 C 
ATOM      9  C   UNL A   1      31.638  24.102  24.285  1.00  0.00     0.158 C 
ATOM     10  C   UNL A   1      31.593  25.994  22.093  1.00  0.00     0.141 C 
ATOM     11  N   UNL A   1      31.218  26.477  23.435  1.00  0.00    -0.332 N 
BRANCH   7  12
ATOM     12  C   UNL A   1      33.161  22.686  22.948  1.00  0.00     0.410 C 
ATOM     13  O   UNL A   1      32.667  21.570  22.873  1.00  0.00    -0.224 OA
BRANCH  12  14
ATOM     14  O   UNL A   1      34.490  22.951  22.908  1.00  0.00    -0.444 OA
BRANCH  14  15
ATOM     15  C   UNL A   1      35.349  22.869  24.074  1.00  0.00     0.106 C 
ATOM     16  C   UNL A   1      36.745  22.594  23.493  1.00  0.00     0.056 C 
ATOM     17  C   UNL A   1      34.925  21.682  24.945  1.00  0.00     0.056 C 
ATOM     18  C   UNL A   1      35.406  24.171  24.879  1.00  0.00     0.056 C 
ENDBRANCH  14  15
ENDBRANCH  12  14
ENDBRANCH   7  12
BRANCH  11  19
ATOM     19  C   UNL A   1      30.493  27.640  23.459  1.00  0.00     0.187 A 
ATOM     20  N   UNL A   1      29.252  27.770  23.044  1.00  0.00    -0.220 NA
ATOM     21  S   UNL A   1      31.215  29.116  23.971  1.00  0.00    -0.097 S 
ATOM     22  C   UNL A   1      28.817  29.087  23.198  1.00  0.00     0.084 A 
ATOM     23  C   UNL A   1      29.772  29.972  23.693  1.00  0.00     0.056 A 
ATOM     24  C   UNL A   1      27.535  29.597  22.905  1.00  0.00     0.030 A 
ATOM     25  C   UNL A   1      29.514  31.337  23.899  1.00  0.00     0.021 A 
ATOM     26  C   UNL A   1      27.259  30.957  23.112  1.00  0.00     0.002 A 
ATOM     27  C   UNL A   1      28.239  31.815  23.601  1.00  0.00     0.002 A 
ENDBRANCH  11  19
ENDBRANCH   3   6
ENDBRANCH   1   2
BRANCH   1  28
ATOM     28  C   UNL A   1      33.467  27.914  26.969  1.00  0.00     0.042 C 
BRANCH  28  29
ATOM     29  C   UNL A   1      34.171  28.976  26.134  1.00  0.00     0.118 C 
BRANCH  29  30
ATOM     30  N   UNL A   1      33.925  30.317  26.635  1.00  0.00    -0.352 N 
ATOM     31  C   UNL A   1      34.569  30.980  27.652  1.00  0.00     0.251 C 
ATOM     32  H   UNL A   1      33.204  30.816  26.187  1.00  0.00     0.163 HD
ATOM     33  O   UNL A   1      34.096  32.015  28.111  1.00  0.00    -0.269 OA
BRANCH  31  34
ATOM     34  C   UNL A   1      35.828  30.434  28.206  1.00  0.00     0.039 A 
ATOM     35  C   UNL A   1      35.784  29.684  29.384  1.00  0.00     0.014 A 
ATOM     36  C   UNL A   1      37.052  30.678  27.576  1.00  0.00     0.014 A 
ATOM     37  C   UNL A   1      36.962  29.141  29.905  1.00  0.00     0.010 A 
ATOM     38  C   UNL A   1      38.213  30.077  28.055  1.00  0.00     0.010 A 
ATOM     39  C   UNL A   1      38.184  29.315  29.234  1.00  0.00    -0.014 A 
BRANCH  39  40
ATOM     40  C   UNL A   1      39.450  28.753  29.770  1.00  0.00     0.031 A 
ATOM     41  C   UNL A   1      40.091  29.375  30.981  1.00  0.00     0.074 A 
ATOM     42  C   UNL A   1      40.059  27.728  29.141  1.00  0.00     0.049 A 
ATOM     43  N   UNL A   1      41.241  29.100  31.546  1.00  0.00    -0.248 NA
ATOM     44  C   UNL A   1      39.355  30.474  31.626  1.00  0.00     0.031 C 
ATOM     45  C   UNL A   1      39.566  27.061  27.936  1.00  0.00     0.029 A 
ATOM     46  N   UNL A   1      41.234  27.079  29.424  1.00  0.00    -0.354 N 
ATOM     47  C   UNL A   1      41.375  30.008  32.589  1.00  0.00     0.074 A 
ATOM     48  C   UNL A   1      40.214  30.870  32.552  1.00  0.00     0.031 C 
ATOM     49  C   UNL A   1      40.423  26.083  27.593  1.00  0.00     0.029 A 
ATOM     50  C   UNL A   1      41.540  26.079  28.533  1.00  0.00     0.049 A 
ATOM     51  H   UNL A   1      41.805  27.308  30.193  1.00  0.00     0.167 HD
ATOM     52  C   UNL A   1      42.363  30.101  33.511  1.00  0.00     0.037 A 
ATOM     53  C   UNL A   1      42.606  25.257  28.476  1.00  0.00     0.037 A 
ATOM     54  C   UNL A   1      43.495  29.216  33.577  1.00  0.00     0.049 A 
ATOM     55  C   UNL A   1      43.683  25.369  29.519  1.00  0.00     0.074 A 
ATOM     56  C   UNL A   1      44.515  29.188  34.512  1.00  0.00     0.029 A 
ATOM     57  N   UNL A   1      43.752  28.197  32.674  1.00  0.00    -0.354 N 
ATOM     58  N   UNL A   1      43.770  26.198  30.531  1.00  0.00    -0.248 NA
ATOM     59  C   UNL A   1      44.809  24.429  29.414  1.00  0.00     0.031 C 
ATOM     60  C   UNL A   1      45.407  28.171  34.155  1.00  0.00     0.029 A 
ATOM     61  C   UNL A   1      44.922  27.542  33.020  1.00  0.00     0.049 A 
ATOM     62  H   UNL A   1      43.186  27.971  31.899  1.00  0.00     0.167 HD
ATOM     63  C   UNL A   1      44.942  25.863  31.198  1.00  0.00     0.074 A 
ATOM     64  C   UNL A   1      45.526  24.748  30.482  1.00  0.00     0.031 C 
ATOM     65  C   UNL A   1      45.484  26.427  32.304  1.00  0.00     0.037 A 
BRANCH  52  66
ATOM     66  C   UNL A   1      42.255  31.198  34.529  1.00  0.00     0.057 A 
ATOM     67  C   UNL A   1      42.825  32.460  34.317  1.00  0.00     0.134 A 
ATOM     68  C   UNL A   1      41.552  30.999  35.723  1.00  0.00     0.134 A 
ATOM     69  F   UNL A   1      43.523  32.712  33.199  1.00  0.00    -0.206 F 
ATOM     70  C   UNL A   1      42.725  33.475  35.269  1.00  0.00     0.040 A 
ATOM     71  C   UNL A   1      41.422  32.016  36.672  1.00  0.00     0.040 A 
ATOM     72  F   UNL A   1      40.976  29.816  35.987  1.00  0.00    -0.206 F 
ATOM     73  C   UNL A   1      42.016  33.256  36.448  1.00  0.00     0.006 A 
ENDBRANCH  52  66
BRANCH  53  74
ATOM     74  C   UNL A   1      42.698  24.235  27.405  1.00  0.00     0.057 A 
ATOM     75  C   UNL A   1      42.225  22.932  27.610  1.00  0.00     0.134 A 
ATOM     76  C   UNL A   1      43.264  24.527  26.159  1.00  0.00     0.134 A 
ATOM     77  F   UNL A   1      41.691  22.588  28.791  1.00  0.00    -0.206 F 
ATOM     78  C   UNL A   1      42.328  21.952  26.622  1.00  0.00     0.040 A 
ATOM     79  C   UNL A   1      43.353  23.562  25.154  1.00  0.00     0.040 A 
ATOM     80  F   UNL A   1      43.730  25.757  25.898  1.00  0.00    -0.206 F 
ATOM     81  C   UNL A   1      42.890  22.268  25.386  1.00  0.00     0.006 A 
ENDBRANCH  53  74
BRANCH  65  82
ATOM     82  C   UNL A   1      46.755  25.828  32.828  1.00  0.00     0.057 A 
ATOM     83  C   UNL A   1      46.751  24.815  33.793  1.00  0.00     0.134 A 
ATOM     84  C   UNL A   1      47.996  26.245  32.329  1.00  0.00     0.134 A 
ATOM     85  F   UNL A   1      45.596  24.381  34.319  1.00  0.00    -0.206 F 
ATOM     86  C   UNL A   1      47.939  24.247  34.257  1.00  0.00     0.040 A 
ATOM     87  C   UNL A   1      49.188  25.669  32.769  1.00  0.00     0.040 A 
ATOM     88  F   UNL A   1      48.067  27.208  31.397  1.00  0.00    -0.206 F 
ATOM     89  C   UNL A   1      49.162  24.670  33.739  1.00  0.00     0.006 A 
ENDBRANCH  65  82
ENDBRANCH  39  40
ENDBRANCH  31  34
ENDBRANCH  29  30
ENDBRANCH  28  29
ENDBRANCH   1  28
TORSDOF 14
ENDMDL
