MODEL 1
REMARK VINA RESULT:     -11.7      0.000      0.000
REMARK SMILES CC[C@H](C)[C@@H](NC(=O)/C=C/c1csc(C)n1)C(=O)NCCCNC(=O)c1ccc(-c2c3nc(c(-c4c(F)cccc4F)c4ccc([nH]4)c(-c4c(F)cccc4F)c4nc(c(-c5c(F)cccc5F)c5ccc2[nH]5)C=C4)C=C3)cc1
REMARK SMILES IDX 20 1 19 2 17 3 18 4 5 6 3 7 4 8 2 9 1 10 6 11 7 12 8 14 9 15
REMARK SMILES IDX 10 16 11 17 12 18 16 19 13 20 14 21 15 22 21 23 22 24 23 25
REMARK SMILES IDX 24 26 25 28 26 29 27 30 79 31 28 32 78 33 29 34 30 35 31 36
REMARK SMILES IDX 72 37 32 38 77 39 71 40 73 41 33 42 76 43 70 44 69 45 34 47
REMARK SMILES IDX 60 48 43 49 59 50 44 51 47 52 58 53 74 54 45 55 46 56 57 58
REMARK SMILES IDX 75 59 48 60 35 61 36 62 41 63 37 64 38 65 40 66 42 67 39 68
REMARK SMILES IDX 61 69 62 70 67 71 63 72 64 73 66 74 68 75 65 76 49 77 50 78
REMARK SMILES IDX 55 79 51 80 52 81 54 82 56 83 53 84
REMARK H PARENT 19 5 6 13 23 27 73 46 47 57
REMARK Flexibility Score: inf
ROOT
ATOM      1  C   UNL A   1      37.134  20.847  25.195  1.00  0.00     0.117 C 
ENDROOT
BRANCH   1   2
ATOM      2  N   UNL A   1      37.107  21.790  24.094  1.00  0.00    -0.354 N 
ATOM      3  C   UNL A   1      36.144  22.678  23.734  1.00  0.00     0.242 C 
ATOM      4  O   UNL A   1      36.352  23.379  22.737  1.00  0.00    -0.273 OA
ATOM      5  H   UNL A   1      37.907  21.787  23.520  1.00  0.00     0.163 HD
BRANCH   3   6
ATOM      6  C   UNL A   1      34.782  22.730  24.452  1.00  0.00     0.174 C 
BRANCH   6   7
ATOM      7  C   UNL A   1      34.857  23.872  25.532  1.00  0.00     0.018 C 
ATOM      8  C   UNL A   1      34.360  25.221  25.000  1.00  0.00     0.010 C 
BRANCH   7   9
ATOM      9  C   UNL A   1      34.087  23.450  26.815  1.00  0.00     0.002 C 
ATOM     10  C   UNL A   1      34.235  21.992  27.227  1.00  0.00     0.004 C 
ENDBRANCH   7   9
ENDBRANCH   6   7
BRANCH   6  11
ATOM     11  N   UNL A   1      33.605  22.854  23.562  1.00  0.00    -0.340 N 
ATOM     12  C   UNL A   1      32.496  22.059  23.441  1.00  0.00     0.244 C 
ATOM     13  H   UNL A   1      33.622  23.633  22.960  1.00  0.00     0.164 HD
ATOM     14  O   UNL A   1      31.449  22.538  23.019  1.00  0.00    -0.270 OA
BRANCH  12  15
ATOM     15  C   UNL A   1      32.645  20.598  23.552  1.00  0.00     0.073 C 
ATOM     16  C   UNL A   1      32.562  19.910  24.699  1.00  0.00     0.035 C 
BRANCH  16  17
ATOM     17  C   UNL A   1      33.040  18.569  24.840  1.00  0.00     0.074 A 
ATOM     18  C   UNL A   1      34.231  18.114  24.316  1.00  0.00     0.095 A 
ATOM     19  N   UNL A   1      32.214  17.596  25.377  1.00  0.00    -0.242 NA
ATOM     20  S   UNL A   1      34.351  16.419  24.543  1.00  0.00    -0.127 S 
ATOM     21  C   UNL A   1      32.801  16.420  25.291  1.00  0.00     0.090 A 
ATOM     22  C   UNL A   1      32.209  15.140  25.767  1.00  0.00     0.079 C 
ENDBRANCH  16  17
ENDBRANCH  12  15
ENDBRANCH   6  11
ENDBRANCH   3   6
ENDBRANCH   1   2
BRANCH   1  23
ATOM     23  C   UNL A   1      38.221  19.808  25.004  1.00  0.00     0.042 C 
BRANCH  23  24
ATOM     24  C   UNL A   1      39.488  20.109  25.793  1.00  0.00     0.118 C 
BRANCH  24  25
ATOM     25  N   UNL A   1      40.398  18.980  25.873  1.00  0.00    -0.352 N 
ATOM     26  C   UNL A   1      41.760  18.994  26.105  1.00  0.00     0.251 C 
ATOM     27  H   UNL A   1      39.992  18.091  25.747  1.00  0.00     0.163 HD
ATOM     28  O   UNL A   1      42.430  17.976  26.014  1.00  0.00    -0.269 OA
BRANCH  26  29
ATOM     29  C   UNL A   1      42.395  20.282  26.444  1.00  0.00     0.039 A 
ATOM     30  C   UNL A   1      43.036  21.009  25.441  1.00  0.00     0.014 A 
ATOM     31  C   UNL A   1      42.266  20.800  27.734  1.00  0.00     0.014 A 
ATOM     32  C   UNL A   1      43.470  22.309  25.714  1.00  0.00     0.010 A 
ATOM     33  C   UNL A   1      42.622  22.120  27.978  1.00  0.00     0.010 A 
ATOM     34  C   UNL A   1      43.218  22.890  26.969  1.00  0.00    -0.014 A 
BRANCH  34  35
ATOM     35  C   UNL A   1      43.545  24.310  27.245  1.00  0.00     0.031 A 
ATOM     36  C   UNL A   1      44.973  24.776  27.191  1.00  0.00     0.074 A 
ATOM     37  C   UNL A   1      42.571  25.156  27.637  1.00  0.00     0.049 A 
ATOM     38  N   UNL A   1      45.473  25.944  27.499  1.00  0.00    -0.248 NA
ATOM     39  C   UNL A   1      45.977  23.786  26.767  1.00  0.00     0.031 C 
ATOM     40  C   UNL A   1      41.155  24.809  27.793  1.00  0.00     0.029 A 
ATOM     41  N   UNL A   1      42.626  26.480  27.992  1.00  0.00    -0.354 N 
ATOM     42  C   UNL A   1      46.846  25.824  27.330  1.00  0.00     0.074 A 
ATOM     43  C   UNL A   1      47.107  24.458  26.935  1.00  0.00     0.031 C 
ATOM     44  C   UNL A   1      40.477  25.895  28.194  1.00  0.00     0.029 A 
ATOM     45  C   UNL A   1      41.410  27.005  28.356  1.00  0.00     0.049 A 
ATOM     46  H   UNL A   1      43.459  27.004  27.987  1.00  0.00     0.167 HD
ATOM     47  C   UNL A   1      47.800  26.773  27.470  1.00  0.00     0.037 A 
ATOM     48  C   UNL A   1      41.085  28.241  28.782  1.00  0.00     0.037 A 
ATOM     49  C   UNL A   1      47.533  28.143  27.813  1.00  0.00     0.049 A 
ATOM     50  C   UNL A   1      42.163  29.282  28.903  1.00  0.00     0.074 A 
ATOM     51  C   UNL A   1      48.423  29.201  27.885  1.00  0.00     0.029 A 
ATOM     52  N   UNL A   1      46.284  28.645  28.141  1.00  0.00    -0.354 N 
ATOM     53  N   UNL A   1      43.447  29.174  28.661  1.00  0.00    -0.248 NA
ATOM     54  C   UNL A   1      41.748  30.617  29.356  1.00  0.00     0.031 C 
ATOM     55  C   UNL A   1      47.715  30.339  28.288  1.00  0.00     0.029 A 
ATOM     56  C   UNL A   1      46.382  29.995  28.435  1.00  0.00     0.049 A 
ATOM     57  H   UNL A   1      45.451  28.121  28.161  1.00  0.00     0.167 HD
ATOM     58  C   UNL A   1      43.988  30.427  28.910  1.00  0.00     0.074 A 
ATOM     59  C   UNL A   1      42.891  31.285  29.308  1.00  0.00     0.031 C 
ATOM     60  C   UNL A   1      45.278  30.832  28.823  1.00  0.00     0.037 A 
BRANCH  47  61
ATOM     61  C   UNL A   1      49.222  26.368  27.230  1.00  0.00     0.057 A 
ATOM     62  C   UNL A   1      49.787  26.388  25.949  1.00  0.00     0.134 A 
ATOM     63  C   UNL A   1      50.052  26.006  28.300  1.00  0.00     0.134 A 
ATOM     64  F   UNL A   1      49.040  26.712  24.882  1.00  0.00    -0.206 F 
ATOM     65  C   UNL A   1      51.124  26.047  25.736  1.00  0.00     0.040 A 
ATOM     66  C   UNL A   1      51.396  25.686  28.101  1.00  0.00     0.040 A 
ATOM     67  F   UNL A   1      49.572  25.970  29.552  1.00  0.00    -0.206 F 
ATOM     68  C   UNL A   1      51.934  25.704  26.817  1.00  0.00     0.006 A 
ENDBRANCH  47  61
BRANCH  48  69
ATOM     69  C   UNL A   1      39.678  28.574  29.113  1.00  0.00     0.057 A 
ATOM     70  C   UNL A   1      38.825  29.129  28.151  1.00  0.00     0.134 A 
ATOM     71  C   UNL A   1      39.159  28.374  30.398  1.00  0.00     0.134 A 
ATOM     72  F   UNL A   1      39.271  29.363  26.909  1.00  0.00    -0.206 F 
ATOM     73  C   UNL A   1      37.513  29.493  28.460  1.00  0.00     0.040 A 
ATOM     74  C   UNL A   1      37.844  28.714  30.715  1.00  0.00     0.040 A 
ATOM     75  F   UNL A   1      39.926  27.840  31.361  1.00  0.00    -0.206 F 
ATOM     76  C   UNL A   1      37.019  29.283  29.747  1.00  0.00     0.006 A 
ENDBRANCH  48  69
BRANCH  60  77
ATOM     77  C   UNL A   1      45.566  32.266  29.143  1.00  0.00     0.057 A 
ATOM     78  C   UNL A   1      45.482  33.266  28.166  1.00  0.00     0.134 A 
ATOM     79  C   UNL A   1      45.894  32.656  30.446  1.00  0.00     0.134 A 
ATOM     80  F   UNL A   1      45.186  32.952  26.896  1.00  0.00    -0.206 F 
ATOM     81  C   UNL A   1      45.732  34.605  28.472  1.00  0.00     0.040 A 
ATOM     82  C   UNL A   1      46.125  33.993  30.770  1.00  0.00     0.040 A 
ATOM     83  F   UNL A   1      45.984  31.746  31.427  1.00  0.00    -0.206 F 
ATOM     84  C   UNL A   1      46.049  34.971  29.779  1.00  0.00     0.006 A 
ENDBRANCH  60  77
ENDBRANCH  34  35
ENDBRANCH  26  29
ENDBRANCH  24  25
ENDBRANCH  23  24
ENDBRANCH   1  23
TORSDOF 15
ENDMDL
MODEL 2
REMARK VINA RESULT:     -11.7      6.343     11.175
REMARK SMILES CC[C@H](C)[C@@H](NC(=O)/C=C/c1csc(C)n1)C(=O)NCCCNC(=O)c1ccc(-c2c3nc(c(-c4c(F)cccc4F)c4ccc([nH]4)c(-c4c(F)cccc4F)c4nc(c(-c5c(F)cccc5F)c5ccc2[nH]5)C=C4)C=C3)cc1
REMARK SMILES IDX 20 1 19 2 17 3 18 4 5 6 3 7 4 8 2 9 1 10 6 11 7 12 8 14 9 15
REMARK SMILES IDX 10 16 11 17 12 18 16 19 13 20 14 21 15 22 21 23 22 24 23 25
REMARK SMILES IDX 24 26 25 28 26 29 27 30 79 31 28 32 78 33 29 34 30 35 31 36
REMARK SMILES IDX 72 37 32 38 77 39 71 40 73 41 33 42 76 43 70 44 69 45 34 47
REMARK SMILES IDX 60 48 43 49 59 50 44 51 47 52 58 53 74 54 45 55 46 56 57 58
REMARK SMILES IDX 75 59 48 60 35 61 36 62 41 63 37 64 38 65 40 66 42 67 39 68
REMARK SMILES IDX 61 69 62 70 67 71 63 72 64 73 66 74 68 75 65 76 49 77 50 78
REMARK SMILES IDX 55 79 51 80 52 81 54 82 56 83 53 84
REMARK H PARENT 19 5 6 13 23 27 73 46 47 57
REMARK Flexibility Score: inf
ROOT
ATOM      1  C   UNL A   1      32.093  30.645  26.299  1.00  0.00     0.117 C 
ENDROOT
BRANCH   1   2
ATOM      2  N   UNL A   1      31.714  29.561  27.185  1.00  0.00    -0.354 N 
ATOM      3  C   UNL A   1      31.675  28.223  26.954  1.00  0.00     0.242 C 
ATOM      4  O   UNL A   1      31.305  27.491  27.878  1.00  0.00    -0.273 OA
ATOM      5  H   UNL A   1      31.446  29.837  28.091  1.00  0.00     0.163 HD
BRANCH   3   6
ATOM      6  C   UNL A   1      31.949  27.635  25.556  1.00  0.00     0.174 C 
BRANCH   6   7
ATOM      7  C   UNL A   1      33.455  27.181  25.519  1.00  0.00     0.018 C 
ATOM      8  C   UNL A   1      33.613  25.657  25.568  1.00  0.00     0.010 C 
BRANCH   7   9
ATOM      9  C   UNL A   1      34.169  27.785  24.277  1.00  0.00     0.002 C 
ATOM     10  C   UNL A   1      33.359  28.793  23.473  1.00  0.00     0.004 C 
ENDBRANCH   7   9
ENDBRANCH   6   7
BRANCH   6  11
ATOM     11  N   UNL A   1      31.014  26.572  25.126  1.00  0.00    -0.340 N 
ATOM     12  C   UNL A   1      30.163  26.518  24.054  1.00  0.00     0.244 C 
ATOM     13  H   UNL A   1      31.002  25.773  25.703  1.00  0.00     0.164 HD
ATOM     14  O   UNL A   1      29.829  25.429  23.598  1.00  0.00    -0.270 OA
BRANCH  12  15
ATOM     15  C   UNL A   1      29.449  27.739  23.643  1.00  0.00     0.073 C 
ATOM     16  C   UNL A   1      29.801  28.514  22.610  1.00  0.00     0.035 C 
BRANCH  16  17
ATOM     17  C   UNL A   1      29.319  29.850  22.437  1.00  0.00     0.074 A 
ATOM     18  C   UNL A   1      29.056  30.717  23.475  1.00  0.00     0.095 A 
ATOM     19  N   UNL A   1      28.916  30.280  21.184  1.00  0.00    -0.242 NA
ATOM     20  S   UNL A   1      28.324  32.143  22.866  1.00  0.00    -0.127 S 
ATOM     21  C   UNL A   1      28.388  31.484  21.277  1.00  0.00     0.090 A 
ATOM     22  C   UNL A   1      27.845  32.263  20.131  1.00  0.00     0.079 C 
ENDBRANCH  16  17
ENDBRANCH  12  15
ENDBRANCH   6  11
ENDBRANCH   3   6
ENDBRANCH   1   2
BRANCH   1  23
ATOM     23  C   UNL A   1      31.654  31.987  26.851  1.00  0.00     0.042 C 
BRANCH  23  24
ATOM     24  C   UNL A   1      32.807  32.821  27.394  1.00  0.00     0.118 C 
BRANCH  24  25
ATOM     25  N   UNL A   1      32.442  34.203  27.656  1.00  0.00    -0.352 N 
ATOM     26  C   UNL A   1      32.979  35.065  28.593  1.00  0.00     0.251 C 
ATOM     27  H   UNL A   1      31.722  34.572  27.095  1.00  0.00     0.163 HD
ATOM     28  O   UNL A   1      32.486  36.165  28.800  1.00  0.00    -0.269 OA
BRANCH  26  29
ATOM     29  C   UNL A   1      34.154  34.614  29.361  1.00  0.00     0.039 A 
ATOM     30  C   UNL A   1      33.968  34.049  30.623  1.00  0.00     0.014 A 
ATOM     31  C   UNL A   1      35.424  34.669  28.783  1.00  0.00     0.014 A 
ATOM     32  C   UNL A   1      35.052  33.450  31.270  1.00  0.00     0.010 A 
ATOM     33  C   UNL A   1      36.480  34.001  29.389  1.00  0.00     0.010 A 
ATOM     34  C   UNL A   1      36.303  33.377  30.632  1.00  0.00    -0.014 A 
BRANCH  34  35
ATOM     35  C   UNL A   1      37.436  32.632  31.233  1.00  0.00     0.031 A 
ATOM     36  C   UNL A   1      38.039  33.098  32.529  1.00  0.00     0.074 A 
ATOM     37  C   UNL A   1      37.983  31.596  30.565  1.00  0.00     0.049 A 
ATOM     38  N   UNL A   1      39.093  32.649  33.159  1.00  0.00    -0.248 NA
ATOM     39  C   UNL A   1      37.389  34.245  33.186  1.00  0.00     0.031 C 
ATOM     40  C   UNL A   1      37.532  31.089  29.266  1.00  0.00     0.029 A 
ATOM     41  N   UNL A   1      39.050  30.793  30.879  1.00  0.00    -0.354 N 
ATOM     42  C   UNL A   1      39.246  33.468  34.268  1.00  0.00     0.074 A 
ATOM     43  C   UNL A   1      38.206  34.470  34.205  1.00  0.00     0.031 C 
ATOM     44  C   UNL A   1      38.304  30.052  28.906  1.00  0.00     0.029 A 
ATOM     45  C   UNL A   1      39.325  29.842  29.928  1.00  0.00     0.049 A 
ATOM     46  H   UNL A   1      39.571  30.891  31.709  1.00  0.00     0.167 HD
ATOM     47  C   UNL A   1      40.160  33.379  35.263  1.00  0.00     0.037 A 
ATOM     48  C   UNL A   1      40.295  28.909  29.880  1.00  0.00     0.037 A 
ATOM     49  C   UNL A   1      41.162  32.352  35.351  1.00  0.00     0.049 A 
ATOM     50  C   UNL A   1      41.280  28.818  31.012  1.00  0.00     0.074 A 
ATOM     51  C   UNL A   1      42.071  32.121  36.368  1.00  0.00     0.029 A 
ATOM     52  N   UNL A   1      41.386  31.384  34.385  1.00  0.00    -0.354 N 
ATOM     53  N   UNL A   1      41.363  29.550  32.097  1.00  0.00    -0.248 NA
ATOM     54  C   UNL A   1      42.308  27.771  30.915  1.00  0.00     0.031 C 
ATOM     55  C   UNL A   1      42.867  31.031  36.003  1.00  0.00     0.029 A 
ATOM     56  C   UNL A   1      42.432  30.565  34.773  1.00  0.00     0.049 A 
ATOM     57  H   UNL A   1      40.877  31.293  33.547  1.00  0.00     0.167 HD
ATOM     58  C   UNL A   1      42.433  29.041  32.819  1.00  0.00     0.074 A 
ATOM     59  C   UNL A   1      42.960  27.927  32.058  1.00  0.00     0.031 C 
ATOM     60  C   UNL A   1      42.938  29.459  34.004  1.00  0.00     0.037 A 
BRANCH  47  61
ATOM     61  C   UNL A   1      40.105  34.409  36.350  1.00  0.00     0.057 A 
ATOM     62  C   UNL A   1      39.301  34.239  37.484  1.00  0.00     0.134 A 
ATOM     63  C   UNL A   1      40.907  35.556  36.288  1.00  0.00     0.134 A 
ATOM     64  F   UNL A   1      38.500  33.168  37.595  1.00  0.00    -0.206 F 
ATOM     65  C   UNL A   1      39.283  35.182  38.512  1.00  0.00     0.040 A 
ATOM     66  C   UNL A   1      40.914  36.494  37.321  1.00  0.00     0.040 A 
ATOM     67  F   UNL A   1      41.702  35.775  35.230  1.00  0.00    -0.206 F 
ATOM     68  C   UNL A   1      40.099  36.310  38.436  1.00  0.00     0.006 A 
ENDBRANCH  47  61
BRANCH  48  69
ATOM     69  C   UNL A   1      40.382  27.975  28.732  1.00  0.00     0.057 A 
ATOM     70  C   UNL A   1      41.119  28.307  27.588  1.00  0.00     0.134 A 
ATOM     71  C   UNL A   1      39.714  26.745  28.735  1.00  0.00     0.134 A 
ATOM     72  F   UNL A   1      41.764  29.480  27.519  1.00  0.00    -0.206 F 
ATOM     73  C   UNL A   1      41.170  27.460  26.480  1.00  0.00     0.040 A 
ATOM     74  C   UNL A   1      39.774  25.879  27.642  1.00  0.00     0.040 A 
ATOM     75  F   UNL A   1      38.996  26.367  29.803  1.00  0.00    -0.206 F 
ATOM     76  C   UNL A   1      40.497  26.239  26.507  1.00  0.00     0.006 A 
ENDBRANCH  48  69
BRANCH  60  77
ATOM     77  C   UNL A   1      44.103  28.697  34.557  1.00  0.00     0.057 A 
ATOM     78  C   UNL A   1      45.423  29.097  34.313  1.00  0.00     0.134 A 
ATOM     79  C   UNL A   1      43.903  27.575  35.369  1.00  0.00     0.134 A 
ATOM     80  F   UNL A   1      45.678  30.156  33.529  1.00  0.00    -0.206 F 
ATOM     81  C   UNL A   1      46.505  28.396  34.846  1.00  0.00     0.040 A 
ATOM     82  C   UNL A   1      44.976  26.879  35.927  1.00  0.00     0.040 A 
ATOM     83  F   UNL A   1      42.663  27.147  35.645  1.00  0.00    -0.206 F 
ATOM     84  C   UNL A   1      46.282  27.287  35.660  1.00  0.00     0.006 A 
ENDBRANCH  60  77
ENDBRANCH  34  35
ENDBRANCH  26  29
ENDBRANCH  24  25
ENDBRANCH  23  24
ENDBRANCH   1  23
TORSDOF 15
ENDMDL
MODEL 3
REMARK VINA RESULT:     -11.6      6.161     10.261
REMARK SMILES CC[C@H](C)[C@@H](NC(=O)/C=C/c1csc(C)n1)C(=O)NCCCNC(=O)c1ccc(-c2c3nc(c(-c4c(F)cccc4F)c4ccc([nH]4)c(-c4c(F)cccc4F)c4nc(c(-c5c(F)cccc5F)c5ccc2[nH]5)C=C4)C=C3)cc1
REMARK SMILES IDX 20 1 19 2 17 3 18 4 5 6 3 7 4 8 2 9 1 10 6 11 7 12 8 14 9 15
REMARK SMILES IDX 10 16 11 17 12 18 16 19 13 20 14 21 15 22 21 23 22 24 23 25
REMARK SMILES IDX 24 26 25 28 26 29 27 30 79 31 28 32 78 33 29 34 30 35 31 36
REMARK SMILES IDX 72 37 32 38 77 39 71 40 73 41 33 42 76 43 70 44 69 45 34 47
REMARK SMILES IDX 60 48 43 49 59 50 44 51 47 52 58 53 74 54 45 55 46 56 57 58
REMARK SMILES IDX 75 59 48 60 35 61 36 62 41 63 37 64 38 65 40 66 42 67 39 68
REMARK SMILES IDX 61 69 62 70 67 71 63 72 64 73 66 74 68 75 65 76 49 77 50 78
REMARK SMILES IDX 55 79 51 80 52 81 54 82 56 83 53 84
REMARK H PARENT 19 5 6 13 23 27 73 46 47 57
REMARK Flexibility Score: inf
ROOT
ATOM      1  C   UNL A   1      31.801  30.667  26.243  1.00  0.00     0.117 C 
ENDROOT
BRANCH   1   2
ATOM      2  N   UNL A   1      31.589  29.564  27.160  1.00  0.00    -0.354 N 
ATOM      3  C   UNL A   1      31.642  28.225  26.935  1.00  0.00     0.242 C 
ATOM      4  O   UNL A   1      31.412  27.473  27.888  1.00  0.00    -0.273 OA
ATOM      5  H   UNL A   1      31.375  29.824  28.085  1.00  0.00     0.163 HD
BRANCH   3   6
ATOM      6  C   UNL A   1      31.847  27.650  25.520  1.00  0.00     0.174 C 
BRANCH   6   7
ATOM      7  C   UNL A   1      33.355  27.217  25.398  1.00  0.00     0.018 C 
ATOM      8  C   UNL A   1      33.581  25.750  25.781  1.00  0.00     0.010 C 
BRANCH   7   9
ATOM      9  C   UNL A   1      33.886  27.518  23.968  1.00  0.00     0.002 C 
ATOM     10  C   UNL A   1      33.615  28.920  23.442  1.00  0.00     0.004 C 
ENDBRANCH   7   9
ENDBRANCH   6   7
BRANCH   6  11
ATOM     11  N   UNL A   1      30.904  26.575  25.135  1.00  0.00    -0.340 N 
ATOM     12  C   UNL A   1      30.116  26.442  24.023  1.00  0.00     0.244 C 
ATOM     13  H   UNL A   1      30.833  25.836  25.782  1.00  0.00     0.164 HD
ATOM     14  O   UNL A   1      29.774  25.325  23.650  1.00  0.00    -0.270 OA
BRANCH  12  15
ATOM     15  C   UNL A   1      29.467  27.637  23.457  1.00  0.00     0.073 C 
ATOM     16  C   UNL A   1      30.113  28.625  22.822  1.00  0.00     0.035 C 
BRANCH  16  17
ATOM     17  C   UNL A   1      29.533  29.912  22.589  1.00  0.00     0.074 A 
ATOM     18  C   UNL A   1      29.217  30.810  23.585  1.00  0.00     0.095 A 
ATOM     19  N   UNL A   1      29.089  30.247  21.321  1.00  0.00    -0.242 NA
ATOM     20  S   UNL A   1      28.378  32.146  22.915  1.00  0.00    -0.127 S 
ATOM     21  C   UNL A   1      28.475  31.412  21.360  1.00  0.00     0.090 A 
ATOM     22  C   UNL A   1      27.866  32.090  20.183  1.00  0.00     0.079 C 
ENDBRANCH  16  17
ENDBRANCH  12  15
ENDBRANCH   6  11
ENDBRANCH   3   6
ENDBRANCH   1   2
BRANCH   1  23
ATOM     23  C   UNL A   1      31.470  31.995  26.894  1.00  0.00     0.042 C 
BRANCH  23  24
ATOM     24  C   UNL A   1      32.585  33.025  26.765  1.00  0.00     0.118 C 
BRANCH  24  25
ATOM     25  N   UNL A   1      32.382  34.200  27.595  1.00  0.00    -0.352 N 
ATOM     26  C   UNL A   1      33.105  34.598  28.704  1.00  0.00     0.251 C 
ATOM     27  H   UNL A   1      31.636  34.787  27.335  1.00  0.00     0.163 HD
ATOM     28  O   UNL A   1      32.743  35.540  29.393  1.00  0.00    -0.269 OA
BRANCH  26  29
ATOM     29  C   UNL A   1      34.319  33.836  29.053  1.00  0.00     0.039 A 
ATOM     30  C   UNL A   1      35.570  34.414  28.840  1.00  0.00     0.014 A 
ATOM     31  C   UNL A   1      34.202  32.592  29.675  1.00  0.00     0.014 A 
ATOM     32  C   UNL A   1      36.709  33.779  29.341  1.00  0.00     0.010 A 
ATOM     33  C   UNL A   1      35.325  32.005  30.245  1.00  0.00     0.010 A 
ATOM     34  C   UNL A   1      36.587  32.597  30.092  1.00  0.00    -0.014 A 
BRANCH  34  35
ATOM     35  C   UNL A   1      37.760  31.972  30.750  1.00  0.00     0.031 A 
ATOM     36  C   UNL A   1      38.527  30.888  30.046  1.00  0.00     0.074 A 
ATOM     37  C   UNL A   1      38.076  32.313  32.016  1.00  0.00     0.049 A 
ATOM     38  N   UNL A   1      39.511  30.150  30.490  1.00  0.00    -0.248 NA
ATOM     39  C   UNL A   1      38.109  30.567  28.671  1.00  0.00     0.031 C 
ATOM     40  C   UNL A   1      37.367  33.303  32.831  1.00  0.00     0.029 A 
ATOM     41  N   UNL A   1      39.066  31.850  32.846  1.00  0.00    -0.354 N 
ATOM     42  C   UNL A   1      39.812  29.265  29.464  1.00  0.00     0.074 A 
ATOM     43  C   UNL A   1      38.880  29.527  28.390  1.00  0.00     0.031 C 
ATOM     44  C   UNL A   1      37.957  33.386  34.035  1.00  0.00     0.029 A 
ATOM     45  C   UNL A   1      39.060  32.433  34.090  1.00  0.00     0.049 A 
ATOM     46  H   UNL A   1      39.717  31.164  32.575  1.00  0.00     0.167 HD
ATOM     47  C   UNL A   1      40.793  28.334  29.413  1.00  0.00     0.037 A 
ATOM     48  C   UNL A   1      39.851  32.217  35.158  1.00  0.00     0.037 A 
ATOM     49  C   UNL A   1      41.750  28.110  30.462  1.00  0.00     0.049 A 
ATOM     50  C   UNL A   1      40.948  31.194  35.063  1.00  0.00     0.074 A 
ATOM     51  C   UNL A   1      42.840  27.256  30.465  1.00  0.00     0.029 A 
ATOM     52  N   UNL A   1      41.734  28.745  31.693  1.00  0.00    -0.354 N 
ATOM     53  N   UNL A   1      41.273  30.421  34.054  1.00  0.00    -0.248 NA
ATOM     54  C   UNL A   1      41.791  31.012  36.254  1.00  0.00     0.031 C 
ATOM     55  C   UNL A   1      43.465  27.352  31.712  1.00  0.00     0.029 A 
ATOM     56  C   UNL A   1      42.783  28.288  32.472  1.00  0.00     0.049 A 
ATOM     57  H   UNL A   1      41.075  29.421  31.972  1.00  0.00     0.167 HD
ATOM     58  C   UNL A   1      42.366  29.680  34.480  1.00  0.00     0.074 A 
ATOM     59  C   UNL A   1      42.660  30.106  35.833  1.00  0.00     0.031 C 
ATOM     60  C   UNL A   1      43.062  28.728  33.813  1.00  0.00     0.037 A 
BRANCH  47  61
ATOM     61  C   UNL A   1      40.894  27.500  28.173  1.00  0.00     0.057 A 
ATOM     62  C   UNL A   1      40.211  26.284  28.046  1.00  0.00     0.134 A 
ATOM     63  C   UNL A   1      41.638  27.944  27.072  1.00  0.00     0.134 A 
ATOM     64  F   UNL A   1      39.492  25.798  29.071  1.00  0.00    -0.206 F 
ATOM     65  C   UNL A   1      40.277  25.529  26.874  1.00  0.00     0.040 A 
ATOM     66  C   UNL A   1      41.693  27.208  25.887  1.00  0.00     0.040 A 
ATOM     67  F   UNL A   1      42.313  29.101  27.128  1.00  0.00    -0.206 F 
ATOM     68  C   UNL A   1      41.012  25.997  25.787  1.00  0.00     0.006 A 
ENDBRANCH  47  61
BRANCH  48  69
ATOM     69  C   UNL A   1      39.650  32.989  36.408  1.00  0.00     0.057 A 
ATOM     70  C   UNL A   1      40.357  34.176  36.642  1.00  0.00     0.134 A 
ATOM     71  C   UNL A   1      38.773  32.553  37.408  1.00  0.00     0.134 A 
ATOM     72  F   UNL A   1      41.226  34.634  35.730  1.00  0.00    -0.206 F 
ATOM     73  C   UNL A   1      40.215  34.888  37.834  1.00  0.00     0.040 A 
ATOM     74  C   UNL A   1      38.607  33.266  38.595  1.00  0.00     0.040 A 
ATOM     75  F   UNL A   1      38.064  31.427  37.240  1.00  0.00    -0.206 F 
ATOM     76  C   UNL A   1      39.335  34.434  38.814  1.00  0.00     0.006 A 
ENDBRANCH  48  69
BRANCH  60  77
ATOM     77  C   UNL A   1      44.219  28.101  34.529  1.00  0.00     0.057 A 
ATOM     78  C   UNL A   1      44.072  26.917  35.264  1.00  0.00     0.134 A 
ATOM     79  C   UNL A   1      45.497  28.665  34.453  1.00  0.00     0.134 A 
ATOM     80  F   UNL A   1      42.869  26.338  35.385  1.00  0.00    -0.206 F 
ATOM     81  C   UNL A   1      45.157  26.326  35.913  1.00  0.00     0.040 A 
ATOM     82  C   UNL A   1      46.594  28.072  35.079  1.00  0.00     0.040 A 
ATOM     83  F   UNL A   1      45.703  29.794  33.759  1.00  0.00    -0.206 F 
ATOM     84  C   UNL A   1      46.423  26.901  35.816  1.00  0.00     0.006 A 
ENDBRANCH  60  77
ENDBRANCH  34  35
ENDBRANCH  26  29
ENDBRANCH  24  25
ENDBRANCH  23  24
ENDBRANCH   1  23
TORSDOF 15
ENDMDL
