MODEL 1
REMARK VINA RESULT:     -12.7      0.000      0.000
REMARK SMILES Cc1c(CC(=O)NCCCNC(=O)c2ccc(-c3c4nc(c(-c5c(F)cccc5F)c5ccc([nH]5)c(-c5c(F)cccc5F)c5nc(c(-c6c(F)cccc6F)c6ccc3[nH]6)C=C5)C=C4)cc2)cc(-c2ccc(S(C)(=O)=O)cc2)n1-c1cccc(F)c1
REMARK SMILES IDX 8 1 7 2 5 3 6 4 4 6 3 7 1 8 2 9 80 10 68 11 69 12 81 13
REMARK SMILES IDX 82 14 87 15 83 16 85 17 84 18 86 19 70 20 71 21 79 22 72 23
REMARK SMILES IDX 78 24 73 25 74 26 75 27 76 28 77 29 9 30 10 31 11 32 12 33
REMARK SMILES IDX 13 35 14 36 15 37 67 38 16 39 66 40 17 41 18 42 19 43 60 44
REMARK SMILES IDX 20 45 65 46 59 47 61 48 21 49 64 50 58 51 57 52 22 54 48 55
REMARK SMILES IDX 31 56 47 57 32 58 35 59 46 60 62 61 33 62 34 63 45 65 63 66
REMARK SMILES IDX 36 67 23 68 24 69 29 70 25 71 26 72 28 73 30 74 27 75 49 76
REMARK SMILES IDX 50 77 55 78 51 79 52 80 54 81 56 82 53 83 37 84 38 85 43 86
REMARK SMILES IDX 39 87 40 88 42 89 44 90 41 91
REMARK H PARENT 7 5 11 34 61 53 35 64
REMARK Flexibility Score: inf
ROOT
ATOM      1  C   UNL A   1      35.179  22.361  24.431  1.00  0.00     0.117 C 
ENDROOT
BRANCH   1   2
ATOM      2  N   UNL A   1      34.335  22.130  23.273  1.00  0.00    -0.356 N 
ATOM      3  C   UNL A   1      32.981  22.021  23.155  1.00  0.00     0.224 C 
ATOM      4  O   UNL A   1      32.530  21.756  22.036  1.00  0.00    -0.275 OA
ATOM      5  H   UNL A   1      34.826  22.034  22.425  1.00  0.00     0.163 HD
BRANCH   3   6
ATOM      6  C   UNL A   1      32.054  22.279  24.330  1.00  0.00     0.137 C 
BRANCH   6   7
ATOM      7  C   UNL A   1      31.784  23.726  24.607  1.00  0.00    -0.017 A 
ATOM      8  C   UNL A   1      33.342  24.169  26.633  1.00  0.00     0.065 C 
ATOM      9  C   UNL A   1      32.368  24.548  25.562  1.00  0.00     0.024 A 
ATOM     10  N   UNL A   1      31.848  25.833  25.416  1.00  0.00    -0.313 N 
ATOM     11  C   UNL A   1      30.811  24.509  23.935  1.00  0.00     0.033 A 
ATOM     12  C   UNL A   1      30.882  25.807  24.406  1.00  0.00     0.053 A 
BRANCH  10  13
ATOM     13  C   UNL A   1      32.258  26.995  26.131  1.00  0.00     0.049 A 
ATOM     14  C   UNL A   1      31.365  27.628  27.010  1.00  0.00     0.027 A 
ATOM     15  C   UNL A   1      33.513  27.557  25.882  1.00  0.00     0.065 A 
ATOM     16  C   UNL A   1      31.722  28.830  27.622  1.00  0.00     0.005 A 
ATOM     17  C   UNL A   1      33.846  28.761  26.491  1.00  0.00     0.125 A 
ATOM     18  C   UNL A   1      32.963  29.403  27.354  1.00  0.00     0.039 A 
ATOM     19  F   UNL A   1      35.027  29.331  26.217  1.00  0.00    -0.207 F 
ENDBRANCH  10  13
BRANCH  12  20
ATOM     20  C   UNL A   1      30.193  26.979  23.852  1.00  0.00    -0.001 A 
ATOM     21  C   UNL A   1      28.791  27.045  23.847  1.00  0.00     0.011 A 
ATOM     22  C   UNL A   1      30.931  28.055  23.343  1.00  0.00     0.011 A 
ATOM     23  C   UNL A   1      28.132  28.144  23.295  1.00  0.00     0.021 A 
ATOM     24  C   UNL A   1      30.279  29.161  22.790  1.00  0.00     0.021 A 
ATOM     25  C   UNL A   1      28.883  29.190  22.754  1.00  0.00     0.067 A 
BRANCH  25  26
ATOM     26  S   UNL A   1      28.037  30.583  22.048  1.00  0.00     0.175 S 
ATOM     27  C   UNL A   1      29.129  31.948  22.357  1.00  0.00     0.163 C 
ATOM     28  O   UNL A   1      27.984  30.359  20.612  1.00  0.00    -0.224 OA
ATOM     29  O   UNL A   1      26.830  30.804  22.814  1.00  0.00    -0.224 OA
ENDBRANCH  25  26
ENDBRANCH  12  20
ENDBRANCH   6   7
ENDBRANCH   3   6
ENDBRANCH   1   2
BRANCH   1  30
ATOM     30  C   UNL A   1      36.139  23.553  24.280  1.00  0.00     0.042 C 
BRANCH  30  31
ATOM     31  C   UNL A   1      37.100  23.833  25.450  1.00  0.00     0.118 C 
BRANCH  31  32
ATOM     32  N   UNL A   1      38.058  22.776  25.702  1.00  0.00    -0.352 N 
ATOM     33  C   UNL A   1      39.228  22.843  26.434  1.00  0.00     0.251 C 
ATOM     34  H   UNL A   1      37.851  21.902  25.301  1.00  0.00     0.163 HD
ATOM     35  O   UNL A   1      39.892  21.817  26.576  1.00  0.00    -0.269 OA
BRANCH  33  36
ATOM     36  C   UNL A   1      39.751  24.138  26.983  1.00  0.00     0.039 A 
ATOM     37  C   UNL A   1      39.319  24.528  28.242  1.00  0.00     0.014 A 
ATOM     38  C   UNL A   1      40.445  25.088  26.215  1.00  0.00     0.014 A 
ATOM     39  C   UNL A   1      39.598  25.831  28.721  1.00  0.00     0.010 A 
ATOM     40  C   UNL A   1      40.659  26.441  26.678  1.00  0.00     0.010 A 
ATOM     41  C   UNL A   1      40.211  26.870  27.940  1.00  0.00    -0.014 A 
BRANCH  41  42
ATOM     42  C   UNL A   1      39.820  28.342  28.333  1.00  0.00     0.031 A 
ATOM     43  C   UNL A   1      41.131  29.053  28.433  1.00  0.00     0.074 A 
ATOM     44  C   UNL A   1      38.724  29.118  28.663  1.00  0.00     0.049 A 
ATOM     45  N   UNL A   1      42.084  28.621  29.212  1.00  0.00    -0.248 NA
ATOM     46  C   UNL A   1      41.555  30.016  27.414  1.00  0.00     0.031 C 
ATOM     47  C   UNL A   1      37.320  28.701  28.784  1.00  0.00     0.029 A 
ATOM     48  N   UNL A   1      38.606  30.503  28.964  1.00  0.00    -0.354 N 
ATOM     49  C   UNL A   1      43.151  29.454  28.988  1.00  0.00     0.074 A 
ATOM     50  C   UNL A   1      42.849  30.118  27.729  1.00  0.00     0.031 C 
ATOM     51  C   UNL A   1      36.502  29.773  28.999  1.00  0.00     0.029 A 
ATOM     52  C   UNL A   1      37.277  31.007  29.114  1.00  0.00     0.049 A 
ATOM     53  H   UNL A   1      39.396  31.083  29.063  1.00  0.00     0.167 HD
ATOM     54  C   UNL A   1      43.764  29.984  30.084  1.00  0.00     0.037 A 
ATOM     55  C   UNL A   1      36.818  32.287  29.375  1.00  0.00     0.037 A 
ATOM     56  C   UNL A   1      43.433  31.369  30.275  1.00  0.00     0.049 A 
ATOM     57  C   UNL A   1      37.918  33.060  29.968  1.00  0.00     0.074 A 
ATOM     58  C   UNL A   1      43.372  32.460  29.433  1.00  0.00     0.029 A 
ATOM     59  N   UNL A   1      42.646  31.670  31.366  1.00  0.00    -0.354 N 
ATOM     60  N   UNL A   1      38.258  32.922  31.211  1.00  0.00    -0.248 NA
ATOM     61  C   UNL A   1      38.616  34.120  29.243  1.00  0.00     0.031 C 
ATOM     62  C   UNL A   1      42.167  33.116  29.783  1.00  0.00     0.029 A 
ATOM     63  C   UNL A   1      41.708  32.606  30.993  1.00  0.00     0.049 A 
ATOM     64  H   UNL A   1      42.738  31.280  32.265  1.00  0.00     0.167 HD
ATOM     65  C   UNL A   1      39.499  33.469  31.254  1.00  0.00     0.074 A 
ATOM     66  C   UNL A   1      39.538  34.420  30.162  1.00  0.00     0.031 C 
ATOM     67  C   UNL A   1      40.484  32.686  31.754  1.00  0.00     0.037 A 
BRANCH  54  68
ATOM     68  C   UNL A   1      43.979  29.018  31.207  1.00  0.00     0.057 A 
ATOM     69  C   UNL A   1      45.282  28.660  31.558  1.00  0.00     0.134 A 
ATOM     70  C   UNL A   1      42.930  28.363  31.876  1.00  0.00     0.134 A 
ATOM     71  F   UNL A   1      46.330  29.285  31.000  1.00  0.00    -0.206 F 
ATOM     72  C   UNL A   1      45.531  27.650  32.489  1.00  0.00     0.040 A 
ATOM     73  C   UNL A   1      43.165  27.322  32.770  1.00  0.00     0.040 A 
ATOM     74  F   UNL A   1      41.653  28.733  31.683  1.00  0.00    -0.206 F 
ATOM     75  C   UNL A   1      44.472  26.955  33.073  1.00  0.00     0.006 A 
ENDBRANCH  54  68
BRANCH  55  76
ATOM     76  C   UNL A   1      35.537  33.123  29.400  1.00  0.00     0.057 A 
ATOM     77  C   UNL A   1      34.865  33.399  30.634  1.00  0.00     0.134 A 
ATOM     78  C   UNL A   1      35.187  33.989  28.362  1.00  0.00     0.134 A 
ATOM     79  F   UNL A   1      35.055  32.641  31.722  1.00  0.00    -0.206 F 
ATOM     80  C   UNL A   1      34.025  34.505  30.845  1.00  0.00     0.040 A 
ATOM     81  C   UNL A   1      34.307  35.083  28.551  1.00  0.00     0.040 A 
ATOM     82  F   UNL A   1      35.757  33.861  27.156  1.00  0.00    -0.206 F 
ATOM     83  C   UNL A   1      33.755  35.368  29.800  1.00  0.00     0.006 A 
ENDBRANCH  55  76
BRANCH  67  84
ATOM     84  C   UNL A   1      40.119  31.816  32.949  1.00  0.00     0.057 A 
ATOM     85  C   UNL A   1      39.456  30.568  32.921  1.00  0.00     0.134 A 
ATOM     86  C   UNL A   1      40.373  32.328  34.227  1.00  0.00     0.134 A 
ATOM     87  F   UNL A   1      39.263  29.882  31.786  1.00  0.00    -0.206 F 
ATOM     88  C   UNL A   1      38.973  29.945  34.081  1.00  0.00     0.040 A 
ATOM     89  C   UNL A   1      39.950  31.686  35.397  1.00  0.00     0.040 A 
ATOM     90  F   UNL A   1      41.051  33.477  34.366  1.00  0.00    -0.206 F 
ATOM     91  C   UNL A   1      39.215  30.507  35.326  1.00  0.00     0.006 A 
ENDBRANCH  67  84
ENDBRANCH  41  42
ENDBRANCH  33  36
ENDBRANCH  31  32
ENDBRANCH  30  31
ENDBRANCH   1  30
TORSDOF 14
ENDMDL
MODEL 2
REMARK VINA RESULT:     -11.9      1.812      2.266
REMARK SMILES Cc1c(CC(=O)NCCCNC(=O)c2ccc(-c3c4nc(c(-c5c(F)cccc5F)c5ccc([nH]5)c(-c5c(F)cccc5F)c5nc(c(-c6c(F)cccc6F)c6ccc3[nH]6)C=C5)C=C4)cc2)cc(-c2ccc(S(C)(=O)=O)cc2)n1-c1cccc(F)c1
REMARK SMILES IDX 8 1 7 2 5 3 6 4 4 6 3 7 1 8 2 9 80 10 68 11 69 12 81 13
REMARK SMILES IDX 82 14 87 15 83 16 85 17 84 18 86 19 70 20 71 21 79 22 72 23
REMARK SMILES IDX 78 24 73 25 74 26 75 27 76 28 77 29 9 30 10 31 11 32 12 33
REMARK SMILES IDX 13 35 14 36 15 37 67 38 16 39 66 40 17 41 18 42 19 43 60 44
REMARK SMILES IDX 20 45 65 46 59 47 61 48 21 49 64 50 58 51 57 52 22 54 48 55
REMARK SMILES IDX 31 56 47 57 32 58 35 59 46 60 62 61 33 62 34 63 45 65 63 66
REMARK SMILES IDX 36 67 23 68 24 69 29 70 25 71 26 72 28 73 30 74 27 75 49 76
REMARK SMILES IDX 50 77 55 78 51 79 52 80 54 81 56 82 53 83 37 84 38 85 43 86
REMARK SMILES IDX 39 87 40 88 42 89 44 90 41 91
REMARK H PARENT 7 5 11 34 61 53 35 64
REMARK Flexibility Score: inf
ROOT
ATOM      1  C   UNL A   1      36.159  21.755  25.791  1.00  0.00     0.117 C 
ENDROOT
BRANCH   1   2
ATOM      2  N   UNL A   1      35.052  21.227  25.015  1.00  0.00    -0.356 N 
ATOM      3  C   UNL A   1      34.328  21.773  23.997  1.00  0.00     0.224 C 
ATOM      4  O   UNL A   1      33.384  21.111  23.555  1.00  0.00    -0.275 OA
ATOM      5  H   UNL A   1      34.776  20.317  25.268  1.00  0.00     0.163 HD
BRANCH   3   6
ATOM      6  C   UNL A   1      34.700  23.111  23.380  1.00  0.00     0.137 C 
BRANCH   6   7
ATOM      7  C   UNL A   1      33.901  24.274  23.881  1.00  0.00    -0.017 A 
ATOM      8  C   UNL A   1      35.124  24.830  26.100  1.00  0.00     0.065 C 
ATOM      9  C   UNL A   1      34.109  25.040  25.021  1.00  0.00     0.024 A 
ATOM     10  N   UNL A   1      33.149  26.051  25.054  1.00  0.00    -0.313 N 
ATOM     11  C   UNL A   1      32.724  24.771  23.265  1.00  0.00     0.033 A 
ATOM     12  C   UNL A   1      32.291  25.882  23.963  1.00  0.00     0.053 A 
BRANCH  10  13
ATOM     13  C   UNL A   1      33.075  27.112  26.002  1.00  0.00     0.049 A 
ATOM     14  C   UNL A   1      31.935  27.253  26.807  1.00  0.00     0.027 A 
ATOM     15  C   UNL A   1      34.096  28.065  26.058  1.00  0.00     0.065 A 
ATOM     16  C   UNL A   1      31.809  28.356  27.653  1.00  0.00     0.005 A 
ATOM     17  C   UNL A   1      33.947  29.164  26.897  1.00  0.00     0.125 A 
ATOM     18  C   UNL A   1      32.815  29.319  27.690  1.00  0.00     0.039 A 
ATOM     19  F   UNL A   1      34.898  30.108  26.917  1.00  0.00    -0.207 F 
ENDBRANCH  10  13
BRANCH  12  20
ATOM     20  C   UNL A   1      31.229  26.812  23.561  1.00  0.00    -0.001 A 
ATOM     21  C   UNL A   1      31.537  27.979  22.844  1.00  0.00     0.011 A 
ATOM     22  C   UNL A   1      29.892  26.532  23.870  1.00  0.00     0.011 A 
ATOM     23  C   UNL A   1      30.534  28.880  22.486  1.00  0.00     0.021 A 
ATOM     24  C   UNL A   1      28.880  27.428  23.513  1.00  0.00     0.021 A 
ATOM     25  C   UNL A   1      29.211  28.605  22.838  1.00  0.00     0.067 A 
BRANCH  25  26
ATOM     26  S   UNL A   1      27.940  29.759  22.383  1.00  0.00     0.175 S 
ATOM     27  C   UNL A   1      28.359  31.233  23.278  1.00  0.00     0.163 C 
ATOM     28  O   UNL A   1      28.103  30.027  20.963  1.00  0.00    -0.224 OA
ATOM     29  O   UNL A   1      26.685  29.267  22.910  1.00  0.00    -0.224 OA
ENDBRANCH  25  26
ENDBRANCH  12  20
ENDBRANCH   6   7
ENDBRANCH   3   6
ENDBRANCH   1   2
BRANCH   1  30
ATOM     30  C   UNL A   1      37.515  21.701  25.067  1.00  0.00     0.042 C 
BRANCH  30  31
ATOM     31  C   UNL A   1      38.743  22.224  25.835  1.00  0.00     0.118 C 
BRANCH  31  32
ATOM     32  N   UNL A   1      39.887  21.336  25.807  1.00  0.00    -0.352 N 
ATOM     33  C   UNL A   1      41.179  21.597  26.224  1.00  0.00     0.251 C 
ATOM     34  H   UNL A   1      39.725  20.436  25.446  1.00  0.00     0.163 HD
ATOM     35  O   UNL A   1      42.009  20.692  26.165  1.00  0.00    -0.269 OA
BRANCH  33  36
ATOM     36  C   UNL A   1      41.613  22.964  26.663  1.00  0.00     0.039 A 
ATOM     37  C   UNL A   1      41.545  23.262  28.016  1.00  0.00     0.014 A 
ATOM     38  C   UNL A   1      41.844  24.032  25.777  1.00  0.00     0.014 A 
ATOM     39  C   UNL A   1      41.729  24.592  28.464  1.00  0.00     0.010 A 
ATOM     40  C   UNL A   1      41.953  25.399  26.236  1.00  0.00     0.010 A 
ATOM     41  C   UNL A   1      41.865  25.731  27.599  1.00  0.00    -0.014 A 
BRANCH  41  42
ATOM     42  C   UNL A   1      41.368  27.102  28.188  1.00  0.00     0.031 A 
ATOM     43  C   UNL A   1      42.527  28.024  27.992  1.00  0.00     0.074 A 
ATOM     44  C   UNL A   1      40.294  27.668  28.851  1.00  0.00     0.049 A 
ATOM     45  N   UNL A   1      43.712  27.741  28.460  1.00  0.00    -0.248 NA
ATOM     46  C   UNL A   1      42.501  29.075  26.972  1.00  0.00     0.031 C 
ATOM     47  C   UNL A   1      39.060  27.012  29.305  1.00  0.00     0.029 A 
ATOM     48  N   UNL A   1      40.044  29.002  29.273  1.00  0.00    -0.354 N 
ATOM     49  C   UNL A   1      44.532  28.752  28.025  1.00  0.00     0.074 A 
ATOM     50  C   UNL A   1      43.799  29.389  26.942  1.00  0.00     0.031 C 
ATOM     51  C   UNL A   1      38.172  27.921  29.806  1.00  0.00     0.029 A 
ATOM     52  C   UNL A   1      38.744  29.266  29.804  1.00  0.00     0.049 A 
ATOM     53  H   UNL A   1      40.730  29.707  29.204  1.00  0.00     0.167 HD
ATOM     54  C   UNL A   1      45.327  29.348  28.958  1.00  0.00     0.037 A 
ATOM     55  C   UNL A   1      38.177  30.440  30.270  1.00  0.00     0.037 A 
ATOM     56  C   UNL A   1      44.846  30.649  29.330  1.00  0.00     0.049 A 
ATOM     57  C   UNL A   1      39.259  31.374  30.608  1.00  0.00     0.074 A 
ATOM     58  C   UNL A   1      44.387  31.737  28.617  1.00  0.00     0.029 A 
ATOM     59  N   UNL A   1      44.347  30.779  30.609  1.00  0.00    -0.354 N 
ATOM     60  N   UNL A   1      39.941  31.261  31.705  1.00  0.00    -0.248 NA
ATOM     61  C   UNL A   1      39.558  32.558  29.806  1.00  0.00     0.031 C 
ATOM     62  C   UNL A   1      43.235  32.165  29.319  1.00  0.00     0.029 A 
ATOM     63  C   UNL A   1      43.207  31.549  30.565  1.00  0.00     0.049 A 
ATOM     64  H   UNL A   1      44.740  30.385  31.421  1.00  0.00     0.167 HD
ATOM     65  C   UNL A   1      41.044  32.012  31.460  1.00  0.00     0.074 A 
ATOM     66  C   UNL A   1      40.634  32.986  30.469  1.00  0.00     0.031 C 
ATOM     67  C   UNL A   1      42.240  31.397  31.625  1.00  0.00     0.037 A 
BRANCH  54  68
ATOM     68  C   UNL A   1      45.989  28.402  29.911  1.00  0.00     0.057 A 
ATOM     69  C   UNL A   1      47.347  28.119  29.756  1.00  0.00     0.134 A 
ATOM     70  C   UNL A   1      45.294  27.694  30.906  1.00  0.00     0.134 A 
ATOM     71  F   UNL A   1      48.084  28.797  28.863  1.00  0.00    -0.206 F 
ATOM     72  C   UNL A   1      47.973  27.129  30.518  1.00  0.00     0.040 A 
ATOM     73  C   UNL A   1      45.894  26.673  31.638  1.00  0.00     0.040 A 
ATOM     74  F   UNL A   1      44.017  27.992  31.199  1.00  0.00    -0.206 F 
ATOM     75  C   UNL A   1      47.239  26.381  31.438  1.00  0.00     0.006 A 
ENDBRANCH  54  68
BRANCH  55  76
ATOM     76  C   UNL A   1      36.835  31.042  30.692  1.00  0.00     0.057 A 
ATOM     77  C   UNL A   1      36.435  31.051  32.066  1.00  0.00     0.134 A 
ATOM     78  C   UNL A   1      36.141  31.956  29.897  1.00  0.00     0.134 A 
ATOM     79  F   UNL A   1      36.971  30.209  32.960  1.00  0.00    -0.206 F 
ATOM     80  C   UNL A   1      35.524  31.967  32.618  1.00  0.00     0.040 A 
ATOM     81  C   UNL A   1      35.189  32.858  30.434  1.00  0.00     0.040 A 
ATOM     82  F   UNL A   1      36.429  32.073  28.594  1.00  0.00    -0.206 F 
ATOM     83  C   UNL A   1      34.906  32.893  31.800  1.00  0.00     0.006 A 
ENDBRANCH  55  76
BRANCH  67  84
ATOM     84  C   UNL A   1      42.355  30.442  32.807  1.00  0.00     0.057 A 
ATOM     85  C   UNL A   1      41.808  29.143  32.907  1.00  0.00     0.134 A 
ATOM     86  C   UNL A   1      42.984  30.916  33.964  1.00  0.00     0.134 A 
ATOM     87  F   UNL A   1      41.294  28.496  31.851  1.00  0.00    -0.206 F 
ATOM     88  C   UNL A   1      41.784  28.426  34.112  1.00  0.00     0.040 A 
ATOM     89  C   UNL A   1      43.021  30.185  35.157  1.00  0.00     0.040 A 
ATOM     90  F   UNL A   1      43.589  32.113  33.956  1.00  0.00    -0.206 F 
ATOM     91  C   UNL A   1      42.388  28.950  35.245  1.00  0.00     0.006 A 
ENDBRANCH  67  84
ENDBRANCH  41  42
ENDBRANCH  33  36
ENDBRANCH  31  32
ENDBRANCH  30  31
ENDBRANCH   1  30
TORSDOF 14
ENDMDL
MODEL 3
REMARK VINA RESULT:     -11.8      2.525      4.531
REMARK SMILES Cc1c(CC(=O)NCCCNC(=O)c2ccc(-c3c4nc(c(-c5c(F)cccc5F)c5ccc([nH]5)c(-c5c(F)cccc5F)c5nc(c(-c6c(F)cccc6F)c6ccc3[nH]6)C=C5)C=C4)cc2)cc(-c2ccc(S(C)(=O)=O)cc2)n1-c1cccc(F)c1
REMARK SMILES IDX 8 1 7 2 5 3 6 4 4 6 3 7 1 8 2 9 80 10 68 11 69 12 81 13
REMARK SMILES IDX 82 14 87 15 83 16 85 17 84 18 86 19 70 20 71 21 79 22 72 23
REMARK SMILES IDX 78 24 73 25 74 26 75 27 76 28 77 29 9 30 10 31 11 32 12 33
REMARK SMILES IDX 13 35 14 36 15 37 67 38 16 39 66 40 17 41 18 42 19 43 60 44
REMARK SMILES IDX 20 45 65 46 59 47 61 48 21 49 64 50 58 51 57 52 22 54 48 55
REMARK SMILES IDX 31 56 47 57 32 58 35 59 46 60 62 61 33 62 34 63 45 65 63 66
REMARK SMILES IDX 36 67 23 68 24 69 29 70 25 71 26 72 28 73 30 74 27 75 49 76
REMARK SMILES IDX 50 77 55 78 51 79 52 80 54 81 56 82 53 83 37 84 38 85 43 86
REMARK SMILES IDX 39 87 40 88 42 89 44 90 41 91
REMARK H PARENT 7 5 11 34 61 53 35 64
REMARK Flexibility Score: inf
ROOT
ATOM      1  C   UNL A   1      41.761  21.134  27.647  1.00  0.00     0.117 C 
ENDROOT
BRANCH   1   2
ATOM      2  N   UNL A   1      40.881  22.255  27.923  1.00  0.00    -0.356 N 
ATOM      3  C   UNL A   1      39.898  22.831  27.175  1.00  0.00     0.224 C 
ATOM      4  O   UNL A   1      39.343  23.830  27.643  1.00  0.00    -0.275 OA
ATOM      5  H   UNL A   1      41.018  22.671  28.804  1.00  0.00     0.163 HD
BRANCH   3   6
ATOM      6  C   UNL A   1      39.452  22.238  25.850  1.00  0.00     0.137 C 
BRANCH   6   7
ATOM      7  C   UNL A   1      37.979  22.322  25.592  1.00  0.00    -0.017 A 
ATOM      8  C   UNL A   1      37.475  19.949  24.674  1.00  0.00     0.065 C 
ATOM      9  C   UNL A   1      37.123  21.329  25.133  1.00  0.00     0.024 A 
ATOM     10  N   UNL A   1      35.828  21.844  25.099  1.00  0.00    -0.313 N 
ATOM     11  C   UNL A   1      37.198  23.496  25.741  1.00  0.00     0.033 A 
ATOM     12  C   UNL A   1      35.877  23.188  25.477  1.00  0.00     0.053 A 
BRANCH  10  13
ATOM     13  C   UNL A   1      34.642  21.120  24.785  1.00  0.00     0.049 A 
ATOM     14  C   UNL A   1      33.827  21.539  23.723  1.00  0.00     0.027 A 
ATOM     15  C   UNL A   1      34.243  20.054  25.597  1.00  0.00     0.065 A 
ATOM     16  C   UNL A   1      32.606  20.904  23.486  1.00  0.00     0.005 A 
ATOM     17  C   UNL A   1      33.018  19.442  25.354  1.00  0.00     0.125 A 
ATOM     18  C   UNL A   1      32.197  19.859  24.311  1.00  0.00     0.039 A 
ATOM     19  F   UNL A   1      32.607  18.454  26.160  1.00  0.00    -0.207 F 
ENDBRANCH  10  13
BRANCH  12  20
ATOM     20  C   UNL A   1      34.713  24.055  25.699  1.00  0.00    -0.001 A 
ATOM     21  C   UNL A   1      33.693  23.667  26.580  1.00  0.00     0.011 A 
ATOM     22  C   UNL A   1      34.621  25.292  25.048  1.00  0.00     0.011 A 
ATOM     23  C   UNL A   1      32.571  24.474  26.771  1.00  0.00     0.021 A 
ATOM     24  C   UNL A   1      33.502  26.109  25.235  1.00  0.00     0.021 A 
ATOM     25  C   UNL A   1      32.476  25.686  26.083  1.00  0.00     0.067 A 
BRANCH  25  26
ATOM     26  S   UNL A   1      31.043  26.706  26.327  1.00  0.00     0.175 S 
ATOM     27  C   UNL A   1      31.006  27.743  24.887  1.00  0.00     0.163 C 
ATOM     28  O   UNL A   1      29.887  25.825  26.284  1.00  0.00    -0.224 OA
ATOM     29  O   UNL A   1      31.293  27.555  27.473  1.00  0.00    -0.224 OA
ENDBRANCH  25  26
ENDBRANCH  12  20
ENDBRANCH   6   7
ENDBRANCH   3   6
ENDBRANCH   1   2
BRANCH   1  30
ATOM     30  C   UNL A   1      43.049  21.517  26.899  1.00  0.00     0.042 C 
BRANCH  30  31
ATOM     31  C   UNL A   1      42.912  21.901  25.415  1.00  0.00     0.118 C 
BRANCH  31  32
ATOM     32  N   UNL A   1      43.898  22.856  24.951  1.00  0.00    -0.352 N 
ATOM     33  C   UNL A   1      44.009  24.194  25.277  1.00  0.00     0.251 C 
ATOM     34  H   UNL A   1      44.573  22.508  24.325  1.00  0.00     0.163 HD
ATOM     35  O   UNL A   1      44.950  24.836  24.814  1.00  0.00    -0.269 OA
BRANCH  33  36
ATOM     36  C   UNL A   1      42.973  24.900  26.102  1.00  0.00     0.039 A 
ATOM     37  C   UNL A   1      42.046  25.689  25.439  1.00  0.00     0.014 A 
ATOM     38  C   UNL A   1      43.033  25.012  27.502  1.00  0.00     0.014 A 
ATOM     39  C   UNL A   1      41.188  26.549  26.168  1.00  0.00     0.010 A 
ATOM     40  C   UNL A   1      42.209  25.948  28.233  1.00  0.00     0.010 A 
ATOM     41  C   UNL A   1      41.277  26.776  27.584  1.00  0.00    -0.014 A 
BRANCH  41  42
ATOM     42  C   UNL A   1      40.782  28.183  28.082  1.00  0.00     0.031 A 
ATOM     43  C   UNL A   1      42.020  29.020  28.101  1.00  0.00     0.074 A 
ATOM     44  C   UNL A   1      39.650  28.829  28.546  1.00  0.00     0.049 A 
ATOM     45  N   UNL A   1      43.079  28.656  28.770  1.00  0.00    -0.248 NA
ATOM     46  C   UNL A   1      42.251  30.062  27.097  1.00  0.00     0.031 C 
ATOM     47  C   UNL A   1      38.311  28.267  28.770  1.00  0.00     0.029 A 
ATOM     48  N   UNL A   1      39.425  30.181  28.924  1.00  0.00    -0.354 N 
ATOM     49  C   UNL A   1      44.034  29.603  28.494  1.00  0.00     0.074 A 
ATOM     50  C   UNL A   1      43.552  30.283  27.301  1.00  0.00     0.031 C 
ATOM     51  C   UNL A   1      37.416  29.239  29.110  1.00  0.00     0.029 A 
ATOM     52  C   UNL A   1      38.073  30.540  29.217  1.00  0.00     0.049 A 
ATOM     53  H   UNL A   1      40.161  30.834  28.982  1.00  0.00     0.167 HD
ATOM     54  C   UNL A   1      44.691  30.148  29.556  1.00  0.00     0.037 A 
ATOM     55  C   UNL A   1      37.517  31.756  29.581  1.00  0.00     0.037 A 
ATOM     56  C   UNL A   1      44.245  31.483  29.844  1.00  0.00     0.049 A 
ATOM     57  C   UNL A   1      38.586  32.612  30.111  1.00  0.00     0.074 A 
ATOM     58  C   UNL A   1      43.999  32.595  29.066  1.00  0.00     0.029 A 
ATOM     59  N   UNL A   1      43.537  31.657  31.014  1.00  0.00    -0.354 N 
ATOM     60  N   UNL A   1      39.052  32.460  31.311  1.00  0.00    -0.248 NA
ATOM     61  C   UNL A   1      39.106  33.767  29.381  1.00  0.00     0.031 C 
ATOM     62  C   UNL A   1      42.774  33.109  29.554  1.00  0.00     0.029 A 
ATOM     63  C   UNL A   1      42.481  32.506  30.773  1.00  0.00     0.049 A 
ATOM     64  H   UNL A   1      43.750  31.242  31.881  1.00  0.00     0.167 HD
ATOM     65  C   UNL A   1      40.232  33.128  31.271  1.00  0.00     0.074 A 
ATOM     66  C   UNL A   1      40.075  34.122  30.228  1.00  0.00     0.031 C 
ATOM     67  C   UNL A   1      41.332  32.431  31.642  1.00  0.00     0.037 A 
BRANCH  54  68
ATOM     68  C   UNL A   1      45.103  29.165  30.606  1.00  0.00     0.057 A 
ATOM     69  C   UNL A   1      46.436  28.753  30.669  1.00  0.00     0.134 A 
ATOM     70  C   UNL A   1      44.197  28.544  31.484  1.00  0.00     0.134 A 
ATOM     71  F   UNL A   1      47.364  29.342  29.899  1.00  0.00    -0.206 F 
ATOM     72  C   UNL A   1      46.839  27.726  31.525  1.00  0.00     0.040 A 
ATOM     73  C   UNL A   1      44.577  27.487  32.308  1.00  0.00     0.040 A 
ATOM     74  F   UNL A   1      42.924  28.965  31.571  1.00  0.00    -0.206 F 
ATOM     75  C   UNL A   1      45.903  27.067  32.323  1.00  0.00     0.006 A 
ENDBRANCH  54  68
BRANCH  55  76
ATOM     76  C   UNL A   1      36.168  32.454  29.761  1.00  0.00     0.057 A 
ATOM     77  C   UNL A   1      35.569  32.572  31.056  1.00  0.00     0.134 A 
ATOM     78  C   UNL A   1      35.658  33.353  28.820  1.00  0.00     0.134 A 
ATOM     79  F   UNL A   1      35.913  31.760  32.064  1.00  0.00    -0.206 F 
ATOM     80  C   UNL A   1      34.647  33.570  31.411  1.00  0.00     0.040 A 
ATOM     81  C   UNL A   1      34.696  34.337  29.157  1.00  0.00     0.040 A 
ATOM     82  F   UNL A   1      36.144  33.371  27.572  1.00  0.00    -0.206 F 
ATOM     83  C   UNL A   1      34.217  34.474  30.460  1.00  0.00     0.006 A 
ENDBRANCH  55  76
BRANCH  67  84
ATOM     84  C   UNL A   1      41.167  31.480  32.820  1.00  0.00     0.057 A 
ATOM     85  C   UNL A   1      40.525  30.220  32.813  1.00  0.00     0.134 A 
ATOM     86  C   UNL A   1      41.605  31.919  34.075  1.00  0.00     0.134 A 
ATOM     87  F   UNL A   1      40.171  29.601  31.678  1.00  0.00    -0.206 F 
ATOM     88  C   UNL A   1      40.235  29.515  33.991  1.00  0.00     0.040 A 
ATOM     89  C   UNL A   1      41.376  31.195  35.252  1.00  0.00     0.040 A 
ATOM     90  F   UNL A   1      42.280  33.073  34.183  1.00  0.00    -0.206 F 
ATOM     91  C   UNL A   1      40.657  30.006  35.217  1.00  0.00     0.006 A 
ENDBRANCH  67  84
ENDBRANCH  41  42
ENDBRANCH  33  36
ENDBRANCH  31  32
ENDBRANCH  30  31
ENDBRANCH   1  30
TORSDOF 14
ENDMDL
