MODEL 1
REMARK VINA RESULT:     -11.9      0.000      0.000
REMARK SMILES COc1cccc(CSc2nc3ccccc3c(=O)n2CCC(=O)NCCCNC(=O)c2ccc(-c3c4nc(c(-c5c(F)cccc5F)c5ccc([nH]5)c(-c5c(F)cccc5F)c5nc(c(-c6c(F)cccc6F)c6ccc3[nH]6)C=C5)C=C4)cc2)c1
REMARK SMILES IDX 23 1 24 2 25 3 22 5 21 6 20 7 10 8 11 9 12 10 18 11 13 12
REMARK SMILES IDX 17 13 19 14 14 15 16 16 15 17 9 18 8 19 7 20 3 21 4 22 86 23
REMARK SMILES IDX 5 24 6 25 2 26 1 27 26 28 27 29 28 30 29 31 30 32 31 34
REMARK SMILES IDX 32 35 33 36 85 37 34 38 84 39 35 40 36 41 37 42 78 43 38 44
REMARK SMILES IDX 83 45 77 46 79 47 39 48 82 49 76 50 75 51 40 53 66 54 49 55
REMARK SMILES IDX 65 56 50 57 53 58 64 59 80 60 51 61 52 62 63 64 81 65 54 66
REMARK SMILES IDX 41 67 42 68 47 69 43 70 44 71 46 72 48 73 45 74 67 75 68 76
REMARK SMILES IDX 73 77 69 78 70 79 72 80 74 81 71 82 55 83 56 84 61 85 57 86
REMARK SMILES IDX 58 87 60 88 62 89 59 90
REMARK H PARENT 25 4 29 33 79 52 53 63
REMARK Flexibility Score: inf
ROOT
ATOM      1  C   UNL A   1      32.839  28.865  25.473  1.00  0.00     0.221 C 
ATOM      2  O   UNL A   1      33.949  28.603  25.005  1.00  0.00    -0.275 OA
ATOM      3  N   UNL A   1      32.266  30.056  25.145  1.00  0.00    -0.356 N 
ATOM      4  H   UNL A   1      32.809  30.632  24.559  1.00  0.00     0.163 HD
ENDROOT
BRANCH   1   5
ATOM      5  C   UNL A   1      32.133  27.871  26.375  1.00  0.00     0.122 C 
BRANCH   5   6
ATOM      6  C   UNL A   1      31.135  26.998  25.602  1.00  0.00     0.138 C 
BRANCH   6   7
ATOM      7  N   UNL A   1      31.731  25.797  25.019  1.00  0.00    -0.287 N 
ATOM      8  C   UNL A   1      32.002  25.567  23.684  1.00  0.00     0.171 A 
ATOM      9  N   UNL A   1      33.004  24.817  23.321  1.00  0.00    -0.224 NA
ATOM     10  C   UNL A   1      33.850  24.299  24.313  1.00  0.00     0.079 A 
ATOM     11  C   UNL A   1      32.161  24.847  25.964  1.00  0.00     0.262 A 
ATOM     12  C   UNL A   1      35.190  24.011  24.035  1.00  0.00     0.029 A 
ATOM     13  C   UNL A   1      33.409  24.146  25.617  1.00  0.00     0.066 A 
ATOM     14  O   UNL A   1      31.649  24.662  27.049  1.00  0.00    -0.269 OA
ATOM     15  C   UNL A   1      36.044  23.534  25.038  1.00  0.00     0.002 A 
ATOM     16  C   UNL A   1      34.220  23.586  26.612  1.00  0.00     0.016 A 
ATOM     17  C   UNL A   1      35.547  23.280  26.317  1.00  0.00     0.001 A 
BRANCH   8  18
ATOM     18  S   UNL A   1      31.238  26.370  22.320  1.00  0.00    -0.083 SA
BRANCH  18  19
ATOM     19  C   UNL A   1      31.319  28.162  22.386  1.00  0.00     0.113 C 
BRANCH  19  20
ATOM     20  C   UNL A   1      30.000  28.875  22.418  1.00  0.00    -0.034 A 
ATOM     21  C   UNL A   1      28.737  30.934  22.143  1.00  0.00     0.119 A 
ATOM     22  C   UNL A   1      27.641  30.323  22.749  1.00  0.00     0.046 A 
ATOM     23  C   UNL A   1      29.882  30.180  21.910  1.00  0.00     0.051 A 
ATOM     24  C   UNL A   1      27.694  28.981  23.129  1.00  0.00     0.004 A 
ATOM     25  C   UNL A   1      28.874  28.261  22.977  1.00  0.00     0.005 A 
BRANCH  21  26
ATOM     26  O   UNL A   1      28.584  32.258  21.841  1.00  0.00    -0.497 OA
ATOM     27  C   UNL A   1      28.821  33.193  22.890  1.00  0.00     0.278 C 
ENDBRANCH  21  26
ENDBRANCH  19  20
ENDBRANCH  18  19
ENDBRANCH   8  18
ENDBRANCH   6   7
ENDBRANCH   5   6
ENDBRANCH   1   5
BRANCH   3  28
ATOM     28  C   UNL A   1      30.973  30.613  25.525  1.00  0.00     0.117 C 
BRANCH  28  29
ATOM     29  C   UNL A   1      31.100  32.019  26.097  1.00  0.00     0.042 C 
BRANCH  29  30
ATOM     30  C   UNL A   1      32.304  32.287  26.994  1.00  0.00     0.118 C 
BRANCH  30  31
ATOM     31  N   UNL A   1      32.312  33.667  27.447  1.00  0.00    -0.352 N 
ATOM     32  C   UNL A   1      33.048  34.324  28.402  1.00  0.00     0.251 C 
ATOM     33  H   UNL A   1      31.665  34.242  26.979  1.00  0.00     0.163 HD
ATOM     34  O   UNL A   1      32.587  35.389  28.818  1.00  0.00    -0.269 OA
BRANCH  32  35
ATOM     35  C   UNL A   1      34.353  33.853  28.957  1.00  0.00     0.039 A 
ATOM     36  C   UNL A   1      35.488  34.021  28.144  1.00  0.00     0.014 A 
ATOM     37  C   UNL A   1      34.500  33.132  30.144  1.00  0.00     0.014 A 
ATOM     38  C   UNL A   1      36.728  33.471  28.499  1.00  0.00     0.010 A 
ATOM     39  C   UNL A   1      35.761  32.638  30.534  1.00  0.00     0.010 A 
ATOM     40  C   UNL A   1      36.884  32.770  29.703  1.00  0.00    -0.014 A 
BRANCH  40  41
ATOM     41  C   UNL A   1      38.194  32.137  30.050  1.00  0.00     0.031 A 
ATOM     42  C   UNL A   1      39.146  32.804  31.015  1.00  0.00     0.074 A 
ATOM     43  C   UNL A   1      38.539  30.946  29.520  1.00  0.00     0.049 A 
ATOM     44  N   UNL A   1      40.320  32.398  31.444  1.00  0.00    -0.248 NA
ATOM     45  C   UNL A   1      38.732  34.104  31.561  1.00  0.00     0.031 C 
ATOM     46  C   UNL A   1      37.730  30.180  28.572  1.00  0.00     0.029 A 
ATOM     47  N   UNL A   1      39.657  30.167  29.709  1.00  0.00    -0.354 N 
ATOM     48  C   UNL A   1      40.782  33.393  32.298  1.00  0.00     0.074 A 
ATOM     49  C   UNL A   1      39.787  34.445  32.286  1.00  0.00     0.031 C 
ATOM     50  C   UNL A   1      38.361  29.027  28.291  1.00  0.00     0.029 A 
ATOM     51  C   UNL A   1      39.636  28.989  29.002  1.00  0.00     0.049 A 
ATOM     52  H   UNL A   1      40.402  30.430  30.296  1.00  0.00     0.167 HD
ATOM     53  C   UNL A   1      41.917  33.428  33.042  1.00  0.00     0.037 A 
ATOM     54  C   UNL A   1      40.537  27.990  28.928  1.00  0.00     0.037 A 
ATOM     55  C   UNL A   1      42.911  32.384  33.070  1.00  0.00     0.049 A 
ATOM     56  C   UNL A   1      41.818  28.076  29.715  1.00  0.00     0.074 A 
ATOM     57  C   UNL A   1      44.073  32.318  33.822  1.00  0.00     0.029 A 
ATOM     58  N   UNL A   1      42.867  31.228  32.306  1.00  0.00    -0.354 N 
ATOM     59  N   UNL A   1      42.215  29.001  30.554  1.00  0.00    -0.248 NA
ATOM     60  C   UNL A   1      42.776  26.972  29.543  1.00  0.00     0.031 C 
ATOM     61  C   UNL A   1      44.757  31.148  33.474  1.00  0.00     0.029 A 
ATOM     62  C   UNL A   1      43.996  30.457  32.547  1.00  0.00     0.049 A 
ATOM     63  H   UNL A   1      42.142  30.990  31.684  1.00  0.00     0.167 HD
ATOM     64  C   UNL A   1      43.450  28.578  31.032  1.00  0.00     0.074 A 
ATOM     65  C   UNL A   1      43.731  27.307  30.398  1.00  0.00     0.031 C 
ATOM     66  C   UNL A   1      44.273  29.189  31.920  1.00  0.00     0.037 A 
BRANCH  53  67
ATOM     67  C   UNL A   1      42.149  34.651  33.886  1.00  0.00     0.057 A 
ATOM     68  C   UNL A   1      41.774  34.704  35.237  1.00  0.00     0.134 A 
ATOM     69  C   UNL A   1      42.770  35.788  33.349  1.00  0.00     0.134 A 
ATOM     70  F   UNL A   1      41.171  33.654  35.815  1.00  0.00    -0.206 F 
ATOM     71  C   UNL A   1      41.969  35.852  36.007  1.00  0.00     0.040 A 
ATOM     72  C   UNL A   1      42.998  36.930  34.118  1.00  0.00     0.040 A 
ATOM     73  F   UNL A   1      43.171  35.804  32.069  1.00  0.00    -0.206 F 
ATOM     74  C   UNL A   1      42.585  36.970  35.449  1.00  0.00     0.006 A 
ENDBRANCH  53  67
BRANCH  54  75
ATOM     75  C   UNL A   1      40.254  26.796  28.090  1.00  0.00     0.057 A 
ATOM     76  C   UNL A   1      39.429  25.767  28.560  1.00  0.00     0.134 A 
ATOM     77  C   UNL A   1      40.805  26.648  26.812  1.00  0.00     0.134 A 
ATOM     78  F   UNL A   1      38.893  25.839  29.787  1.00  0.00    -0.206 F 
ATOM     79  C   UNL A   1      39.170  24.629  27.795  1.00  0.00     0.040 A 
ATOM     80  C   UNL A   1      40.534  25.528  26.025  1.00  0.00     0.040 A 
ATOM     81  F   UNL A   1      41.606  27.597  26.305  1.00  0.00    -0.206 F 
ATOM     82  C   UNL A   1      39.717  24.511  26.518  1.00  0.00     0.006 A 
ENDBRANCH  54  75
BRANCH  66  83
ATOM     83  C   UNL A   1      45.540  28.474  32.294  1.00  0.00     0.057 A 
ATOM     84  C   UNL A   1      46.746  28.692  31.614  1.00  0.00     0.134 A 
ATOM     85  C   UNL A   1      45.561  27.577  33.371  1.00  0.00     0.134 A 
ATOM     86  F   UNL A   1      46.794  29.526  30.565  1.00  0.00    -0.206 F 
ATOM     87  C   UNL A   1      47.919  28.024  31.975  1.00  0.00     0.040 A 
ATOM     88  C   UNL A   1      46.734  26.926  33.759  1.00  0.00     0.040 A 
ATOM     89  F   UNL A   1      44.445  27.327  34.072  1.00  0.00    -0.206 F 
ATOM     90  C   UNL A   1      47.916  27.144  33.055  1.00  0.00     0.006 A 
ENDBRANCH  66  83
ENDBRANCH  40  41
ENDBRANCH  32  35
ENDBRANCH  30  31
ENDBRANCH  29  30
ENDBRANCH  28  29
ENDBRANCH   3  28
TORSDOF 16
ENDMDL
MODEL 2
REMARK VINA RESULT:     -11.9      0.705      1.696
REMARK SMILES COc1cccc(CSc2nc3ccccc3c(=O)n2CCC(=O)NCCCNC(=O)c2ccc(-c3c4nc(c(-c5c(F)cccc5F)c5ccc([nH]5)c(-c5c(F)cccc5F)c5nc(c(-c6c(F)cccc6F)c6ccc3[nH]6)C=C5)C=C4)cc2)c1
REMARK SMILES IDX 23 1 24 2 25 3 22 5 21 6 20 7 10 8 11 9 12 10 18 11 13 12
REMARK SMILES IDX 17 13 19 14 14 15 16 16 15 17 9 18 8 19 7 20 3 21 4 22 86 23
REMARK SMILES IDX 5 24 6 25 2 26 1 27 26 28 27 29 28 30 29 31 30 32 31 34
REMARK SMILES IDX 32 35 33 36 85 37 34 38 84 39 35 40 36 41 37 42 78 43 38 44
REMARK SMILES IDX 83 45 77 46 79 47 39 48 82 49 76 50 75 51 40 53 66 54 49 55
REMARK SMILES IDX 65 56 50 57 53 58 64 59 80 60 51 61 52 62 63 64 81 65 54 66
REMARK SMILES IDX 41 67 42 68 47 69 43 70 44 71 46 72 48 73 45 74 67 75 68 76
REMARK SMILES IDX 73 77 69 78 70 79 72 80 74 81 71 82 55 83 56 84 61 85 57 86
REMARK SMILES IDX 58 87 60 88 62 89 59 90
REMARK H PARENT 25 4 29 33 79 52 53 63
REMARK Flexibility Score: inf
ROOT
ATOM      1  C   UNL A   1      33.198  29.041  26.720  1.00  0.00     0.221 C 
ATOM      2  O   UNL A   1      34.387  28.772  26.534  1.00  0.00    -0.275 OA
ATOM      3  N   UNL A   1      32.714  30.208  26.211  1.00  0.00    -0.356 N 
ATOM      4  H   UNL A   1      33.377  30.762  25.739  1.00  0.00     0.163 HD
ENDROOT
BRANCH   1   5
ATOM      5  C   UNL A   1      32.305  28.081  27.482  1.00  0.00     0.122 C 
BRANCH   5   6
ATOM      6  C   UNL A   1      31.296  27.379  26.563  1.00  0.00     0.138 C 
BRANCH   6   7
ATOM      7  N   UNL A   1      31.890  26.345  25.717  1.00  0.00    -0.287 N 
ATOM      8  C   UNL A   1      32.449  26.514  24.465  1.00  0.00     0.171 A 
ATOM      9  N   UNL A   1      33.428  25.755  24.058  1.00  0.00    -0.224 NA
ATOM     10  C   UNL A   1      33.953  24.803  24.944  1.00  0.00     0.079 A 
ATOM     11  C   UNL A   1      31.981  25.080  26.327  1.00  0.00     0.262 A 
ATOM     12  C   UNL A   1      35.285  24.387  24.842  1.00  0.00     0.029 A 
ATOM     13  C   UNL A   1      33.199  24.318  25.999  1.00  0.00     0.066 A 
ATOM     14  O   UNL A   1      31.208  24.649  27.157  1.00  0.00    -0.269 OA
ATOM     15  C   UNL A   1      35.819  23.467  25.754  1.00  0.00     0.002 A 
ATOM     16  C   UNL A   1      33.685  23.332  26.865  1.00  0.00     0.016 A 
ATOM     17  C   UNL A   1      35.007  22.906  26.740  1.00  0.00     0.001 A 
BRANCH   8  18
ATOM     18  S   UNL A   1      32.120  27.836  23.356  1.00  0.00    -0.083 SA
BRANCH  18  19
ATOM     19  C   UNL A   1      30.600  27.646  22.420  1.00  0.00     0.113 C 
BRANCH  19  20
ATOM     20  C   UNL A   1      29.528  28.658  22.704  1.00  0.00    -0.034 A 
ATOM     21  C   UNL A   1      28.915  30.909  23.387  1.00  0.00     0.119 A 
ATOM     22  C   UNL A   1      27.595  30.487  23.533  1.00  0.00     0.046 A 
ATOM     23  C   UNL A   1      29.857  30.010  22.896  1.00  0.00     0.051 A 
ATOM     24  C   UNL A   1      27.224  29.182  23.206  1.00  0.00     0.004 A 
ATOM     25  C   UNL A   1      28.190  28.264  22.805  1.00  0.00     0.005 A 
BRANCH  21  26
ATOM     26  O   UNL A   1      29.170  32.198  23.765  1.00  0.00    -0.497 OA
ATOM     27  C   UNL A   1      28.809  33.225  22.845  1.00  0.00     0.278 C 
ENDBRANCH  21  26
ENDBRANCH  19  20
ENDBRANCH  18  19
ENDBRANCH   8  18
ENDBRANCH   6   7
ENDBRANCH   5   6
ENDBRANCH   1   5
BRANCH   3  28
ATOM     28  C   UNL A   1      31.367  30.765  26.255  1.00  0.00     0.117 C 
BRANCH  28  29
ATOM     29  C   UNL A   1      31.357  32.201  26.762  1.00  0.00     0.042 C 
BRANCH  29  30
ATOM     30  C   UNL A   1      32.714  32.873  26.944  1.00  0.00     0.118 C 
BRANCH  30  31
ATOM     31  N   UNL A   1      32.582  34.103  27.706  1.00  0.00    -0.352 N 
ATOM     32  C   UNL A   1      33.185  34.548  28.856  1.00  0.00     0.251 C 
ATOM     33  H   UNL A   1      31.936  34.739  27.324  1.00  0.00     0.163 HD
ATOM     34  O   UNL A   1      32.613  35.457  29.462  1.00  0.00    -0.269 OA
BRANCH  32  35
ATOM     35  C   UNL A   1      34.470  34.025  29.412  1.00  0.00     0.039 A 
ATOM     36  C   UNL A   1      35.638  34.297  28.678  1.00  0.00     0.014 A 
ATOM     37  C   UNL A   1      34.572  33.171  30.512  1.00  0.00     0.014 A 
ATOM     38  C   UNL A   1      36.868  33.718  29.023  1.00  0.00     0.010 A 
ATOM     39  C   UNL A   1      35.821  32.644  30.900  1.00  0.00     0.010 A 
ATOM     40  C   UNL A   1      36.979  32.883  30.143  1.00  0.00    -0.014 A 
BRANCH  40  41
ATOM     41  C   UNL A   1      38.280  32.224  30.474  1.00  0.00     0.031 A 
ATOM     42  C   UNL A   1      39.222  32.832  31.485  1.00  0.00     0.074 A 
ATOM     43  C   UNL A   1      38.625  31.060  29.886  1.00  0.00     0.049 A 
ATOM     44  N   UNL A   1      40.387  32.397  31.908  1.00  0.00    -0.248 NA
ATOM     45  C   UNL A   1      38.808  34.104  32.094  1.00  0.00     0.031 C 
ATOM     46  C   UNL A   1      37.825  30.350  28.888  1.00  0.00     0.029 A 
ATOM     47  N   UNL A   1      39.736  30.265  30.049  1.00  0.00    -0.354 N 
ATOM     48  C   UNL A   1      40.844  33.342  32.820  1.00  0.00     0.074 A 
ATOM     49  C   UNL A   1      39.855  34.400  32.850  1.00  0.00     0.031 C 
ATOM     50  C   UNL A   1      38.453  29.210  28.555  1.00  0.00     0.029 A 
ATOM     51  C   UNL A   1      39.718  29.126  29.281  1.00  0.00     0.049 A 
ATOM     52  H   UNL A   1      40.475  30.492  30.659  1.00  0.00     0.167 HD
ATOM     53  C   UNL A   1      41.968  33.330  33.580  1.00  0.00     0.037 A 
ATOM     54  C   UNL A   1      40.614  28.126  29.166  1.00  0.00     0.037 A 
ATOM     55  C   UNL A   1      42.956  32.280  33.566  1.00  0.00     0.049 A 
ATOM     56  C   UNL A   1      41.884  28.162  29.973  1.00  0.00     0.074 A 
ATOM     57  C   UNL A   1      44.107  32.167  34.329  1.00  0.00     0.029 A 
ATOM     58  N   UNL A   1      42.916  31.167  32.742  1.00  0.00    -0.354 N 
ATOM     59  N   UNL A   1      42.275  29.039  30.865  1.00  0.00    -0.248 NA
ATOM     60  C   UNL A   1      42.838  27.063  29.757  1.00  0.00     0.031 C 
ATOM     61  C   UNL A   1      44.789  31.012  33.929  1.00  0.00     0.029 A 
ATOM     62  C   UNL A   1      44.036  30.376  32.957  1.00  0.00     0.049 A 
ATOM     63  H   UNL A   1      42.199  30.966  32.098  1.00  0.00     0.167 HD
ATOM     64  C   UNL A   1      43.501  28.583  31.338  1.00  0.00     0.074 A 
ATOM     65  C   UNL A   1      43.784  27.346  30.641  1.00  0.00     0.031 C 
ATOM     66  C   UNL A   1      44.315  29.141  32.267  1.00  0.00     0.037 A 
BRANCH  53  67
ATOM     67  C   UNL A   1      42.196  34.506  34.491  1.00  0.00     0.057 A 
ATOM     68  C   UNL A   1      42.839  35.672  34.051  1.00  0.00     0.134 A 
ATOM     69  C   UNL A   1      41.753  34.481  35.820  1.00  0.00     0.134 A 
ATOM     70  F   UNL A   1      43.293  35.764  32.791  1.00  0.00    -0.206 F 
ATOM     71  C   UNL A   1      43.071  36.749  34.909  1.00  0.00     0.040 A 
ATOM     72  C   UNL A   1      41.951  35.564  36.679  1.00  0.00     0.040 A 
ATOM     73  F   UNL A   1      41.115  33.406  36.306  1.00  0.00    -0.206 F 
ATOM     74  C   UNL A   1      42.624  36.698  36.227  1.00  0.00     0.006 A 
ENDBRANCH  53  67
BRANCH  54  75
ATOM     75  C   UNL A   1      40.336  26.980  28.263  1.00  0.00     0.057 A 
ATOM     76  C   UNL A   1      40.881  26.931  26.974  1.00  0.00     0.134 A 
ATOM     77  C   UNL A   1      39.515  25.916  28.656  1.00  0.00     0.134 A 
ATOM     78  F   UNL A   1      41.654  27.933  26.530  1.00  0.00    -0.206 F 
ATOM     79  C   UNL A   1      40.613  25.873  26.105  1.00  0.00     0.040 A 
ATOM     80  C   UNL A   1      39.259  24.839  27.807  1.00  0.00     0.040 A 
ATOM     81  F   UNL A   1      38.960  25.905  29.877  1.00  0.00    -0.206 F 
ATOM     82  C   UNL A   1      39.805  24.818  26.525  1.00  0.00     0.006 A 
ENDBRANCH  54  75
BRANCH  66  83
ATOM     83  C   UNL A   1      45.573  28.400  32.620  1.00  0.00     0.057 A 
ATOM     84  C   UNL A   1      45.590  27.377  33.578  1.00  0.00     0.134 A 
ATOM     85  C   UNL A   1      46.780  28.693  31.970  1.00  0.00     0.134 A 
ATOM     86  F   UNL A   1      44.475  27.055  34.249  1.00  0.00    -0.206 F 
ATOM     87  C   UNL A   1      46.767  26.692  33.895  1.00  0.00     0.040 A 
ATOM     88  C   UNL A   1      47.955  27.996  32.257  1.00  0.00     0.040 A 
ATOM     89  F   UNL A   1      46.834  29.655  31.036  1.00  0.00    -0.206 F 
ATOM     90  C   UNL A   1      47.951  26.996  33.227  1.00  0.00     0.006 A 
ENDBRANCH  66  83
ENDBRANCH  40  41
ENDBRANCH  32  35
ENDBRANCH  30  31
ENDBRANCH  29  30
ENDBRANCH  28  29
ENDBRANCH   3  28
TORSDOF 16
ENDMDL
MODEL 3
REMARK VINA RESULT:     -11.7      2.414      3.358
REMARK SMILES COc1cccc(CSc2nc3ccccc3c(=O)n2CCC(=O)NCCCNC(=O)c2ccc(-c3c4nc(c(-c5c(F)cccc5F)c5ccc([nH]5)c(-c5c(F)cccc5F)c5nc(c(-c6c(F)cccc6F)c6ccc3[nH]6)C=C5)C=C4)cc2)c1
REMARK SMILES IDX 23 1 24 2 25 3 22 5 21 6 20 7 10 8 11 9 12 10 18 11 13 12
REMARK SMILES IDX 17 13 19 14 14 15 16 16 15 17 9 18 8 19 7 20 3 21 4 22 86 23
REMARK SMILES IDX 5 24 6 25 2 26 1 27 26 28 27 29 28 30 29 31 30 32 31 34
REMARK SMILES IDX 32 35 33 36 85 37 34 38 84 39 35 40 36 41 37 42 78 43 38 44
REMARK SMILES IDX 83 45 77 46 79 47 39 48 82 49 76 50 75 51 40 53 66 54 49 55
REMARK SMILES IDX 65 56 50 57 53 58 64 59 80 60 51 61 52 62 63 64 81 65 54 66
REMARK SMILES IDX 41 67 42 68 47 69 43 70 44 71 46 72 48 73 45 74 67 75 68 76
REMARK SMILES IDX 73 77 69 78 70 79 72 80 74 81 71 82 55 83 56 84 61 85 57 86
REMARK SMILES IDX 58 87 60 88 62 89 59 90
REMARK H PARENT 25 4 29 33 79 52 53 63
REMARK Flexibility Score: inf
ROOT
ATOM      1  C   UNL A   1      31.805  24.624  26.399  1.00  0.00     0.221 C 
ATOM      2  O   UNL A   1      31.425  23.740  27.172  1.00  0.00    -0.275 OA
ATOM      3  N   UNL A   1      33.066  25.116  26.553  1.00  0.00    -0.356 N 
ATOM      4  H   UNL A   1      33.576  24.726  27.300  1.00  0.00     0.163 HD
ENDROOT
BRANCH   1   5
ATOM      5  C   UNL A   1      30.889  25.128  25.301  1.00  0.00     0.122 C 
BRANCH   5   6
ATOM      6  C   UNL A   1      30.678  24.081  24.200  1.00  0.00     0.138 C 
BRANCH   6   7
ATOM      7  N   UNL A   1      31.899  23.739  23.470  1.00  0.00    -0.287 N 
ATOM      8  C   UNL A   1      32.606  24.553  22.606  1.00  0.00     0.171 A 
ATOM      9  N   UNL A   1      33.899  24.434  22.478  1.00  0.00    -0.224 NA
ATOM     10  C   UNL A   1      34.573  23.508  23.288  1.00  0.00     0.079 A 
ATOM     11  C   UNL A   1      32.436  22.481  23.798  1.00  0.00     0.262 A 
ATOM     12  C   UNL A   1      35.911  23.706  23.643  1.00  0.00     0.029 A 
ATOM     13  C   UNL A   1      33.908  22.423  23.835  1.00  0.00     0.066 A 
ATOM     14  O   UNL A   1      31.788  21.515  24.146  1.00  0.00    -0.269 OA
ATOM     15  C   UNL A   1      36.569  22.801  24.487  1.00  0.00     0.002 A 
ATOM     16  C   UNL A   1      34.571  21.460  24.605  1.00  0.00     0.016 A 
ATOM     17  C   UNL A   1      35.912  21.655  24.933  1.00  0.00     0.001 A 
BRANCH   8  18
ATOM     18  S   UNL A   1      31.973  25.949  21.749  1.00  0.00    -0.083 SA
BRANCH  18  19
ATOM     19  C   UNL A   1      31.819  27.422  22.764  1.00  0.00     0.113 C 
BRANCH  19  20
ATOM     20  C   UNL A   1      30.505  28.142  22.674  1.00  0.00    -0.034 A 
ATOM     21  C   UNL A   1      29.281  30.199  22.247  1.00  0.00     0.119 A 
ATOM     22  C   UNL A   1      28.138  29.610  22.782  1.00  0.00     0.046 A 
ATOM     23  C   UNL A   1      30.436  29.434  22.123  1.00  0.00     0.051 A 
ATOM     24  C   UNL A   1      28.152  28.278  23.201  1.00  0.00     0.004 A 
ATOM     25  C   UNL A   1      29.336  27.549  23.160  1.00  0.00     0.005 A 
BRANCH  21  26
ATOM     26  O   UNL A   1      29.161  31.515  21.898  1.00  0.00    -0.497 OA
ATOM     27  C   UNL A   1      28.169  31.839  20.928  1.00  0.00     0.278 C 
ENDBRANCH  21  26
ENDBRANCH  19  20
ENDBRANCH  18  19
ENDBRANCH   8  18
ENDBRANCH   6   7
ENDBRANCH   5   6
ENDBRANCH   1   5
BRANCH   3  28
ATOM     28  C   UNL A   1      33.779  26.130  25.785  1.00  0.00     0.117 C 
BRANCH  28  29
ATOM     29  C   UNL A   1      33.604  27.524  26.374  1.00  0.00     0.042 C 
BRANCH  29  30
ATOM     30  C   UNL A   1      34.194  28.683  25.578  1.00  0.00     0.118 C 
BRANCH  30  31
ATOM     31  N   UNL A   1      33.883  29.953  26.210  1.00  0.00    -0.352 N 
ATOM     32  C   UNL A   1      34.338  30.552  27.359  1.00  0.00     0.251 C 
ATOM     33  H   UNL A   1      33.218  30.488  25.720  1.00  0.00     0.163 HD
ATOM     34  O   UNL A   1      33.633  31.448  27.830  1.00  0.00    -0.269 OA
BRANCH  32  35
ATOM     35  C   UNL A   1      35.610  30.208  28.062  1.00  0.00     0.039 A 
ATOM     36  C   UNL A   1      36.802  30.356  27.331  1.00  0.00     0.014 A 
ATOM     37  C   UNL A   1      35.687  29.616  29.325  1.00  0.00     0.014 A 
ATOM     38  C   UNL A   1      38.031  29.910  27.839  1.00  0.00     0.010 A 
ATOM     39  C   UNL A   1      36.931  29.230  29.865  1.00  0.00     0.010 A 
ATOM     40  C   UNL A   1      38.114  29.341  29.118  1.00  0.00    -0.014 A 
BRANCH  40  41
ATOM     41  C   UNL A   1      39.416  28.816  29.632  1.00  0.00     0.031 A 
ATOM     42  C   UNL A   1      40.064  29.415  30.859  1.00  0.00     0.074 A 
ATOM     43  C   UNL A   1      40.027  27.782  29.018  1.00  0.00     0.049 A 
ATOM     44  N   UNL A   1      41.185  29.082  31.458  1.00  0.00    -0.248 NA
ATOM     45  C   UNL A   1      39.366  30.544  31.490  1.00  0.00     0.031 C 
ATOM     46  C   UNL A   1      39.531  27.100  27.823  1.00  0.00     0.029 A 
ATOM     47  N   UNL A   1      41.194  27.119  29.319  1.00  0.00    -0.354 N 
ATOM     48  C   UNL A   1      41.328  29.963  32.524  1.00  0.00     0.074 A 
ATOM     49  C   UNL A   1      40.207  30.878  32.459  1.00  0.00     0.031 C 
ATOM     50  C   UNL A   1      40.367  26.094  27.514  1.00  0.00     0.029 A 
ATOM     51  C   UNL A   1      41.480  26.085  28.460  1.00  0.00     0.049 A 
ATOM     52  H   UNL A   1      41.771  27.363  30.079  1.00  0.00     0.167 HD
ATOM     53  C   UNL A   1      42.287  30.003  33.483  1.00  0.00     0.037 A 
ATOM     54  C   UNL A   1      42.518  25.226  28.430  1.00  0.00     0.037 A 
ATOM     55  C   UNL A   1      43.403  29.094  33.564  1.00  0.00     0.049 A 
ATOM     56  C   UNL A   1      43.603  25.326  29.468  1.00  0.00     0.074 A 
ATOM     57  C   UNL A   1      44.403  29.037  34.522  1.00  0.00     0.029 A 
ATOM     58  N   UNL A   1      43.674  28.089  32.649  1.00  0.00    -0.354 N 
ATOM     59  N   UNL A   1      43.697  26.134  30.496  1.00  0.00    -0.248 NA
ATOM     60  C   UNL A   1      44.731  24.388  29.340  1.00  0.00     0.031 C 
ATOM     61  C   UNL A   1      45.306  28.032  34.157  1.00  0.00     0.029 A 
ATOM     62  C   UNL A   1      44.841  27.426  33.003  1.00  0.00     0.049 A 
ATOM     63  H   UNL A   1      43.121  27.877  31.862  1.00  0.00     0.167 HD
ATOM     64  C   UNL A   1      44.871  25.783  31.153  1.00  0.00     0.074 A 
ATOM     65  C   UNL A   1      45.451  24.681  30.413  1.00  0.00     0.031 C 
ATOM     66  C   UNL A   1      45.415  26.325  32.270  1.00  0.00     0.037 A 
BRANCH  53  67
ATOM     67  C   UNL A   1      42.175  31.083  34.525  1.00  0.00     0.057 A 
ATOM     68  C   UNL A   1      41.437  30.903  35.703  1.00  0.00     0.134 A 
ATOM     69  C   UNL A   1      42.825  32.313  34.357  1.00  0.00     0.134 A 
ATOM     70  F   UNL A   1      40.786  29.751  35.928  1.00  0.00    -0.206 F 
ATOM     71  C   UNL A   1      41.315  31.919  36.654  1.00  0.00     0.040 A 
ATOM     72  C   UNL A   1      42.735  33.325  35.315  1.00  0.00     0.040 A 
ATOM     73  F   UNL A   1      43.562  32.551  33.262  1.00  0.00    -0.206 F 
ATOM     74  C   UNL A   1      41.968  33.134  36.462  1.00  0.00     0.006 A 
ENDBRANCH  53  67
BRANCH  54  75
ATOM     75  C   UNL A   1      42.576  24.169  27.388  1.00  0.00     0.057 A 
ATOM     76  C   UNL A   1      42.079  22.884  27.639  1.00  0.00     0.134 A 
ATOM     77  C   UNL A   1      43.135  24.408  26.128  1.00  0.00     0.134 A 
ATOM     78  F   UNL A   1      41.555  22.585  28.837  1.00  0.00    -0.206 F 
ATOM     79  C   UNL A   1      42.144  21.873  26.680  1.00  0.00     0.040 A 
ATOM     80  C   UNL A   1      43.183  23.415  25.149  1.00  0.00     0.040 A 
ATOM     81  F   UNL A   1      43.631  25.617  25.825  1.00  0.00    -0.206 F 
ATOM     82  C   UNL A   1      42.691  22.140  25.426  1.00  0.00     0.006 A 
ENDBRANCH  54  75
BRANCH  66  83
ATOM     83  C   UNL A   1      46.683  25.711  32.790  1.00  0.00     0.057 A 
ATOM     84  C   UNL A   1      47.947  26.132  32.355  1.00  0.00     0.134 A 
ATOM     85  C   UNL A   1      46.640  24.703  33.764  1.00  0.00     0.134 A 
ATOM     86  F   UNL A   1      48.061  27.081  31.416  1.00  0.00    -0.206 F 
ATOM     87  C   UNL A   1      49.120  25.556  32.851  1.00  0.00     0.040 A 
ATOM     88  C   UNL A   1      47.806  24.140  34.287  1.00  0.00     0.040 A 
ATOM     89  F   UNL A   1      45.465  24.257  34.231  1.00  0.00    -0.206 F 
ATOM     90  C   UNL A   1      49.051  24.562  33.825  1.00  0.00     0.006 A 
ENDBRANCH  66  83
ENDBRANCH  40  41
ENDBRANCH  32  35
ENDBRANCH  30  31
ENDBRANCH  29  30
ENDBRANCH  28  29
ENDBRANCH   3  28
TORSDOF 16
ENDMDL
