MODEL 1
REMARK VINA RESULT:     -12.5      0.000      0.000
REMARK SMILES CN(C)c1ccc(CCC(=O)N2C[C@@H](C(=O)NCCCNC(=O)c3ccc(-c4c5nc(c(-c6c(F)cccc6F)c6ccc([nH]6)c(-c6c(F)cccc6F)c6nc(c(-c7c(F)cccc7F)c7ccc4[nH]7)C=C6)C=C5)cc3)[C@H](c3cccnc3)C2)cc1
REMARK SMILES IDX 15 1 16 2 17 3 14 5 12 6 13 7 85 8 78 9 10 10 11 11 9 12
REMARK SMILES IDX 8 13 7 14 4 15 5 16 87 17 6 18 86 19 2 20 1 21 3 22 79 23
REMARK SMILES IDX 80 24 84 25 81 26 83 27 82 28 18 29 19 30 20 31 21 32 22 33
REMARK SMILES IDX 23 35 24 36 25 37 77 38 26 39 76 40 27 41 28 42 29 43 70 44
REMARK SMILES IDX 30 45 75 46 69 47 71 48 31 49 74 50 68 51 67 52 32 54 58 55
REMARK SMILES IDX 41 56 57 57 42 58 45 59 56 60 72 61 43 62 44 63 55 65 73 66
REMARK SMILES IDX 46 67 33 68 34 69 39 70 35 71 36 72 38 73 40 74 37 75 59 76
REMARK SMILES IDX 60 77 65 78 61 79 62 80 64 81 66 82 63 83 47 84 48 85 53 86
REMARK SMILES IDX 49 87 50 88 52 89 54 90 51 91
REMARK H PARENT 17 4 21 34 71 53 45 64
REMARK Flexibility Score: inf
ROOT
ATOM      1  C   UNL A   1      35.557  22.142  25.308  1.00  0.00     0.225 C 
ATOM      2  O   UNL A   1      35.981  23.171  25.842  1.00  0.00    -0.275 OA
ATOM      3  N   UNL A   1      36.072  20.959  25.730  1.00  0.00    -0.356 N 
ATOM      4  H   UNL A   1      36.252  20.906  26.696  1.00  0.00     0.163 HD
ENDROOT
BRANCH   1   5
ATOM      5  C   UNL A   1      34.426  22.245  24.311  1.00  0.00     0.107 C 
ATOM      6  N   UNL A   1      33.125  23.858  23.229  1.00  0.00    -0.341 N 
ATOM      7  C   UNL A   1      34.404  23.661  23.825  1.00  0.00     0.133 C 
ATOM      8  C   UNL A   1      32.168  22.873  23.729  1.00  0.00     0.128 C 
ATOM      9  C   UNL A   1      32.973  21.897  24.653  1.00  0.00     0.054 C 
BRANCH   6  10
ATOM     10  C   UNL A   1      32.831  24.897  22.374  1.00  0.00     0.222 C 
ATOM     11  O   UNL A   1      33.712  25.447  21.710  1.00  0.00    -0.275 OA
BRANCH  10  12
ATOM     12  C   UNL A   1      31.394  25.460  22.386  1.00  0.00     0.105 C 
BRANCH  12  13
ATOM     13  C   UNL A   1      30.999  26.520  23.436  1.00  0.00     0.045 C 
BRANCH  13  14
ATOM     14  C   UNL A   1      30.233  27.738  22.943  1.00  0.00    -0.047 A 
ATOM     15  C   UNL A   1      28.832  30.149  22.338  1.00  0.00     0.036 A 
ATOM     16  C   UNL A   1      28.174  29.046  22.893  1.00  0.00     0.026 A 
ATOM     17  C   UNL A   1      30.188  29.999  22.019  1.00  0.00     0.026 A 
ATOM     18  C   UNL A   1      28.858  27.856  23.188  1.00  0.00     0.006 A 
ATOM     19  C   UNL A   1      30.876  28.804  22.294  1.00  0.00     0.006 A 
BRANCH  15  20
ATOM     20  N   UNL A   1      28.118  31.319  22.070  1.00  0.00    -0.378 N 
ATOM     21  C   UNL A   1      27.906  31.584  20.654  1.00  0.00     0.143 C 
ATOM     22  C   UNL A   1      28.385  32.487  22.905  1.00  0.00     0.143 C 
ENDBRANCH  15  20
ENDBRANCH  13  14
ENDBRANCH  12  13
ENDBRANCH  10  12
ENDBRANCH   6  10
BRANCH   9  23
ATOM     23  C   UNL A   1      32.763  20.398  24.497  1.00  0.00    -0.024 A 
ATOM     24  C   UNL A   1      32.564  19.839  23.219  1.00  0.00     0.007 A 
ATOM     25  C   UNL A   1      32.742  19.500  25.556  1.00  0.00     0.115 A 
ATOM     26  C   UNL A   1      32.277  18.490  23.057  1.00  0.00     0.020 A 
ATOM     27  N   UNL A   1      32.484  18.174  25.430  1.00  0.00    -0.264 NA
ATOM     28  C   UNL A   1      32.238  17.704  24.188  1.00  0.00     0.111 A 
ENDBRANCH   9  23
ENDBRANCH   1   5
BRANCH   3  29
ATOM     29  C   UNL A   1      36.398  19.762  24.981  1.00  0.00     0.117 C 
BRANCH  29  30
ATOM     30  C   UNL A   1      37.882  19.767  24.602  1.00  0.00     0.042 C 
BRANCH  30  31
ATOM     31  C   UNL A   1      38.813  20.104  25.772  1.00  0.00     0.118 C 
BRANCH  31  32
ATOM     32  N   UNL A   1      39.976  19.234  25.811  1.00  0.00    -0.352 N 
ATOM     33  C   UNL A   1      41.293  19.540  26.055  1.00  0.00     0.251 C 
ATOM     34  H   UNL A   1      39.793  18.283  25.637  1.00  0.00     0.163 HD
ATOM     35  O   UNL A   1      42.162  18.710  25.811  1.00  0.00    -0.269 OA
BRANCH  33  36
ATOM     36  C   UNL A   1      41.678  20.865  26.597  1.00  0.00     0.039 A 
ATOM     37  C   UNL A   1      42.152  21.837  25.710  1.00  0.00     0.014 A 
ATOM     38  C   UNL A   1      41.638  21.136  27.968  1.00  0.00     0.014 A 
ATOM     39  C   UNL A   1      42.530  23.095  26.189  1.00  0.00     0.010 A 
ATOM     40  C   UNL A   1      41.964  22.411  28.438  1.00  0.00     0.010 A 
ATOM     41  C   UNL A   1      42.411  23.404  27.553  1.00  0.00    -0.014 A 
BRANCH  41  42
ATOM     42  C   UNL A   1      42.723  24.767  28.057  1.00  0.00     0.031 A 
ATOM     43  C   UNL A   1      44.124  25.142  28.454  1.00  0.00     0.074 A 
ATOM     44  C   UNL A   1      41.725  25.660  28.212  1.00  0.00     0.049 A 
ATOM     45  N   UNL A   1      44.566  26.264  28.967  1.00  0.00    -0.248 NA
ATOM     46  C   UNL A   1      45.162  24.117  28.268  1.00  0.00     0.031 C 
ATOM     47  C   UNL A   1      40.316  25.413  27.901  1.00  0.00     0.029 A 
ATOM     48  N   UNL A   1      41.742  26.951  28.680  1.00  0.00    -0.354 N 
ATOM     49  C   UNL A   1      45.927  26.077  29.175  1.00  0.00     0.074 A 
ATOM     50  C   UNL A   1      46.232  24.721  28.769  1.00  0.00     0.031 C 
ATOM     51  C   UNL A   1      39.607  26.520  28.174  1.00  0.00     0.029 A 
ATOM     52  C   UNL A   1      40.502  27.541  28.711  1.00  0.00     0.049 A 
ATOM     53  H   UNL A   1      42.565  27.409  28.967  1.00  0.00     0.167 HD
ATOM     54  C   UNL A   1      46.842  26.960  29.645  1.00  0.00     0.037 A 
ATOM     55  C   UNL A   1      40.123  28.762  29.134  1.00  0.00     0.037 A 
ATOM     56  C   UNL A   1      46.546  28.316  30.029  1.00  0.00     0.049 A 
ATOM     57  C   UNL A   1      41.155  29.716  29.666  1.00  0.00     0.074 A 
ATOM     58  C   UNL A   1      47.421  29.303  30.452  1.00  0.00     0.029 A 
ATOM     59  N   UNL A   1      45.278  28.877  30.045  1.00  0.00    -0.354 N 
ATOM     60  N   UNL A   1      42.448  29.546  29.795  1.00  0.00    -0.248 NA
ATOM     61  C   UNL A   1      40.673  31.032  30.109  1.00  0.00     0.031 C 
ATOM     62  C   UNL A   1      46.678  30.445  30.763  1.00  0.00     0.029 A 
ATOM     63  C   UNL A   1      45.344  30.185  30.495  1.00  0.00     0.049 A 
ATOM     64  H   UNL A   1      44.453  28.413  29.775  1.00  0.00     0.167 HD
ATOM     65  C   UNL A   1      42.936  30.737  30.315  1.00  0.00     0.074 A 
ATOM     66  C   UNL A   1      41.804  31.627  30.463  1.00  0.00     0.031 C 
ATOM     67  C   UNL A   1      44.211  31.061  30.644  1.00  0.00     0.037 A 
BRANCH  54  68
ATOM     68  C   UNL A   1      48.261  26.485  29.773  1.00  0.00     0.057 A 
ATOM     69  C   UNL A   1      49.203  26.700  28.760  1.00  0.00     0.134 A 
ATOM     70  C   UNL A   1      48.700  25.851  30.941  1.00  0.00     0.134 A 
ATOM     71  F   UNL A   1      48.846  27.295  27.612  1.00  0.00    -0.206 F 
ATOM     72  C   UNL A   1      50.528  26.280  28.895  1.00  0.00     0.040 A 
ATOM     73  C   UNL A   1      50.027  25.449  31.098  1.00  0.00     0.040 A 
ATOM     74  F   UNL A   1      47.851  25.623  31.954  1.00  0.00    -0.206 F 
ATOM     75  C   UNL A   1      50.945  25.659  30.071  1.00  0.00     0.006 A 
ENDBRANCH  54  68
BRANCH  55  76
ATOM     76  C   UNL A   1      38.695  29.156  29.065  1.00  0.00     0.057 A 
ATOM     77  C   UNL A   1      38.128  29.601  27.866  1.00  0.00     0.134 A 
ATOM     78  C   UNL A   1      37.866  29.098  30.190  1.00  0.00     0.134 A 
ATOM     79  F   UNL A   1      38.879  29.697  26.758  1.00  0.00    -0.206 F 
ATOM     80  C   UNL A   1      36.790  29.990  27.790  1.00  0.00     0.040 A 
ATOM     81  C   UNL A   1      36.519  29.461  30.125  1.00  0.00     0.040 A 
ATOM     82  F   UNL A   1      38.349  28.675  31.367  1.00  0.00    -0.206 F 
ATOM     83  C   UNL A   1      35.981  29.915  28.923  1.00  0.00     0.006 A 
ENDBRANCH  55  76
BRANCH  67  84
ATOM     84  C   UNL A   1      44.449  32.442  31.179  1.00  0.00     0.057 A 
ATOM     85  C   UNL A   1      44.701  33.527  30.330  1.00  0.00     0.134 A 
ATOM     86  C   UNL A   1      44.398  32.696  32.555  1.00  0.00     0.134 A 
ATOM     87  F   UNL A   1      44.777  33.348  29.002  1.00  0.00    -0.206 F 
ATOM     88  C   UNL A   1      44.913  34.812  30.833  1.00  0.00     0.040 A 
ATOM     89  C   UNL A   1      44.586  33.980  33.068  1.00  0.00     0.040 A 
ATOM     90  F   UNL A   1      44.155  31.701  33.423  1.00  0.00    -0.206 F 
ATOM     91  C   UNL A   1      44.850  35.042  32.206  1.00  0.00     0.006 A 
ENDBRANCH  67  84
ENDBRANCH  41  42
ENDBRANCH  33  36
ENDBRANCH  31  32
ENDBRANCH  30  31
ENDBRANCH  29  30
ENDBRANCH   3  29
TORSDOF 16
ENDMDL
MODEL 2
REMARK VINA RESULT:     -12.5      4.013      9.995
REMARK SMILES CN(C)c1ccc(CCC(=O)N2C[C@@H](C(=O)NCCCNC(=O)c3ccc(-c4c5nc(c(-c6c(F)cccc6F)c6ccc([nH]6)c(-c6c(F)cccc6F)c6nc(c(-c7c(F)cccc7F)c7ccc4[nH]7)C=C6)C=C5)cc3)[C@H](c3cccnc3)C2)cc1
REMARK SMILES IDX 15 1 16 2 17 3 14 5 12 6 13 7 85 8 78 9 10 10 11 11 9 12
REMARK SMILES IDX 8 13 7 14 4 15 5 16 87 17 6 18 86 19 2 20 1 21 3 22 79 23
REMARK SMILES IDX 80 24 84 25 81 26 83 27 82 28 18 29 19 30 20 31 21 32 22 33
REMARK SMILES IDX 23 35 24 36 25 37 77 38 26 39 76 40 27 41 28 42 29 43 70 44
REMARK SMILES IDX 30 45 75 46 69 47 71 48 31 49 74 50 68 51 67 52 32 54 58 55
REMARK SMILES IDX 41 56 57 57 42 58 45 59 56 60 72 61 43 62 44 63 55 65 73 66
REMARK SMILES IDX 46 67 33 68 34 69 39 70 35 71 36 72 38 73 40 74 37 75 59 76
REMARK SMILES IDX 60 77 65 78 61 79 62 80 64 81 66 82 63 83 47 84 48 85 53 86
REMARK SMILES IDX 49 87 50 88 52 89 54 90 51 91
REMARK H PARENT 17 4 21 34 71 53 45 64
REMARK Flexibility Score: inf
ROOT
ATOM      1  C   UNL A   1      32.389  29.101  25.322  1.00  0.00     0.225 C 
ATOM      2  O   UNL A   1      33.556  28.783  25.569  1.00  0.00    -0.275 OA
ATOM      3  N   UNL A   1      32.106  30.426  25.234  1.00  0.00    -0.356 N 
ATOM      4  H   UNL A   1      32.807  30.973  24.809  1.00  0.00     0.163 HD
ENDROOT
BRANCH   1   5
ATOM      5  C   UNL A   1      31.380  28.016  25.023  1.00  0.00     0.107 C 
ATOM      6  N   UNL A   1      31.135  25.697  25.181  1.00  0.00    -0.341 N 
ATOM      7  C   UNL A   1      31.819  26.797  25.773  1.00  0.00     0.133 C 
ATOM      8  C   UNL A   1      30.696  26.033  23.828  1.00  0.00     0.128 C 
ATOM      9  C   UNL A   1      31.058  27.540  23.603  1.00  0.00     0.054 C 
BRANCH   6  10
ATOM     10  C   UNL A   1      30.999  24.466  25.784  1.00  0.00     0.222 C 
ATOM     11  O   UNL A   1      30.962  24.356  27.011  1.00  0.00    -0.275 OA
BRANCH  10  12
ATOM     12  C   UNL A   1      31.054  23.211  24.888  1.00  0.00     0.105 C 
BRANCH  12  13
ATOM     13  C   UNL A   1      32.391  22.790  24.244  1.00  0.00     0.045 C 
BRANCH  13  14
ATOM     14  C   UNL A   1      32.670  21.300  24.126  1.00  0.00    -0.047 A 
ATOM     15  C   UNL A   1      32.932  18.459  24.125  1.00  0.00     0.036 A 
ATOM     16  C   UNL A   1      33.558  19.246  25.097  1.00  0.00     0.026 A 
ATOM     17  C   UNL A   1      32.235  19.123  23.107  1.00  0.00     0.026 A 
ATOM     18  C   UNL A   1      33.437  20.645  25.098  1.00  0.00     0.006 A 
ATOM     19  C   UNL A   1      32.124  20.524  23.091  1.00  0.00     0.006 A 
BRANCH  15  20
ATOM     20  N   UNL A   1      33.068  17.070  24.166  1.00  0.00    -0.378 N 
ATOM     21  C   UNL A   1      32.515  16.446  25.360  1.00  0.00     0.143 C 
ATOM     22  C   UNL A   1      34.311  16.491  23.661  1.00  0.00     0.143 C 
ENDBRANCH  15  20
ENDBRANCH  13  14
ENDBRANCH  12  13
ENDBRANCH  10  12
ENDBRANCH   6  10
BRANCH   9  23
ATOM     23  C   UNL A   1      30.013  28.461  22.987  1.00  0.00    -0.024 A 
ATOM     24  C   UNL A   1      28.656  28.330  23.339  1.00  0.00     0.007 A 
ATOM     25  C   UNL A   1      30.301  29.455  22.061  1.00  0.00     0.115 A 
ATOM     26  C   UNL A   1      27.672  29.093  22.724  1.00  0.00     0.020 A 
ATOM     27  N   UNL A   1      29.366  30.230  21.455  1.00  0.00    -0.264 NA
ATOM     28  C   UNL A   1      28.074  30.017  21.786  1.00  0.00     0.111 A 
ENDBRANCH   9  23
ENDBRANCH   1   5
BRANCH   3  29
ATOM     29  C   UNL A   1      30.935  31.162  25.667  1.00  0.00     0.117 C 
BRANCH  29  30
ATOM     30  C   UNL A   1      31.241  31.924  26.959  1.00  0.00     0.042 C 
BRANCH  30  31
ATOM     31  C   UNL A   1      32.580  32.669  26.930  1.00  0.00     0.118 C 
BRANCH  31  32
ATOM     32  N   UNL A   1      32.469  34.010  27.477  1.00  0.00    -0.352 N 
ATOM     33  C   UNL A   1      33.126  34.581  28.541  1.00  0.00     0.251 C 
ATOM     34  H   UNL A   1      31.828  34.598  27.017  1.00  0.00     0.163 HD
ATOM     35  O   UNL A   1      32.725  35.646  28.998  1.00  0.00    -0.269 OA
BRANCH  33  36
ATOM     36  C   UNL A   1      34.303  33.919  29.152  1.00  0.00     0.039 A 
ATOM     37  C   UNL A   1      34.087  32.948  30.135  1.00  0.00     0.014 A 
ATOM     38  C   UNL A   1      35.608  34.289  28.815  1.00  0.00     0.014 A 
ATOM     39  C   UNL A   1      35.176  32.309  30.736  1.00  0.00     0.010 A 
ATOM     40  C   UNL A   1      36.694  33.612  29.376  1.00  0.00     0.010 A 
ATOM     41  C   UNL A   1      36.489  32.614  30.341  1.00  0.00    -0.014 A 
BRANCH  41  42
ATOM     42  C   UNL A   1      37.648  31.874  30.909  1.00  0.00     0.031 A 
ATOM     43  C   UNL A   1      38.172  32.196  32.281  1.00  0.00     0.074 A 
ATOM     44  C   UNL A   1      38.269  30.942  30.159  1.00  0.00     0.049 A 
ATOM     45  N   UNL A   1      39.206  31.694  32.909  1.00  0.00    -0.248 NA
ATOM     46  C   UNL A   1      37.451  33.230  33.040  1.00  0.00     0.031 C 
ATOM     47  C   UNL A   1      37.887  30.561  28.799  1.00  0.00     0.029 A 
ATOM     48  N   UNL A   1      39.361  30.155  30.432  1.00  0.00    -0.354 N 
ATOM     49  C   UNL A   1      39.268  32.356  34.129  1.00  0.00     0.074 A 
ATOM     50  C   UNL A   1      38.190  33.323  34.138  1.00  0.00     0.031 C 
ATOM     51  C   UNL A   1      38.721  29.604  28.362  1.00  0.00     0.029 A 
ATOM     52  C   UNL A   1      39.717  29.330  29.393  1.00  0.00     0.049 A 
ATOM     53  H   UNL A   1      39.843  30.182  31.290  1.00  0.00     0.167 HD
ATOM     54  C   UNL A   1      40.133  32.164  35.155  1.00  0.00     0.037 A 
ATOM     55  C   UNL A   1      40.736  28.458  29.277  1.00  0.00     0.037 A 
ATOM     56  C   UNL A   1      41.192  31.188  35.159  1.00  0.00     0.049 A 
ATOM     57  C   UNL A   1      41.690  28.275  30.423  1.00  0.00     0.074 A 
ATOM     58  C   UNL A   1      42.073  30.877  36.181  1.00  0.00     0.029 A 
ATOM     59  N   UNL A   1      41.520  30.370  34.088  1.00  0.00    -0.354 N 
ATOM     60  N   UNL A   1      41.696  28.863  31.595  1.00  0.00    -0.248 NA
ATOM     61  C   UNL A   1      42.779  27.307  30.230  1.00  0.00     0.031 C 
ATOM     62  C   UNL A   1      42.960  29.901  35.714  1.00  0.00     0.029 A 
ATOM     63  C   UNL A   1      42.606  29.574  34.415  1.00  0.00     0.049 A 
ATOM     64  H   UNL A   1      41.049  30.356  33.224  1.00  0.00     0.167 HD
ATOM     65  C   UNL A   1      42.773  28.323  32.284  1.00  0.00     0.074 A 
ATOM     66  C   UNL A   1      43.389  27.350  31.407  1.00  0.00     0.031 C 
ATOM     67  C   UNL A   1      43.214  28.612  33.533  1.00  0.00     0.037 A 
BRANCH  54  68
ATOM     68  C   UNL A   1      39.971  33.033  36.369  1.00  0.00     0.057 A 
ATOM     69  C   UNL A   1      39.075  32.705  37.395  1.00  0.00     0.134 A 
ATOM     70  C   UNL A   1      40.755  34.181  36.536  1.00  0.00     0.134 A 
ATOM     71  F   UNL A   1      38.290  31.623  37.293  1.00  0.00    -0.206 F 
ATOM     72  C   UNL A   1      38.948  33.502  38.535  1.00  0.00     0.040 A 
ATOM     73  C   UNL A   1      40.654  34.972  37.682  1.00  0.00     0.040 A 
ATOM     74  F   UNL A   1      41.639  34.546  35.596  1.00  0.00    -0.206 F 
ATOM     75  C   UNL A   1      39.745  34.636  38.684  1.00  0.00     0.006 A 
ENDBRANCH  54  68
BRANCH  55  76
ATOM     76  C   UNL A   1      40.904  27.681  28.024  1.00  0.00     0.057 A 
ATOM     77  C   UNL A   1      40.311  26.423  27.873  1.00  0.00     0.134 A 
ATOM     78  C   UNL A   1      41.658  28.175  26.954  1.00  0.00     0.134 A 
ATOM     79  F   UNL A   1      39.594  25.890  28.872  1.00  0.00    -0.206 F 
ATOM     80  C   UNL A   1      40.473  25.676  26.705  1.00  0.00     0.040 A 
ATOM     81  C   UNL A   1      41.809  27.449  25.772  1.00  0.00     0.040 A 
ATOM     82  F   UNL A   1      42.246  29.377  27.038  1.00  0.00    -0.206 F 
ATOM     83  C   UNL A   1      41.221  26.193  25.648  1.00  0.00     0.006 A 
ENDBRANCH  55  76
BRANCH  67  84
ATOM     84  C   UNL A   1      44.409  27.853  34.030  1.00  0.00     0.057 A 
ATOM     85  C   UNL A   1      45.709  28.352  33.886  1.00  0.00     0.134 A 
ATOM     86  C   UNL A   1      44.256  26.624  34.684  1.00  0.00     0.134 A 
ATOM     87  F   UNL A   1      45.925  29.517  33.255  1.00  0.00    -0.206 F 
ATOM     88  C   UNL A   1      46.817  27.646  34.357  1.00  0.00     0.040 A 
ATOM     89  C   UNL A   1      45.354  25.921  35.181  1.00  0.00     0.040 A 
ATOM     90  F   UNL A   1      43.036  26.094  34.861  1.00  0.00    -0.206 F 
ATOM     91  C   UNL A   1      46.640  26.429  35.013  1.00  0.00     0.006 A 
ENDBRANCH  67  84
ENDBRANCH  41  42
ENDBRANCH  33  36
ENDBRANCH  31  32
ENDBRANCH  30  31
ENDBRANCH  29  30
ENDBRANCH   3  29
TORSDOF 16
ENDMDL
MODEL 3
REMARK VINA RESULT:     -12.4      1.688      6.267
REMARK SMILES CN(C)c1ccc(CCC(=O)N2C[C@@H](C(=O)NCCCNC(=O)c3ccc(-c4c5nc(c(-c6c(F)cccc6F)c6ccc([nH]6)c(-c6c(F)cccc6F)c6nc(c(-c7c(F)cccc7F)c7ccc4[nH]7)C=C6)C=C5)cc3)[C@H](c3cccnc3)C2)cc1
REMARK SMILES IDX 15 1 16 2 17 3 14 5 12 6 13 7 85 8 78 9 10 10 11 11 9 12
REMARK SMILES IDX 8 13 7 14 4 15 5 16 87 17 6 18 86 19 2 20 1 21 3 22 79 23
REMARK SMILES IDX 80 24 84 25 81 26 83 27 82 28 18 29 19 30 20 31 21 32 22 33
REMARK SMILES IDX 23 35 24 36 25 37 77 38 26 39 76 40 27 41 28 42 29 43 70 44
REMARK SMILES IDX 30 45 75 46 69 47 71 48 31 49 74 50 68 51 67 52 32 54 58 55
REMARK SMILES IDX 41 56 57 57 42 58 45 59 56 60 72 61 43 62 44 63 55 65 73 66
REMARK SMILES IDX 46 67 33 68 34 69 39 70 35 71 36 72 38 73 40 74 37 75 59 76
REMARK SMILES IDX 60 77 65 78 61 79 62 80 64 81 66 82 63 83 47 84 48 85 53 86
REMARK SMILES IDX 49 87 50 88 52 89 54 90 51 91
REMARK H PARENT 17 4 21 34 71 53 45 64
REMARK Flexibility Score: inf
ROOT
ATOM      1  C   UNL A   1      35.510  22.268  25.322  1.00  0.00     0.225 C 
ATOM      2  O   UNL A   1      35.975  23.322  25.765  1.00  0.00    -0.275 OA
ATOM      3  N   UNL A   1      36.092  21.109  25.725  1.00  0.00    -0.356 N 
ATOM      4  H   UNL A   1      36.385  21.096  26.665  1.00  0.00     0.163 HD
ENDROOT
BRANCH   1   5
ATOM      5  C   UNL A   1      34.269  22.317  24.462  1.00  0.00     0.107 C 
ATOM      6  N   UNL A   1      32.739  23.860  23.601  1.00  0.00    -0.341 N 
ATOM      7  C   UNL A   1      34.088  23.743  24.044  1.00  0.00     0.133 C 
ATOM      8  C   UNL A   1      31.920  22.787  24.161  1.00  0.00     0.128 C 
ATOM      9  C   UNL A   1      32.894  21.846  24.947  1.00  0.00     0.054 C 
BRANCH   6  10
ATOM     10  C   UNL A   1      32.274  24.902  22.830  1.00  0.00     0.222 C 
ATOM     11  O   UNL A   1      33.015  25.496  22.044  1.00  0.00    -0.275 OA
BRANCH  10  12
ATOM     12  C   UNL A   1      30.841  25.413  23.089  1.00  0.00     0.105 C 
BRANCH  12  13
ATOM     13  C   UNL A   1      30.397  25.744  24.529  1.00  0.00     0.045 C 
BRANCH  13  14
ATOM     14  C   UNL A   1      31.008  26.975  25.180  1.00  0.00    -0.047 A 
ATOM     15  C   UNL A   1      31.831  29.388  26.462  1.00  0.00     0.036 A 
ATOM     16  C   UNL A   1      31.525  29.358  25.097  1.00  0.00     0.026 A 
ATOM     17  C   UNL A   1      31.793  28.174  27.160  1.00  0.00     0.026 A 
ATOM     18  C   UNL A   1      31.125  28.172  24.461  1.00  0.00     0.006 A 
ATOM     19  C   UNL A   1      31.411  26.978  26.526  1.00  0.00     0.006 A 
BRANCH  15  20
ATOM     20  N   UNL A   1      32.214  30.591  27.059  1.00  0.00    -0.378 N 
ATOM     21  C   UNL A   1      31.502  31.761  26.565  1.00  0.00     0.143 C 
ATOM     22  C   UNL A   1      33.631  30.785  27.356  1.00  0.00     0.143 C 
ENDBRANCH  15  20
ENDBRANCH  13  14
ENDBRANCH  12  13
ENDBRANCH  10  12
ENDBRANCH   6  10
BRANCH   9  23
ATOM     23  C   UNL A   1      32.779  20.341  24.750  1.00  0.00    -0.024 A 
ATOM     24  C   UNL A   1      32.652  19.802  23.454  1.00  0.00     0.007 A 
ATOM     25  C   UNL A   1      32.778  19.417  25.788  1.00  0.00     0.115 A 
ATOM     26  C   UNL A   1      32.451  18.443  23.253  1.00  0.00     0.020 A 
ATOM     27  N   UNL A   1      32.603  18.082  25.623  1.00  0.00    -0.264 NA
ATOM     28  C   UNL A   1      32.424  17.629  24.364  1.00  0.00     0.111 A 
ENDBRANCH   9  23
ENDBRANCH   1   5
BRANCH   3  29
ATOM     29  C   UNL A   1      36.349  19.888  24.988  1.00  0.00     0.117 C 
BRANCH  29  30
ATOM     30  C   UNL A   1      37.830  19.807  24.605  1.00  0.00     0.042 C 
BRANCH  30  31
ATOM     31  C   UNL A   1      38.782  20.110  25.768  1.00  0.00     0.118 C 
BRANCH  31  32
ATOM     32  N   UNL A   1      39.871  19.151  25.844  1.00  0.00    -0.352 N 
ATOM     33  C   UNL A   1      41.213  19.362  26.051  1.00  0.00     0.251 C 
ATOM     34  H   UNL A   1      39.608  18.209  25.730  1.00  0.00     0.163 HD
ATOM     35  O   UNL A   1      42.007  18.451  25.844  1.00  0.00    -0.269 OA
BRANCH  33  36
ATOM     36  C   UNL A   1      41.714  20.680  26.505  1.00  0.00     0.039 A 
ATOM     37  C   UNL A   1      42.096  21.619  25.541  1.00  0.00     0.014 A 
ATOM     38  C   UNL A   1      41.871  20.976  27.863  1.00  0.00     0.014 A 
ATOM     39  C   UNL A   1      42.579  22.870  25.937  1.00  0.00     0.010 A 
ATOM     40  C   UNL A   1      42.302  22.245  28.257  1.00  0.00     0.010 A 
ATOM     41  C   UNL A   1      42.658  23.206  27.298  1.00  0.00    -0.014 A 
BRANCH  41  42
ATOM     42  C   UNL A   1      43.084  24.565  27.725  1.00  0.00     0.031 A 
ATOM     43  C   UNL A   1      42.070  25.601  28.127  1.00  0.00     0.074 A 
ATOM     44  C   UNL A   1      44.392  24.888  27.698  1.00  0.00     0.049 A 
ATOM     45  N   UNL A   1      42.258  26.851  28.470  1.00  0.00    -0.248 NA
ATOM     46  C   UNL A   1      40.660  25.183  28.126  1.00  0.00     0.031 C 
ATOM     47  C   UNL A   1      45.475  23.990  27.292  1.00  0.00     0.029 A 
ATOM     48  N   UNL A   1      45.032  26.064  28.006  1.00  0.00    -0.354 N 
ATOM     49  C   UNL A   1      40.994  27.373  28.715  1.00  0.00     0.074 A 
ATOM     50  C   UNL A   1      40.043  26.314  28.443  1.00  0.00     0.031 C 
ATOM     51  C   UNL A   1      46.644  24.642  27.390  1.00  0.00     0.029 A 
ATOM     52  C   UNL A   1      46.393  26.012  27.829  1.00  0.00     0.049 A 
ATOM     53  H   UNL A   1      44.558  26.867  28.323  1.00  0.00     0.167 HD
ATOM     54  C   UNL A   1      40.656  28.614  29.142  1.00  0.00     0.037 A 
ATOM     55  C   UNL A   1      47.334  26.961  27.990  1.00  0.00     0.037 A 
ATOM     56  C   UNL A   1      41.600  29.662  29.434  1.00  0.00     0.049 A 
ATOM     57  C   UNL A   1      46.932  28.334  28.450  1.00  0.00     0.074 A 
ATOM     58  C   UNL A   1      41.353  30.928  29.937  1.00  0.00     0.029 A 
ATOM     59  N   UNL A   1      42.970  29.570  29.243  1.00  0.00    -0.354 N 
ATOM     60  N   UNL A   1      45.737  28.791  28.739  1.00  0.00    -0.248 NA
ATOM     61  C   UNL A   1      48.009  29.321  28.607  1.00  0.00     0.031 C 
ATOM     62  C   UNL A   1      42.569  31.616  30.010  1.00  0.00     0.029 A 
ATOM     63  C   UNL A   1      43.578  30.765  29.593  1.00  0.00     0.049 A 
ATOM     64  H   UNL A   1      43.442  28.773  28.910  1.00  0.00     0.167 HD
ATOM     65  C   UNL A   1      45.922  30.110  29.129  1.00  0.00     0.074 A 
ATOM     66  C   UNL A   1      47.343  30.376  29.056  1.00  0.00     0.031 C 
ATOM     67  C   UNL A   1      44.993  31.021  29.512  1.00  0.00     0.037 A 
BRANCH  54  68
ATOM     68  C   UNL A   1      39.195  28.912  29.321  1.00  0.00     0.057 A 
ATOM     69  C   UNL A   1      38.552  28.730  30.552  1.00  0.00     0.134 A 
ATOM     70  C   UNL A   1      38.437  29.431  28.265  1.00  0.00     0.134 A 
ATOM     71  F   UNL A   1      39.220  28.229  31.602  1.00  0.00    -0.206 F 
ATOM     72  C   UNL A   1      37.200  29.034  30.720  1.00  0.00     0.040 A 
ATOM     73  C   UNL A   1      37.090  29.762  28.428  1.00  0.00     0.040 A 
ATOM     74  F   UNL A   1      38.993  29.638  27.063  1.00  0.00    -0.206 F 
ATOM     75  C   UNL A   1      36.467  29.559  29.658  1.00  0.00     0.006 A 
ENDBRANCH  54  68
BRANCH  55  76
ATOM     76  C   UNL A   1      48.757  26.642  27.721  1.00  0.00     0.057 A 
ATOM     77  C   UNL A   1      49.321  26.869  26.461  1.00  0.00     0.134 A 
ATOM     78  C   UNL A   1      49.585  26.104  28.713  1.00  0.00     0.134 A 
ATOM     79  F   UNL A   1      48.571  27.364  25.465  1.00  0.00    -0.206 F 
ATOM     80  C   UNL A   1      50.654  26.559  26.191  1.00  0.00     0.040 A 
ATOM     81  C   UNL A   1      50.927  25.811  28.464  1.00  0.00     0.040 A 
ATOM     82  F   UNL A   1      49.104  25.868  29.942  1.00  0.00    -0.206 F 
ATOM     83  C   UNL A   1      51.462  26.032  27.198  1.00  0.00     0.006 A 
ENDBRANCH  55  76
BRANCH  67  84
ATOM     84  C   UNL A   1      45.489  32.384  29.896  1.00  0.00     0.057 A 
ATOM     85  C   UNL A   1      45.883  32.681  31.206  1.00  0.00     0.134 A 
ATOM     86  C   UNL A   1      45.599  33.402  28.940  1.00  0.00     0.134 A 
ATOM     87  F   UNL A   1      45.788  31.753  32.171  1.00  0.00    -0.206 F 
ATOM     88  C   UNL A   1      46.352  33.948  31.557  1.00  0.00     0.040 A 
ATOM     89  C   UNL A   1      46.088  34.666  29.274  1.00  0.00     0.040 A 
ATOM     90  F   UNL A   1      45.243  33.181  27.665  1.00  0.00    -0.206 F 
ATOM     91  C   UNL A   1      46.461  34.943  30.587  1.00  0.00     0.006 A 
ENDBRANCH  67  84
ENDBRANCH  41  42
ENDBRANCH  33  36
ENDBRANCH  31  32
ENDBRANCH  30  31
ENDBRANCH  29  30
ENDBRANCH   3  29
TORSDOF 16
ENDMDL
