MODEL 1
REMARK VINA RESULT:     -12.0      0.000      0.000
REMARK SMILES O=C(Cc1cccn1-c1ccc2c(c1)OCCO2)NCCCNC(=O)c1ccc(-c2c3nc(c(-c4c(F)cccc4F)c4ccc([nH]4)c(-c4c(F)cccc4F)c4nc(c(-c5c(F)cccc5F)c5ccc2[nH]5)C=C4)C=C3)cc1
REMARK SMILES IDX 21 1 20 2 19 3 1 4 2 5 3 7 4 8 5 9 8 10 6 11 7 12 9 13 10 14
REMARK SMILES IDX 14 15 11 16 13 17 12 18 15 19 18 20 16 21 17 22 22 23 23 24
REMARK SMILES IDX 24 25 25 27 26 28 27 29 79 30 28 31 78 32 29 33 30 34 31 35
REMARK SMILES IDX 72 36 32 37 77 38 71 39 73 40 33 41 76 42 70 43 69 44 34 46
REMARK SMILES IDX 60 47 43 48 59 49 44 50 47 51 58 52 74 53 45 54 46 55 57 57
REMARK SMILES IDX 75 58 48 59 35 60 36 61 41 62 37 63 38 64 40 65 42 66 39 67
REMARK SMILES IDX 61 68 62 69 67 70 63 71 64 72 66 73 68 74 65 75 49 76 50 77
REMARK SMILES IDX 55 78 51 79 52 80 54 81 56 82 53 83
REMARK H PARENT 19 6 23 26 73 45 47 56
REMARK Flexibility Score: inf
ROOT
ATOM      1  C   UNL A   1      33.145  29.081  27.068  1.00  0.00     0.042 C 
ENDROOT
BRANCH   1   2
ATOM      2  C   UNL A   1      32.523  30.015  26.030  1.00  0.00     0.117 C 
BRANCH   2   3
ATOM      3  N   UNL A   1      31.965  29.297  24.901  1.00  0.00    -0.356 N 
ATOM      4  O   UNL A   1      33.867  29.333  23.609  1.00  0.00    -0.275 OA
ATOM      5  C   UNL A   1      32.711  28.964  23.787  1.00  0.00     0.225 C 
ATOM      6  H   UNL A   1      31.017  29.037  24.931  1.00  0.00     0.163 HD
BRANCH   5   7
ATOM      7  C   UNL A   1      31.959  28.116  22.771  1.00  0.00     0.154 C 
BRANCH   7   8
ATOM      8  C   UNL A   1      30.852  27.301  23.395  1.00  0.00     0.032 A 
ATOM      9  C   UNL A   1      29.480  27.516  23.378  1.00  0.00     0.024 A 
ATOM     10  N   UNL A   1      31.061  26.056  23.985  1.00  0.00    -0.320 N 
ATOM     11  C   UNL A   1      28.842  26.352  23.850  1.00  0.00     0.020 A 
ATOM     12  C   UNL A   1      29.832  25.454  24.164  1.00  0.00     0.091 A 
BRANCH  10  13
ATOM     13  C   UNL A   1      32.288  25.454  24.361  1.00  0.00     0.049 A 
ATOM     14  C   UNL A   1      32.769  25.621  25.667  1.00  0.00     0.031 A 
ATOM     15  C   UNL A   1      33.049  24.763  23.411  1.00  0.00     0.077 A 
ATOM     16  C   UNL A   1      33.995  25.061  26.032  1.00  0.00     0.052 A 
ATOM     17  C   UNL A   1      34.282  24.226  23.778  1.00  0.00     0.163 A 
ATOM     18  C   UNL A   1      34.758  24.381  25.084  1.00  0.00     0.161 A 
ATOM     19  O   UNL A   1      34.987  23.583  22.793  1.00  0.00    -0.486 OA
ATOM     20  O   UNL A   1      35.970  23.897  25.504  1.00  0.00    -0.486 OA
ATOM     21  C   UNL A   1      36.072  22.818  23.330  1.00  0.00     0.271 C 
ATOM     22  C   UNL A   1      36.823  23.606  24.391  1.00  0.00     0.271 C 
ENDBRANCH  10  13
ENDBRANCH   7   8
ENDBRANCH   5   7
ENDBRANCH   2   3
ENDBRANCH   1   2
BRANCH   1  23
ATOM     23  C   UNL A   1      34.675  29.056  27.027  1.00  0.00     0.118 C 
BRANCH  23  24
ATOM     24  N   UNL A   1      35.240  30.380  27.222  1.00  0.00    -0.352 N 
ATOM     25  C   UNL A   1      36.346  30.787  27.927  1.00  0.00     0.251 C 
ATOM     26  H   UNL A   1      34.750  31.106  26.772  1.00  0.00     0.163 HD
ATOM     27  O   UNL A   1      36.421  31.965  28.260  1.00  0.00    -0.269 OA
BRANCH  25  28
ATOM     28  C   UNL A   1      37.445  29.864  28.295  1.00  0.00     0.039 A 
ATOM     29  C   UNL A   1      38.543  29.780  27.422  1.00  0.00     0.014 A 
ATOM     30  C   UNL A   1      37.372  29.007  29.397  1.00  0.00     0.014 A 
ATOM     31  C   UNL A   1      39.584  28.891  27.681  1.00  0.00     0.010 A 
ATOM     32  C   UNL A   1      38.418  28.130  29.672  1.00  0.00     0.010 A 
ATOM     33  C   UNL A   1      39.533  28.089  28.824  1.00  0.00    -0.014 A 
BRANCH  33  34
ATOM     34  C   UNL A   1      40.757  27.385  29.272  1.00  0.00     0.031 A 
ATOM     35  C   UNL A   1      41.006  26.108  28.423  1.00  0.00     0.074 A 
ATOM     36  C   UNL A   1      41.467  27.967  30.289  1.00  0.00     0.049 A 
ATOM     37  N   UNL A   1      41.804  25.106  28.625  1.00  0.00    -0.248 NA
ATOM     38  C   UNL A   1      40.233  25.908  27.159  1.00  0.00     0.031 C 
ATOM     39  C   UNL A   1      41.090  29.232  30.963  1.00  0.00     0.029 A 
ATOM     40  N   UNL A   1      42.633  27.647  30.961  1.00  0.00    -0.354 N 
ATOM     41  C   UNL A   1      41.812  24.317  27.447  1.00  0.00     0.074 A 
ATOM     42  C   UNL A   1      40.747  24.798  26.629  1.00  0.00     0.031 C 
ATOM     43  C   UNL A   1      41.941  29.519  31.975  1.00  0.00     0.029 A 
ATOM     44  C   UNL A   1      42.972  28.502  32.051  1.00  0.00     0.049 A 
ATOM     45  H   UNL A   1      43.192  26.879  30.704  1.00  0.00     0.167 HD
ATOM     46  C   UNL A   1      42.798  23.414  27.158  1.00  0.00     0.037 A 
ATOM     47  C   UNL A   1      43.994  28.384  32.960  1.00  0.00     0.037 A 
ATOM     48  C   UNL A   1      43.689  23.314  28.260  1.00  0.00     0.049 A 
ATOM     49  C   UNL A   1      44.853  27.328  32.418  1.00  0.00     0.074 A 
ATOM     50  C   UNL A   1      43.532  22.788  29.514  1.00  0.00     0.029 A 
ATOM     51  N   UNL A   1      44.781  24.144  28.242  1.00  0.00    -0.354 N 
ATOM     52  N   UNL A   1      45.641  27.484  31.399  1.00  0.00    -0.248 NA
ATOM     53  C   UNL A   1      44.790  25.987  33.009  1.00  0.00     0.031 C 
ATOM     54  C   UNL A   1      44.218  23.710  30.325  1.00  0.00     0.029 A 
ATOM     55  C   UNL A   1      44.968  24.582  29.526  1.00  0.00     0.049 A 
ATOM     56  H   UNL A   1      45.326  24.379  27.458  1.00  0.00     0.167 HD
ATOM     57  C   UNL A   1      45.869  26.186  31.021  1.00  0.00     0.074 A 
ATOM     58  C   UNL A   1      45.633  25.364  32.189  1.00  0.00     0.031 C 
ATOM     59  C   UNL A   1      45.654  25.833  29.728  1.00  0.00     0.037 A 
BRANCH  46  60
ATOM     60  C   UNL A   1      43.234  22.753  25.879  1.00  0.00     0.057 A 
ATOM     61  C   UNL A   1      43.385  21.344  25.872  1.00  0.00     0.134 A 
ATOM     62  C   UNL A   1      43.861  23.434  24.831  1.00  0.00     0.134 A 
ATOM     63  F   UNL A   1      42.787  20.580  26.801  1.00  0.00    -0.206 F 
ATOM     64  C   UNL A   1      44.226  20.678  24.979  1.00  0.00     0.040 A 
ATOM     65  C   UNL A   1      44.670  22.769  23.898  1.00  0.00     0.040 A 
ATOM     66  F   UNL A   1      43.797  24.768  24.728  1.00  0.00    -0.206 F 
ATOM     67  C   UNL A   1      44.893  21.398  23.999  1.00  0.00     0.006 A 
ENDBRANCH  46  60
BRANCH  47  68
ATOM     68  C   UNL A   1      44.459  28.964  34.284  1.00  0.00     0.057 A 
ATOM     69  C   UNL A   1      45.495  29.880  34.469  1.00  0.00     0.134 A 
ATOM     70  C   UNL A   1      43.736  28.675  35.481  1.00  0.00     0.134 A 
ATOM     71  F   UNL A   1      46.345  30.180  33.482  1.00  0.00    -0.206 F 
ATOM     72  C   UNL A   1      45.711  30.536  35.704  1.00  0.00     0.040 A 
ATOM     73  C   UNL A   1      43.902  29.356  36.691  1.00  0.00     0.040 A 
ATOM     74  F   UNL A   1      42.808  27.710  35.539  1.00  0.00    -0.206 F 
ATOM     75  C   UNL A   1      44.886  30.313  36.802  1.00  0.00     0.006 A 
ENDBRANCH  47  68
BRANCH  59  76
ATOM     76  C   UNL A   1      45.788  26.974  28.733  1.00  0.00     0.057 A 
ATOM     77  C   UNL A   1      47.021  27.624  28.577  1.00  0.00     0.134 A 
ATOM     78  C   UNL A   1      44.722  27.536  28.014  1.00  0.00     0.134 A 
ATOM     79  F   UNL A   1      48.113  27.153  29.199  1.00  0.00    -0.206 F 
ATOM     80  C   UNL A   1      47.172  28.774  27.788  1.00  0.00     0.040 A 
ATOM     81  C   UNL A   1      44.855  28.682  27.215  1.00  0.00     0.040 A 
ATOM     82  F   UNL A   1      43.504  26.999  28.061  1.00  0.00    -0.206 F 
ATOM     83  C   UNL A   1      46.085  29.312  27.108  1.00  0.00     0.006 A 
ENDBRANCH  59  76
ENDBRANCH  33  34
ENDBRANCH  25  28
ENDBRANCH  23  24
ENDBRANCH   1  23
TORSDOF 12
ENDMDL
MODEL 2
REMARK VINA RESULT:     -11.9      2.147      3.132
REMARK SMILES O=C(Cc1cccn1-c1ccc2c(c1)OCCO2)NCCCNC(=O)c1ccc(-c2c3nc(c(-c4c(F)cccc4F)c4ccc([nH]4)c(-c4c(F)cccc4F)c4nc(c(-c5c(F)cccc5F)c5ccc2[nH]5)C=C4)C=C3)cc1
REMARK SMILES IDX 21 1 20 2 19 3 1 4 2 5 3 7 4 8 5 9 8 10 6 11 7 12 9 13 10 14
REMARK SMILES IDX 14 15 11 16 13 17 12 18 15 19 18 20 16 21 17 22 22 23 23 24
REMARK SMILES IDX 24 25 25 27 26 28 27 29 79 30 28 31 78 32 29 33 30 34 31 35
REMARK SMILES IDX 72 36 32 37 77 38 71 39 73 40 33 41 76 42 70 43 69 44 34 46
REMARK SMILES IDX 60 47 43 48 59 49 44 50 47 51 58 52 74 53 45 54 46 55 57 57
REMARK SMILES IDX 75 58 48 59 35 60 36 61 41 62 37 63 38 64 40 65 42 66 39 67
REMARK SMILES IDX 61 68 62 69 67 70 63 71 64 72 66 73 68 74 65 75 49 76 50 77
REMARK SMILES IDX 55 78 51 79 52 80 54 81 56 82 53 83
REMARK H PARENT 19 6 23 26 73 45 47 56
REMARK Flexibility Score: inf
ROOT
ATOM      1  C   UNL A   1      34.068  28.529  25.686  1.00  0.00     0.042 C 
ENDROOT
BRANCH   1   2
ATOM      2  C   UNL A   1      32.937  27.505  25.577  1.00  0.00     0.117 C 
BRANCH   2   3
ATOM      3  N   UNL A   1      33.293  26.223  26.151  1.00  0.00    -0.356 N 
ATOM      4  O   UNL A   1      33.420  25.077  24.162  1.00  0.00    -0.275 OA
ATOM      5  C   UNL A   1      33.561  25.109  25.380  1.00  0.00     0.225 C 
ATOM      6  H   UNL A   1      33.347  26.144  27.131  1.00  0.00     0.163 HD
BRANCH   5   7
ATOM      7  C   UNL A   1      34.022  23.898  26.180  1.00  0.00     0.154 C 
BRANCH   7   8
ATOM      8  C   UNL A   1      35.385  23.406  25.760  1.00  0.00     0.032 A 
ATOM      9  C   UNL A   1      36.600  24.080  25.738  1.00  0.00     0.024 A 
ATOM     10  N   UNL A   1      35.656  22.072  25.460  1.00  0.00    -0.320 N 
ATOM     11  C   UNL A   1      37.628  23.137  25.540  1.00  0.00     0.020 A 
ATOM     12  C   UNL A   1      37.027  21.909  25.427  1.00  0.00     0.091 A 
BRANCH  10  13
ATOM     13  C   UNL A   1      34.738  21.019  25.219  1.00  0.00     0.049 A 
ATOM     14  C   UNL A   1      33.372  21.225  25.458  1.00  0.00     0.031 A 
ATOM     15  C   UNL A   1      35.204  19.762  24.819  1.00  0.00     0.077 A 
ATOM     16  C   UNL A   1      32.468  20.180  25.258  1.00  0.00     0.052 A 
ATOM     17  C   UNL A   1      34.297  18.718  24.643  1.00  0.00     0.163 A 
ATOM     18  C   UNL A   1      32.932  18.924  24.869  1.00  0.00     0.161 A 
ATOM     19  O   UNL A   1      34.823  17.505  24.275  1.00  0.00    -0.486 OA
ATOM     20  O   UNL A   1      31.991  17.936  24.736  1.00  0.00    -0.486 OA
ATOM     21  C   UNL A   1      33.807  16.600  23.831  1.00  0.00     0.271 C 
ATOM     22  C   UNL A   1      32.599  16.640  24.752  1.00  0.00     0.271 C 
ENDBRANCH  10  13
ENDBRANCH   7   8
ENDBRANCH   5   7
ENDBRANCH   2   3
ENDBRANCH   1   2
BRANCH   1  23
ATOM     23  C   UNL A   1      34.368  28.955  27.125  1.00  0.00     0.118 C 
BRANCH  23  24
ATOM     24  N   UNL A   1      34.925  30.296  27.184  1.00  0.00    -0.352 N 
ATOM     25  C   UNL A   1      36.055  30.771  27.803  1.00  0.00     0.251 C 
ATOM     26  H   UNL A   1      34.406  30.978  26.698  1.00  0.00     0.163 HD
ATOM     27  O   UNL A   1      36.130  31.972  28.035  1.00  0.00    -0.269 OA
BRANCH  25  28
ATOM     28  C   UNL A   1      37.181  29.890  28.197  1.00  0.00     0.039 A 
ATOM     29  C   UNL A   1      38.278  29.808  27.323  1.00  0.00     0.014 A 
ATOM     30  C   UNL A   1      37.136  29.070  29.328  1.00  0.00     0.014 A 
ATOM     31  C   UNL A   1      39.344  28.957  27.606  1.00  0.00     0.010 A 
ATOM     32  C   UNL A   1      38.206  28.231  29.627  1.00  0.00     0.010 A 
ATOM     33  C   UNL A   1      39.319  28.193  28.776  1.00  0.00    -0.014 A 
BRANCH  33  34
ATOM     34  C   UNL A   1      40.563  27.539  29.242  1.00  0.00     0.031 A 
ATOM     35  C   UNL A   1      40.850  26.247  28.428  1.00  0.00     0.074 A 
ATOM     36  C   UNL A   1      41.256  28.169  30.242  1.00  0.00     0.049 A 
ATOM     37  N   UNL A   1      41.678  25.275  28.656  1.00  0.00    -0.248 NA
ATOM     38  C   UNL A   1      40.084  25.990  27.170  1.00  0.00     0.031 C 
ATOM     39  C   UNL A   1      40.841  29.440  30.882  1.00  0.00     0.029 A 
ATOM     40  N   UNL A   1      42.431  27.903  30.922  1.00  0.00    -0.354 N 
ATOM     41  C   UNL A   1      41.711  24.455  27.499  1.00  0.00     0.074 A 
ATOM     42  C   UNL A   1      40.631  24.882  26.670  1.00  0.00     0.031 C 
ATOM     43  C   UNL A   1      41.683  29.780  31.885  1.00  0.00     0.029 A 
ATOM     44  C   UNL A   1      42.744  28.797  31.987  1.00  0.00     0.049 A 
ATOM     45  H   UNL A   1      43.013  27.145  30.685  1.00  0.00     0.167 HD
ATOM     46  C   UNL A   1      42.723  23.575  27.235  1.00  0.00     0.037 A 
ATOM     47  C   UNL A   1      43.770  28.735  32.899  1.00  0.00     0.037 A 
ATOM     48  C   UNL A   1      43.617  23.531  28.338  1.00  0.00     0.049 A 
ATOM     49  C   UNL A   1      44.659  27.691  32.385  1.00  0.00     0.074 A 
ATOM     50  C   UNL A   1      43.476  23.035  29.606  1.00  0.00     0.029 A 
ATOM     51  N   UNL A   1      44.683  24.393  28.297  1.00  0.00    -0.354 N 
ATOM     52  N   UNL A   1      45.443  27.842  31.361  1.00  0.00    -0.248 NA
ATOM     53  C   UNL A   1      44.637  26.365  33.012  1.00  0.00     0.031 C 
ATOM     54  C   UNL A   1      44.133  24.000  30.391  1.00  0.00     0.029 A 
ATOM     55  C   UNL A   1      44.857  24.871  29.568  1.00  0.00     0.049 A 
ATOM     56  H   UNL A   1      45.221  24.624  27.506  1.00  0.00     0.167 HD
ATOM     57  C   UNL A   1      45.709  26.542  31.019  1.00  0.00     0.074 A 
ATOM     58  C   UNL A   1      45.499  25.745  32.209  1.00  0.00     0.031 C 
ATOM     59  C   UNL A   1      45.505  26.148  29.735  1.00  0.00     0.037 A 
BRANCH  46  60
ATOM     60  C   UNL A   1      43.178  22.894  25.973  1.00  0.00     0.057 A 
ATOM     61  C   UNL A   1      43.322  21.483  25.990  1.00  0.00     0.134 A 
ATOM     62  C   UNL A   1      43.828  23.555  24.927  1.00  0.00     0.134 A 
ATOM     63  F   UNL A   1      42.703  20.736  26.919  1.00  0.00    -0.206 F 
ATOM     64  C   UNL A   1      44.177  20.800  25.122  1.00  0.00     0.040 A 
ATOM     65  C   UNL A   1      44.651  22.872  24.019  1.00  0.00     0.040 A 
ATOM     66  F   UNL A   1      43.773  24.888  24.804  1.00  0.00    -0.206 F 
ATOM     67  C   UNL A   1      44.864  21.502  24.144  1.00  0.00     0.006 A 
ENDBRANCH  46  60
BRANCH  47  68
ATOM     68  C   UNL A   1      44.217  29.363  34.206  1.00  0.00     0.057 A 
ATOM     69  C   UNL A   1      45.195  30.347  34.361  1.00  0.00     0.134 A 
ATOM     70  C   UNL A   1      43.533  29.048  35.419  1.00  0.00     0.134 A 
ATOM     71  F   UNL A   1      46.008  30.685  33.355  1.00  0.00    -0.206 F 
ATOM     72  C   UNL A   1      45.387  31.035  35.581  1.00  0.00     0.040 A 
ATOM     73  C   UNL A   1      43.674  29.757  36.616  1.00  0.00     0.040 A 
ATOM     74  F   UNL A   1      42.669  28.027  35.507  1.00  0.00    -0.206 F 
ATOM     75  C   UNL A   1      44.595  30.777  36.696  1.00  0.00     0.006 A 
ENDBRANCH  47  68
BRANCH  59  76
ATOM     76  C   UNL A   1      45.604  27.265  28.709  1.00  0.00     0.057 A 
ATOM     77  C   UNL A   1      46.819  27.942  28.530  1.00  0.00     0.134 A 
ATOM     78  C   UNL A   1      44.521  27.780  27.981  1.00  0.00     0.134 A 
ATOM     79  F   UNL A   1      47.926  27.518  29.159  1.00  0.00    -0.206 F 
ATOM     80  C   UNL A   1      46.937  29.074  27.710  1.00  0.00     0.040 A 
ATOM     81  C   UNL A   1      44.620  28.907  27.152  1.00  0.00     0.040 A 
ATOM     82  F   UNL A   1      43.318  27.212  28.049  1.00  0.00    -0.206 F 
ATOM     83  C   UNL A   1      45.833  29.566  27.022  1.00  0.00     0.006 A 
ENDBRANCH  59  76
ENDBRANCH  33  34
ENDBRANCH  25  28
ENDBRANCH  23  24
ENDBRANCH   1  23
TORSDOF 12
ENDMDL
MODEL 3
REMARK VINA RESULT:     -11.8      1.151      2.824
REMARK SMILES O=C(Cc1cccn1-c1ccc2c(c1)OCCO2)NCCCNC(=O)c1ccc(-c2c3nc(c(-c4c(F)cccc4F)c4ccc([nH]4)c(-c4c(F)cccc4F)c4nc(c(-c5c(F)cccc5F)c5ccc2[nH]5)C=C4)C=C3)cc1
REMARK SMILES IDX 21 1 20 2 19 3 1 4 2 5 3 7 4 8 5 9 8 10 6 11 7 12 9 13 10 14
REMARK SMILES IDX 14 15 11 16 13 17 12 18 15 19 18 20 16 21 17 22 22 23 23 24
REMARK SMILES IDX 24 25 25 27 26 28 27 29 79 30 28 31 78 32 29 33 30 34 31 35
REMARK SMILES IDX 72 36 32 37 77 38 71 39 73 40 33 41 76 42 70 43 69 44 34 46
REMARK SMILES IDX 60 47 43 48 59 49 44 50 47 51 58 52 74 53 45 54 46 55 57 57
REMARK SMILES IDX 75 58 48 59 35 60 36 61 41 62 37 63 38 64 40 65 42 66 39 67
REMARK SMILES IDX 61 68 62 69 67 70 63 71 64 72 66 73 68 74 65 75 49 76 50 77
REMARK SMILES IDX 55 78 51 79 52 80 54 81 56 82 53 83
REMARK H PARENT 19 6 23 26 73 45 47 56
REMARK Flexibility Score: inf
ROOT
ATOM      1  C   UNL A   1      33.169  29.161  27.254  1.00  0.00     0.042 C 
ENDROOT
BRANCH   1   2
ATOM      2  C   UNL A   1      32.499  27.882  26.749  1.00  0.00     0.117 C 
BRANCH   2   3
ATOM      3  N   UNL A   1      33.096  27.390  25.525  1.00  0.00    -0.356 N 
ATOM      4  O   UNL A   1      33.493  25.252  26.275  1.00  0.00    -0.275 OA
ATOM      5  C   UNL A   1      33.503  26.079  25.368  1.00  0.00     0.225 C 
ATOM      6  H   UNL A   1      33.216  28.014  24.774  1.00  0.00     0.163 HD
BRANCH   5   7
ATOM      7  C   UNL A   1      34.000  25.748  23.968  1.00  0.00     0.154 C 
BRANCH   7   8
ATOM      8  C   UNL A   1      33.271  24.579  23.351  1.00  0.00     0.032 A 
ATOM      9  C   UNL A   1      33.748  23.316  23.020  1.00  0.00     0.024 A 
ATOM     10  N   UNL A   1      31.892  24.556  23.154  1.00  0.00    -0.320 N 
ATOM     11  C   UNL A   1      32.646  22.486  22.734  1.00  0.00     0.020 A 
ATOM     12  C   UNL A   1      31.519  23.256  22.877  1.00  0.00     0.091 A 
BRANCH  10  13
ATOM     13  C   UNL A   1      30.976  25.636  23.214  1.00  0.00     0.049 A 
ATOM     14  C   UNL A   1      29.807  25.510  23.977  1.00  0.00     0.031 A 
ATOM     15  C   UNL A   1      31.202  26.789  22.453  1.00  0.00     0.077 A 
ATOM     16  C   UNL A   1      28.884  26.557  24.010  1.00  0.00     0.052 A 
ATOM     17  C   UNL A   1      30.265  27.820  22.474  1.00  0.00     0.163 A 
ATOM     18  C   UNL A   1      29.103  27.701  23.245  1.00  0.00     0.161 A 
ATOM     19  O   UNL A   1      30.535  28.911  21.687  1.00  0.00    -0.486 OA
ATOM     20  O   UNL A   1      28.131  28.668  23.293  1.00  0.00    -0.486 OA
ATOM     21  C   UNL A   1      29.687  30.019  22.006  1.00  0.00     0.271 C 
ATOM     22  C   UNL A   1      28.246  29.569  22.187  1.00  0.00     0.271 C 
ENDBRANCH  10  13
ENDBRANCH   7   8
ENDBRANCH   5   7
ENDBRANCH   2   3
ENDBRANCH   1   2
BRANCH   1  23
ATOM     23  C   UNL A   1      34.692  29.149  27.107  1.00  0.00     0.118 C 
BRANCH  23  24
ATOM     24  N   UNL A   1      35.263  30.470  27.310  1.00  0.00    -0.352 N 
ATOM     25  C   UNL A   1      36.373  30.868  28.014  1.00  0.00     0.251 C 
ATOM     26  H   UNL A   1      34.773  31.201  26.868  1.00  0.00     0.163 HD
ATOM     27  O   UNL A   1      36.453  32.043  28.356  1.00  0.00    -0.269 OA
BRANCH  25  28
ATOM     28  C   UNL A   1      37.470  29.938  28.370  1.00  0.00     0.039 A 
ATOM     29  C   UNL A   1      38.573  29.871  27.502  1.00  0.00     0.014 A 
ATOM     30  C   UNL A   1      37.392  29.061  29.456  1.00  0.00     0.014 A 
ATOM     31  C   UNL A   1      39.613  28.978  27.749  1.00  0.00     0.010 A 
ATOM     32  C   UNL A   1      38.436  28.179  29.719  1.00  0.00     0.010 A 
ATOM     33  C   UNL A   1      39.556  28.155  28.877  1.00  0.00    -0.014 A 
BRANCH  33  34
ATOM     34  C   UNL A   1      40.778  27.443  29.318  1.00  0.00     0.031 A 
ATOM     35  C   UNL A   1      41.015  26.166  28.466  1.00  0.00     0.074 A 
ATOM     36  C   UNL A   1      41.496  28.019  30.332  1.00  0.00     0.049 A 
ATOM     37  N   UNL A   1      41.808  25.159  28.663  1.00  0.00    -0.248 NA
ATOM     38  C   UNL A   1      40.235  25.973  27.205  1.00  0.00     0.031 C 
ATOM     39  C   UNL A   1      41.130  29.285  31.010  1.00  0.00     0.029 A 
ATOM     40  N   UNL A   1      42.663  27.691  30.999  1.00  0.00    -0.354 N 
ATOM     41  C   UNL A   1      41.807  24.371  27.483  1.00  0.00     0.074 A 
ATOM     42  C   UNL A   1      40.740  24.860  26.671  1.00  0.00     0.031 C 
ATOM     43  C   UNL A   1      41.987  29.565  32.019  1.00  0.00     0.029 A 
ATOM     44  C   UNL A   1      43.012  28.542  32.088  1.00  0.00     0.049 A 
ATOM     45  H   UNL A   1      43.217  26.920  30.738  1.00  0.00     0.167 HD
ATOM     46  C   UNL A   1      42.786  23.464  27.188  1.00  0.00     0.037 A 
ATOM     47  C   UNL A   1      44.038  28.417  32.993  1.00  0.00     0.037 A 
ATOM     48  C   UNL A   1      43.682  23.356  28.286  1.00  0.00     0.049 A 
ATOM     49  C   UNL A   1      44.888  27.357  32.445  1.00  0.00     0.074 A 
ATOM     50  C   UNL A   1      43.527  22.829  29.540  1.00  0.00     0.029 A 
ATOM     51  N   UNL A   1      44.778  24.180  28.265  1.00  0.00    -0.354 N 
ATOM     52  N   UNL A   1      45.672  27.509  31.423  1.00  0.00    -0.248 NA
ATOM     53  C   UNL A   1      44.820  26.015  33.034  1.00  0.00     0.031 C 
ATOM     54  C   UNL A   1      44.221  23.746  30.349  1.00  0.00     0.029 A 
ATOM     55  C   UNL A   1      44.973  24.614  29.548  1.00  0.00     0.049 A 
ATOM     56  H   UNL A   1      45.321  24.413  27.478  1.00  0.00     0.167 HD
ATOM     57  C   UNL A   1      45.890  26.211  31.042  1.00  0.00     0.074 A 
ATOM     58  C   UNL A   1      45.655  25.388  32.210  1.00  0.00     0.031 C 
ATOM     59  C   UNL A   1      45.668  25.861  29.749  1.00  0.00     0.037 A 
BRANCH  46  60
ATOM     60  C   UNL A   1      43.212  22.802  25.906  1.00  0.00     0.057 A 
ATOM     61  C   UNL A   1      43.353  21.392  25.896  1.00  0.00     0.134 A 
ATOM     62  C   UNL A   1      43.839  23.480  24.857  1.00  0.00     0.134 A 
ATOM     63  F   UNL A   1      42.753  20.630  26.825  1.00  0.00    -0.206 F 
ATOM     64  C   UNL A   1      44.186  20.722  24.998  1.00  0.00     0.040 A 
ATOM     65  C   UNL A   1      44.640  22.812  23.919  1.00  0.00     0.040 A 
ATOM     66  F   UNL A   1      43.785  24.815  24.757  1.00  0.00    -0.206 F 
ATOM     67  C   UNL A   1      44.854  21.439  24.016  1.00  0.00     0.006 A 
ENDBRANCH  46  60
BRANCH  47  68
ATOM     68  C   UNL A   1      44.512  28.991  34.315  1.00  0.00     0.057 A 
ATOM     69  C   UNL A   1      45.457  30.003  34.488  1.00  0.00     0.134 A 
ATOM     70  C   UNL A   1      43.889  28.583  35.534  1.00  0.00     0.134 A 
ATOM     71  F   UNL A   1      46.216  30.428  33.473  1.00  0.00    -0.206 F 
ATOM     72  C   UNL A   1      45.671  30.631  35.737  1.00  0.00     0.040 A 
ATOM     73  C   UNL A   1      44.050  29.231  36.763  1.00  0.00     0.040 A 
ATOM     74  F   UNL A   1      43.069  27.525  35.597  1.00  0.00    -0.206 F 
ATOM     75  C   UNL A   1      44.934  30.281  36.865  1.00  0.00     0.006 A 
ENDBRANCH  47  68
BRANCH  59  76
ATOM     76  C   UNL A   1      45.803  27.003  28.755  1.00  0.00     0.057 A 
ATOM     77  C   UNL A   1      47.040  27.644  28.593  1.00  0.00     0.134 A 
ATOM     78  C   UNL A   1      44.737  27.575  28.044  1.00  0.00     0.134 A 
ATOM     79  F   UNL A   1      48.133  27.164  29.207  1.00  0.00    -0.206 F 
ATOM     80  C   UNL A   1      47.195  28.794  27.805  1.00  0.00     0.040 A 
ATOM     81  C   UNL A   1      44.874  28.721  27.247  1.00  0.00     0.040 A 
ATOM     82  F   UNL A   1      43.516  27.047  28.098  1.00  0.00    -0.206 F 
ATOM     83  C   UNL A   1      46.108  29.342  27.133  1.00  0.00     0.006 A 
ENDBRANCH  59  76
ENDBRANCH  33  34
ENDBRANCH  25  28
ENDBRANCH  23  24
ENDBRANCH   1  23
TORSDOF 12
ENDMDL
