MODEL 1
REMARK VINA RESULT:     -13.9      0.000      0.000
REMARK SMILES Cc1c(Cl)cccc1NC(=O)C[C@](C)(C(=O)NCCCNC(=O)c1ccc(-c2c3nc(c(-c4c(F)cccc4F)c4ccc([nH]4)c(-c4c(F)cccc4F)c4nc(c(-c5c(F)cccc5F)c5ccc2[nH]5)C=C4)C=C3)cc1)c1ccccc1
REMARK SMILES IDX 18 1 17 2 15 3 16 4 13 6 14 7 12 8 10 9 9 10 11 12 8 13 1 14
REMARK SMILES IDX 2 15 3 16 4 17 5 18 7 19 6 20 78 21 79 22 83 23 80 24 82 25
REMARK SMILES IDX 81 26 19 27 20 28 21 29 22 30 23 32 24 33 25 34 77 35 26 36
REMARK SMILES IDX 76 37 27 38 28 39 29 40 70 41 30 42 75 43 69 44 71 45 31 46
REMARK SMILES IDX 74 47 68 48 67 49 32 51 58 52 41 53 57 54 42 55 45 56 56 57
REMARK SMILES IDX 72 58 43 59 44 60 55 62 73 63 46 64 33 65 34 66 39 67 35 68
REMARK SMILES IDX 36 69 38 70 40 71 37 72 59 73 60 74 65 75 61 76 62 77 64 78
REMARK SMILES IDX 66 79 63 80 47 81 48 82 53 83 49 84 50 85 52 86 54 87 51 88
REMARK H PARENT 17 5 9 11 21 31 71 50 45 61
REMARK Flexibility Score: inf
ROOT
ATOM      1  C   UNL A   1      32.343  30.496  26.759  1.00  0.00     0.117 C 
ENDROOT
BRANCH   1   2
ATOM      2  N   UNL A   1      32.818  29.238  25.158  1.00  0.00    -0.355 N 
ATOM      3  C   UNL A   1      32.493  28.299  24.119  1.00  0.00     0.230 C 
ATOM      4  O   UNL A   1      33.518  28.067  23.451  1.00  0.00    -0.274 OA
ATOM      5  H   UNL A   1      33.792  29.350  25.064  1.00  0.00     0.163 HD
BRANCH   3   6
ATOM      6  C   UNL A   1      31.121  27.493  23.789  1.00  0.00     0.080 C 
ATOM      7  C   UNL A   1      31.341  26.814  22.384  1.00  0.00     0.027 C 
BRANCH   6   8
ATOM      8  C   UNL A   1      30.596  26.488  24.878  1.00  0.00     0.121 C 
BRANCH   8   9
ATOM      9  C   UNL A   1      31.251  26.456  26.246  1.00  0.00     0.225 C 
ATOM     10  N   UNL A   1      32.064  25.424  26.608  1.00  0.00    -0.326 N 
ATOM     11  H   UNL A   1      32.217  25.267  27.568  1.00  0.00     0.169 HD
ATOM     12  O   UNL A   1      31.030  27.338  27.078  1.00  0.00    -0.275 OA
BRANCH  10  13
ATOM     13  C   UNL A   1      32.687  24.585  25.694  1.00  0.00     0.045 A 
ATOM     14  C   UNL A   1      30.653  22.566  25.888  1.00  0.00     0.048 C 
ATOM     15  C   UNL A   1      32.118  22.865  25.721  1.00  0.00    -0.009 A 
ATOM     16  C   UNL A   1      33.185  21.555  25.074  1.00  0.00     0.046 A 
ATOM     17  Cl  UNL A   1      32.612  19.941  24.923  1.00  0.00    -0.084 Cl
ATOM     18  C   UNL A   1      34.828  21.944  24.463  1.00  0.00     0.021 A 
ATOM     19  C   UNL A   1      34.312  25.004  24.955  1.00  0.00     0.026 A 
ATOM     20  C   UNL A   1      35.407  23.661  24.408  1.00  0.00     0.004 A 
ENDBRANCH  10  13
ENDBRANCH   8   9
ENDBRANCH   6   8
BRANCH   6  21
ATOM     21  C   UNL A   1      29.843  28.383  23.489  1.00  0.00    -0.032 A 
ATOM     22  C   UNL A   1      29.997  29.802  23.508  1.00  0.00     0.005 A 
ATOM     23  C   UNL A   1      28.566  27.898  23.204  1.00  0.00     0.005 A 
ATOM     24  C   UNL A   1      28.921  30.677  23.389  1.00  0.00     0.000 A 
ATOM     25  C   UNL A   1      27.482  28.780  23.068  1.00  0.00     0.000 A 
ATOM     26  C   UNL A   1      27.653  30.160  23.185  1.00  0.00     0.000 A 
ENDBRANCH   6  21
ENDBRANCH   3   6
ENDBRANCH   1   2
BRANCH   1  27
ATOM     27  C   UNL A   1      31.469  31.953  26.878  1.00  0.00     0.042 C 
BRANCH  27  28
ATOM     28  C   UNL A   1      32.402  33.143  26.753  1.00  0.00     0.118 C 
BRANCH  28  29
ATOM     29  N   UNL A   1      32.153  34.223  27.700  1.00  0.00    -0.352 N 
ATOM     30  C   UNL A   1      33.036  34.650  28.664  1.00  0.00     0.251 C 
ATOM     31  H   UNL A   1      31.283  34.682  27.646  1.00  0.00     0.163 HD
ATOM     32  O   UNL A   1      32.821  35.617  29.378  1.00  0.00    -0.269 OA
BRANCH  30  33
ATOM     33  C   UNL A   1      34.198  33.777  28.862  1.00  0.00     0.039 A 
ATOM     34  C   UNL A   1      35.442  34.339  28.577  1.00  0.00     0.014 A 
ATOM     35  C   UNL A   1      34.065  32.634  29.654  1.00  0.00     0.014 A 
ATOM     36  C   UNL A   1      36.576  33.763  29.128  1.00  0.00     0.010 A 
ATOM     37  C   UNL A   1      35.187  32.144  30.302  1.00  0.00     0.010 A 
ATOM     38  C   UNL A   1      36.452  32.684  30.018  1.00  0.00    -0.014 A 
BRANCH  38  39
ATOM     39  C   UNL A   1      37.672  32.053  30.563  1.00  0.00     0.031 A 
ATOM     40  C   UNL A   1      38.127  32.453  31.936  1.00  0.00     0.074 A 
ATOM     41  C   UNL A   1      38.316  31.104  29.858  1.00  0.00     0.049 A 
ATOM     42  N   UNL A   1      39.107  31.970  32.652  1.00  0.00    -0.248 NA
ATOM     43  C   UNL A   1      37.402  33.560  32.585  1.00  0.00     0.031 C 
ATOM     44  C   UNL A   1      37.974  30.674  28.499  1.00  0.00     0.029 A 
ATOM     45  N   UNL A   1      39.380  30.309  30.198  1.00  0.00    -0.354 N 
ATOM     46  C   UNL A   1      39.110  32.716  33.824  1.00  0.00     0.074 A 
ATOM     47  C   UNL A   1      38.101  33.737  33.691  1.00  0.00     0.031 C 
ATOM     48  C   UNL A   1      38.780  29.661  28.142  1.00  0.00     0.029 A 
ATOM     49  C   UNL A   1      39.716  29.393  29.230  1.00  0.00     0.049 A 
ATOM     50  H   UNL A   1      39.858  30.387  31.054  1.00  0.00     0.167 HD
ATOM     51  C   UNL A   1      39.862  32.538  34.931  1.00  0.00     0.037 A 
ATOM     52  C   UNL A   1      40.671  28.443  29.232  1.00  0.00     0.037 A 
ATOM     53  C   UNL A   1      40.848  31.503  35.054  1.00  0.00     0.049 A 
ATOM     54  C   UNL A   1      41.514  28.281  30.470  1.00  0.00     0.074 A 
ATOM     55  C   UNL A   1      41.643  31.197  36.141  1.00  0.00     0.029 A 
ATOM     56  N   UNL A   1      41.176  30.608  34.045  1.00  0.00    -0.354 N 
ATOM     57  N   UNL A   1      41.457  28.943  31.603  1.00  0.00    -0.248 NA
ATOM     58  C   UNL A   1      42.545  27.236  30.437  1.00  0.00     0.031 C 
ATOM     59  C   UNL A   1      42.506  30.164  35.765  1.00  0.00     0.029 A 
ATOM     60  C   UNL A   1      42.192  29.773  34.472  1.00  0.00     0.049 A 
ATOM     61  H   UNL A   1      40.751  30.575  33.158  1.00  0.00     0.167 HD
ATOM     62  C   UNL A   1      42.421  28.377  32.425  1.00  0.00     0.074 A 
ATOM     63  C   UNL A   1      43.033  27.304  31.667  1.00  0.00     0.031 C 
ATOM     64  C   UNL A   1      42.776  28.711  33.692  1.00  0.00     0.037 A 
BRANCH  51  65
ATOM     65  C   UNL A   1      39.651  33.490  36.071  1.00  0.00     0.057 A 
ATOM     66  C   UNL A   1      38.762  33.217  37.120  1.00  0.00     0.134 A 
ATOM     67  C   UNL A   1      40.352  34.701  36.119  1.00  0.00     0.134 A 
ATOM     68  F   UNL A   1      38.038  32.087  37.123  1.00  0.00    -0.206 F 
ATOM     69  C   UNL A   1      38.559  34.124  38.161  1.00  0.00     0.040 A 
ATOM     70  C   UNL A   1      40.184  35.600  37.173  1.00  0.00     0.040 A 
ATOM     71  F   UNL A   1      41.213  35.030  35.145  1.00  0.00    -0.206 F 
ATOM     72  C   UNL A   1      39.278  35.317  38.193  1.00  0.00     0.006 A 
ENDBRANCH  51  65
BRANCH  52  73
ATOM     73  C   UNL A   1      40.878  27.576  28.042  1.00  0.00     0.057 A 
ATOM     74  C   UNL A   1      41.711  27.964  26.985  1.00  0.00     0.134 A 
ATOM     75  C   UNL A   1      40.225  26.341  27.920  1.00  0.00     0.134 A 
ATOM     76  F   UNL A   1      42.355  29.139  27.029  1.00  0.00    -0.206 F 
ATOM     77  C   UNL A   1      41.862  27.174  25.842  1.00  0.00     0.040 A 
ATOM     78  C   UNL A   1      40.393  25.528  26.799  1.00  0.00     0.040 A 
ATOM     79  F   UNL A   1      39.421  25.902  28.900  1.00  0.00    -0.206 F 
ATOM     80  C   UNL A   1      41.205  25.950  25.750  1.00  0.00     0.006 A 
ENDBRANCH  52  73
BRANCH  64  81
ATOM     81  C   UNL A   1      43.845  27.884  34.345  1.00  0.00     0.057 A 
ATOM     82  C   UNL A   1      45.192  28.265  34.331  1.00  0.00     0.134 A 
ATOM     83  C   UNL A   1      43.509  26.714  35.039  1.00  0.00     0.134 A 
ATOM     84  F   UNL A   1      45.581  29.370  33.678  1.00  0.00    -0.206 F 
ATOM     85  C   UNL A   1      46.172  27.492  34.954  1.00  0.00     0.040 A 
ATOM     86  C   UNL A   1      44.474  25.955  35.699  1.00  0.00     0.040 A 
ATOM     87  F   UNL A   1      42.234  26.303  35.106  1.00  0.00    -0.206 F 
ATOM     88  C   UNL A   1      45.813  26.338  35.648  1.00  0.00     0.006 A 
ENDBRANCH  64  81
ENDBRANCH  38  39
ENDBRANCH  30  33
ENDBRANCH  28  29
ENDBRANCH  27  28
ENDBRANCH   1  27
TORSDOF 14
ENDMDL
MODEL 2
REMARK VINA RESULT:     -13.7      1.465      2.378
REMARK SMILES Cc1c(Cl)cccc1NC(=O)C[C@](C)(C(=O)NCCCNC(=O)c1ccc(-c2c3nc(c(-c4c(F)cccc4F)c4ccc([nH]4)c(-c4c(F)cccc4F)c4nc(c(-c5c(F)cccc5F)c5ccc2[nH]5)C=C4)C=C3)cc1)c1ccccc1
REMARK SMILES IDX 18 1 17 2 15 3 16 4 13 6 14 7 12 8 10 9 9 10 11 12 8 13 1 14
REMARK SMILES IDX 2 15 3 16 4 17 5 18 7 19 6 20 78 21 79 22 83 23 80 24 82 25
REMARK SMILES IDX 81 26 19 27 20 28 21 29 22 30 23 32 24 33 25 34 77 35 26 36
REMARK SMILES IDX 76 37 27 38 28 39 29 40 70 41 30 42 75 43 69 44 71 45 31 46
REMARK SMILES IDX 74 47 68 48 67 49 32 51 58 52 41 53 57 54 42 55 45 56 56 57
REMARK SMILES IDX 72 58 43 59 44 60 55 62 73 63 46 64 33 65 34 66 39 67 35 68
REMARK SMILES IDX 36 69 38 70 40 71 37 72 59 73 60 74 65 75 61 76 62 77 64 78
REMARK SMILES IDX 66 79 63 80 47 81 48 82 53 83 49 84 50 85 52 86 54 87 51 88
REMARK H PARENT 17 5 9 11 21 31 71 50 45 61
REMARK Flexibility Score: inf
ROOT
ATOM      1  C   UNL A   1      30.392  31.606  25.010  1.00  0.00     0.117 C 
ENDROOT
BRANCH   1   2
ATOM      2  N   UNL A   1      30.281  30.237  23.433  1.00  0.00    -0.355 N 
ATOM      3  C   UNL A   1      30.493  28.949  22.830  1.00  0.00     0.230 C 
ATOM      4  O   UNL A   1      29.976  28.945  21.697  1.00  0.00    -0.274 OA
ATOM      5  H   UNL A   1      29.850  30.754  22.715  1.00  0.00     0.163 HD
BRANCH   3   6
ATOM      6  C   UNL A   1      31.325  27.648  23.336  1.00  0.00     0.080 C 
ATOM      7  C   UNL A   1      30.248  26.553  23.692  1.00  0.00     0.027 C 
BRANCH   6   8
ATOM      8  C   UNL A   1      32.457  27.106  22.390  1.00  0.00     0.121 C 
BRANCH   8   9
ATOM      9  C   UNL A   1      32.155  25.969  21.433  1.00  0.00     0.225 C 
ATOM     10  N   UNL A   1      32.640  24.716  21.660  1.00  0.00    -0.326 N 
ATOM     11  H   UNL A   1      32.699  24.094  20.898  1.00  0.00     0.169 HD
ATOM     12  O   UNL A   1      31.501  26.159  20.406  1.00  0.00    -0.275 OA
BRANCH  10  13
ATOM     13  C   UNL A   1      33.057  24.271  22.907  1.00  0.00     0.045 A 
ATOM     14  C   UNL A   1      30.614  22.849  23.417  1.00  0.00     0.048 C 
ATOM     15  C   UNL A   1      31.732  23.675  23.991  1.00  0.00    -0.009 A 
ATOM     16  C   UNL A   1      31.984  23.639  25.782  1.00  0.00     0.046 A 
ATOM     17  Cl  UNL A   1      30.821  22.921  26.824  1.00  0.00    -0.084 Cl
ATOM     18  C   UNL A   1      33.516  24.249  26.493  1.00  0.00     0.021 A 
ATOM     19  C   UNL A   1      34.669  24.775  23.619  1.00  0.00     0.026 A 
ATOM     20  C   UNL A   1      34.861  24.829  25.426  1.00  0.00     0.004 A 
ENDBRANCH  10  13
ENDBRANCH   8   9
ENDBRANCH   6   8
BRANCH   6  21
ATOM     21  C   UNL A   1      32.070  27.793  24.729  1.00  0.00    -0.032 A 
ATOM     22  C   UNL A   1      31.333  27.497  25.915  1.00  0.00     0.005 A 
ATOM     23  C   UNL A   1      33.397  28.187  24.900  1.00  0.00     0.005 A 
ATOM     24  C   UNL A   1      31.844  27.715  27.191  1.00  0.00     0.000 A 
ATOM     25  C   UNL A   1      33.918  28.393  26.188  1.00  0.00     0.000 A 
ATOM     26  C   UNL A   1      33.139  28.182  27.326  1.00  0.00     0.000 A 
ENDBRANCH   6  21
ENDBRANCH   3   6
ENDBRANCH   1   2
BRANCH   1  27
ATOM     27  C   UNL A   1      31.118  31.554  26.550  1.00  0.00     0.042 C 
BRANCH  27  28
ATOM     28  C   UNL A   1      32.306  32.495  26.608  1.00  0.00     0.118 C 
BRANCH  28  29
ATOM     29  N   UNL A   1      32.112  33.682  27.432  1.00  0.00    -0.352 N 
ATOM     30  C   UNL A   1      33.062  34.236  28.259  1.00  0.00     0.251 C 
ATOM     31  H   UNL A   1      31.232  34.122  27.394  1.00  0.00     0.163 HD
ATOM     32  O   UNL A   1      32.886  35.281  28.864  1.00  0.00    -0.269 OA
BRANCH  30  33
ATOM     33  C   UNL A   1      34.254  33.406  28.466  1.00  0.00     0.039 A 
ATOM     34  C   UNL A   1      35.482  34.046  28.298  1.00  0.00     0.014 A 
ATOM     35  C   UNL A   1      34.134  32.204  29.167  1.00  0.00     0.014 A 
ATOM     36  C   UNL A   1      36.610  33.486  28.875  1.00  0.00     0.010 A 
ATOM     37  C   UNL A   1      35.242  31.721  29.847  1.00  0.00     0.010 A 
ATOM     38  C   UNL A   1      36.491  32.339  29.678  1.00  0.00    -0.014 A 
BRANCH  38  39
ATOM     39  C   UNL A   1      37.708  31.729  30.252  1.00  0.00     0.031 A 
ATOM     40  C   UNL A   1      38.088  32.085  31.659  1.00  0.00     0.074 A 
ATOM     41  C   UNL A   1      38.418  30.835  29.538  1.00  0.00     0.049 A 
ATOM     42  N   UNL A   1      39.052  31.607  32.399  1.00  0.00    -0.248 NA
ATOM     43  C   UNL A   1      37.294  33.137  32.320  1.00  0.00     0.031 C 
ATOM     44  C   UNL A   1      38.152  30.453  28.148  1.00  0.00     0.029 A 
ATOM     45  N   UNL A   1      39.495  30.065  29.892  1.00  0.00    -0.354 N 
ATOM     46  C   UNL A   1      38.976  32.301  33.599  1.00  0.00     0.074 A 
ATOM     47  C   UNL A   1      37.936  33.290  33.464  1.00  0.00     0.031 C 
ATOM     48  C   UNL A   1      39.011  29.485  27.786  1.00  0.00     0.029 A 
ATOM     49  C   UNL A   1      39.907  29.204  28.903  1.00  0.00     0.049 A 
ATOM     50  H   UNL A   1      39.931  30.122  30.772  1.00  0.00     0.167 HD
ATOM     51  C   UNL A   1      39.685  32.101  34.731  1.00  0.00     0.037 A 
ATOM     52  C   UNL A   1      40.895  28.289  28.909  1.00  0.00     0.037 A 
ATOM     53  C   UNL A   1      40.702  31.097  34.856  1.00  0.00     0.049 A 
ATOM     54  C   UNL A   1      41.688  28.103  30.176  1.00  0.00     0.074 A 
ATOM     55  C   UNL A   1      41.460  30.773  35.964  1.00  0.00     0.029 A 
ATOM     56  N   UNL A   1      41.108  30.260  33.826  1.00  0.00    -0.354 N 
ATOM     57  N   UNL A   1      41.557  28.713  31.332  1.00  0.00    -0.248 NA
ATOM     58  C   UNL A   1      42.758  27.098  30.146  1.00  0.00     0.031 C 
ATOM     59  C   UNL A   1      42.377  29.788  35.585  1.00  0.00     0.029 A 
ATOM     60  C   UNL A   1      42.135  29.443  34.263  1.00  0.00     0.049 A 
ATOM     61  H   UNL A   1      40.723  30.250  32.920  1.00  0.00     0.167 HD
ATOM     62  C   UNL A   1      42.505  28.146  32.173  1.00  0.00     0.074 A 
ATOM     63  C   UNL A   1      43.189  27.129  31.399  1.00  0.00     0.031 C 
ATOM     64  C   UNL A   1      42.791  28.437  33.467  1.00  0.00     0.037 A 
BRANCH  51  65
ATOM     65  C   UNL A   1      39.389  32.995  35.899  1.00  0.00     0.057 A 
ATOM     66  C   UNL A   1      39.995  34.250  36.055  1.00  0.00     0.134 A 
ATOM     67  C   UNL A   1      38.480  32.592  36.885  1.00  0.00     0.134 A 
ATOM     68  F   UNL A   1      40.896  34.687  35.160  1.00  0.00    -0.206 F 
ATOM     69  C   UNL A   1      39.728  35.058  37.160  1.00  0.00     0.040 A 
ATOM     70  C   UNL A   1      38.179  33.407  37.977  1.00  0.00     0.040 A 
ATOM     71  F   UNL A   1      37.869  31.401  36.804  1.00  0.00    -0.206 F 
ATOM     72  C   UNL A   1      38.810  34.641  38.121  1.00  0.00     0.006 A 
ENDBRANCH  51  65
BRANCH  52  73
ATOM     73  C   UNL A   1      41.187  27.482  27.694  1.00  0.00     0.057 A 
ATOM     74  C   UNL A   1      42.052  27.944  26.694  1.00  0.00     0.134 A 
ATOM     75  C   UNL A   1      40.585  26.233  27.490  1.00  0.00     0.134 A 
ATOM     76  F   UNL A   1      42.652  29.137  26.818  1.00  0.00    -0.206 F 
ATOM     77  C   UNL A   1      42.283  27.211  25.527  1.00  0.00     0.040 A 
ATOM     78  C   UNL A   1      40.831  25.475  26.344  1.00  0.00     0.040 A 
ATOM     79  F   UNL A   1      39.753  25.724  28.412  1.00  0.00    -0.206 F 
ATOM     80  C   UNL A   1      41.674  25.970  25.353  1.00  0.00     0.006 A 
ENDBRANCH  52  73
BRANCH  64  81
ATOM     81  C   UNL A   1      43.860  27.621  34.133  1.00  0.00     0.057 A 
ATOM     82  C   UNL A   1      45.194  28.044  34.187  1.00  0.00     0.134 A 
ATOM     83  C   UNL A   1      43.537  26.416  34.772  1.00  0.00     0.134 A 
ATOM     84  F   UNL A   1      45.572  29.185  33.589  1.00  0.00    -0.206 F 
ATOM     85  C   UNL A   1      46.174  27.281  34.821  1.00  0.00     0.040 A 
ATOM     86  C   UNL A   1      44.500  25.665  35.442  1.00  0.00     0.040 A 
ATOM     87  F   UNL A   1      42.274  25.963  34.773  1.00  0.00    -0.206 F 
ATOM     88  C   UNL A   1      45.826  26.092  35.459  1.00  0.00     0.006 A 
ENDBRANCH  64  81
ENDBRANCH  38  39
ENDBRANCH  30  33
ENDBRANCH  28  29
ENDBRANCH  27  28
ENDBRANCH   1  27
TORSDOF 14
ENDMDL
MODEL 3
REMARK VINA RESULT:     -13.7      4.862      9.773
REMARK SMILES Cc1c(Cl)cccc1NC(=O)C[C@](C)(C(=O)NCCCNC(=O)c1ccc(-c2c3nc(c(-c4c(F)cccc4F)c4ccc([nH]4)c(-c4c(F)cccc4F)c4nc(c(-c5c(F)cccc5F)c5ccc2[nH]5)C=C4)C=C3)cc1)c1ccccc1
REMARK SMILES IDX 18 1 17 2 15 3 16 4 13 6 14 7 12 8 10 9 9 10 11 12 8 13 1 14
REMARK SMILES IDX 2 15 3 16 4 17 5 18 7 19 6 20 78 21 79 22 83 23 80 24 82 25
REMARK SMILES IDX 81 26 19 27 20 28 21 29 22 30 23 32 24 33 25 34 77 35 26 36
REMARK SMILES IDX 76 37 27 38 28 39 29 40 70 41 30 42 75 43 69 44 71 45 31 46
REMARK SMILES IDX 74 47 68 48 67 49 32 51 58 52 41 53 57 54 42 55 45 56 56 57
REMARK SMILES IDX 72 58 43 59 44 60 55 62 73 63 46 64 33 65 34 66 39 67 35 68
REMARK SMILES IDX 36 69 38 70 40 71 37 72 59 73 60 74 65 75 61 76 62 77 64 78
REMARK SMILES IDX 66 79 63 80 47 81 48 82 53 83 49 84 50 85 52 86 54 87 51 88
REMARK H PARENT 17 5 9 11 21 31 71 50 45 61
REMARK Flexibility Score: inf
ROOT
ATOM      1  C   UNL A   1      37.013  22.509  25.745  1.00  0.00     0.117 C 
ENDROOT
BRANCH   1   2
ATOM      2  N   UNL A   1      35.238  22.080  26.764  1.00  0.00    -0.355 N 
ATOM      3  C   UNL A   1      33.812  22.131  26.943  1.00  0.00     0.230 C 
ATOM      4  O   UNL A   1      33.506  21.437  27.931  1.00  0.00    -0.274 OA
ATOM      5  H   UNL A   1      35.545  21.561  27.543  1.00  0.00     0.163 HD
BRANCH   3   6
ATOM      6  C   UNL A   1      32.660  22.975  26.167  1.00  0.00     0.080 C 
ATOM      7  C   UNL A   1      31.740  21.908  25.461  1.00  0.00     0.027 C 
BRANCH   6   8
ATOM      8  C   UNL A   1      31.845  24.022  27.009  1.00  0.00     0.121 C 
BRANCH   8   9
ATOM      9  C   UNL A   1      30.338  24.099  26.856  1.00  0.00     0.225 C 
ATOM     10  N   UNL A   1      29.750  25.161  26.236  1.00  0.00    -0.326 N 
ATOM     11  H   UNL A   1      28.800  25.340  26.420  1.00  0.00     0.169 HD
ATOM     12  O   UNL A   1      29.606  23.225  27.325  1.00  0.00    -0.275 OA
BRANCH  10  13
ATOM     13  C   UNL A   1      30.423  26.003  25.361  1.00  0.00     0.045 A 
ATOM     14  C   UNL A   1      31.587  27.566  27.470  1.00  0.00     0.048 C 
ATOM     15  C   UNL A   1      31.001  27.560  26.085  1.00  0.00    -0.009 A 
ATOM     16  C   UNL A   1      31.332  28.980  25.015  1.00  0.00     0.046 A 
ATOM     17  Cl  UNL A   1      32.044  30.414  25.643  1.00  0.00    -0.084 Cl
ATOM     18  C   UNL A   1      31.031  28.873  23.248  1.00  0.00     0.021 A 
ATOM     19  C   UNL A   1      30.236  25.848  23.544  1.00  0.00     0.026 A 
ATOM     20  C   UNL A   1      30.474  27.318  22.502  1.00  0.00     0.004 A 
ENDBRANCH  10  13
ENDBRANCH   8   9
ENDBRANCH   6   8
BRANCH   6  21
ATOM     21  C   UNL A   1      33.139  23.826  24.917  1.00  0.00    -0.032 A 
ATOM     22  C   UNL A   1      33.682  25.122  25.160  1.00  0.00     0.005 A 
ATOM     23  C   UNL A   1      33.076  23.414  23.585  1.00  0.00     0.005 A 
ATOM     24  C   UNL A   1      34.011  26.004  24.135  1.00  0.00     0.000 A 
ATOM     25  C   UNL A   1      33.422  24.298  22.550  1.00  0.00     0.000 A 
ATOM     26  C   UNL A   1      33.863  25.594  22.821  1.00  0.00     0.000 A 
ENDBRANCH   6  21
ENDBRANCH   3   6
ENDBRANCH   1   2
BRANCH   1  27
ATOM     27  C   UNL A   1      38.214  21.534  25.033  1.00  0.00     0.042 C 
BRANCH  27  28
ATOM     28  C   UNL A   1      39.174  21.020  26.089  1.00  0.00     0.118 C 
BRANCH  28  29
ATOM     29  N   UNL A   1      39.886  19.798  25.732  1.00  0.00    -0.352 N 
ATOM     30  C   UNL A   1      41.210  19.547  26.002  1.00  0.00     0.251 C 
ATOM     31  H   UNL A   1      39.377  19.099  25.261  1.00  0.00     0.163 HD
ATOM     32  O   UNL A   1      41.743  18.474  25.764  1.00  0.00    -0.269 OA
BRANCH  30  33
ATOM     33  C   UNL A   1      41.972  20.708  26.474  1.00  0.00     0.039 A 
ATOM     34  C   UNL A   1      42.193  21.718  25.538  1.00  0.00     0.014 A 
ATOM     35  C   UNL A   1      42.092  20.931  27.848  1.00  0.00     0.014 A 
ATOM     36  C   UNL A   1      42.506  22.989  25.991  1.00  0.00     0.010 A 
ATOM     37  C   UNL A   1      42.278  22.231  28.293  1.00  0.00     0.010 A 
ATOM     38  C   UNL A   1      42.519  23.260  27.369  1.00  0.00    -0.014 A 
BRANCH  38  39
ATOM     39  C   UNL A   1      42.897  24.610  27.837  1.00  0.00     0.031 A 
ATOM     40  C   UNL A   1      44.343  25.004  27.782  1.00  0.00     0.074 A 
ATOM     41  C   UNL A   1      41.949  25.473  28.249  1.00  0.00     0.049 A 
ATOM     42  N   UNL A   1      44.894  26.157  28.049  1.00  0.00    -0.248 NA
ATOM     43  C   UNL A   1      45.307  23.957  27.397  1.00  0.00     0.031 C 
ATOM     44  C   UNL A   1      40.521  25.170  28.377  1.00  0.00     0.029 A 
ATOM     45  N   UNL A   1      42.041  26.791  28.612  1.00  0.00    -0.354 N 
ATOM     46  C   UNL A   1      46.258  25.967  27.867  1.00  0.00     0.074 A 
ATOM     47  C   UNL A   1      46.464  24.575  27.554  1.00  0.00     0.031 C 
ATOM     48  C   UNL A   1      39.866  26.286  28.740  1.00  0.00     0.029 A 
ATOM     49  C   UNL A   1      40.830  27.369  28.906  1.00  0.00     0.049 A 
ATOM     50  H   UNL A   1      42.895  27.278  28.659  1.00  0.00     0.167 HD
ATOM     51  C   UNL A   1      47.247  26.884  27.914  1.00  0.00     0.037 A 
ATOM     52  C   UNL A   1      40.538  28.636  29.260  1.00  0.00     0.037 A 
ATOM     53  C   UNL A   1      47.022  28.270  28.206  1.00  0.00     0.049 A 
ATOM     54  C   UNL A   1      41.664  29.634  29.331  1.00  0.00     0.074 A 
ATOM     55  C   UNL A   1      47.940  29.302  28.243  1.00  0.00     0.029 A 
ATOM     56  N   UNL A   1      45.785  28.814  28.520  1.00  0.00    -0.354 N 
ATOM     57  N   UNL A   1      42.941  29.460  29.082  1.00  0.00    -0.248 NA
ATOM     58  C   UNL A   1      41.310  31.004  29.722  1.00  0.00     0.031 C 
ATOM     59  C   UNL A   1      47.270  30.458  28.652  1.00  0.00     0.029 A 
ATOM     60  C   UNL A   1      45.921  30.164  28.790  1.00  0.00     0.049 A 
ATOM     61  H   UNL A   1      44.937  28.315  28.547  1.00  0.00     0.167 HD
ATOM     62  C   UNL A   1      43.537  30.702  29.256  1.00  0.00     0.074 A 
ATOM     63  C   UNL A   1      42.477  31.623  29.612  1.00  0.00     0.031 C 
ATOM     64  C   UNL A   1      44.842  31.054  29.138  1.00  0.00     0.037 A 
BRANCH  51  65
ATOM     65  C   UNL A   1      48.647  26.405  27.663  1.00  0.00     0.057 A 
ATOM     66  C   UNL A   1      49.210  26.377  26.379  1.00  0.00     0.134 A 
ATOM     67  C   UNL A   1      49.445  25.966  28.726  1.00  0.00     0.134 A 
ATOM     68  F   UNL A   1      48.491  26.759  25.312  1.00  0.00    -0.206 F 
ATOM     69  C   UNL A   1      50.504  25.905  26.158  1.00  0.00     0.040 A 
ATOM     70  C   UNL A   1      50.754  25.525  28.522  1.00  0.00     0.040 A 
ATOM     71  F   UNL A   1      48.969  25.958  29.980  1.00  0.00    -0.206 F 
ATOM     72  C   UNL A   1      51.283  25.486  27.234  1.00  0.00     0.006 A 
ENDBRANCH  51  65
BRANCH  52  73
ATOM     73  C   UNL A   1      39.138  29.032  29.566  1.00  0.00     0.057 A 
ATOM     74  C   UNL A   1      38.598  28.893  30.851  1.00  0.00     0.134 A 
ATOM     75  C   UNL A   1      38.293  29.541  28.571  1.00  0.00     0.134 A 
ATOM     76  F   UNL A   1      39.346  28.399  31.848  1.00  0.00    -0.206 F 
ATOM     77  C   UNL A   1      37.266  29.214  31.126  1.00  0.00     0.040 A 
ATOM     78  C   UNL A   1      36.970  29.896  28.839  1.00  0.00     0.040 A 
ATOM     79  F   UNL A   1      38.748  29.712  27.320  1.00  0.00    -0.206 F 
ATOM     80  C   UNL A   1      36.450  29.721  30.118  1.00  0.00     0.006 A 
ENDBRANCH  52  73
BRANCH  64  81
ATOM     81  C   UNL A   1      45.185  32.499  29.356  1.00  0.00     0.057 A 
ATOM     82  C   UNL A   1      45.611  32.982  30.600  1.00  0.00     0.134 A 
ATOM     83  C   UNL A   1      45.132  33.408  28.291  1.00  0.00     0.134 A 
ATOM     84  F   UNL A   1      45.676  32.166  31.663  1.00  0.00    -0.206 F 
ATOM     85  C   UNL A   1      45.938  34.326  30.784  1.00  0.00     0.040 A 
ATOM     86  C   UNL A   1      45.495  34.744  28.454  1.00  0.00     0.040 A 
ATOM     87  F   UNL A   1      44.750  33.006  27.070  1.00  0.00    -0.206 F 
ATOM     88  C   UNL A   1      45.889  35.208  29.707  1.00  0.00     0.006 A 
ENDBRANCH  64  81
ENDBRANCH  38  39
ENDBRANCH  30  33
ENDBRANCH  28  29
ENDBRANCH  27  28
ENDBRANCH   1  27
TORSDOF 14
ENDMDL
