MODEL 1
REMARK VINA RESULT:     -12.0      0.000      0.000
REMARK SMILES Cc1c[nH]c(C[N@H+]2C[C@@H]3CN(S(C)(=O)=O)C[C@]3(C(=O)NCCCNC(=O)c3ccc(-c4c5nc(c(-c6c(F)cccc6F)c6ccc([nH]6)c(-c6c(F)cccc6F)c6nc(c(-c7c(F)cccc7F)c7ccc4[nH]7)C=C6)C=C5)cc3)C2)n1
REMARK SMILES IDX 22 1 21 2 20 3 18 4 19 5 17 7 7 8 8 9 81 10 9 12 10 13 16 14
REMARK SMILES IDX 11 15 6 16 5 17 1 18 2 19 3 20 82 21 4 22 12 24 13 25 14 26
REMARK SMILES IDX 15 27 23 28 24 29 25 30 26 32 27 33 28 34 80 35 29 36 79 37
REMARK SMILES IDX 30 38 31 39 32 40 73 41 33 42 78 43 72 44 74 45 34 46 77 47
REMARK SMILES IDX 71 48 70 49 35 51 61 52 44 53 60 54 45 55 48 56 59 57 75 58
REMARK SMILES IDX 46 59 47 60 58 62 76 63 49 64 36 65 37 66 42 67 38 68 39 69
REMARK SMILES IDX 41 70 43 71 40 72 62 73 63 74 68 75 64 76 65 77 67 78 69 79
REMARK SMILES IDX 66 80 50 81 51 82 56 83 52 84 53 85 55 86 57 87 54 88
REMARK H PARENT 20 6 7 11 4 23 24 31 74 50 48 61
REMARK Flexibility Score: inf
ROOT
ATOM      1  C   UNL A   1      34.025  28.503  25.768  1.00  0.00     0.042 C 
ENDROOT
BRANCH   1   2
ATOM      2  C   UNL A   1      33.084  29.401  24.968  1.00  0.00     0.117 C 
BRANCH   2   3
ATOM      3  N   UNL A   1      33.130  29.062  23.556  1.00  0.00    -0.355 N 
ATOM      4  C   UNL A   1      32.694  27.900  22.958  1.00  0.00     0.233 C 
ATOM      5  O   UNL A   1      33.223  27.575  21.895  1.00  0.00    -0.274 OA
ATOM      6  H   UNL A   1      33.518  29.742  22.957  1.00  0.00     0.163 HD
BRANCH   4   7
ATOM      7  C   UNL A   1      31.537  27.107  23.682  1.00  0.00     0.121 C 
ATOM      8  N   UNL A   1      29.206  28.076  23.544  1.00  0.00    -0.327 N 
ATOM      9  C   UNL A   1      29.086  26.689  23.921  1.00  0.00     0.268 C 
ATOM     10  C   UNL A   1      30.585  28.216  23.020  1.00  0.00     0.281 C 
ATOM     11  H   UNL A   1      29.043  28.683  24.347  1.00  0.00     0.348 HD
ATOM     12  C   UNL A   1      30.353  26.072  23.364  1.00  0.00     0.082 C 
ATOM     13  C   UNL A   1      30.573  24.724  24.047  1.00  0.00     0.113 C 
ATOM     14  C   UNL A   1      32.515  25.878  23.558  1.00  0.00     0.125 C 
ATOM     15  N   UNL A   1      31.967  24.807  24.426  1.00  0.00    -0.200 NA
BRANCH   8  16
ATOM     16  C   UNL A   1      28.178  28.526  22.580  1.00  0.00     0.338 C 
BRANCH  16  17
ATOM     17  C   UNL A   1      28.170  30.004  22.290  1.00  0.00     0.161 A 
ATOM     18  C   UNL A   1      28.898  33.411  23.002  1.00  0.00     0.068 C 
ATOM     19  C   UNL A   1      28.499  32.132  22.377  1.00  0.00     0.056 A 
ATOM     20  C   UNL A   1      28.138  31.860  21.077  1.00  0.00     0.107 A 
ATOM     21  N   UNL A   1      28.488  30.978  23.119  1.00  0.00    -0.233 NA
ATOM     22  N   UNL A   1      27.900  30.514  21.041  1.00  0.00    -0.344 N 
ATOM     23  H   UNL A   1      27.590  30.000  20.261  1.00  0.00     0.167 HD
ENDBRANCH  16  17
ENDBRANCH   8  16
BRANCH  15  24
ATOM     24  S   UNL A   1      32.368  24.705  26.058  1.00  0.00     0.211 S 
ATOM     25  C   UNL A   1      32.146  22.979  26.479  1.00  0.00     0.176 C 
ATOM     26  O   UNL A   1      33.782  24.980  26.176  1.00  0.00    -0.213 OA
ATOM     27  O   UNL A   1      31.393  25.475  26.803  1.00  0.00    -0.213 OA
ENDBRANCH  15  24
ENDBRANCH   4   7
ENDBRANCH   2   3
ENDBRANCH   1   2
BRANCH   1  28
ATOM     28  C   UNL A   1      33.818  28.641  27.264  1.00  0.00     0.118 C 
BRANCH  28  29
ATOM     29  N   UNL A   1      33.811  30.042  27.656  1.00  0.00    -0.352 N 
ATOM     30  C   UNL A   1      34.712  30.732  28.429  1.00  0.00     0.251 C 
ATOM     31  H   UNL A   1      33.053  30.571  27.317  1.00  0.00     0.163 HD
ATOM     32  O   UNL A   1      34.365  31.778  28.970  1.00  0.00    -0.269 OA
BRANCH  30  33
ATOM     33  C   UNL A   1      36.094  30.229  28.602  1.00  0.00     0.039 A 
ATOM     34  C   UNL A   1      36.472  29.663  29.822  1.00  0.00     0.014 A 
ATOM     35  C   UNL A   1      37.041  30.373  27.586  1.00  0.00     0.014 A 
ATOM     36  C   UNL A   1      37.785  29.222  30.007  1.00  0.00     0.010 A 
ATOM     37  C   UNL A   1      38.305  29.814  27.721  1.00  0.00     0.010 A 
ATOM     38  C   UNL A   1      38.708  29.273  28.948  1.00  0.00    -0.014 A 
BRANCH  38  39
ATOM     39  C   UNL A   1      40.116  28.833  29.114  1.00  0.00     0.031 A 
ATOM     40  C   UNL A   1      41.130  29.781  29.707  1.00  0.00     0.074 A 
ATOM     41  C   UNL A   1      40.495  27.616  28.677  1.00  0.00     0.049 A 
ATOM     42  N   UNL A   1      42.420  29.621  29.864  1.00  0.00    -0.248 NA
ATOM     43  C   UNL A   1      40.638  31.098  30.152  1.00  0.00     0.031 C 
ATOM     44  C   UNL A   1      39.618  26.633  28.036  1.00  0.00     0.029 A 
ATOM     45  N   UNL A   1      41.720  27.001  28.699  1.00  0.00    -0.354 N 
ATOM     46  C   UNL A   1      42.890  30.821  30.388  1.00  0.00     0.074 A 
ATOM     47  C   UNL A   1      41.762  31.720  30.472  1.00  0.00     0.031 C 
ATOM     48  C   UNL A   1      40.325  25.527  27.759  1.00  0.00     0.029 A 
ATOM     49  C   UNL A   1      41.713  25.738  28.156  1.00  0.00     0.049 A 
ATOM     50  H   UNL A   1      42.529  27.424  29.069  1.00  0.00     0.167 HD
ATOM     51  C   UNL A   1      44.143  31.136  30.787  1.00  0.00     0.037 A 
ATOM     52  C   UNL A   1      42.718  24.858  27.990  1.00  0.00     0.037 A 
ATOM     53  C   UNL A   1      45.250  30.218  30.751  1.00  0.00     0.049 A 
ATOM     54  C   UNL A   1      44.098  25.234  28.456  1.00  0.00     0.074 A 
ATOM     55  C   UNL A   1      46.539  30.407  31.214  1.00  0.00     0.029 A 
ATOM     56  N   UNL A   1      45.194  28.939  30.221  1.00  0.00    -0.354 N 
ATOM     57  N   UNL A   1      44.508  26.339  29.032  1.00  0.00    -0.248 NA
ATOM     58  C   UNL A   1      45.158  24.236  28.256  1.00  0.00     0.031 C 
ATOM     59  C   UNL A   1      47.282  29.263  30.910  1.00  0.00     0.029 A 
ATOM     60  C   UNL A   1      46.437  28.337  30.319  1.00  0.00     0.049 A 
ATOM     61  H   UNL A   1      44.392  28.521  29.833  1.00  0.00     0.167 HD
ATOM     62  C   UNL A   1      45.858  26.152  29.301  1.00  0.00     0.074 A 
ATOM     63  C   UNL A   1      46.192  24.821  28.840  1.00  0.00     0.031 C 
ATOM     64  C   UNL A   1      46.743  27.001  29.877  1.00  0.00     0.037 A 
BRANCH  51  65
ATOM     65  C   UNL A   1      44.394  32.524  31.305  1.00  0.00     0.057 A 
ATOM     66  C   UNL A   1      44.276  32.846  32.664  1.00  0.00     0.134 A 
ATOM     67  C   UNL A   1      44.828  33.536  30.439  1.00  0.00     0.134 A 
ATOM     68  F   UNL A   1      43.854  31.928  33.546  1.00  0.00    -0.206 F 
ATOM     69  C   UNL A   1      44.567  34.127  33.139  1.00  0.00     0.040 A 
ATOM     70  C   UNL A   1      45.150  34.811  30.906  1.00  0.00     0.040 A 
ATOM     71  F   UNL A   1      44.966  33.297  29.126  1.00  0.00    -0.206 F 
ATOM     72  C   UNL A   1      45.017  35.110  32.261  1.00  0.00     0.006 A 
ENDBRANCH  51  65
BRANCH  52  73
ATOM     73  C   UNL A   1      42.469  23.529  27.371  1.00  0.00     0.057 A 
ATOM     74  C   UNL A   1      42.152  22.414  28.157  1.00  0.00     0.134 A 
ATOM     75  C   UNL A   1      42.588  23.329  25.991  1.00  0.00     0.134 A 
ATOM     76  F   UNL A   1      42.037  22.536  29.487  1.00  0.00    -0.206 F 
ATOM     77  C   UNL A   1      42.009  21.141  27.600  1.00  0.00     0.040 A 
ATOM     78  C   UNL A   1      42.415  22.068  25.417  1.00  0.00     0.040 A 
ATOM     79  F   UNL A   1      42.881  24.355  25.179  1.00  0.00    -0.206 F 
ATOM     80  C   UNL A   1      42.139  20.966  26.224  1.00  0.00     0.006 A 
ENDBRANCH  52  73
BRANCH  64  81
ATOM     81  C   UNL A   1      48.138  26.494  30.101  1.00  0.00     0.057 A 
ATOM     82  C   UNL A   1      48.509  25.826  31.274  1.00  0.00     0.134 A 
ATOM     83  C   UNL A   1      49.114  26.653  29.109  1.00  0.00     0.134 A 
ATOM     84  F   UNL A   1      47.624  25.651  32.267  1.00  0.00    -0.206 F 
ATOM     85  C   UNL A   1      49.812  25.364  31.468  1.00  0.00     0.040 A 
ATOM     86  C   UNL A   1      50.410  26.164  29.276  1.00  0.00     0.040 A 
ATOM     87  F   UNL A   1      48.822  27.271  27.955  1.00  0.00    -0.206 F 
ATOM     88  C   UNL A   1      50.765  25.527  30.462  1.00  0.00     0.006 A 
ENDBRANCH  64  81
ENDBRANCH  38  39
ENDBRANCH  30  33
ENDBRANCH  28  29
ENDBRANCH   1  28
TORSDOF 13
ENDMDL
MODEL 2
REMARK VINA RESULT:     -11.9      2.643      4.851
REMARK SMILES Cc1c[nH]c(C[N@H+]2C[C@@H]3CN(S(C)(=O)=O)C[C@]3(C(=O)NCCCNC(=O)c3ccc(-c4c5nc(c(-c6c(F)cccc6F)c6ccc([nH]6)c(-c6c(F)cccc6F)c6nc(c(-c7c(F)cccc7F)c7ccc4[nH]7)C=C6)C=C5)cc3)C2)n1
REMARK SMILES IDX 22 1 21 2 20 3 18 4 19 5 17 7 7 8 8 9 81 10 9 12 10 13 16 14
REMARK SMILES IDX 11 15 6 16 5 17 1 18 2 19 3 20 82 21 4 22 12 24 13 25 14 26
REMARK SMILES IDX 15 27 23 28 24 29 25 30 26 32 27 33 28 34 80 35 29 36 79 37
REMARK SMILES IDX 30 38 31 39 32 40 73 41 33 42 78 43 72 44 74 45 34 46 77 47
REMARK SMILES IDX 71 48 70 49 35 51 61 52 44 53 60 54 45 55 48 56 59 57 75 58
REMARK SMILES IDX 46 59 47 60 58 62 76 63 49 64 36 65 37 66 42 67 38 68 39 69
REMARK SMILES IDX 41 70 43 71 40 72 62 73 63 74 68 75 64 76 65 77 67 78 69 79
REMARK SMILES IDX 66 80 50 81 51 82 56 83 52 84 53 85 55 86 57 87 54 88
REMARK H PARENT 20 6 7 11 4 23 24 31 74 50 48 61
REMARK Flexibility Score: inf
ROOT
ATOM      1  C   UNL A   1      33.216  28.220  27.273  1.00  0.00     0.042 C 
ENDROOT
BRANCH   1   2
ATOM      2  C   UNL A   1      31.708  28.294  27.045  1.00  0.00     0.117 C 
BRANCH   2   3
ATOM      3  N   UNL A   1      31.104  26.981  27.195  1.00  0.00    -0.355 N 
ATOM      4  C   UNL A   1      30.684  26.132  26.193  1.00  0.00     0.233 C 
ATOM      5  O   UNL A   1      29.794  25.326  26.467  1.00  0.00    -0.274 OA
ATOM      6  H   UNL A   1      30.980  26.660  28.118  1.00  0.00     0.163 HD
BRANCH   4   7
ATOM      7  C   UNL A   1      31.404  26.257  24.794  1.00  0.00     0.121 C 
ATOM      8  N   UNL A   1      33.428  24.796  24.397  1.00  0.00    -0.327 N 
ATOM      9  C   UNL A   1      32.953  25.250  23.113  1.00  0.00     0.268 C 
ATOM     10  C   UNL A   1      32.309  25.047  25.335  1.00  0.00     0.281 C 
ATOM     11  H   UNL A   1      34.270  25.303  24.669  1.00  0.00     0.348 HD
ATOM     12  C   UNL A   1      31.484  25.523  23.369  1.00  0.00     0.082 C 
ATOM     13  C   UNL A   1      30.955  26.405  22.241  1.00  0.00     0.113 C 
ATOM     14  C   UNL A   1      30.019  26.833  24.309  1.00  0.00     0.125 C 
ATOM     15  N   UNL A   1      30.250  27.434  22.974  1.00  0.00    -0.200 NA
BRANCH   8  16
ATOM     16  C   UNL A   1      33.878  23.386  24.407  1.00  0.00     0.338 C 
BRANCH  16  17
ATOM     17  C   UNL A   1      35.352  23.182  24.635  1.00  0.00     0.161 A 
ATOM     18  C   UNL A   1      38.432  23.705  26.335  1.00  0.00     0.068 C 
ATOM     19  C   UNL A   1      37.345  23.226  25.454  1.00  0.00     0.056 A 
ATOM     20  C   UNL A   1      37.314  22.150  24.597  1.00  0.00     0.107 A 
ATOM     21  N   UNL A   1      36.133  23.868  25.446  1.00  0.00    -0.233 NA
ATOM     22  N   UNL A   1      36.057  22.152  24.059  1.00  0.00    -0.344 N 
ATOM     23  H   UNL A   1      35.716  21.526  23.379  1.00  0.00     0.167 HD
ENDBRANCH  16  17
ENDBRANCH   8  16
BRANCH  15  24
ATOM     24  S   UNL A   1      30.748  29.034  22.802  1.00  0.00     0.211 S 
ATOM     25  C   UNL A   1      32.524  28.943  22.589  1.00  0.00     0.176 C 
ATOM     26  O   UNL A   1      30.207  29.526  21.555  1.00  0.00    -0.213 OA
ATOM     27  O   UNL A   1      30.484  29.717  24.052  1.00  0.00    -0.213 OA
ENDBRANCH  15  24
ENDBRANCH   4   7
ENDBRANCH   2   3
ENDBRANCH   1   2
BRANCH   1  28
ATOM     28  C   UNL A   1      33.983  29.147  26.350  1.00  0.00     0.118 C 
BRANCH  28  29
ATOM     29  N   UNL A   1      33.879  30.526  26.803  1.00  0.00    -0.352 N 
ATOM     30  C   UNL A   1      34.527  31.150  27.840  1.00  0.00     0.251 C 
ATOM     31  H   UNL A   1      33.255  31.092  26.293  1.00  0.00     0.163 HD
ATOM     32  O   UNL A   1      34.051  32.176  28.318  1.00  0.00    -0.269 OA
BRANCH  30  33
ATOM     33  C   UNL A   1      35.797  30.603  28.371  1.00  0.00     0.039 A 
ATOM     34  C   UNL A   1      37.001  30.925  27.741  1.00  0.00     0.014 A 
ATOM     35  C   UNL A   1      35.799  29.718  29.451  1.00  0.00     0.014 A 
ATOM     36  C   UNL A   1      38.199  30.381  28.212  1.00  0.00     0.010 A 
ATOM     37  C   UNL A   1      36.998  29.286  30.001  1.00  0.00     0.010 A 
ATOM     38  C   UNL A   1      38.210  29.574  29.361  1.00  0.00    -0.014 A 
BRANCH  38  39
ATOM     39  C   UNL A   1      39.460  28.962  29.877  1.00  0.00     0.031 A 
ATOM     40  C   UNL A   1      40.110  29.524  31.119  1.00  0.00     0.074 A 
ATOM     41  C   UNL A   1      40.043  27.953  29.201  1.00  0.00     0.049 A 
ATOM     42  N   UNL A   1      41.241  29.188  31.685  1.00  0.00    -0.248 NA
ATOM     43  C   UNL A   1      39.416  30.635  31.796  1.00  0.00     0.031 C 
ATOM     44  C   UNL A   1      39.540  27.362  27.958  1.00  0.00     0.029 A 
ATOM     45  N   UNL A   1      41.192  27.250  29.459  1.00  0.00    -0.354 N 
ATOM     46  C   UNL A   1      41.405  30.063  32.754  1.00  0.00     0.074 A 
ATOM     47  C   UNL A   1      40.290  30.981  32.727  1.00  0.00     0.031 C 
ATOM     48  C   UNL A   1      40.356  26.365  27.583  1.00  0.00     0.029 A 
ATOM     49  C   UNL A   1      41.464  26.276  28.528  1.00  0.00     0.049 A 
ATOM     50  H   UNL A   1      41.767  27.426  30.239  1.00  0.00     0.167 HD
ATOM     51  C   UNL A   1      42.383  30.083  33.688  1.00  0.00     0.037 A 
ATOM     52  C   UNL A   1      42.496  25.417  28.446  1.00  0.00     0.037 A 
ATOM     53  C   UNL A   1      43.461  29.133  33.740  1.00  0.00     0.049 A 
ATOM     54  C   UNL A   1      43.562  25.457  29.507  1.00  0.00     0.074 A 
ATOM     55  C   UNL A   1      44.454  29.009  34.695  1.00  0.00     0.029 A 
ATOM     56  N   UNL A   1      43.684  28.144  32.795  1.00  0.00    -0.354 N 
ATOM     57  N   UNL A   1      43.655  26.232  30.562  1.00  0.00    -0.248 NA
ATOM     58  C   UNL A   1      44.665  24.496  29.373  1.00  0.00     0.031 C 
ATOM     59  C   UNL A   1      45.314  27.983  34.297  1.00  0.00     0.029 A 
ATOM     60  C   UNL A   1      44.818  27.423  33.130  1.00  0.00     0.049 A 
ATOM     61  H   UNL A   1      43.121  27.978  32.005  1.00  0.00     0.167 HD
ATOM     62  C   UNL A   1      44.799  25.824  31.236  1.00  0.00     0.074 A 
ATOM     63  C   UNL A   1      45.356  24.722  30.480  1.00  0.00     0.031 C 
ATOM     64  C   UNL A   1      45.341  26.313  32.377  1.00  0.00     0.037 A 
BRANCH  51  65
ATOM     65  C   UNL A   1      42.339  31.158  34.737  1.00  0.00     0.057 A 
ATOM     66  C   UNL A   1      42.962  32.401  34.558  1.00  0.00     0.134 A 
ATOM     67  C   UNL A   1      41.602  30.971  35.914  1.00  0.00     0.134 A 
ATOM     68  F   UNL A   1      43.693  32.643  33.460  1.00  0.00    -0.206 F 
ATOM     69  C   UNL A   1      42.866  33.411  35.518  1.00  0.00     0.040 A 
ATOM     70  C   UNL A   1      41.474  31.983  36.866  1.00  0.00     0.040 A 
ATOM     71  F   UNL A   1      40.977  29.807  36.148  1.00  0.00    -0.206 F 
ATOM     72  C   UNL A   1      42.109  33.207  36.670  1.00  0.00     0.006 A 
ENDBRANCH  51  65
BRANCH  52  73
ATOM     73  C   UNL A   1      42.579  24.434  27.333  1.00  0.00     0.057 A 
ATOM     74  C   UNL A   1      42.088  23.131  27.482  1.00  0.00     0.134 A 
ATOM     75  C   UNL A   1      43.193  24.753  26.116  1.00  0.00     0.134 A 
ATOM     76  F   UNL A   1      41.502  22.757  28.629  1.00  0.00    -0.206 F 
ATOM     77  C   UNL A   1      42.244  22.169  26.482  1.00  0.00     0.040 A 
ATOM     78  C   UNL A   1      43.325  23.811  25.094  1.00  0.00     0.040 A 
ATOM     79  F   UNL A   1      43.676  25.985  25.903  1.00  0.00    -0.206 F 
ATOM     80  C   UNL A   1      42.863  22.510  25.282  1.00  0.00     0.006 A 
ENDBRANCH  52  73
BRANCH  64  81
ATOM     81  C   UNL A   1      46.561  25.620  32.912  1.00  0.00     0.057 A 
ATOM     82  C   UNL A   1      47.857  25.992  32.533  1.00  0.00     0.134 A 
ATOM     83  C   UNL A   1      46.432  24.585  33.846  1.00  0.00     0.134 A 
ATOM     84  F   UNL A   1      48.049  26.969  31.633  1.00  0.00    -0.206 F 
ATOM     85  C   UNL A   1      48.980  25.335  33.038  1.00  0.00     0.040 A 
ATOM     86  C   UNL A   1      47.547  23.944  34.385  1.00  0.00     0.040 A 
ATOM     87  F   UNL A   1      45.220  24.188  34.264  1.00  0.00    -0.206 F 
ATOM     88  C   UNL A   1      48.826  24.312  33.973  1.00  0.00     0.006 A 
ENDBRANCH  64  81
ENDBRANCH  38  39
ENDBRANCH  30  33
ENDBRANCH  28  29
ENDBRANCH   1  28
TORSDOF 13
ENDMDL
MODEL 3
REMARK VINA RESULT:     -11.7      3.093      6.670
REMARK SMILES Cc1c[nH]c(C[N@H+]2C[C@@H]3CN(S(C)(=O)=O)C[C@]3(C(=O)NCCCNC(=O)c3ccc(-c4c5nc(c(-c6c(F)cccc6F)c6ccc([nH]6)c(-c6c(F)cccc6F)c6nc(c(-c7c(F)cccc7F)c7ccc4[nH]7)C=C6)C=C5)cc3)C2)n1
REMARK SMILES IDX 22 1 21 2 20 3 18 4 19 5 17 7 7 8 8 9 81 10 9 12 10 13 16 14
REMARK SMILES IDX 11 15 6 16 5 17 1 18 2 19 3 20 82 21 4 22 12 24 13 25 14 26
REMARK SMILES IDX 15 27 23 28 24 29 25 30 26 32 27 33 28 34 80 35 29 36 79 37
REMARK SMILES IDX 30 38 31 39 32 40 73 41 33 42 78 43 72 44 74 45 34 46 77 47
REMARK SMILES IDX 71 48 70 49 35 51 61 52 44 53 60 54 45 55 48 56 59 57 75 58
REMARK SMILES IDX 46 59 47 60 58 62 76 63 49 64 36 65 37 66 42 67 38 68 39 69
REMARK SMILES IDX 41 70 43 71 40 72 62 73 63 74 68 75 64 76 65 77 67 78 69 79
REMARK SMILES IDX 66 80 50 81 51 82 56 83 52 84 53 85 55 86 57 87 54 88
REMARK H PARENT 20 6 7 11 4 23 24 31 74 50 48 61
REMARK Flexibility Score: inf
ROOT
ATOM      1  C   UNL A   1      33.524  29.081  23.331  1.00  0.00     0.042 C 
ENDROOT
BRANCH   1   2
ATOM      2  C   UNL A   1      34.093  27.794  22.738  1.00  0.00     0.117 C 
BRANCH   2   3
ATOM      3  N   UNL A   1      33.259  27.320  21.647  1.00  0.00    -0.355 N 
ATOM      4  C   UNL A   1      32.273  26.359  21.702  1.00  0.00     0.233 C 
ATOM      5  O   UNL A   1      32.016  25.749  20.664  1.00  0.00    -0.274 OA
ATOM      6  H   UNL A   1      33.415  27.735  20.767  1.00  0.00     0.163 HD
BRANCH   4   7
ATOM      7  C   UNL A   1      31.548  26.148  23.089  1.00  0.00     0.121 C 
ATOM      8  N   UNL A   1      29.584  27.651  23.610  1.00  0.00    -0.327 N 
ATOM      9  C   UNL A   1      29.512  26.509  24.489  1.00  0.00     0.268 C 
ATOM     10  C   UNL A   1      30.525  27.254  22.536  1.00  0.00     0.281 C 
ATOM     11  H   UNL A   1      29.912  28.474  24.115  1.00  0.00     0.348 HD
ATOM     12  C   UNL A   1      30.255  25.437  23.718  1.00  0.00     0.082 C 
ATOM     13  C   UNL A   1      30.632  24.321  24.689  1.00  0.00     0.113 C 
ATOM     14  C   UNL A   1      32.189  24.709  23.026  1.00  0.00     0.125 C 
ATOM     15  N   UNL A   1      32.028  24.112  24.374  1.00  0.00    -0.200 NA
BRANCH   8  16
ATOM     16  C   UNL A   1      28.271  28.090  23.087  1.00  0.00     0.338 C 
BRANCH  16  17
ATOM     17  C   UNL A   1      28.200  29.528  22.648  1.00  0.00     0.161 A 
ATOM     18  C   UNL A   1      28.894  33.004  22.942  1.00  0.00     0.068 C 
ATOM     19  C   UNL A   1      28.478  31.660  22.488  1.00  0.00     0.056 A 
ATOM     20  C   UNL A   1      28.019  31.247  21.259  1.00  0.00     0.107 A 
ATOM     21  N   UNL A   1      28.560  30.589  23.343  1.00  0.00    -0.233 NA
ATOM     22  N   UNL A   1      27.814  29.900  21.382  1.00  0.00    -0.344 N 
ATOM     23  H   UNL A   1      27.454  29.303  20.687  1.00  0.00     0.167 HD
ENDBRANCH  16  17
ENDBRANCH   8  16
BRANCH  15  24
ATOM     24  S   UNL A   1      33.174  24.350  25.585  1.00  0.00     0.211 S 
ATOM     25  C   UNL A   1      32.890  23.024  26.754  1.00  0.00     0.176 C 
ATOM     26  O   UNL A   1      34.476  24.118  25.004  1.00  0.00    -0.213 OA
ATOM     27  O   UNL A   1      32.865  25.602  26.247  1.00  0.00    -0.213 OA
ENDBRANCH  15  24
ENDBRANCH   4   7
ENDBRANCH   2   3
ENDBRANCH   1   2
BRANCH   1  28
ATOM     28  C   UNL A   1      33.367  29.001  24.837  1.00  0.00     0.118 C 
BRANCH  28  29
ATOM     29  N   UNL A   1      32.625  30.148  25.339  1.00  0.00    -0.352 N 
ATOM     30  C   UNL A   1      32.740  30.796  26.544  1.00  0.00     0.251 C 
ATOM     31  H   UNL A   1      31.944  30.510  24.728  1.00  0.00     0.163 HD
ATOM     32  O   UNL A   1      31.804  31.476  26.954  1.00  0.00    -0.269 OA
BRANCH  30  33
ATOM     33  C   UNL A   1      33.985  30.690  27.339  1.00  0.00     0.039 A 
ATOM     34  C   UNL A   1      34.728  31.842  27.608  1.00  0.00     0.014 A 
ATOM     35  C   UNL A   1      34.460  29.448  27.765  1.00  0.00     0.014 A 
ATOM     36  C   UNL A   1      35.925  31.745  28.323  1.00  0.00     0.010 A 
ATOM     37  C   UNL A   1      35.574  29.368  28.589  1.00  0.00     0.010 A 
ATOM     38  C   UNL A   1      36.347  30.508  28.840  1.00  0.00    -0.014 A 
BRANCH  38  39
ATOM     39  C   UNL A   1      37.622  30.365  29.586  1.00  0.00     0.031 A 
ATOM     40  C   UNL A   1      38.776  29.622  28.958  1.00  0.00     0.074 A 
ATOM     41  C   UNL A   1      37.722  30.842  30.842  1.00  0.00     0.049 A 
ATOM     42  N   UNL A   1      39.941  29.318  29.470  1.00  0.00    -0.248 NA
ATOM     43  C   UNL A   1      38.584  29.121  27.585  1.00  0.00     0.031 C 
ATOM     44  C   UNL A   1      36.657  31.530  31.577  1.00  0.00     0.029 A 
ATOM     45  N   UNL A   1      38.769  30.815  31.728  1.00  0.00    -0.354 N 
ATOM     46  C   UNL A   1      40.598  28.567  28.500  1.00  0.00     0.074 A 
ATOM     47  C   UNL A   1      39.685  28.413  27.391  1.00  0.00     0.031 C 
ATOM     48  C   UNL A   1      37.117  31.889  32.785  1.00  0.00     0.029 A 
ATOM     49  C   UNL A   1      38.489  31.417  32.931  1.00  0.00     0.049 A 
ATOM     50  H   UNL A   1      39.639  30.403  31.520  1.00  0.00     0.167 HD
ATOM     51  C   UNL A   1      41.858  28.075  28.521  1.00  0.00     0.037 A 
ATOM     52  C   UNL A   1      39.254  31.561  34.030  1.00  0.00     0.037 A 
ATOM     53  C   UNL A   1      42.779  28.279  29.606  1.00  0.00     0.049 A 
ATOM     54  C   UNL A   1      40.655  31.011  34.017  1.00  0.00     0.074 A 
ATOM     55  C   UNL A   1      44.107  27.899  29.690  1.00  0.00     0.029 A 
ATOM     56  N   UNL A   1      42.467  28.919  30.795  1.00  0.00    -0.354 N 
ATOM     57  N   UNL A   1      41.292  30.382  33.057  1.00  0.00    -0.248 NA
ATOM     58  C   UNL A   1      41.449  31.198  35.239  1.00  0.00     0.031 C 
ATOM     59  C   UNL A   1      44.582  28.256  30.954  1.00  0.00     0.029 A 
ATOM     60  C   UNL A   1      43.570  28.919  31.631  1.00  0.00     0.049 A 
ATOM     61  H   UNL A   1      41.592  29.315  31.011  1.00  0.00     0.167 HD
ATOM     62  C   UNL A   1      42.570  30.139  33.544  1.00  0.00     0.074 A 
ATOM     63  C   UNL A   1      42.622  30.702  34.876  1.00  0.00     0.031 C 
ATOM     64  C   UNL A   1      43.608  29.508  32.945  1.00  0.00     0.037 A 
BRANCH  51  65
ATOM     65  C   UNL A   1      42.324  27.272  27.341  1.00  0.00     0.057 A 
ATOM     66  C   UNL A   1      42.232  25.873  27.306  1.00  0.00     0.134 A 
ATOM     67  C   UNL A   1      42.808  27.913  26.193  1.00  0.00     0.134 A 
ATOM     68  F   UNL A   1      41.789  25.195  28.375  1.00  0.00    -0.206 F 
ATOM     69  C   UNL A   1      42.617  25.143  26.179  1.00  0.00     0.040 A 
ATOM     70  C   UNL A   1      43.168  27.196  25.050  1.00  0.00     0.040 A 
ATOM     71  F   UNL A   1      42.919  29.249  26.155  1.00  0.00    -0.206 F 
ATOM     72  C   UNL A   1      43.075  25.806  25.043  1.00  0.00     0.006 A 
ENDBRANCH  51  65
BRANCH  52  73
ATOM     73  C   UNL A   1      38.732  32.262  35.232  1.00  0.00     0.057 A 
ATOM     74  C   UNL A   1      38.194  31.547  36.309  1.00  0.00     0.134 A 
ATOM     75  C   UNL A   1      38.711  33.660  35.315  1.00  0.00     0.134 A 
ATOM     76  F   UNL A   1      38.170  30.206  36.284  1.00  0.00    -0.206 F 
ATOM     77  C   UNL A   1      37.613  32.193  37.402  1.00  0.00     0.040 A 
ATOM     78  C   UNL A   1      38.164  34.319  36.418  1.00  0.00     0.040 A 
ATOM     79  F   UNL A   1      39.218  34.406  34.324  1.00  0.00    -0.206 F 
ATOM     80  C   UNL A   1      37.599  33.585  37.459  1.00  0.00     0.006 A 
ENDBRANCH  52  73
BRANCH  64  81
ATOM     81  C   UNL A   1      44.906  29.451  33.697  1.00  0.00     0.057 A 
ATOM     82  C   UNL A   1      45.232  28.383  34.542  1.00  0.00     0.134 A 
ATOM     83  C   UNL A   1      45.856  30.469  33.544  1.00  0.00     0.134 A 
ATOM     84  F   UNL A   1      44.361  27.381  34.740  1.00  0.00    -0.206 F 
ATOM     85  C   UNL A   1      46.442  28.347  35.237  1.00  0.00     0.040 A 
ATOM     86  C   UNL A   1      47.084  30.427  34.205  1.00  0.00     0.040 A 
ATOM     87  F   UNL A   1      45.614  31.514  32.739  1.00  0.00    -0.206 F 
ATOM     88  C   UNL A   1      47.375  29.368  35.062  1.00  0.00     0.006 A 
ENDBRANCH  64  81
ENDBRANCH  38  39
ENDBRANCH  30  33
ENDBRANCH  28  29
ENDBRANCH   1  28
TORSDOF 13
ENDMDL
