MODEL 1
REMARK VINA RESULT:     -11.8      0.000      0.000
REMARK SMILES C[C@H]1[C@H]([NH+]2CCC(CC(=O)NCCCNC(=O)c3ccc(-c4c5nc(c(-c6c(F)cccc6F)c6ccc([nH]6)c(-c6c(F)cccc6F)c6nc(c(-c7c(F)cccc7F)c7ccc4[nH]7)C=C6)C=C5)cc3)CC2)CCC[C@@H]1C
REMARK SMILES IDX 13 1 12 2 11 3 9 4 10 5 8 7 7 8 4 9 5 10 73 11 6 13 72 14
REMARK SMILES IDX 3 15 1 16 2 17 77 18 74 19 76 20 78 21 75 22 14 23 15 24
REMARK SMILES IDX 16 25 17 27 18 28 19 29 71 30 20 31 70 32 21 33 22 34 23 35
REMARK SMILES IDX 64 36 24 37 69 38 63 39 65 40 25 41 68 42 62 43 61 44 26 46
REMARK SMILES IDX 52 47 35 48 51 49 36 50 39 51 50 52 66 53 37 54 38 55 49 57
REMARK SMILES IDX 67 58 40 59 27 60 28 61 33 62 29 63 30 64 32 65 34 66 31 67
REMARK SMILES IDX 53 68 54 69 59 70 55 71 56 72 58 73 60 74 57 75 41 76 42 77
REMARK SMILES IDX 47 78 43 79 44 80 46 81 48 82 45 83
REMARK H PARENT 11 6 4 12 15 26 65 45 39 56
REMARK Flexibility Score: inf
ROOT
ATOM      1  C   UNL A   1      37.113  19.554  24.955  1.00  0.00     0.042 C 
ENDROOT
BRANCH   1   2
ATOM      2  C   UNL A   1      35.854  20.421  25.006  1.00  0.00     0.117 C 
BRANCH   2   3
ATOM      3  N   UNL A   1      34.643  19.618  25.114  1.00  0.00    -0.356 N 
ATOM      4  C   UNL A   1      33.346  19.895  24.790  1.00  0.00     0.220 C 
ATOM      5  O   UNL A   1      32.497  19.034  25.027  1.00  0.00    -0.275 OA
ATOM      6  H   UNL A   1      34.786  18.717  25.485  1.00  0.00     0.163 HD
BRANCH   4   7
ATOM      7  C   UNL A   1      32.946  21.215  24.150  1.00  0.00     0.104 C 
BRANCH   7   8
ATOM      8  C   UNL A   1      31.929  22.045  24.974  1.00  0.00     0.009 C 
ATOM      9  N   UNL A   1      31.823  24.861  25.961  1.00  0.00    -0.332 N 
ATOM     10  C   UNL A   1      30.906  24.401  24.921  1.00  0.00     0.262 C 
ATOM     11  C   UNL A   1      32.077  23.801  26.917  1.00  0.00     0.262 C 
ATOM     12  H   UNL A   1      31.310  25.596  26.450  1.00  0.00     0.348 HD
ATOM     13  C   UNL A   1      31.410  23.208  24.115  1.00  0.00     0.066 C 
ATOM     14  C   UNL A   1      32.568  22.506  26.284  1.00  0.00     0.066 C 
BRANCH   9  15
ATOM     15  C   UNL A   1      32.891  25.850  25.662  1.00  0.00     0.187 C 
ATOM     16  C   UNL A   1      34.052  25.158  23.459  1.00  0.00     0.014 C 
ATOM     17  C   UNL A   1      33.180  26.216  24.162  1.00  0.00     0.047 C 
ATOM     18  C   UNL A   1      33.881  27.587  23.911  1.00  0.00    -0.006 C 
ATOM     19  C   UNL A   1      32.650  27.082  26.568  1.00  0.00     0.065 C 
ATOM     20  C   UNL A   1      33.419  28.690  24.853  1.00  0.00     0.004 C 
ATOM     21  C   UNL A   1      33.742  28.030  22.442  1.00  0.00     0.008 C 
ATOM     22  C   UNL A   1      33.594  28.236  26.292  1.00  0.00     0.006 C 
ENDBRANCH   9  15
ENDBRANCH   7   8
ENDBRANCH   4   7
ENDBRANCH   2   3
ENDBRANCH   1   2
BRANCH   1  23
ATOM     23  C   UNL A   1      38.397  20.269  25.335  1.00  0.00     0.118 C 
BRANCH  23  24
ATOM     24  N   UNL A   1      39.496  19.343  25.549  1.00  0.00    -0.352 N 
ATOM     25  C   UNL A   1      40.776  19.563  26.001  1.00  0.00     0.251 C 
ATOM     26  H   UNL A   1      39.290  18.404  25.336  1.00  0.00     0.163 HD
ATOM     27  O   UNL A   1      41.598  18.655  25.905  1.00  0.00    -0.269 OA
BRANCH  25  28
ATOM     28  C   UNL A   1      41.194  20.866  26.584  1.00  0.00     0.039 A 
ATOM     29  C   UNL A   1      41.709  21.847  25.728  1.00  0.00     0.014 A 
ATOM     30  C   UNL A   1      41.148  21.122  27.956  1.00  0.00     0.014 A 
ATOM     31  C   UNL A   1      42.128  23.082  26.237  1.00  0.00     0.010 A 
ATOM     32  C   UNL A   1      41.467  22.387  28.450  1.00  0.00     0.010 A 
ATOM     33  C   UNL A   1      41.983  23.376  27.601  1.00  0.00    -0.014 A 
BRANCH  33  34
ATOM     34  C   UNL A   1      42.409  24.688  28.163  1.00  0.00     0.031 A 
ATOM     35  C   UNL A   1      41.398  25.790  28.363  1.00  0.00     0.074 A 
ATOM     36  C   UNL A   1      43.707  24.909  28.456  1.00  0.00     0.049 A 
ATOM     37  N   UNL A   1      41.583  27.022  28.767  1.00  0.00    -0.248 NA
ATOM     38  C   UNL A   1      39.997  25.474  28.039  1.00  0.00     0.031 C 
ATOM     39  C   UNL A   1      44.795  23.947  28.269  1.00  0.00     0.029 A 
ATOM     40  N   UNL A   1      44.332  26.019  28.968  1.00  0.00    -0.354 N 
ATOM     41  C   UNL A   1      40.331  27.624  28.733  1.00  0.00     0.074 A 
ATOM     42  C   UNL A   1      39.404  26.646  28.211  1.00  0.00     0.031 C 
ATOM     43  C   UNL A   1      45.947  24.499  28.684  1.00  0.00     0.029 A 
ATOM     44  C   UNL A   1      45.688  25.864  29.131  1.00  0.00     0.049 A 
ATOM     45  H   UNL A   1      43.853  26.849  29.199  1.00  0.00     0.167 HD
ATOM     46  C   UNL A   1      39.975  28.869  29.132  1.00  0.00     0.037 A 
ATOM     47  C   UNL A   1      46.618  26.726  29.583  1.00  0.00     0.037 A 
ATOM     48  C   UNL A   1      40.887  29.836  29.685  1.00  0.00     0.049 A 
ATOM     49  C   UNL A   1      46.195  28.102  30.020  1.00  0.00     0.074 A 
ATOM     50  C   UNL A   1      40.616  31.111  30.149  1.00  0.00     0.029 A 
ATOM     51  N   UNL A   1      42.246  29.626  29.861  1.00  0.00    -0.354 N 
ATOM     52  N   UNL A   1      44.998  28.638  30.026  1.00  0.00    -0.248 NA
ATOM     53  C   UNL A   1      47.252  28.992  30.524  1.00  0.00     0.031 C 
ATOM     54  C   UNL A   1      41.816  31.684  30.581  1.00  0.00     0.029 A 
ATOM     55  C   UNL A   1      42.827  30.749  30.423  1.00  0.00     0.049 A 
ATOM     56  H   UNL A   1      42.726  28.799  29.623  1.00  0.00     0.167 HD
ATOM     57  C   UNL A   1      45.154  29.911  30.558  1.00  0.00     0.074 A 
ATOM     58  C   UNL A   1      46.557  30.062  30.883  1.00  0.00     0.031 C 
ATOM     59  C   UNL A   1      44.221  30.873  30.758  1.00  0.00     0.037 A 
BRANCH  46  60
ATOM     60  C   UNL A   1      38.529  29.252  29.012  1.00  0.00     0.057 A 
ATOM     61  C   UNL A   1      37.670  29.223  30.119  1.00  0.00     0.134 A 
ATOM     62  C   UNL A   1      38.000  29.703  27.796  1.00  0.00     0.134 A 
ATOM     63  F   UNL A   1      38.111  28.789  31.310  1.00  0.00    -0.206 F 
ATOM     64  C   UNL A   1      36.334  29.614  30.018  1.00  0.00     0.040 A 
ATOM     65  C   UNL A   1      36.672  30.121  27.689  1.00  0.00     0.040 A 
ATOM     66  F   UNL A   1      38.768  29.761  26.698  1.00  0.00    -0.206 F 
ATOM     67  C   UNL A   1      35.834  30.073  28.802  1.00  0.00     0.006 A 
ENDBRANCH  46  60
BRANCH  47  68
ATOM     68  C   UNL A   1      48.045  26.321  29.663  1.00  0.00     0.057 A 
ATOM     69  C   UNL A   1      48.904  26.476  28.568  1.00  0.00     0.134 A 
ATOM     70  C   UNL A   1      48.575  25.732  30.818  1.00  0.00     0.134 A 
ATOM     71  F   UNL A   1      48.451  27.015  27.427  1.00  0.00    -0.206 F 
ATOM     72  C   UNL A   1      50.227  26.031  28.605  1.00  0.00     0.040 A 
ATOM     73  C   UNL A   1      49.903  25.307  30.879  1.00  0.00     0.040 A 
ATOM     74  F   UNL A   1      47.807  25.561  31.904  1.00  0.00    -0.206 F 
ATOM     75  C   UNL A   1      50.730  25.445  29.765  1.00  0.00     0.006 A 
ENDBRANCH  47  68
BRANCH  59  76
ATOM     76  C   UNL A   1      44.679  32.152  31.394  1.00  0.00     0.057 A 
ATOM     77  C   UNL A   1      44.680  32.328  32.782  1.00  0.00     0.134 A 
ATOM     78  C   UNL A   1      45.154  33.208  30.605  1.00  0.00     0.134 A 
ATOM     79  F   UNL A   1      44.226  31.358  33.591  1.00  0.00    -0.206 F 
ATOM     80  C   UNL A   1      45.112  33.521  33.365  1.00  0.00     0.040 A 
ATOM     81  C   UNL A   1      45.612  34.395  31.177  1.00  0.00     0.040 A 
ATOM     82  F   UNL A   1      45.188  33.099  29.269  1.00  0.00    -0.206 F 
ATOM     83  C   UNL A   1      45.585  34.556  32.561  1.00  0.00     0.006 A 
ENDBRANCH  59  76
ENDBRANCH  33  34
ENDBRANCH  25  28
ENDBRANCH  23  24
ENDBRANCH   1  23
TORSDOF 12
ENDMDL
MODEL 2
REMARK VINA RESULT:     -11.7      0.110      1.088
REMARK SMILES C[C@H]1[C@H]([NH+]2CCC(CC(=O)NCCCNC(=O)c3ccc(-c4c5nc(c(-c6c(F)cccc6F)c6ccc([nH]6)c(-c6c(F)cccc6F)c6nc(c(-c7c(F)cccc7F)c7ccc4[nH]7)C=C6)C=C5)cc3)CC2)CCC[C@@H]1C
REMARK SMILES IDX 13 1 12 2 11 3 9 4 10 5 8 7 7 8 4 9 5 10 73 11 6 13 72 14
REMARK SMILES IDX 3 15 1 16 2 17 77 18 74 19 76 20 78 21 75 22 14 23 15 24
REMARK SMILES IDX 16 25 17 27 18 28 19 29 71 30 20 31 70 32 21 33 22 34 23 35
REMARK SMILES IDX 64 36 24 37 69 38 63 39 65 40 25 41 68 42 62 43 61 44 26 46
REMARK SMILES IDX 52 47 35 48 51 49 36 50 39 51 50 52 66 53 37 54 38 55 49 57
REMARK SMILES IDX 67 58 40 59 27 60 28 61 33 62 29 63 30 64 32 65 34 66 31 67
REMARK SMILES IDX 53 68 54 69 59 70 55 71 56 72 58 73 60 74 57 75 41 76 42 77
REMARK SMILES IDX 47 78 43 79 44 80 46 81 48 82 45 83
REMARK H PARENT 11 6 4 12 15 26 65 45 39 56
REMARK Flexibility Score: inf
ROOT
ATOM      1  C   UNL A   1      37.190  19.515  24.975  1.00  0.00     0.042 C 
ENDROOT
BRANCH   1   2
ATOM      2  C   UNL A   1      35.934  20.388  24.976  1.00  0.00     0.117 C 
BRANCH   2   3
ATOM      3  N   UNL A   1      34.722  19.599  25.150  1.00  0.00    -0.356 N 
ATOM      4  C   UNL A   1      33.416  19.880  24.865  1.00  0.00     0.220 C 
ATOM      5  O   UNL A   1      32.570  19.033  25.157  1.00  0.00    -0.275 OA
ATOM      6  H   UNL A   1      34.871  18.708  25.540  1.00  0.00     0.163 HD
BRANCH   4   7
ATOM      7  C   UNL A   1      33.003  21.185  24.203  1.00  0.00     0.104 C 
BRANCH   7   8
ATOM      8  C   UNL A   1      31.944  21.996  24.991  1.00  0.00     0.009 C 
ATOM      9  N   UNL A   1      31.748  24.812  25.964  1.00  0.00    -0.332 N 
ATOM     10  C   UNL A   1      30.876  24.331  24.896  1.00  0.00     0.262 C 
ATOM     11  C   UNL A   1      31.992  23.760  26.932  1.00  0.00     0.262 C 
ATOM     12  H   UNL A   1      31.205  25.538  26.434  1.00  0.00     0.348 HD
ATOM     13  C   UNL A   1      31.430  23.146  24.112  1.00  0.00     0.066 C 
ATOM     14  C   UNL A   1      32.530  22.473  26.319  1.00  0.00     0.066 C 
BRANCH   9  15
ATOM     15  C   UNL A   1      32.805  25.821  25.697  1.00  0.00     0.187 C 
ATOM     16  C   UNL A   1      34.091  25.115  23.569  1.00  0.00     0.014 C 
ATOM     17  C   UNL A   1      33.159  26.165  24.206  1.00  0.00     0.047 C 
ATOM     18  C   UNL A   1      33.838  27.547  23.960  1.00  0.00    -0.006 C 
ATOM     19  C   UNL A   1      32.489  27.065  26.563  1.00  0.00     0.065 C 
ATOM     20  C   UNL A   1      33.303  28.658  24.854  1.00  0.00     0.004 C 
ATOM     21  C   UNL A   1      33.762  27.957  22.476  1.00  0.00     0.008 C 
ATOM     22  C   UNL A   1      33.418  28.237  26.308  1.00  0.00     0.006 C 
ENDBRANCH   9  15
ENDBRANCH   7   8
ENDBRANCH   4   7
ENDBRANCH   2   3
ENDBRANCH   1   2
BRANCH   1  23
ATOM     23  C   UNL A   1      38.474  20.241  25.334  1.00  0.00     0.118 C 
BRANCH  23  24
ATOM     24  N   UNL A   1      39.572  19.322  25.581  1.00  0.00    -0.352 N 
ATOM     25  C   UNL A   1      40.855  19.557  26.017  1.00  0.00     0.251 C 
ATOM     26  H   UNL A   1      39.362  18.375  25.408  1.00  0.00     0.163 HD
ATOM     27  O   UNL A   1      41.674  18.644  25.954  1.00  0.00    -0.269 OA
BRANCH  25  28
ATOM     28  C   UNL A   1      41.279  20.882  26.543  1.00  0.00     0.039 A 
ATOM     29  C   UNL A   1      41.155  21.126  27.917  1.00  0.00     0.014 A 
ATOM     30  C   UNL A   1      41.735  21.907  25.712  1.00  0.00     0.014 A 
ATOM     31  C   UNL A   1      41.530  22.364  28.452  1.00  0.00     0.010 A 
ATOM     32  C   UNL A   1      42.205  23.103  26.257  1.00  0.00     0.010 A 
ATOM     33  C   UNL A   1      42.087  23.357  27.631  1.00  0.00    -0.014 A 
BRANCH  33  34
ATOM     34  C   UNL A   1      42.504  24.676  28.180  1.00  0.00     0.031 A 
ATOM     35  C   UNL A   1      41.485  25.771  28.378  1.00  0.00     0.074 A 
ATOM     36  C   UNL A   1      43.802  24.911  28.463  1.00  0.00     0.049 A 
ATOM     37  N   UNL A   1      41.662  27.007  28.772  1.00  0.00    -0.248 NA
ATOM     38  C   UNL A   1      40.084  25.440  28.066  1.00  0.00     0.031 C 
ATOM     39  C   UNL A   1      44.898  23.957  28.276  1.00  0.00     0.029 A 
ATOM     40  N   UNL A   1      44.420  26.030  28.962  1.00  0.00    -0.354 N 
ATOM     41  C   UNL A   1      40.405  27.599  28.742  1.00  0.00     0.074 A 
ATOM     42  C   UNL A   1      39.482  26.608  28.234  1.00  0.00     0.031 C 
ATOM     43  C   UNL A   1      46.047  24.523  28.678  1.00  0.00     0.029 A 
ATOM     44  C   UNL A   1      45.780  25.889  29.117  1.00  0.00     0.049 A 
ATOM     45  H   UNL A   1      43.936  26.858  29.189  1.00  0.00     0.167 HD
ATOM     46  C   UNL A   1      40.040  28.843  29.133  1.00  0.00     0.037 A 
ATOM     47  C   UNL A   1      46.705  26.763  29.556  1.00  0.00     0.037 A 
ATOM     48  C   UNL A   1      40.947  29.822  29.673  1.00  0.00     0.049 A 
ATOM     49  C   UNL A   1      46.272  28.138  29.986  1.00  0.00     0.074 A 
ATOM     50  C   UNL A   1      40.668  31.098  30.130  1.00  0.00     0.029 A 
ATOM     51  N   UNL A   1      42.309  29.625  29.842  1.00  0.00    -0.354 N 
ATOM     52  N   UNL A   1      45.071  28.663  29.995  1.00  0.00    -0.248 NA
ATOM     53  C   UNL A   1      47.324  29.041  30.475  1.00  0.00     0.031 C 
ATOM     54  C   UNL A   1      41.866  31.685  30.549  1.00  0.00     0.029 A 
ATOM     55  C   UNL A   1      42.883  30.758  30.390  1.00  0.00     0.049 A 
ATOM     56  H   UNL A   1      42.795  28.801  29.606  1.00  0.00     0.167 HD
ATOM     57  C   UNL A   1      45.219  29.941  30.517  1.00  0.00     0.074 A 
ATOM     58  C   UNL A   1      46.623  30.107  30.831  1.00  0.00     0.031 C 
ATOM     59  C   UNL A   1      44.279  30.897  30.715  1.00  0.00     0.037 A 
BRANCH  46  60
ATOM     60  C   UNL A   1      38.590  29.212  29.021  1.00  0.00     0.057 A 
ATOM     61  C   UNL A   1      37.733  29.164  30.129  1.00  0.00     0.134 A 
ATOM     62  C   UNL A   1      38.053  29.670  27.810  1.00  0.00     0.134 A 
ATOM     63  F   UNL A   1      38.181  28.723  31.315  1.00  0.00    -0.206 F 
ATOM     64  C   UNL A   1      36.394  29.542  30.035  1.00  0.00     0.040 A 
ATOM     65  C   UNL A   1      36.721  30.075  27.710  1.00  0.00     0.040 A 
ATOM     66  F   UNL A   1      38.818  29.746  26.711  1.00  0.00    -0.206 F 
ATOM     67  C   UNL A   1      35.886  30.008  28.824  1.00  0.00     0.006 A 
ENDBRANCH  46  60
BRANCH  47  68
ATOM     68  C   UNL A   1      48.136  26.371  29.630  1.00  0.00     0.057 A 
ATOM     69  C   UNL A   1      48.661  25.761  30.775  1.00  0.00     0.134 A 
ATOM     70  C   UNL A   1      49.021  26.633  28.577  1.00  0.00     0.134 A 
ATOM     71  F   UNL A   1      47.868  25.501  31.825  1.00  0.00    -0.206 F 
ATOM     72  C   UNL A   1      50.019  25.455  30.886  1.00  0.00     0.040 A 
ATOM     73  C   UNL A   1      50.376  26.309  28.663  1.00  0.00     0.040 A 
ATOM     74  F   UNL A   1      48.581  27.210  27.449  1.00  0.00    -0.206 F 
ATOM     75  C   UNL A   1      50.881  25.729  29.827  1.00  0.00     0.006 A 
ENDBRANCH  47  68
BRANCH  59  76
ATOM     76  C   UNL A   1      44.730  32.185  31.338  1.00  0.00     0.057 A 
ATOM     77  C   UNL A   1      44.738  32.371  32.725  1.00  0.00     0.134 A 
ATOM     78  C   UNL A   1      45.190  33.239  30.538  1.00  0.00     0.134 A 
ATOM     79  F   UNL A   1      44.299  31.404  33.545  1.00  0.00    -0.206 F 
ATOM     80  C   UNL A   1      45.164  33.572  33.296  1.00  0.00     0.040 A 
ATOM     81  C   UNL A   1      45.642  34.434  31.098  1.00  0.00     0.040 A 
ATOM     82  F   UNL A   1      45.216  33.120  29.203  1.00  0.00    -0.206 F 
ATOM     83  C   UNL A   1      45.623  34.605  32.481  1.00  0.00     0.006 A 
ENDBRANCH  59  76
ENDBRANCH  33  34
ENDBRANCH  25  28
ENDBRANCH  23  24
ENDBRANCH   1  23
TORSDOF 12
ENDMDL
MODEL 3
REMARK VINA RESULT:     -11.5      2.375      7.485
REMARK SMILES C[C@H]1[C@H]([NH+]2CCC(CC(=O)NCCCNC(=O)c3ccc(-c4c5nc(c(-c6c(F)cccc6F)c6ccc([nH]6)c(-c6c(F)cccc6F)c6nc(c(-c7c(F)cccc7F)c7ccc4[nH]7)C=C6)C=C5)cc3)CC2)CCC[C@@H]1C
REMARK SMILES IDX 13 1 12 2 11 3 9 4 10 5 8 7 7 8 4 9 5 10 73 11 6 13 72 14
REMARK SMILES IDX 3 15 1 16 2 17 77 18 74 19 76 20 78 21 75 22 14 23 15 24
REMARK SMILES IDX 16 25 17 27 18 28 19 29 71 30 20 31 70 32 21 33 22 34 23 35
REMARK SMILES IDX 64 36 24 37 69 38 63 39 65 40 25 41 68 42 62 43 61 44 26 46
REMARK SMILES IDX 52 47 35 48 51 49 36 50 39 51 50 52 66 53 37 54 38 55 49 57
REMARK SMILES IDX 67 58 40 59 27 60 28 61 33 62 29 63 30 64 32 65 34 66 31 67
REMARK SMILES IDX 53 68 54 69 59 70 55 71 56 72 58 73 60 74 57 75 41 76 42 77
REMARK SMILES IDX 47 78 43 79 44 80 46 81 48 82 45 83
REMARK H PARENT 11 6 4 12 15 26 65 45 39 56
REMARK Flexibility Score: inf
ROOT
ATOM      1  C   UNL A   1      32.560  28.439  26.969  1.00  0.00     0.042 C 
ENDROOT
BRANCH   1   2
ATOM      2  C   UNL A   1      32.544  26.985  26.495  1.00  0.00     0.117 C 
BRANCH   2   3
ATOM      3  N   UNL A   1      31.255  26.348  26.732  1.00  0.00    -0.356 N 
ATOM      4  C   UNL A   1      30.663  25.266  26.146  1.00  0.00     0.220 C 
ATOM      5  O   UNL A   1      29.528  24.961  26.516  1.00  0.00    -0.275 OA
ATOM      6  H   UNL A   1      30.718  26.773  27.439  1.00  0.00     0.163 HD
BRANCH   4   7
ATOM      7  C   UNL A   1      31.371  24.449  25.076  1.00  0.00     0.104 C 
BRANCH   7   8
ATOM      8  C   UNL A   1      31.564  22.955  25.434  1.00  0.00     0.009 C 
ATOM      9  N   UNL A   1      33.847  21.035  25.292  1.00  0.00    -0.332 N 
ATOM     10  C   UNL A   1      33.330  21.484  26.582  1.00  0.00     0.262 C 
ATOM     11  C   UNL A   1      32.767  20.900  24.333  1.00  0.00     0.262 C 
ATOM     12  H   UNL A   1      34.214  20.100  25.472  1.00  0.00     0.348 HD
ATOM     13  C   UNL A   1      32.617  22.832  26.545  1.00  0.00     0.066 C 
ATOM     14  C   UNL A   1      31.919  22.156  24.181  1.00  0.00     0.066 C 
BRANCH   9  15
ATOM     15  C   UNL A   1      35.198  21.440  24.823  1.00  0.00     0.187 C 
ATOM     16  C   UNL A   1      35.231  24.009  24.544  1.00  0.00     0.014 C 
ATOM     17  C   UNL A   1      35.792  22.804  25.325  1.00  0.00     0.047 C 
ATOM     18  C   UNL A   1      37.345  22.941  25.268  1.00  0.00    -0.006 C 
ATOM     19  C   UNL A   1      36.143  20.233  25.037  1.00  0.00     0.065 C 
ATOM     20  C   UNL A   1      38.084  21.655  25.614  1.00  0.00     0.004 C 
ATOM     21  C   UNL A   1      37.840  24.107  26.145  1.00  0.00     0.008 C 
ATOM     22  C   UNL A   1      37.595  20.532  24.716  1.00  0.00     0.006 C 
ENDBRANCH   9  15
ENDBRANCH   7   8
ENDBRANCH   4   7
ENDBRANCH   2   3
ENDBRANCH   1   2
BRANCH   1  23
ATOM     23  C   UNL A   1      33.940  29.002  27.257  1.00  0.00     0.118 C 
BRANCH  23  24
ATOM     24  N   UNL A   1      33.877  30.301  27.906  1.00  0.00    -0.352 N 
ATOM     25  C   UNL A   1      34.792  30.949  28.702  1.00  0.00     0.251 C 
ATOM     26  H   UNL A   1      33.041  30.798  27.749  1.00  0.00     0.163 HD
ATOM     27  O   UNL A   1      34.435  31.956  29.309  1.00  0.00    -0.269 OA
BRANCH  25  28
ATOM     28  C   UNL A   1      36.187  30.460  28.859  1.00  0.00     0.039 A 
ATOM     29  C   UNL A   1      37.050  30.533  27.757  1.00  0.00     0.014 A 
ATOM     30  C   UNL A   1      36.648  29.876  30.041  1.00  0.00     0.014 A 
ATOM     31  C   UNL A   1      38.367  30.071  27.858  1.00  0.00     0.010 A 
ATOM     32  C   UNL A   1      37.988  29.510  30.173  1.00  0.00     0.010 A 
ATOM     33  C   UNL A   1      38.860  29.581  29.077  1.00  0.00    -0.014 A 
BRANCH  33  34
ATOM     34  C   UNL A   1      40.261  29.096  29.211  1.00  0.00     0.031 A 
ATOM     35  C   UNL A   1      41.329  30.010  29.759  1.00  0.00     0.074 A 
ATOM     36  C   UNL A   1      40.588  27.853  28.804  1.00  0.00     0.049 A 
ATOM     37  N   UNL A   1      42.616  29.800  29.883  1.00  0.00    -0.248 NA
ATOM     38  C   UNL A   1      40.898  31.347  30.201  1.00  0.00     0.031 C 
ATOM     39  C   UNL A   1      39.664  26.882  28.213  1.00  0.00     0.029 A 
ATOM     40  N   UNL A   1      41.793  27.194  28.819  1.00  0.00    -0.354 N 
ATOM     41  C   UNL A   1      43.144  30.976  30.403  1.00  0.00     0.074 A 
ATOM     42  C   UNL A   1      42.053  31.918  30.513  1.00  0.00     0.031 C 
ATOM     43  C   UNL A   1      40.329  25.746  27.947  1.00  0.00     0.029 A 
ATOM     44  C   UNL A   1      41.732  25.918  28.311  1.00  0.00     0.049 A 
ATOM     45  H   UNL A   1      42.623  27.597  29.162  1.00  0.00     0.167 HD
ATOM     46  C   UNL A   1      44.416  31.241  30.786  1.00  0.00     0.037 A 
ATOM     47  C   UNL A   1      42.698  24.993  28.152  1.00  0.00     0.037 A 
ATOM     48  C   UNL A   1      45.499  30.297  30.712  1.00  0.00     0.049 A 
ATOM     49  C   UNL A   1      44.102  25.314  28.588  1.00  0.00     0.074 A 
ATOM     50  C   UNL A   1      46.815  30.460  31.107  1.00  0.00     0.029 A 
ATOM     51  N   UNL A   1      45.386  29.005  30.221  1.00  0.00    -0.354 N 
ATOM     52  N   UNL A   1      44.572  26.416  29.121  1.00  0.00    -0.248 NA
ATOM     53  C   UNL A   1      45.109  24.258  28.408  1.00  0.00     0.031 C 
ATOM     54  C   UNL A   1      47.506  29.276  30.830  1.00  0.00     0.029 A 
ATOM     55  C   UNL A   1      46.609  28.363  30.299  1.00  0.00     0.049 A 
ATOM     56  H   UNL A   1      44.558  28.605  29.869  1.00  0.00     0.167 HD
ATOM     57  C   UNL A   1      45.917  26.175  29.366  1.00  0.00     0.074 A 
ATOM     58  C   UNL A   1      46.185  24.816  28.943  1.00  0.00     0.031 C 
ATOM     59  C   UNL A   1      46.851  27.004  29.891  1.00  0.00     0.037 A 
BRANCH  46  60
ATOM     60  C   UNL A   1      44.704  32.602  31.350  1.00  0.00     0.057 A 
ATOM     61  C   UNL A   1      45.052  33.679  30.523  1.00  0.00     0.134 A 
ATOM     62  C   UNL A   1      44.583  32.855  32.723  1.00  0.00     0.134 A 
ATOM     63  F   UNL A   1      45.197  33.501  29.201  1.00  0.00    -0.206 F 
ATOM     64  C   UNL A   1      45.284  34.953  31.041  1.00  0.00     0.040 A 
ATOM     65  C   UNL A   1      44.788  34.131  33.250  1.00  0.00     0.040 A 
ATOM     66  F   UNL A   1      44.247  31.871  33.570  1.00  0.00    -0.206 F 
ATOM     67  C   UNL A   1      45.144  35.184  32.409  1.00  0.00     0.006 A 
ENDBRANCH  46  60
BRANCH  47  68
ATOM     68  C   UNL A   1      42.381  23.666  27.566  1.00  0.00     0.057 A 
ATOM     69  C   UNL A   1      42.268  23.495  26.181  1.00  0.00     0.134 A 
ATOM     70  C   UNL A   1      42.142  22.547  28.373  1.00  0.00     0.134 A 
ATOM     71  F   UNL A   1      42.465  24.533  25.355  1.00  0.00    -0.206 F 
ATOM     72  C   UNL A   1      41.897  22.271  25.621  1.00  0.00     0.040 A 
ATOM     73  C   UNL A   1      41.797  21.311  27.827  1.00  0.00     0.040 A 
ATOM     74  F   UNL A   1      42.240  22.642  29.708  1.00  0.00    -0.206 F 
ATOM     75  C   UNL A   1      41.661  21.173  26.445  1.00  0.00     0.006 A 
ENDBRANCH  47  68
BRANCH  59  76
ATOM     76  C   UNL A   1      48.234  26.451  30.077  1.00  0.00     0.057 A 
ATOM     77  C   UNL A   1      49.215  26.569  29.086  1.00  0.00     0.134 A 
ATOM     78  C   UNL A   1      48.592  25.821  31.275  1.00  0.00     0.134 A 
ATOM     79  F   UNL A   1      48.931  27.151  27.911  1.00  0.00    -0.206 F 
ATOM     80  C   UNL A   1      50.500  26.054  29.270  1.00  0.00     0.040 A 
ATOM     81  C   UNL A   1      49.879  25.326  31.481  1.00  0.00     0.040 A 
ATOM     82  F   UNL A   1      47.700  25.685  32.268  1.00  0.00    -0.206 F 
ATOM     83  C   UNL A   1      50.836  25.436  30.473  1.00  0.00     0.006 A 
ENDBRANCH  59  76
ENDBRANCH  33  34
ENDBRANCH  25  28
ENDBRANCH  23  24
ENDBRANCH   1  23
TORSDOF 12
ENDMDL
