MODEL 1
REMARK VINA RESULT:     -11.2      0.000      0.000
REMARK SMILES O=C(CNC(=O)c1cccs1)N[C@@H]1C=C[C@H](C(=O)NCCCNC(=O)c2ccc(-c3c4nc(c(-c5c(F)cccc5F)c5ccc([nH]5)c(-c5c(F)cccc5F)c5nc(c(-c6c(F)cccc6F)c6ccc3[nH]6)C=C5)C=C4)cc2)C1
REMARK SMILES IDX 20 1 19 2 17 3 18 4 16 6 13 7 14 8 80 9 15 10 12 11 1 12
REMARK SMILES IDX 2 13 3 15 4 16 5 17 6 19 7 20 8 21 11 22 9 23 10 24 21 25
REMARK SMILES IDX 22 26 23 27 24 28 25 30 26 31 27 32 79 33 28 34 78 35 29 36
REMARK SMILES IDX 30 37 31 38 72 39 32 40 77 41 71 42 73 43 33 44 76 45 70 46
REMARK SMILES IDX 69 47 34 49 60 50 43 51 59 52 44 53 47 54 58 55 74 56 45 57
REMARK SMILES IDX 46 58 57 60 75 61 48 62 35 63 36 64 41 65 37 66 38 67 40 68
REMARK SMILES IDX 42 69 39 70 61 71 62 72 67 73 63 74 64 75 66 76 68 77 65 78
REMARK SMILES IDX 49 79 50 80 55 81 51 82 52 83 54 84 56 85 53 86
REMARK H PARENT 19 5 12 14 4 18 23 29 73 48 47 59
REMARK Flexibility Score: inf
ROOT
ATOM      1  C   UNL A   1      33.343  29.197  24.808  1.00  0.00     0.117 C 
ENDROOT
BRANCH   1   2
ATOM      2  N   UNL A   1      33.014  28.429  23.621  1.00  0.00    -0.356 N 
ATOM      3  C   UNL A   1      31.805  27.899  23.257  1.00  0.00     0.227 C 
ATOM      4  O   UNL A   1      31.694  27.431  22.123  1.00  0.00    -0.274 OA
ATOM      5  H   UNL A   1      33.757  28.267  22.996  1.00  0.00     0.163 HD
BRANCH   3   6
ATOM      6  C   UNL A   1      30.660  27.915  24.275  1.00  0.00     0.103 C 
ATOM      7  C   UNL A   1      29.751  25.693  24.818  1.00  0.00     0.106 C 
ATOM      8  C   UNL A   1      28.863  26.442  23.884  1.00  0.00    -0.006 C 
ATOM      9  C   UNL A   1      30.740  26.766  25.296  1.00  0.00     0.047 C 
ATOM     10  C   UNL A   1      29.350  27.652  23.590  1.00  0.00    -0.016 C 
BRANCH   7  11
ATOM     11  N   UNL A   1      30.391  24.640  24.078  1.00  0.00    -0.348 N 
ATOM     12  O   UNL A   1      30.890  23.383  25.934  1.00  0.00    -0.273 OA
ATOM     13  C   UNL A   1      30.956  23.562  24.721  1.00  0.00     0.239 C 
ATOM     14  H   UNL A   1      30.425  24.689  23.096  1.00  0.00     0.164 HD
BRANCH  13  15
ATOM     15  C   UNL A   1      31.657  22.581  23.787  1.00  0.00     0.216 C 
BRANCH  15  16
ATOM     16  N   UNL A   1      32.113  23.289  22.602  1.00  0.00    -0.342 N 
ATOM     17  C   UNL A   1      33.294  23.953  22.389  1.00  0.00     0.261 C 
ATOM     18  H   UNL A   1      31.485  23.293  21.844  1.00  0.00     0.164 HD
ATOM     19  O   UNL A   1      33.356  24.677  21.382  1.00  0.00    -0.268 OA
BRANCH  17  20
ATOM     20  C   UNL A   1      34.382  23.790  23.328  1.00  0.00     0.092 A 
ATOM     21  C   UNL A   1      35.462  22.927  23.293  1.00  0.00     0.025 A 
ATOM     22  S   UNL A   1      34.452  24.811  24.704  1.00  0.00    -0.139 S 
ATOM     23  C   UNL A   1      36.310  23.064  24.431  1.00  0.00     0.012 A 
ATOM     24  C   UNL A   1      35.872  24.054  25.281  1.00  0.00     0.065 A 
ENDBRANCH  17  20
ENDBRANCH  15  16
ENDBRANCH  13  15
ENDBRANCH   7  11
ENDBRANCH   3   6
ENDBRANCH   1   2
BRANCH   1  25
ATOM     25  C   UNL A   1      34.093  28.389  25.857  1.00  0.00     0.042 C 
BRANCH  25  26
ATOM     26  C   UNL A   1      33.613  28.601  27.287  1.00  0.00     0.118 C 
BRANCH  26  27
ATOM     27  N   UNL A   1      33.656  29.995  27.709  1.00  0.00    -0.352 N 
ATOM     28  C   UNL A   1      34.658  30.723  28.303  1.00  0.00     0.251 C 
ATOM     29  H   UNL A   1      32.827  30.500  27.538  1.00  0.00     0.163 HD
ATOM     30  O   UNL A   1      34.421  31.857  28.711  1.00  0.00    -0.269 OA
BRANCH  28  31
ATOM     31  C   UNL A   1      36.008  30.148  28.488  1.00  0.00     0.039 A 
ATOM     32  C   UNL A   1      36.922  30.214  27.431  1.00  0.00     0.014 A 
ATOM     33  C   UNL A   1      36.378  29.532  29.685  1.00  0.00     0.014 A 
ATOM     34  C   UNL A   1      38.225  29.744  27.606  1.00  0.00     0.010 A 
ATOM     35  C   UNL A   1      37.700  29.152  29.891  1.00  0.00     0.010 A 
ATOM     36  C   UNL A   1      38.639  29.252  28.854  1.00  0.00    -0.014 A 
BRANCH  36  37
ATOM     37  C   UNL A   1      40.043  28.835  29.100  1.00  0.00     0.031 A 
ATOM     38  C   UNL A   1      41.025  29.801  29.703  1.00  0.00     0.074 A 
ATOM     39  C   UNL A   1      40.461  27.620  28.694  1.00  0.00     0.049 A 
ATOM     40  N   UNL A   1      42.313  29.665  29.889  1.00  0.00    -0.248 NA
ATOM     41  C   UNL A   1      40.493  31.109  30.116  1.00  0.00     0.031 C 
ATOM     42  C   UNL A   1      39.627  26.613  28.036  1.00  0.00     0.029 A 
ATOM     43  N   UNL A   1      41.700  27.034  28.760  1.00  0.00    -0.354 N 
ATOM     44  C   UNL A   1      42.748  30.875  30.416  1.00  0.00     0.074 A 
ATOM     45  C   UNL A   1      41.597  31.751  30.467  1.00  0.00     0.031 C 
ATOM     46  C   UNL A   1      40.373  25.529  27.772  1.00  0.00     0.029 A 
ATOM     47  C   UNL A   1      41.744  25.776  28.210  1.00  0.00     0.049 A 
ATOM     48  H   UNL A   1      42.484  27.473  29.163  1.00  0.00     0.167 HD
ATOM     49  C   UNL A   1      43.987  31.219  30.842  1.00  0.00     0.037 A 
ATOM     50  C   UNL A   1      42.772  24.921  28.066  1.00  0.00     0.037 A 
ATOM     51  C   UNL A   1      45.123  30.337  30.825  1.00  0.00     0.049 A 
ATOM     52  C   UNL A   1      44.131  25.307  28.575  1.00  0.00     0.074 A 
ATOM     53  C   UNL A   1      46.402  30.566  31.299  1.00  0.00     0.029 A 
ATOM     54  N   UNL A   1      45.114  29.051  30.305  1.00  0.00    -0.354 N 
ATOM     55  N   UNL A   1      44.513  26.431  29.131  1.00  0.00    -0.248 NA
ATOM     56  C   UNL A   1      45.199  24.306  28.445  1.00  0.00     0.031 C 
ATOM     57  C   UNL A   1      47.177  29.430  31.037  1.00  0.00     0.029 A 
ATOM     58  C   UNL A   1      46.369  28.479  30.433  1.00  0.00     0.049 A 
ATOM     59  H   UNL A   1      44.331  28.610  29.903  1.00  0.00     0.167 HD
ATOM     60  C   UNL A   1      45.858  26.268  29.432  1.00  0.00     0.074 A 
ATOM     61  C   UNL A   1      46.223  24.930  29.012  1.00  0.00     0.031 C 
ATOM     62  C   UNL A   1      46.715  27.147  30.006  1.00  0.00     0.037 A 
BRANCH  49  63
ATOM     63  C   UNL A   1      44.165  32.614  31.368  1.00  0.00     0.057 A 
ATOM     64  C   UNL A   1      44.540  33.675  30.533  1.00  0.00     0.134 A 
ATOM     65  C   UNL A   1      43.961  32.900  32.724  1.00  0.00     0.134 A 
ATOM     66  F   UNL A   1      44.766  33.465  29.227  1.00  0.00    -0.206 F 
ATOM     67  C   UNL A   1      44.743  34.962  31.033  1.00  0.00     0.040 A 
ATOM     68  C   UNL A   1      44.133  34.190  33.230  1.00  0.00     0.040 A 
ATOM     69  F   UNL A   1      43.594  31.932  33.577  1.00  0.00    -0.206 F 
ATOM     70  C   UNL A   1      44.535  35.222  32.386  1.00  0.00     0.006 A 
ENDBRANCH  49  63
BRANCH  50  71
ATOM     71  C   UNL A   1      42.542  23.600  27.432  1.00  0.00     0.057 A 
ATOM     72  C   UNL A   1      42.629  23.441  26.045  1.00  0.00     0.134 A 
ATOM     73  C   UNL A   1      42.256  22.463  28.197  1.00  0.00     0.134 A 
ATOM     74  F   UNL A   1      42.884  24.498  25.261  1.00  0.00    -0.206 F 
ATOM     75  C   UNL A   1      42.435  22.200  25.438  1.00  0.00     0.040 A 
ATOM     76  C   UNL A   1      42.078  21.211  27.605  1.00  0.00     0.040 A 
ATOM     77  F   UNL A   1      42.169  22.549  29.532  1.00  0.00    -0.206 F 
ATOM     78  C   UNL A   1      42.164  21.079  26.220  1.00  0.00     0.006 A 
ENDBRANCH  50  71
BRANCH  62  79
ATOM     79  C   UNL A   1      48.124  26.684  30.229  1.00  0.00     0.057 A 
ATOM     80  C   UNL A   1      48.497  25.992  31.386  1.00  0.00     0.134 A 
ATOM     81  C   UNL A   1      49.108  26.901  29.256  1.00  0.00     0.134 A 
ATOM     82  F   UNL A   1      47.603  25.765  32.361  1.00  0.00    -0.206 F 
ATOM     83  C   UNL A   1      49.805  25.544  31.576  1.00  0.00     0.040 A 
ATOM     84  C   UNL A   1      50.414  26.439  29.425  1.00  0.00     0.040 A 
ATOM     85  F   UNL A   1      48.813  27.554  28.121  1.00  0.00    -0.206 F 
ATOM     86  C   UNL A   1      50.766  25.762  30.590  1.00  0.00     0.006 A 
ENDBRANCH  62  79
ENDBRANCH  36  37
ENDBRANCH  28  31
ENDBRANCH  26  27
ENDBRANCH  25  26
ENDBRANCH   1  25
TORSDOF 14
ENDMDL
MODEL 2
REMARK VINA RESULT:     -11.2      2.776      7.220
REMARK SMILES O=C(CNC(=O)c1cccs1)N[C@@H]1C=C[C@H](C(=O)NCCCNC(=O)c2ccc(-c3c4nc(c(-c5c(F)cccc5F)c5ccc([nH]5)c(-c5c(F)cccc5F)c5nc(c(-c6c(F)cccc6F)c6ccc3[nH]6)C=C5)C=C4)cc2)C1
REMARK SMILES IDX 20 1 19 2 17 3 18 4 16 6 13 7 14 8 80 9 15 10 12 11 1 12
REMARK SMILES IDX 2 13 3 15 4 16 5 17 6 19 7 20 8 21 11 22 9 23 10 24 21 25
REMARK SMILES IDX 22 26 23 27 24 28 25 30 26 31 27 32 79 33 28 34 78 35 29 36
REMARK SMILES IDX 30 37 31 38 72 39 32 40 77 41 71 42 73 43 33 44 76 45 70 46
REMARK SMILES IDX 69 47 34 49 60 50 43 51 59 52 44 53 47 54 58 55 74 56 45 57
REMARK SMILES IDX 46 58 57 60 75 61 48 62 35 63 36 64 41 65 37 66 38 67 40 68
REMARK SMILES IDX 42 69 39 70 61 71 62 72 67 73 63 74 64 75 66 76 68 77 65 78
REMARK SMILES IDX 49 79 50 80 55 81 51 82 52 83 54 84 56 85 53 86
REMARK H PARENT 19 5 12 14 4 18 23 29 73 48 47 59
REMARK Flexibility Score: inf
ROOT
ATOM      1  C   UNL A   1      36.162  20.691  25.385  1.00  0.00     0.117 C 
ENDROOT
BRANCH   1   2
ATOM      2  N   UNL A   1      36.175  22.134  25.222  1.00  0.00    -0.356 N 
ATOM      3  C   UNL A   1      35.240  22.933  24.621  1.00  0.00     0.227 C 
ATOM      4  O   UNL A   1      35.353  24.154  24.744  1.00  0.00    -0.274 OA
ATOM      5  H   UNL A   1      36.960  22.599  25.593  1.00  0.00     0.163 HD
BRANCH   3   6
ATOM      6  C   UNL A   1      34.109  22.269  23.830  1.00  0.00     0.103 C 
ATOM      7  C   UNL A   1      32.561  23.849  22.749  1.00  0.00     0.106 C 
ATOM      8  C   UNL A   1      31.975  23.258  23.986  1.00  0.00    -0.006 C 
ATOM      9  C   UNL A   1      33.802  22.979  22.500  1.00  0.00     0.047 C 
ATOM     10  C   UNL A   1      32.809  22.395  24.574  1.00  0.00    -0.016 C 
BRANCH   7  11
ATOM     11  N   UNL A   1      32.892  25.220  23.024  1.00  0.00    -0.348 N 
ATOM     12  O   UNL A   1      33.261  25.768  20.824  1.00  0.00    -0.273 OA
ATOM     13  C   UNL A   1      33.262  26.078  22.012  1.00  0.00     0.239 C 
ATOM     14  H   UNL A   1      32.854  25.552  23.949  1.00  0.00     0.164 HD
BRANCH  13  15
ATOM     15  C   UNL A   1      33.653  27.472  22.494  1.00  0.00     0.216 C 
BRANCH  15  16
ATOM     16  N   UNL A   1      32.559  28.394  22.235  1.00  0.00    -0.342 N 
ATOM     17  C   UNL A   1      31.543  28.788  23.066  1.00  0.00     0.261 C 
ATOM     18  H   UNL A   1      32.547  28.792  21.335  1.00  0.00     0.164 HD
ATOM     19  O   UNL A   1      30.598  29.402  22.544  1.00  0.00    -0.268 OA
BRANCH  17  20
ATOM     20  C   UNL A   1      31.612  28.473  24.476  1.00  0.00     0.092 A 
ATOM     21  C   UNL A   1      31.074  27.408  25.175  1.00  0.00     0.025 A 
ATOM     22  S   UNL A   1      32.516  29.499  25.513  1.00  0.00    -0.139 S 
ATOM     23  C   UNL A   1      31.354  27.472  26.572  1.00  0.00     0.012 A 
ATOM     24  C   UNL A   1      32.128  28.564  26.891  1.00  0.00     0.065 A 
ENDBRANCH  17  20
ENDBRANCH  15  16
ENDBRANCH  13  15
ENDBRANCH   7  11
ENDBRANCH   3   6
ENDBRANCH   1   2
BRANCH   1  25
ATOM     25  C   UNL A   1      37.450  20.024  24.924  1.00  0.00     0.042 C 
BRANCH  25  26
ATOM     26  C   UNL A   1      38.684  20.391  25.737  1.00  0.00     0.118 C 
BRANCH  26  27
ATOM     27  N   UNL A   1      39.681  19.329  25.782  1.00  0.00    -0.352 N 
ATOM     28  C   UNL A   1      41.036  19.379  26.002  1.00  0.00     0.251 C 
ATOM     29  H   UNL A   1      39.323  18.424  25.631  1.00  0.00     0.163 HD
ATOM     30  O   UNL A   1      41.712  18.365  25.846  1.00  0.00    -0.269 OA
BRANCH  28  31
ATOM     31  C   UNL A   1      41.698  20.644  26.390  1.00  0.00     0.039 A 
ATOM     32  C   UNL A   1      42.099  21.532  25.387  1.00  0.00     0.014 A 
ATOM     33  C   UNL A   1      41.940  20.956  27.729  1.00  0.00     0.014 A 
ATOM     34  C   UNL A   1      42.659  22.765  25.731  1.00  0.00     0.010 A 
ATOM     35  C   UNL A   1      42.408  22.220  28.073  1.00  0.00     0.010 A 
ATOM     36  C   UNL A   1      42.776  23.139  27.079  1.00  0.00    -0.014 A 
BRANCH  36  37
ATOM     37  C   UNL A   1      43.276  24.479  27.474  1.00  0.00     0.031 A 
ATOM     38  C   UNL A   1      42.314  25.546  27.918  1.00  0.00     0.074 A 
ATOM     39  C   UNL A   1      44.586  24.769  27.345  1.00  0.00     0.049 A 
ATOM     40  N   UNL A   1      42.543  26.805  28.193  1.00  0.00    -0.248 NA
ATOM     41  C   UNL A   1      40.901  25.154  28.031  1.00  0.00     0.031 C 
ATOM     42  C   UNL A   1      45.615  23.846  26.864  1.00  0.00     0.029 A 
ATOM     43  N   UNL A   1      45.272  25.932  27.591  1.00  0.00    -0.354 N 
ATOM     44  C   UNL A   1      41.302  27.359  28.485  1.00  0.00     0.074 A 
ATOM     45  C   UNL A   1      40.320  26.313  28.299  1.00  0.00     0.031 C 
ATOM     46  C   UNL A   1      46.802  24.472  26.862  1.00  0.00     0.029 A 
ATOM     47  C   UNL A   1      46.614  25.849  27.310  1.00  0.00     0.049 A 
ATOM     48  H   UNL A   1      44.843  26.748  27.935  1.00  0.00     0.167 HD
ATOM     49  C   UNL A   1      41.009  28.616  28.894  1.00  0.00     0.037 A 
ATOM     50  C   UNL A   1      47.583  26.778  27.395  1.00  0.00     0.037 A 
ATOM     51  C   UNL A   1      41.990  29.646  29.114  1.00  0.00     0.049 A 
ATOM     52  C   UNL A   1      47.244  28.157  27.882  1.00  0.00     0.074 A 
ATOM     53  C   UNL A   1      41.802  30.929  29.595  1.00  0.00     0.029 A 
ATOM     54  N   UNL A   1      43.347  29.507  28.865  1.00  0.00    -0.354 N 
ATOM     55  N   UNL A   1      46.075  28.648  28.217  1.00  0.00    -0.248 NA
ATOM     56  C   UNL A   1      48.356  29.109  28.012  1.00  0.00     0.031 C 
ATOM     57  C   UNL A   1      43.042  31.578  29.609  1.00  0.00     0.029 A 
ATOM     58  C   UNL A   1      44.007  30.686  29.170  1.00  0.00     0.049 A 
ATOM     59  H   UNL A   1      43.777  28.691  28.522  1.00  0.00     0.167 HD
ATOM     60  C   UNL A   1      46.312  29.957  28.614  1.00  0.00     0.074 A 
ATOM     61  C   UNL A   1      47.739  30.180  28.492  1.00  0.00     0.031 C 
ATOM     62  C   UNL A   1      45.428  30.891  29.040  1.00  0.00     0.037 A 
BRANCH  49  63
ATOM     63  C   UNL A   1      39.562  28.936  29.136  1.00  0.00     0.057 A 
ATOM     64  C   UNL A   1      38.976  28.792  30.401  1.00  0.00     0.134 A 
ATOM     65  C   UNL A   1      38.745  29.391  28.094  1.00  0.00     0.134 A 
ATOM     66  F   UNL A   1      39.701  28.346  31.439  1.00  0.00    -0.206 F 
ATOM     67  C   UNL A   1      37.621  29.051  30.612  1.00  0.00     0.040 A 
ATOM     68  C   UNL A   1      37.395  29.681  28.300  1.00  0.00     0.040 A 
ATOM     69  F   UNL A   1      39.243  29.557  26.859  1.00  0.00    -0.206 F 
ATOM     70  C   UNL A   1      36.827  29.502  29.559  1.00  0.00     0.006 A 
ENDBRANCH  49  63
BRANCH  50  71
ATOM     71  C   UNL A   1      48.975  26.418  27.031  1.00  0.00     0.057 A 
ATOM     72  C   UNL A   1      49.458  26.628  25.734  1.00  0.00     0.134 A 
ATOM     73  C   UNL A   1      49.861  25.883  27.972  1.00  0.00     0.134 A 
ATOM     74  F   UNL A   1      48.650  27.123  24.786  1.00  0.00    -0.206 F 
ATOM     75  C   UNL A   1      50.772  26.313  25.384  1.00  0.00     0.040 A 
ATOM     76  C   UNL A   1      51.184  25.581  27.642  1.00  0.00     0.040 A 
ATOM     77  F   UNL A   1      49.460  25.668  29.234  1.00  0.00    -0.206 F 
ATOM     78  C   UNL A   1      51.640  25.793  26.343  1.00  0.00     0.006 A 
ENDBRANCH  50  71
BRANCH  62  79
ATOM     79  C   UNL A   1      45.979  32.232  29.422  1.00  0.00     0.057 A 
ATOM     80  C   UNL A   1      46.435  32.497  30.719  1.00  0.00     0.134 A 
ATOM     81  C   UNL A   1      46.089  33.255  28.472  1.00  0.00     0.134 A 
ATOM     82  F   UNL A   1      46.343  31.563  31.677  1.00  0.00    -0.206 F 
ATOM     83  C   UNL A   1      46.968  33.741  31.061  1.00  0.00     0.040 A 
ATOM     84  C   UNL A   1      46.641  34.495  28.798  1.00  0.00     0.040 A 
ATOM     85  F   UNL A   1      45.676  33.061  27.210  1.00  0.00    -0.206 F 
ATOM     86  C   UNL A   1      47.078  34.742  30.097  1.00  0.00     0.006 A 
ENDBRANCH  62  79
ENDBRANCH  36  37
ENDBRANCH  28  31
ENDBRANCH  26  27
ENDBRANCH  25  26
ENDBRANCH   1  25
TORSDOF 14
ENDMDL
MODEL 3
REMARK VINA RESULT:     -11.2      2.248      2.877
REMARK SMILES O=C(CNC(=O)c1cccs1)N[C@@H]1C=C[C@H](C(=O)NCCCNC(=O)c2ccc(-c3c4nc(c(-c5c(F)cccc5F)c5ccc([nH]5)c(-c5c(F)cccc5F)c5nc(c(-c6c(F)cccc6F)c6ccc3[nH]6)C=C5)C=C4)cc2)C1
REMARK SMILES IDX 20 1 19 2 17 3 18 4 16 6 13 7 14 8 80 9 15 10 12 11 1 12
REMARK SMILES IDX 2 13 3 15 4 16 5 17 6 19 7 20 8 21 11 22 9 23 10 24 21 25
REMARK SMILES IDX 22 26 23 27 24 28 25 30 26 31 27 32 79 33 28 34 78 35 29 36
REMARK SMILES IDX 30 37 31 38 72 39 32 40 77 41 71 42 73 43 33 44 76 45 70 46
REMARK SMILES IDX 69 47 34 49 60 50 43 51 59 52 44 53 47 54 58 55 74 56 45 57
REMARK SMILES IDX 46 58 57 60 75 61 48 62 35 63 36 64 41 65 37 66 38 67 40 68
REMARK SMILES IDX 42 69 39 70 61 71 62 72 67 73 63 74 64 75 66 76 68 77 65 78
REMARK SMILES IDX 49 79 50 80 55 81 51 82 52 83 54 84 56 85 53 86
REMARK H PARENT 19 5 12 14 4 18 23 29 73 48 47 59
REMARK Flexibility Score: inf
ROOT
ATOM      1  C   UNL A   1      31.765  28.135  25.650  1.00  0.00     0.117 C 
ENDROOT
BRANCH   1   2
ATOM      2  N   UNL A   1      31.114  26.874  25.341  1.00  0.00    -0.356 N 
ATOM      3  C   UNL A   1      31.681  25.706  24.906  1.00  0.00     0.227 C 
ATOM      4  O   UNL A   1      30.976  24.696  24.871  1.00  0.00    -0.274 OA
ATOM      5  H   UNL A   1      30.137  26.856  25.460  1.00  0.00     0.163 HD
BRANCH   3   6
ATOM      6  C   UNL A   1      33.154  25.718  24.487  1.00  0.00     0.103 C 
ATOM      7  C   UNL A   1      34.151  23.484  24.208  1.00  0.00     0.106 C 
ATOM      8  C   UNL A   1      34.563  24.119  25.493  1.00  0.00    -0.006 C 
ATOM      9  C   UNL A   1      33.495  24.642  23.441  1.00  0.00     0.047 C 
ATOM     10  C   UNL A   1      34.029  25.334  25.646  1.00  0.00    -0.016 C 
BRANCH   7  11
ATOM     11  N   UNL A   1      33.225  22.426  24.510  1.00  0.00    -0.348 N 
ATOM     12  O   UNL A   1      34.837  20.796  24.637  1.00  0.00    -0.273 OA
ATOM     13  C   UNL A   1      33.655  21.128  24.666  1.00  0.00     0.239 C 
ATOM     14  H   UNL A   1      32.268  22.633  24.609  1.00  0.00     0.164 HD
BRANCH  13  15
ATOM     15  C   UNL A   1      32.530  20.127  24.906  1.00  0.00     0.216 C 
BRANCH  15  16
ATOM     16  N   UNL A   1      32.185  19.480  23.650  1.00  0.00    -0.342 N 
ATOM     17  C   UNL A   1      32.630  18.289  23.138  1.00  0.00     0.261 C 
ATOM     18  H   UNL A   1      31.541  19.967  23.087  1.00  0.00     0.164 HD
ATOM     19  O   UNL A   1      32.373  18.061  21.945  1.00  0.00    -0.268 OA
BRANCH  17  20
ATOM     20  C   UNL A   1      33.367  17.379  23.987  1.00  0.00     0.092 A 
ATOM     21  C   UNL A   1      34.730  17.178  24.102  1.00  0.00     0.025 A 
ATOM     22  S   UNL A   1      32.501  16.386  25.087  1.00  0.00    -0.139 S 
ATOM     23  C   UNL A   1      35.056  16.163  25.048  1.00  0.00     0.012 A 
ATOM     24  C   UNL A   1      33.934  15.646  25.654  1.00  0.00     0.065 A 
ENDBRANCH  17  20
ENDBRANCH  15  16
ENDBRANCH  13  15
ENDBRANCH   7  11
ENDBRANCH   3   6
ENDBRANCH   1   2
BRANCH   1  25
ATOM     25  C   UNL A   1      32.234  28.230  27.095  1.00  0.00     0.042 C 
BRANCH  25  26
ATOM     26  C   UNL A   1      33.649  28.761  27.272  1.00  0.00     0.118 C 
BRANCH  26  27
ATOM     27  N   UNL A   1      33.694  30.123  27.789  1.00  0.00    -0.352 N 
ATOM     28  C   UNL A   1      34.691  30.802  28.446  1.00  0.00     0.251 C 
ATOM     29  H   UNL A   1      32.870  30.644  27.642  1.00  0.00     0.163 HD
ATOM     30  O   UNL A   1      34.454  31.907  28.928  1.00  0.00    -0.269 OA
BRANCH  28  31
ATOM     31  C   UNL A   1      36.035  30.207  28.610  1.00  0.00     0.039 A 
ATOM     32  C   UNL A   1      36.916  30.218  27.523  1.00  0.00     0.014 A 
ATOM     33  C   UNL A   1      36.430  29.626  29.816  1.00  0.00     0.014 A 
ATOM     34  C   UNL A   1      38.216  29.728  27.675  1.00  0.00     0.010 A 
ATOM     35  C   UNL A   1      37.751  29.228  29.995  1.00  0.00     0.010 A 
ATOM     36  C   UNL A   1      38.659  29.271  28.927  1.00  0.00    -0.014 A 
BRANCH  36  37
ATOM     37  C   UNL A   1      40.061  28.836  29.144  1.00  0.00     0.031 A 
ATOM     38  C   UNL A   1      41.068  29.788  29.727  1.00  0.00     0.074 A 
ATOM     39  C   UNL A   1      40.455  27.614  28.731  1.00  0.00     0.049 A 
ATOM     40  N   UNL A   1      42.358  29.635  29.886  1.00  0.00    -0.248 NA
ATOM     41  C   UNL A   1      40.563  31.104  30.149  1.00  0.00     0.031 C 
ATOM     42  C   UNL A   1      39.594  26.619  28.091  1.00  0.00     0.029 A 
ATOM     43  N   UNL A   1      41.686  27.012  28.772  1.00  0.00    -0.354 N 
ATOM     44  C   UNL A   1      42.820  30.839  30.403  1.00  0.00     0.074 A 
ATOM     45  C   UNL A   1      41.683  31.730  30.477  1.00  0.00     0.031 C 
ATOM     46  C   UNL A   1      40.319  25.524  27.812  1.00  0.00     0.029 A 
ATOM     47  C   UNL A   1      41.702  25.753  28.222  1.00  0.00     0.049 A 
ATOM     48  H   UNL A   1      42.484  27.440  29.158  1.00  0.00     0.167 HD
ATOM     49  C   UNL A   1      44.073  31.166  30.804  1.00  0.00     0.037 A 
ATOM     50  C   UNL A   1      42.715  24.883  28.058  1.00  0.00     0.037 A 
ATOM     51  C   UNL A   1      45.196  30.268  30.764  1.00  0.00     0.049 A 
ATOM     52  C   UNL A   1      44.089  25.252  28.539  1.00  0.00     0.074 A 
ATOM     53  C   UNL A   1      46.488  30.480  31.211  1.00  0.00     0.029 A 
ATOM     54  N   UNL A   1      45.159  28.982  30.245  1.00  0.00    -0.354 N 
ATOM     55  N   UNL A   1      44.498  26.371  29.086  1.00  0.00    -0.248 NA
ATOM     56  C   UNL A   1      45.140  24.236  28.388  1.00  0.00     0.031 C 
ATOM     57  C   UNL A   1      47.241  29.333  30.935  1.00  0.00     0.029 A 
ATOM     58  C   UNL A   1      46.408  28.393  30.348  1.00  0.00     0.049 A 
ATOM     59  H   UNL A   1      44.362  28.552  29.860  1.00  0.00     0.167 HD
ATOM     60  C   UNL A   1      45.847  26.189  29.360  1.00  0.00     0.074 A 
ATOM     61  C   UNL A   1      46.184  24.845  28.933  1.00  0.00     0.031 C 
ATOM     62  C   UNL A   1      46.727  27.057  29.916  1.00  0.00     0.037 A 
BRANCH  49  63
ATOM     63  C   UNL A   1      44.281  32.558  31.325  1.00  0.00     0.057 A 
ATOM     64  C   UNL A   1      44.111  32.871  32.680  1.00  0.00     0.134 A 
ATOM     65  C   UNL A   1      44.655  33.598  30.465  1.00  0.00     0.134 A 
ATOM     66  F   UNL A   1      43.738  31.923  33.555  1.00  0.00    -0.206 F 
ATOM     67  C   UNL A   1      44.266  34.175  33.155  1.00  0.00     0.040 A 
ATOM     68  C   UNL A   1      44.841  34.900  30.933  1.00  0.00     0.040 A 
ATOM     69  F   UNL A   1      44.841  33.366  29.156  1.00  0.00    -0.206 F 
ATOM     70  C   UNL A   1      44.636  35.193  32.279  1.00  0.00     0.006 A 
ENDBRANCH  49  63
BRANCH  50  71
ATOM     71  C   UNL A   1      42.453  23.565  27.430  1.00  0.00     0.057 A 
ATOM     72  C   UNL A   1      42.570  23.391  26.047  1.00  0.00     0.134 A 
ATOM     73  C   UNL A   1      42.108  22.447  28.197  1.00  0.00     0.134 A 
ATOM     74  F   UNL A   1      42.882  24.430  25.260  1.00  0.00    -0.206 F 
ATOM     75  C   UNL A   1      42.347  22.151  25.446  1.00  0.00     0.040 A 
ATOM     76  C   UNL A   1      41.900  21.196  27.612  1.00  0.00     0.040 A 
ATOM     77  F   UNL A   1      41.990  22.549  29.529  1.00  0.00    -0.206 F 
ATOM     78  C   UNL A   1      42.017  21.048  26.231  1.00  0.00     0.006 A 
ENDBRANCH  50  71
BRANCH  62  79
ATOM     79  C   UNL A   1      48.134  26.574  30.109  1.00  0.00     0.057 A 
ATOM     80  C   UNL A   1      48.530  25.911  31.277  1.00  0.00     0.134 A 
ATOM     81  C   UNL A   1      49.090  26.742  29.101  1.00  0.00     0.134 A 
ATOM     82  F   UNL A   1      47.663  25.733  32.285  1.00  0.00    -0.206 F 
ATOM     83  C   UNL A   1      49.835  25.446  31.441  1.00  0.00     0.040 A 
ATOM     84  C   UNL A   1      50.392  26.261  29.244  1.00  0.00     0.040 A 
ATOM     85  F   UNL A   1      48.772  27.364  27.955  1.00  0.00    -0.206 F 
ATOM     86  C   UNL A   1      50.769  25.614  30.420  1.00  0.00     0.006 A 
ENDBRANCH  62  79
ENDBRANCH  36  37
ENDBRANCH  28  31
ENDBRANCH  26  27
ENDBRANCH  25  26
ENDBRANCH   1  25
TORSDOF 14
ENDMDL
