MODEL 1
REMARK VINA RESULT:     -12.0      0.000      0.000
REMARK SMILES Cc1c(C(=O)NCCCNC(=O)c2ccc(-c3c4nc(c(-c5c(F)cccc5F)c5ccc([nH]5)c(-c5c(F)cccc5F)c5nc(c(-c6c(F)cccc6F)c6ccc3[nH]6)C=C5)C=C4)cc2)sc2ncnc(NCc3cn4c(n3)SCC4)c12
REMARK SMILES IDX 7 1 6 2 4 3 5 4 3 6 1 7 2 8 83 9 67 10 68 11 72 12 69 13
REMARK SMILES IDX 71 14 70 15 73 16 74 18 75 19 76 20 79 21 77 22 78 23 82 24
REMARK SMILES IDX 80 25 81 26 8 27 9 28 10 29 11 30 12 32 13 33 14 34 66 35
REMARK SMILES IDX 15 36 65 37 16 38 17 39 18 40 59 41 19 42 64 43 58 44 60 45
REMARK SMILES IDX 20 46 63 47 57 48 56 49 21 51 47 52 30 53 46 54 31 55 34 56
REMARK SMILES IDX 45 57 61 58 32 59 33 60 44 62 62 63 35 64 22 65 23 66 28 67
REMARK SMILES IDX 24 68 25 69 27 70 29 71 26 72 48 73 49 74 54 75 50 76 51 77
REMARK SMILES IDX 53 78 55 79 52 80 36 81 37 82 42 83 38 84 39 85 41 86 43 87
REMARK SMILES IDX 40 88
REMARK H PARENT 6 5 73 17 10 31 60 50 34 61
REMARK Flexibility Score: inf
ROOT
ATOM      1  C   UNL A   1      34.514  29.170  26.907  1.00  0.00     0.118 C 
ENDROOT
BRANCH   1   2
ATOM      2  N   UNL A   1      34.310  29.085  25.473  1.00  0.00    -0.351 N 
ATOM      3  C   UNL A   1      33.627  28.181  24.698  1.00  0.00     0.261 C 
ATOM      4  O   UNL A   1      33.713  28.378  23.482  1.00  0.00    -0.268 OA
ATOM      5  H   UNL A   1      34.740  29.809  24.963  1.00  0.00     0.163 HD
BRANCH   3   6
ATOM      6  C   UNL A   1      32.799  27.121  25.268  1.00  0.00     0.098 A 
ATOM      7  C   UNL A   1      34.552  25.332  25.081  1.00  0.00     0.047 C 
ATOM      8  C   UNL A   1      33.203  25.805  25.524  1.00  0.00    -0.014 A 
ATOM      9  C   UNL A   1      32.154  25.014  26.184  1.00  0.00     0.057 A 
ATOM     10  S   UNL A   1      31.211  27.388  25.797  1.00  0.00    -0.110 S 
ATOM     11  C   UNL A   1      30.979  25.762  26.177  1.00  0.00     0.129 A 
ATOM     12  C   UNL A   1      32.010  23.724  26.768  1.00  0.00     0.138 A 
ATOM     13  N   UNL A   1      29.736  25.361  26.482  1.00  0.00    -0.225 NA
ATOM     14  N   UNL A   1      30.750  23.299  27.071  1.00  0.00    -0.219 NA
ATOM     15  C   UNL A   1      29.701  24.100  26.877  1.00  0.00     0.225 A 
BRANCH  12  16
ATOM     16  N   UNL A   1      32.924  22.766  27.109  1.00  0.00    -0.364 N 
ATOM     17  H   UNL A   1      33.398  22.953  27.952  1.00  0.00     0.162 HD
BRANCH  16  18
ATOM     18  C   UNL A   1      33.330  21.538  26.476  1.00  0.00     0.172 C 
BRANCH  18  19
ATOM     19  C   UNL A   1      34.729  21.417  25.969  1.00  0.00     0.079 A 
ATOM     20  C   UNL A   1      35.295  20.373  25.244  1.00  0.00     0.113 A 
ATOM     21  N   UNL A   1      35.664  22.418  26.206  1.00  0.00    -0.226 NA
ATOM     22  N   UNL A   1      36.587  20.741  25.100  1.00  0.00    -0.325 N 
ATOM     23  C   UNL A   1      36.760  21.958  25.676  1.00  0.00     0.168 A 
ATOM     24  C   UNL A   1      37.787  20.020  24.733  1.00  0.00     0.135 C 
ATOM     25  S   UNL A   1      38.420  22.373  25.855  1.00  0.00    -0.086 SA
ATOM     26  C   UNL A   1      38.881  20.603  25.632  1.00  0.00     0.100 C 
ENDBRANCH  18  19
ENDBRANCH  16  18
ENDBRANCH  12  16
ENDBRANCH   3   6
ENDBRANCH   1   2
BRANCH   1  27
ATOM     27  C   UNL A   1      33.685  30.309  27.510  1.00  0.00     0.042 C 
BRANCH  27  28
ATOM     28  C   UNL A   1      34.523  31.560  27.694  1.00  0.00     0.118 C 
BRANCH  28  29
ATOM     29  N   UNL A   1      34.427  32.082  29.060  1.00  0.00    -0.352 N 
ATOM     30  C   UNL A   1      35.206  31.771  30.155  1.00  0.00     0.251 C 
ATOM     31  H   UNL A   1      33.713  32.740  29.215  1.00  0.00     0.163 HD
ATOM     32  O   UNL A   1      34.839  32.027  31.288  1.00  0.00    -0.269 OA
BRANCH  30  33
ATOM     33  C   UNL A   1      36.507  31.127  29.914  1.00  0.00     0.039 A 
ATOM     34  C   UNL A   1      37.665  31.882  29.714  1.00  0.00     0.014 A 
ATOM     35  C   UNL A   1      36.547  29.737  29.942  1.00  0.00     0.014 A 
ATOM     36  C   UNL A   1      38.881  31.216  29.610  1.00  0.00     0.010 A 
ATOM     37  C   UNL A   1      37.753  29.100  30.024  1.00  0.00     0.010 A 
ATOM     38  C   UNL A   1      38.914  29.824  29.783  1.00  0.00    -0.014 A 
BRANCH  38  39
ATOM     39  C   UNL A   1      40.173  29.097  29.838  1.00  0.00     0.031 A 
ATOM     40  C   UNL A   1      40.721  28.951  31.213  1.00  0.00     0.074 A 
ATOM     41  C   UNL A   1      40.652  28.421  28.769  1.00  0.00     0.049 A 
ATOM     42  N   UNL A   1      41.804  29.470  31.689  1.00  0.00    -0.248 NA
ATOM     43  C   UNL A   1      39.886  28.287  32.232  1.00  0.00     0.031 C 
ATOM     44  C   UNL A   1      40.030  28.243  27.448  1.00  0.00     0.029 A 
ATOM     45  N   UNL A   1      41.768  27.652  28.667  1.00  0.00    -0.354 N 
ATOM     46  C   UNL A   1      41.902  29.010  33.000  1.00  0.00     0.074 A 
ATOM     47  C   UNL A   1      40.616  28.463  33.337  1.00  0.00     0.031 C 
ATOM     48  C   UNL A   1      40.646  27.244  26.780  1.00  0.00     0.029 A 
ATOM     49  C   UNL A   1      41.812  26.837  27.537  1.00  0.00     0.049 A 
ATOM     50  H   UNL A   1      42.489  27.669  29.338  1.00  0.00     0.167 HD
ATOM     51  C   UNL A   1      43.114  28.882  33.606  1.00  0.00     0.037 A 
ATOM     52  C   UNL A   1      42.741  25.885  27.266  1.00  0.00     0.037 A 
ATOM     53  C   UNL A   1      44.131  29.603  32.881  1.00  0.00     0.049 A 
ATOM     54  C   UNL A   1      43.919  26.187  28.114  1.00  0.00     0.074 A 
ATOM     55  C   UNL A   1      44.354  30.929  32.571  1.00  0.00     0.029 A 
ATOM     56  N   UNL A   1      44.899  28.872  32.010  1.00  0.00    -0.354 N 
ATOM     57  N   UNL A   1      44.665  27.246  27.968  1.00  0.00    -0.248 NA
ATOM     58  C   UNL A   1      43.986  25.547  29.418  1.00  0.00     0.031 C 
ATOM     59  C   UNL A   1      44.883  30.914  31.247  1.00  0.00     0.029 A 
ATOM     60  C   UNL A   1      45.028  29.585  30.847  1.00  0.00     0.049 A 
ATOM     61  H   UNL A   1      45.291  27.987  32.190  1.00  0.00     0.167 HD
ATOM     62  C   UNL A   1      44.946  27.658  29.261  1.00  0.00     0.074 A 
ATOM     63  C   UNL A   1      44.578  26.523  30.109  1.00  0.00     0.031 C 
ATOM     64  C   UNL A   1      45.168  28.977  29.542  1.00  0.00     0.037 A 
BRANCH  51  65
ATOM     65  C   UNL A   1      43.461  27.799  34.597  1.00  0.00     0.057 A 
ATOM     66  C   UNL A   1      43.492  26.459  34.170  1.00  0.00     0.134 A 
ATOM     67  C   UNL A   1      43.479  27.979  35.996  1.00  0.00     0.134 A 
ATOM     68  F   UNL A   1      43.449  26.151  32.863  1.00  0.00    -0.206 F 
ATOM     69  C   UNL A   1      43.483  25.383  35.067  1.00  0.00     0.040 A 
ATOM     70  C   UNL A   1      43.525  26.914  36.898  1.00  0.00     0.040 A 
ATOM     71  F   UNL A   1      43.349  29.182  36.566  1.00  0.00    -0.206 F 
ATOM     72  C   UNL A   1      43.498  25.609  36.437  1.00  0.00     0.006 A 
ENDBRANCH  51  65
BRANCH  52  73
ATOM     73  C   UNL A   1      42.569  24.564  26.615  1.00  0.00     0.057 A 
ATOM     74  C   UNL A   1      43.250  24.255  25.427  1.00  0.00     0.134 A 
ATOM     75  C   UNL A   1      41.999  23.476  27.297  1.00  0.00     0.134 A 
ATOM     76  F   UNL A   1      43.855  25.222  24.721  1.00  0.00    -0.206 F 
ATOM     77  C   UNL A   1      43.396  22.939  24.968  1.00  0.00     0.040 A 
ATOM     78  C   UNL A   1      42.135  22.156  26.849  1.00  0.00     0.040 A 
ATOM     79  F   UNL A   1      41.376  23.645  28.472  1.00  0.00    -0.206 F 
ATOM     80  C   UNL A   1      42.853  21.882  25.690  1.00  0.00     0.006 A 
ENDBRANCH  52  73
BRANCH  64  81
ATOM     81  C   UNL A   1      45.362  29.918  28.381  1.00  0.00     0.057 A 
ATOM     82  C   UNL A   1      44.333  30.655  27.771  1.00  0.00     0.134 A 
ATOM     83  C   UNL A   1      46.668  30.215  27.977  1.00  0.00     0.134 A 
ATOM     84  F   UNL A   1      43.057  30.505  28.145  1.00  0.00    -0.206 F 
ATOM     85  C   UNL A   1      44.591  31.622  26.794  1.00  0.00     0.040 A 
ATOM     86  C   UNL A   1      46.942  31.202  27.027  1.00  0.00     0.040 A 
ATOM     87  F   UNL A   1      47.708  29.587  28.547  1.00  0.00    -0.206 F 
ATOM     88  C   UNL A   1      45.902  31.906  26.427  1.00  0.00     0.006 A 
ENDBRANCH  64  81
ENDBRANCH  38  39
ENDBRANCH  30  33
ENDBRANCH  28  29
ENDBRANCH  27  28
ENDBRANCH   1  27
TORSDOF 13
ENDMDL
MODEL 2
REMARK VINA RESULT:     -12.0      2.681      7.529
REMARK SMILES Cc1c(C(=O)NCCCNC(=O)c2ccc(-c3c4nc(c(-c5c(F)cccc5F)c5ccc([nH]5)c(-c5c(F)cccc5F)c5nc(c(-c6c(F)cccc6F)c6ccc3[nH]6)C=C5)C=C4)cc2)sc2ncnc(NCc3cn4c(n3)SCC4)c12
REMARK SMILES IDX 7 1 6 2 4 3 5 4 3 6 1 7 2 8 83 9 67 10 68 11 72 12 69 13
REMARK SMILES IDX 71 14 70 15 73 16 74 18 75 19 76 20 79 21 77 22 78 23 82 24
REMARK SMILES IDX 80 25 81 26 8 27 9 28 10 29 11 30 12 32 13 33 14 34 66 35
REMARK SMILES IDX 15 36 65 37 16 38 17 39 18 40 59 41 19 42 64 43 58 44 60 45
REMARK SMILES IDX 20 46 63 47 57 48 56 49 21 51 47 52 30 53 46 54 31 55 34 56
REMARK SMILES IDX 45 57 61 58 32 59 33 60 44 62 62 63 35 64 22 65 23 66 28 67
REMARK SMILES IDX 24 68 25 69 27 70 29 71 26 72 48 73 49 74 54 75 50 76 51 77
REMARK SMILES IDX 53 78 55 79 52 80 36 81 37 82 42 83 38 84 39 85 41 86 43 87
REMARK SMILES IDX 40 88
REMARK H PARENT 6 5 73 17 10 31 60 50 34 61
REMARK Flexibility Score: inf
ROOT
ATOM      1  C   UNL A   1      36.850  20.628  25.032  1.00  0.00     0.118 C 
ENDROOT
BRANCH   1   2
ATOM      2  N   UNL A   1      37.295  21.948  25.438  1.00  0.00    -0.351 N 
ATOM      3  C   UNL A   1      36.603  23.080  25.788  1.00  0.00     0.261 C 
ATOM      4  O   UNL A   1      37.312  24.065  26.020  1.00  0.00    -0.268 OA
ATOM      5  H   UNL A   1      38.275  22.049  25.466  1.00  0.00     0.163 HD
BRANCH   3   6
ATOM      6  C   UNL A   1      35.152  23.097  25.951  1.00  0.00     0.098 A 
ATOM      7  C   UNL A   1      34.677  24.117  23.706  1.00  0.00     0.047 C 
ATOM      8  C   UNL A   1      34.218  23.508  24.993  1.00  0.00    -0.014 A 
ATOM      9  C   UNL A   1      32.831  23.318  25.444  1.00  0.00     0.057 A 
ATOM     10  S   UNL A   1      34.384  22.513  27.345  1.00  0.00    -0.110 S 
ATOM     11  C   UNL A   1      32.857  22.968  26.792  1.00  0.00     0.129 A 
ATOM     12  C   UNL A   1      31.518  23.431  24.906  1.00  0.00     0.138 A 
ATOM     13  N   UNL A   1      31.833  22.900  27.654  1.00  0.00    -0.225 NA
ATOM     14  N   UNL A   1      30.467  23.376  25.774  1.00  0.00    -0.219 NA
ATOM     15  C   UNL A   1      30.674  23.164  27.075  1.00  0.00     0.225 A 
BRANCH  12  16
ATOM     16  N   UNL A   1      31.063  23.590  23.627  1.00  0.00    -0.364 N 
ATOM     17  H   UNL A   1      31.172  22.790  23.064  1.00  0.00     0.162 HD
BRANCH  16  18
ATOM     18  C   UNL A   1      30.455  24.702  22.941  1.00  0.00     0.172 C 
BRANCH  18  19
ATOM     19  C   UNL A   1      31.029  26.067  23.135  1.00  0.00     0.079 A 
ATOM     20  C   UNL A   1      32.151  26.624  22.527  1.00  0.00     0.113 A 
ATOM     21  N   UNL A   1      30.447  26.969  24.019  1.00  0.00    -0.226 NA
ATOM     22  N   UNL A   1      32.258  27.843  23.099  1.00  0.00    -0.325 N 
ATOM     23  C   UNL A   1      31.228  28.009  23.967  1.00  0.00     0.168 A 
ATOM     24  C   UNL A   1      33.331  28.812  23.171  1.00  0.00     0.135 C 
ATOM     25  S   UNL A   1      31.446  29.370  24.997  1.00  0.00    -0.086 SA
ATOM     26  C   UNL A   1      33.243  29.384  24.589  1.00  0.00     0.100 C 
ENDBRANCH  18  19
ENDBRANCH  16  18
ENDBRANCH  12  16
ENDBRANCH   3   6
ENDBRANCH   1   2
BRANCH   1  27
ATOM     27  C   UNL A   1      38.024  19.644  24.992  1.00  0.00     0.042 C 
BRANCH  27  28
ATOM     28  C   UNL A   1      39.209  20.172  25.778  1.00  0.00     0.118 C 
BRANCH  28  29
ATOM     29  N   UNL A   1      40.337  19.238  25.754  1.00  0.00    -0.352 N 
ATOM     30  C   UNL A   1      41.680  19.508  25.913  1.00  0.00     0.251 C 
ATOM     31  H   UNL A   1      40.104  18.293  25.606  1.00  0.00     0.163 HD
ATOM     32  O   UNL A   1      42.533  18.711  25.567  1.00  0.00    -0.269 OA
BRANCH  30  33
ATOM     33  C   UNL A   1      42.056  20.791  26.526  1.00  0.00     0.039 A 
ATOM     34  C   UNL A   1      42.305  21.923  25.746  1.00  0.00     0.014 A 
ATOM     35  C   UNL A   1      42.109  20.846  27.915  1.00  0.00     0.014 A 
ATOM     36  C   UNL A   1      42.540  23.133  26.389  1.00  0.00     0.010 A 
ATOM     37  C   UNL A   1      42.156  22.059  28.539  1.00  0.00     0.010 A 
ATOM     38  C   UNL A   1      42.447  23.192  27.789  1.00  0.00    -0.014 A 
BRANCH  38  39
ATOM     39  C   UNL A   1      42.531  24.458  28.501  1.00  0.00     0.031 A 
ATOM     40  C   UNL A   1      41.387  25.371  28.237  1.00  0.00     0.074 A 
ATOM     41  C   UNL A   1      43.436  24.662  29.485  1.00  0.00     0.049 A 
ATOM     42  N   UNL A   1      41.412  26.511  27.630  1.00  0.00    -0.248 NA
ATOM     43  C   UNL A   1      40.024  24.889  28.534  1.00  0.00     0.031 C 
ATOM     44  C   UNL A   1      44.413  23.712  30.038  1.00  0.00     0.029 A 
ATOM     45  N   UNL A   1      43.611  25.750  30.281  1.00  0.00    -0.354 N 
ATOM     46  C   UNL A   1      40.106  26.993  27.671  1.00  0.00     0.074 A 
ATOM     47  C   UNL A   1      39.274  25.883  28.052  1.00  0.00     0.031 C 
ATOM     48  C   UNL A   1      44.894  24.177  31.211  1.00  0.00     0.029 A 
ATOM     49  C   UNL A   1      44.408  25.528  31.402  1.00  0.00     0.049 A 
ATOM     50  H   UNL A   1      43.206  26.625  30.082  1.00  0.00     0.167 HD
ATOM     51  C   UNL A   1      39.854  28.330  27.644  1.00  0.00     0.037 A 
ATOM     52  C   UNL A   1      44.629  26.400  32.419  1.00  0.00     0.037 A 
ATOM     53  C   UNL A   1      41.016  29.064  27.210  1.00  0.00     0.049 A 
ATOM     54  C   UNL A   1      44.276  27.747  31.908  1.00  0.00     0.074 A 
ATOM     55  C   UNL A   1      41.760  29.116  26.048  1.00  0.00     0.029 A 
ATOM     56  N   UNL A   1      41.806  29.604  28.193  1.00  0.00    -0.354 N 
ATOM     57  N   UNL A   1      44.936  28.361  30.967  1.00  0.00    -0.248 NA
ATOM     58  C   UNL A   1      42.914  28.207  32.122  1.00  0.00     0.031 C 
ATOM     59  C   UNL A   1      43.111  29.260  26.482  1.00  0.00     0.029 A 
ATOM     60  C   UNL A   1      43.116  29.366  27.874  1.00  0.00     0.049 A 
ATOM     61  H   UNL A   1      41.485  30.081  28.993  1.00  0.00     0.167 HD
ATOM     62  C   UNL A   1      43.960  28.963  30.188  1.00  0.00     0.074 A 
ATOM     63  C   UNL A   1      42.743  28.909  31.000  1.00  0.00     0.031 C 
ATOM     64  C   UNL A   1      44.163  29.176  28.854  1.00  0.00     0.037 A 
BRANCH  51  65
ATOM     65  C   UNL A   1      38.722  28.999  28.384  1.00  0.00     0.057 A 
ATOM     66  C   UNL A   1      38.566  28.764  29.762  1.00  0.00     0.134 A 
ATOM     67  C   UNL A   1      37.622  29.620  27.757  1.00  0.00     0.134 A 
ATOM     68  F   UNL A   1      39.529  28.152  30.470  1.00  0.00    -0.206 F 
ATOM     69  C   UNL A   1      37.385  29.073  30.449  1.00  0.00     0.040 A 
ATOM     70  C   UNL A   1      36.460  29.981  28.444  1.00  0.00     0.040 A 
ATOM     71  F   UNL A   1      37.567  29.817  26.435  1.00  0.00    -0.206 F 
ATOM     72  C   UNL A   1      36.325  29.681  29.788  1.00  0.00     0.006 A 
ENDBRANCH  51  65
BRANCH  52  73
ATOM     73  C   UNL A   1      44.777  26.134  33.870  1.00  0.00     0.057 A 
ATOM     74  C   UNL A   1      43.683  25.700  34.636  1.00  0.00     0.134 A 
ATOM     75  C   UNL A   1      46.041  25.989  34.466  1.00  0.00     0.134 A 
ATOM     76  F   UNL A   1      42.438  25.768  34.140  1.00  0.00    -0.206 F 
ATOM     77  C   UNL A   1      43.839  25.114  35.899  1.00  0.00     0.040 A 
ATOM     78  C   UNL A   1      46.211  25.407  35.729  1.00  0.00     0.040 A 
ATOM     79  F   UNL A   1      47.160  26.315  33.805  1.00  0.00    -0.206 F 
ATOM     80  C   UNL A   1      45.109  24.949  36.442  1.00  0.00     0.006 A 
ENDBRANCH  52  73
BRANCH  64  81
ATOM     81  C   UNL A   1      45.559  28.987  28.318  1.00  0.00     0.057 A 
ATOM     82  C   UNL A   1      46.044  27.793  27.762  1.00  0.00     0.134 A 
ATOM     83  C   UNL A   1      46.385  30.110  28.207  1.00  0.00     0.134 A 
ATOM     84  F   UNL A   1      45.298  26.682  27.742  1.00  0.00    -0.206 F 
ATOM     85  C   UNL A   1      47.299  27.716  27.147  1.00  0.00     0.040 A 
ATOM     86  C   UNL A   1      47.626  30.056  27.567  1.00  0.00     0.040 A 
ATOM     87  F   UNL A   1      45.971  31.300  28.672  1.00  0.00    -0.206 F 
ATOM     88  C   UNL A   1      48.090  28.855  27.039  1.00  0.00     0.006 A 
ENDBRANCH  64  81
ENDBRANCH  38  39
ENDBRANCH  30  33
ENDBRANCH  28  29
ENDBRANCH  27  28
ENDBRANCH   1  27
TORSDOF 13
ENDMDL
MODEL 3
REMARK VINA RESULT:     -12.0      2.932      6.735
REMARK SMILES Cc1c(C(=O)NCCCNC(=O)c2ccc(-c3c4nc(c(-c5c(F)cccc5F)c5ccc([nH]5)c(-c5c(F)cccc5F)c5nc(c(-c6c(F)cccc6F)c6ccc3[nH]6)C=C5)C=C4)cc2)sc2ncnc(NCc3cn4c(n3)SCC4)c12
REMARK SMILES IDX 7 1 6 2 4 3 5 4 3 6 1 7 2 8 83 9 67 10 68 11 72 12 69 13
REMARK SMILES IDX 71 14 70 15 73 16 74 18 75 19 76 20 79 21 77 22 78 23 82 24
REMARK SMILES IDX 80 25 81 26 8 27 9 28 10 29 11 30 12 32 13 33 14 34 66 35
REMARK SMILES IDX 15 36 65 37 16 38 17 39 18 40 59 41 19 42 64 43 58 44 60 45
REMARK SMILES IDX 20 46 63 47 57 48 56 49 21 51 47 52 30 53 46 54 31 55 34 56
REMARK SMILES IDX 45 57 61 58 32 59 33 60 44 62 62 63 35 64 22 65 23 66 28 67
REMARK SMILES IDX 24 68 25 69 27 70 29 71 26 72 48 73 49 74 54 75 50 76 51 77
REMARK SMILES IDX 53 78 55 79 52 80 36 81 37 82 42 83 38 84 39 85 41 86 43 87
REMARK SMILES IDX 40 88
REMARK H PARENT 6 5 73 17 10 31 60 50 34 61
REMARK Flexibility Score: inf
ROOT
ATOM      1  C   UNL A   1      31.781  30.430  25.950  1.00  0.00     0.118 C 
ENDROOT
BRANCH   1   2
ATOM      2  N   UNL A   1      33.090  30.000  26.406  1.00  0.00    -0.351 N 
ATOM      3  C   UNL A   1      33.854  28.904  26.092  1.00  0.00     0.261 C 
ATOM      4  O   UNL A   1      34.910  28.814  26.726  1.00  0.00    -0.268 OA
ATOM      5  H   UNL A   1      33.505  30.606  27.062  1.00  0.00     0.163 HD
BRANCH   3   6
ATOM      6  C   UNL A   1      33.487  27.964  25.036  1.00  0.00     0.098 A 
ATOM      7  C   UNL A   1      32.294  26.360  26.557  1.00  0.00     0.047 C 
ATOM      8  C   UNL A   1      32.713  26.807  25.192  1.00  0.00    -0.014 A 
ATOM      9  C   UNL A   1      32.453  26.129  23.914  1.00  0.00     0.057 A 
ATOM     10  S   UNL A   1      33.892  28.215  23.409  1.00  0.00    -0.110 S 
ATOM     11  C   UNL A   1      33.236  26.735  22.934  1.00  0.00     0.129 A 
ATOM     12  C   UNL A   1      31.679  25.035  23.434  1.00  0.00     0.138 A 
ATOM     13  N   UNL A   1      33.474  26.319  21.682  1.00  0.00    -0.225 NA
ATOM     14  N   UNL A   1      31.920  24.593  22.166  1.00  0.00    -0.219 NA
ATOM     15  C   UNL A   1      32.812  25.212  21.391  1.00  0.00     0.225 A 
BRANCH  12  16
ATOM     16  N   UNL A   1      30.687  24.293  24.010  1.00  0.00    -0.364 N 
ATOM     17  H   UNL A   1      29.810  24.397  23.574  1.00  0.00     0.162 HD
BRANCH  16  18
ATOM     18  C   UNL A   1      30.673  23.388  25.131  1.00  0.00     0.172 C 
BRANCH  18  19
ATOM     19  C   UNL A   1      31.873  22.534  25.381  1.00  0.00     0.079 A 
ATOM     20  C   UNL A   1      33.048  22.873  26.045  1.00  0.00     0.113 A 
ATOM     21  N   UNL A   1      31.924  21.222  24.923  1.00  0.00    -0.226 NA
ATOM     22  N   UNL A   1      33.814  21.766  25.932  1.00  0.00    -0.325 N 
ATOM     23  C   UNL A   1      33.111  20.814  25.269  1.00  0.00     0.168 A 
ATOM     24  C   UNL A   1      35.230  21.520  26.112  1.00  0.00     0.135 C 
ATOM     25  S   UNL A   1      34.095  19.494  24.768  1.00  0.00    -0.086 SA
ATOM     26  C   UNL A   1      35.597  20.535  24.999  1.00  0.00     0.100 C 
ENDBRANCH  18  19
ENDBRANCH  16  18
ENDBRANCH  12  16
ENDBRANCH   3   6
ENDBRANCH   1   2
BRANCH   1  27
ATOM     27  C   UNL A   1      31.458  31.835  26.468  1.00  0.00     0.042 C 
BRANCH  27  28
ATOM     28  C   UNL A   1      32.613  32.402  27.272  1.00  0.00     0.118 C 
BRANCH  28  29
ATOM     29  N   UNL A   1      32.361  33.786  27.681  1.00  0.00    -0.352 N 
ATOM     30  C   UNL A   1      33.027  34.536  28.628  1.00  0.00     0.251 C 
ATOM     31  H   UNL A   1      31.620  34.240  27.219  1.00  0.00     0.163 HD
ATOM     32  O   UNL A   1      32.537  35.549  29.096  1.00  0.00    -0.269 OA
BRANCH  30  33
ATOM     33  C   UNL A   1      34.360  34.082  29.054  1.00  0.00     0.039 A 
ATOM     34  C   UNL A   1      34.529  33.299  30.198  1.00  0.00     0.014 A 
ATOM     35  C   UNL A   1      35.440  34.422  28.246  1.00  0.00     0.014 A 
ATOM     36  C   UNL A   1      35.797  32.803  30.481  1.00  0.00     0.010 A 
ATOM     37  C   UNL A   1      36.637  33.789  28.421  1.00  0.00     0.010 A 
ATOM     38  C   UNL A   1      36.842  33.042  29.575  1.00  0.00    -0.014 A 
BRANCH  38  39
ATOM     39  C   UNL A   1      38.147  32.420  29.742  1.00  0.00     0.031 A 
ATOM     40  C   UNL A   1      38.193  30.998  29.306  1.00  0.00     0.074 A 
ATOM     41  C   UNL A   1      39.249  33.147  30.034  1.00  0.00     0.049 A 
ATOM     42  N   UNL A   1      38.377  29.953  30.043  1.00  0.00    -0.248 NA
ATOM     43  C   UNL A   1      37.827  30.682  27.912  1.00  0.00     0.031 C 
ATOM     44  C   UNL A   1      39.368  34.605  30.179  1.00  0.00     0.029 A 
ATOM     45  N   UNL A   1      40.539  32.738  30.165  1.00  0.00    -0.354 N 
ATOM     46  C   UNL A   1      38.377  28.868  29.171  1.00  0.00     0.074 A 
ATOM     47  C   UNL A   1      37.842  29.347  27.925  1.00  0.00     0.031 C 
ATOM     48  C   UNL A   1      40.669  34.967  30.138  1.00  0.00     0.029 A 
ATOM     49  C   UNL A   1      41.479  33.766  30.149  1.00  0.00     0.049 A 
ATOM     50  H   UNL A   1      40.789  31.791  30.264  1.00  0.00     0.167 HD
ATOM     51  C   UNL A   1      39.063  27.731  29.471  1.00  0.00     0.037 A 
ATOM     52  C   UNL A   1      42.829  33.623  30.128  1.00  0.00     0.037 A 
ATOM     53  C   UNL A   1      39.418  27.698  30.868  1.00  0.00     0.049 A 
ATOM     54  C   UNL A   1      43.118  32.245  30.595  1.00  0.00     0.074 A 
ATOM     55  C   UNL A   1      38.713  27.662  32.054  1.00  0.00     0.029 A 
ATOM     56  N   UNL A   1      40.686  28.112  31.190  1.00  0.00    -0.354 N 
ATOM     57  N   UNL A   1      42.888  31.828  31.808  1.00  0.00    -0.248 NA
ATOM     58  C   UNL A   1      43.227  31.207  29.584  1.00  0.00     0.031 C 
ATOM     59  C   UNL A   1      39.455  28.486  32.949  1.00  0.00     0.029 A 
ATOM     60  C   UNL A   1      40.609  28.920  32.294  1.00  0.00     0.049 A 
ATOM     61  H   UNL A   1      41.511  27.870  30.710  1.00  0.00     0.167 HD
ATOM     62  C   UNL A   1      42.392  30.544  31.649  1.00  0.00     0.074 A 
ATOM     63  C   UNL A   1      42.710  30.183  30.267  1.00  0.00     0.031 C 
ATOM     64  C   UNL A   1      41.516  30.016  32.555  1.00  0.00     0.037 A 
BRANCH  51  65
ATOM     65  C   UNL A   1      39.760  26.863  28.452  1.00  0.00     0.057 A 
ATOM     66  C   UNL A   1      40.644  27.455  27.533  1.00  0.00     0.134 A 
ATOM     67  C   UNL A   1      39.383  25.538  28.150  1.00  0.00     0.134 A 
ATOM     68  F   UNL A   1      41.056  28.723  27.691  1.00  0.00    -0.206 F 
ATOM     69  C   UNL A   1      41.075  26.797  26.373  1.00  0.00     0.040 A 
ATOM     70  C   UNL A   1      39.849  24.854  27.024  1.00  0.00     0.040 A 
ATOM     71  F   UNL A   1      38.469  24.872  28.863  1.00  0.00    -0.206 F 
ATOM     72  C   UNL A   1      40.674  25.492  26.115  1.00  0.00     0.006 A 
ENDBRANCH  51  65
BRANCH  52  73
ATOM     73  C   UNL A   1      43.849  34.433  29.420  1.00  0.00     0.057 A 
ATOM     74  C   UNL A   1      43.998  34.342  28.027  1.00  0.00     0.134 A 
ATOM     75  C   UNL A   1      44.471  35.533  30.034  1.00  0.00     0.134 A 
ATOM     76  F   UNL A   1      43.414  33.345  27.346  1.00  0.00    -0.206 F 
ATOM     77  C   UNL A   1      44.685  35.310  27.283  1.00  0.00     0.040 A 
ATOM     78  C   UNL A   1      45.163  36.507  29.303  1.00  0.00     0.040 A 
ATOM     79  F   UNL A   1      44.347  35.753  31.350  1.00  0.00    -0.206 F 
ATOM     80  C   UNL A   1      45.255  36.408  27.919  1.00  0.00     0.006 A 
ENDBRANCH  52  73
BRANCH  64  81
ATOM     81  C   UNL A   1      41.317  30.757  33.853  1.00  0.00     0.057 A 
ATOM     82  C   UNL A   1      40.312  31.712  34.079  1.00  0.00     0.134 A 
ATOM     83  C   UNL A   1      42.067  30.361  34.965  1.00  0.00     0.134 A 
ATOM     84  F   UNL A   1      39.486  32.096  33.100  1.00  0.00    -0.206 F 
ATOM     85  C   UNL A   1      40.083  32.261  35.346  1.00  0.00     0.040 A 
ATOM     86  C   UNL A   1      41.826  30.877  36.241  1.00  0.00     0.040 A 
ATOM     87  F   UNL A   1      43.014  29.418  34.838  1.00  0.00    -0.206 F 
ATOM     88  C   UNL A   1      40.835  31.834  36.434  1.00  0.00     0.006 A 
ENDBRANCH  64  81
ENDBRANCH  38  39
ENDBRANCH  30  33
ENDBRANCH  28  29
ENDBRANCH  27  28
ENDBRANCH   1  27
TORSDOF 13
ENDMDL
