MODEL 1
REMARK VINA RESULT:     -11.6      0.000      0.000
REMARK SMILES Cc1nn(C)cc1-c1cc(C(=O)NCCCNC(=O)c2ccc(-c3c4nc(c(-c5c(F)cccc5F)c5ccc([nH]5)c(-c5c(F)cccc5F)c5nc(c(-c6c(F)cccc6F)c6ccc3[nH]6)C=C5)C=C4)cc2)n2nc(C)c(Br)c2n1
REMARK SMILES IDX 15 1 14 2 13 3 11 4 12 5 10 7 8 8 9 9 81 10 80 11 74 12
REMARK SMILES IDX 78 13 75 14 76 15 79 16 77 17 7 18 1 19 2 20 3 21 4 22 6 23
REMARK SMILES IDX 5 24 16 25 17 26 18 27 19 29 20 30 21 31 73 32 22 33 72 34
REMARK SMILES IDX 23 35 24 36 25 37 66 38 26 39 71 40 65 41 67 42 27 43 70 44
REMARK SMILES IDX 64 45 63 46 28 48 54 49 37 50 53 51 38 52 41 53 52 54 68 55
REMARK SMILES IDX 39 56 40 57 51 59 69 60 42 61 29 62 30 63 35 64 31 65 32 66
REMARK SMILES IDX 34 67 36 68 33 69 55 70 56 71 61 72 57 73 58 74 60 75 62 76
REMARK SMILES IDX 59 77 43 78 44 79 49 80 45 81 46 82 48 83 50 84 47 85
REMARK H PARENT 13 6 17 28 67 47 41 58
REMARK Flexibility Score: inf
ROOT
ATOM      1  C   UNL A   1      34.295  31.166  27.639  1.00  0.00     0.042 C 
ENDROOT
BRANCH   1   2
ATOM      2  C   UNL A   1      34.201  29.684  27.225  1.00  0.00     0.118 C 
BRANCH   2   3
ATOM      3  N   UNL A   1      32.953  29.076  27.658  1.00  0.00    -0.351 N 
ATOM      4  C   UNL A   1      32.208  27.987  27.311  1.00  0.00     0.270 C 
ATOM      5  O   UNL A   1      31.193  27.832  27.989  1.00  0.00    -0.268 OA
ATOM      6  H   UNL A   1      32.537  29.580  28.395  1.00  0.00     0.163 HD
BRANCH   4   7
ATOM      7  C   UNL A   1      32.556  27.028  26.212  1.00  0.00     0.134 A 
ATOM      8  C   UNL A   1      33.735  25.170  25.234  1.00  0.00     0.079 A 
ATOM      9  C   UNL A   1      33.511  26.096  26.371  1.00  0.00     0.063 A 
ATOM     10  N   UNL A   1      33.235  25.265  24.047  1.00  0.00    -0.227 NA
ATOM     11  C   UNL A   1      32.358  26.301  23.869  1.00  0.00     0.171 A 
ATOM     12  N   UNL A   1      31.961  27.151  24.927  1.00  0.00    -0.208 N 
ATOM     13  C   UNL A   1      31.712  26.767  22.752  1.00  0.00     0.085 A 
ATOM     14  N   UNL A   1      31.028  28.043  24.484  1.00  0.00    -0.170 NA
ATOM     15  C   UNL A   1      30.924  27.848  23.166  1.00  0.00     0.076 A 
ATOM     16  Br  UNL A   1      31.851  26.116  21.001  1.00  0.00    -0.045 Br
ATOM     17  C   UNL A   1      30.056  28.730  22.346  1.00  0.00     0.070 C 
BRANCH   8  18
ATOM     18  C   UNL A   1      34.617  24.078  25.557  1.00  0.00     0.041 A 
ATOM     19  C   UNL A   1      33.122  22.509  27.043  1.00  0.00     0.069 C 
ATOM     20  C   UNL A   1      34.377  22.935  26.372  1.00  0.00     0.069 A 
ATOM     21  N   UNL A   1      35.479  22.186  26.504  1.00  0.00    -0.178 NA
ATOM     22  N   UNL A   1      36.393  22.807  25.739  1.00  0.00    -0.275 N 
ATOM     23  C   UNL A   1      35.920  23.930  25.130  1.00  0.00     0.119 A 
ATOM     24  C   UNL A   1      37.735  22.282  25.675  1.00  0.00     0.173 C 
ENDBRANCH   8  18
ENDBRANCH   4   7
ENDBRANCH   2   3
ENDBRANCH   1   2
BRANCH   1  25
ATOM     25  C   UNL A   1      35.667  31.572  28.215  1.00  0.00     0.118 C 
BRANCH  25  26
ATOM     26  N   UNL A   1      35.856  30.972  29.527  1.00  0.00    -0.352 N 
ATOM     27  C   UNL A   1      36.678  29.975  29.968  1.00  0.00     0.251 C 
ATOM     28  H   UNL A   1      35.283  31.359  30.229  1.00  0.00     0.163 HD
ATOM     29  O   UNL A   1      36.309  29.329  30.946  1.00  0.00    -0.269 OA
BRANCH  27  30
ATOM     30  C   UNL A   1      38.009  29.693  29.387  1.00  0.00     0.039 A 
ATOM     31  C   UNL A   1      38.037  28.971  28.186  1.00  0.00     0.014 A 
ATOM     32  C   UNL A   1      39.193  29.892  30.100  1.00  0.00     0.014 A 
ATOM     33  C   UNL A   1      39.233  28.440  27.706  1.00  0.00     0.010 A 
ATOM     34  C   UNL A   1      40.395  29.355  29.616  1.00  0.00     0.010 A 
ATOM     35  C   UNL A   1      40.424  28.618  28.421  1.00  0.00    -0.014 A 
BRANCH  35  36
ATOM     36  C   UNL A   1      41.671  28.098  27.812  1.00  0.00     0.031 A 
ATOM     37  C   UNL A   1      42.763  29.104  27.629  1.00  0.00     0.074 A 
ATOM     38  C   UNL A   1      42.020  26.794  27.914  1.00  0.00     0.049 A 
ATOM     39  N   UNL A   1      43.559  29.473  28.591  1.00  0.00    -0.248 NA
ATOM     40  C   UNL A   1      42.856  29.947  26.436  1.00  0.00     0.031 C 
ATOM     41  C   UNL A   1      41.775  25.981  29.111  1.00  0.00     0.029 A 
ATOM     42  N   UNL A   1      42.830  26.001  27.127  1.00  0.00    -0.354 N 
ATOM     43  C   UNL A   1      44.239  30.599  28.161  1.00  0.00     0.074 A 
ATOM     44  C   UNL A   1      43.770  30.856  26.817  1.00  0.00     0.031 C 
ATOM     45  C   UNL A   1      42.554  24.880  29.054  1.00  0.00     0.029 A 
ATOM     46  C   UNL A   1      43.250  24.833  27.767  1.00  0.00     0.049 A 
ATOM     47  H   UNL A   1      43.087  26.235  26.206  1.00  0.00     0.167 HD
ATOM     48  C   UNL A   1      45.152  31.246  28.931  1.00  0.00     0.037 A 
ATOM     49  C   UNL A   1      44.470  24.248  27.593  1.00  0.00     0.037 A 
ATOM     50  C   UNL A   1      45.407  30.660  30.213  1.00  0.00     0.049 A 
ATOM     51  C   UNL A   1      45.374  25.239  28.276  1.00  0.00     0.074 A 
ATOM     52  C   UNL A   1      45.020  30.836  31.524  1.00  0.00     0.029 A 
ATOM     53  N   UNL A   1      46.265  29.587  30.251  1.00  0.00    -0.354 N 
ATOM     54  N   UNL A   1      45.554  25.347  29.563  1.00  0.00    -0.248 NA
ATOM     55  C   UNL A   1      45.820  26.395  27.496  1.00  0.00     0.031 C 
ATOM     56  C   UNL A   1      45.284  29.583  32.167  1.00  0.00     0.029 A 
ATOM     57  C   UNL A   1      45.777  28.720  31.191  1.00  0.00     0.049 A 
ATOM     58  H   UNL A   1      47.075  29.465  29.705  1.00  0.00     0.167 HD
ATOM     59  C   UNL A   1      45.880  26.688  29.782  1.00  0.00     0.074 A 
ATOM     60  C   UNL A   1      46.054  27.269  28.465  1.00  0.00     0.031 C 
ATOM     61  C   UNL A   1      45.803  27.288  31.006  1.00  0.00     0.037 A 
BRANCH  48  62
ATOM     62  C   UNL A   1      46.051  32.324  28.472  1.00  0.00     0.057 A 
ATOM     63  C   UNL A   1      47.157  32.094  27.655  1.00  0.00     0.134 A 
ATOM     64  C   UNL A   1      45.606  33.645  28.619  1.00  0.00     0.134 A 
ATOM     65  F   UNL A   1      47.619  30.850  27.461  1.00  0.00    -0.206 F 
ATOM     66  C   UNL A   1      47.769  33.146  26.964  1.00  0.00     0.040 A 
ATOM     67  C   UNL A   1      46.195  34.698  27.926  1.00  0.00     0.040 A 
ATOM     68  F   UNL A   1      44.534  33.912  29.383  1.00  0.00    -0.206 F 
ATOM     69  C   UNL A   1      47.272  34.447  27.080  1.00  0.00     0.006 A 
ENDBRANCH  48  62
BRANCH  49  70
ATOM     70  C   UNL A   1      44.769  23.649  26.257  1.00  0.00     0.057 A 
ATOM     71  C   UNL A   1      46.036  23.549  25.665  1.00  0.00     0.134 A 
ATOM     72  C   UNL A   1      43.712  23.081  25.521  1.00  0.00     0.134 A 
ATOM     73  F   UNL A   1      47.144  23.924  26.319  1.00  0.00    -0.206 F 
ATOM     74  C   UNL A   1      46.219  23.057  24.367  1.00  0.00     0.040 A 
ATOM     75  C   UNL A   1      43.882  22.562  24.233  1.00  0.00     0.040 A 
ATOM     76  F   UNL A   1      42.479  23.007  26.049  1.00  0.00    -0.206 F 
ATOM     77  C   UNL A   1      45.136  22.579  23.638  1.00  0.00     0.006 A 
ENDBRANCH  49  70
BRANCH  61  78
ATOM     78  C   UNL A   1      45.470  26.380  32.139  1.00  0.00     0.057 A 
ATOM     79  C   UNL A   1      44.156  26.224  32.601  1.00  0.00     0.134 A 
ATOM     80  C   UNL A   1      46.471  25.644  32.782  1.00  0.00     0.134 A 
ATOM     81  F   UNL A   1      43.136  26.878  32.021  1.00  0.00    -0.206 F 
ATOM     82  C   UNL A   1      43.854  25.393  33.681  1.00  0.00     0.040 A 
ATOM     83  C   UNL A   1      46.177  24.788  33.843  1.00  0.00     0.040 A 
ATOM     84  F   UNL A   1      47.753  25.756  32.398  1.00  0.00    -0.206 F 
ATOM     85  C   UNL A   1      44.867  24.668  34.302  1.00  0.00     0.006 A 
ENDBRANCH  61  78
ENDBRANCH  35  36
ENDBRANCH  27  30
ENDBRANCH  25  26
ENDBRANCH   1  25
TORSDOF 11
ENDMDL
MODEL 2
REMARK VINA RESULT:     -11.5      7.411     13.312
REMARK SMILES Cc1nn(C)cc1-c1cc(C(=O)NCCCNC(=O)c2ccc(-c3c4nc(c(-c5c(F)cccc5F)c5ccc([nH]5)c(-c5c(F)cccc5F)c5nc(c(-c6c(F)cccc6F)c6ccc3[nH]6)C=C5)C=C4)cc2)n2nc(C)c(Br)c2n1
REMARK SMILES IDX 15 1 14 2 13 3 11 4 12 5 10 7 8 8 9 9 81 10 80 11 74 12
REMARK SMILES IDX 78 13 75 14 76 15 79 16 77 17 7 18 1 19 2 20 3 21 4 22 6 23
REMARK SMILES IDX 5 24 16 25 17 26 18 27 19 29 20 30 21 31 73 32 22 33 72 34
REMARK SMILES IDX 23 35 24 36 25 37 66 38 26 39 71 40 65 41 67 42 27 43 70 44
REMARK SMILES IDX 64 45 63 46 28 48 54 49 37 50 53 51 38 52 41 53 52 54 68 55
REMARK SMILES IDX 39 56 40 57 51 59 69 60 42 61 29 62 30 63 35 64 31 65 32 66
REMARK SMILES IDX 34 67 36 68 33 69 55 70 56 71 61 72 57 73 58 74 60 75 62 76
REMARK SMILES IDX 59 77 43 78 44 79 49 80 45 81 46 82 48 83 50 84 47 85
REMARK H PARENT 13 6 17 28 67 47 41 58
REMARK Flexibility Score: inf
ROOT
ATOM      1  C   UNL A   1      39.978  33.850  32.373  1.00  0.00     0.042 C 
ENDROOT
BRANCH   1   2
ATOM      2  C   UNL A   1      40.208  32.556  33.178  1.00  0.00     0.118 C 
BRANCH   2   3
ATOM      3  N   UNL A   1      39.085  32.248  34.050  1.00  0.00    -0.351 N 
ATOM      4  C   UNL A   1      37.743  32.054  33.905  1.00  0.00     0.270 C 
ATOM      5  O   UNL A   1      37.155  31.779  34.951  1.00  0.00    -0.268 OA
ATOM      6  H   UNL A   1      39.366  32.156  34.988  1.00  0.00     0.163 HD
BRANCH   4   7
ATOM      7  C   UNL A   1      36.999  32.147  32.606  1.00  0.00     0.134 A 
ATOM      8  C   UNL A   1      35.391  33.086  31.078  1.00  0.00     0.079 A 
ATOM      9  C   UNL A   1      36.023  33.052  32.420  1.00  0.00     0.063 A 
ATOM     10  N   UNL A   1      35.555  32.232  30.123  1.00  0.00    -0.227 NA
ATOM     11  C   UNL A   1      36.463  31.241  30.382  1.00  0.00     0.171 A 
ATOM     12  N   UNL A   1      37.229  31.202  31.570  1.00  0.00    -0.208 N 
ATOM     13  C   UNL A   1      36.828  30.128  29.665  1.00  0.00     0.085 A 
ATOM     14  N   UNL A   1      38.102  30.154  31.529  1.00  0.00    -0.170 NA
ATOM     15  C   UNL A   1      37.817  29.478  30.412  1.00  0.00     0.076 A 
ATOM     16  Br  UNL A   1      36.141  29.559  28.018  1.00  0.00    -0.045 Br
ATOM     17  C   UNL A   1      38.523  28.208  30.107  1.00  0.00     0.070 C 
BRANCH   8  18
ATOM     18  C   UNL A   1      34.512  34.212  30.892  1.00  0.00     0.041 A 
ATOM     19  C   UNL A   1      33.652  33.910  28.428  1.00  0.00     0.069 C 
ATOM     20  C   UNL A   1      33.780  34.604  29.735  1.00  0.00     0.069 A 
ATOM     21  N   UNL A   1      33.142  35.764  29.928  1.00  0.00    -0.178 NA
ATOM     22  N   UNL A   1      33.413  36.081  31.206  1.00  0.00    -0.275 N 
ATOM     23  C   UNL A   1      34.208  35.172  31.834  1.00  0.00     0.119 A 
ATOM     24  C   UNL A   1      32.903  37.315  31.752  1.00  0.00     0.173 C 
ENDBRANCH   8  18
ENDBRANCH   4   7
ENDBRANCH   2   3
ENDBRANCH   1   2
BRANCH   1  25
ATOM     25  C   UNL A   1      40.033  33.657  30.844  1.00  0.00     0.118 C 
BRANCH  25  26
ATOM     26  N   UNL A   1      41.350  33.184  30.447  1.00  0.00    -0.352 N 
ATOM     27  C   UNL A   1      42.287  33.694  29.595  1.00  0.00     0.251 C 
ATOM     28  H   UNL A   1      41.615  32.337  30.874  1.00  0.00     0.163 HD
ATOM     29  O   UNL A   1      43.056  32.900  29.058  1.00  0.00    -0.269 OA
BRANCH  27  30
ATOM     30  C   UNL A   1      42.474  35.142  29.354  1.00  0.00     0.039 A 
ATOM     31  C   UNL A   1      41.839  35.685  28.230  1.00  0.00     0.014 A 
ATOM     32  C   UNL A   1      43.431  35.896  30.038  1.00  0.00     0.014 A 
ATOM     33  C   UNL A   1      42.165  36.965  27.781  1.00  0.00     0.010 A 
ATOM     34  C   UNL A   1      43.758  37.182  29.584  1.00  0.00     0.010 A 
ATOM     35  C   UNL A   1      43.135  37.724  28.447  1.00  0.00    -0.014 A 
BRANCH  35  36
ATOM     36  C   UNL A   1      43.371  39.105  27.967  1.00  0.00     0.031 A 
ATOM     37  C   UNL A   1      43.160  40.183  28.983  1.00  0.00     0.074 A 
ATOM     38  C   UNL A   1      44.205  39.363  26.932  1.00  0.00     0.049 A 
ATOM     39  N   UNL A   1      44.050  40.498  29.880  1.00  0.00    -0.248 NA
ATOM     40  C   UNL A   1      41.848  40.784  29.223  1.00  0.00     0.031 C 
ATOM     41  C   UNL A   1      45.449  38.624  26.690  1.00  0.00     0.029 A 
ATOM     42  N   UNL A   1      44.265  40.422  26.049  1.00  0.00    -0.354 N 
ATOM     43  C   UNL A   1      43.430  41.309  30.815  1.00  0.00     0.074 A 
ATOM     44  C   UNL A   1      42.063  41.459  30.364  1.00  0.00     0.031 C 
ATOM     45  C   UNL A   1      46.223  39.340  25.849  1.00  0.00     0.029 A 
ATOM     46  C   UNL A   1      45.487  40.517  25.382  1.00  0.00     0.049 A 
ATOM     47  H   UNL A   1      43.520  41.048  25.904  1.00  0.00     0.167 HD
ATOM     48  C   UNL A   1      44.078  41.816  31.895  1.00  0.00     0.037 A 
ATOM     49  C   UNL A   1      46.090  41.688  25.028  1.00  0.00     0.037 A 
ATOM     50  C   UNL A   1      45.471  41.495  31.987  1.00  0.00     0.049 A 
ATOM     51  C   UNL A   1      46.503  42.227  26.371  1.00  0.00     0.074 A 
ATOM     52  C   UNL A   1      46.282  40.589  32.637  1.00  0.00     0.029 A 
ATOM     53  N   UNL A   1      46.337  42.243  31.226  1.00  0.00    -0.354 N 
ATOM     54  N   UNL A   1      47.541  41.844  27.061  1.00  0.00    -0.248 NA
ATOM     55  C   UNL A   1      45.502  42.975  27.134  1.00  0.00     0.031 C 
ATOM     56  C   UNL A   1      47.488  40.540  31.867  1.00  0.00     0.029 A 
ATOM     57  C   UNL A   1      47.311  41.392  30.778  1.00  0.00     0.049 A 
ATOM     58  H   UNL A   1      46.269  43.207  31.038  1.00  0.00     0.167 HD
ATOM     59  C   UNL A   1      47.200  42.061  28.398  1.00  0.00     0.074 A 
ATOM     60  C   UNL A   1      45.944  42.785  28.370  1.00  0.00     0.031 C 
ATOM     61  C   UNL A   1      47.857  41.478  29.444  1.00  0.00     0.037 A 
BRANCH  48  62
ATOM     62  C   UNL A   1      43.541  42.837  32.817  1.00  0.00     0.057 A 
ATOM     63  C   UNL A   1      43.553  44.201  32.530  1.00  0.00     0.134 A 
ATOM     64  C   UNL A   1      42.732  42.395  33.873  1.00  0.00     0.134 A 
ATOM     65  F   UNL A   1      44.294  44.682  31.520  1.00  0.00    -0.206 F 
ATOM     66  C   UNL A   1      42.741  45.090  33.242  1.00  0.00     0.040 A 
ATOM     67  C   UNL A   1      41.908  43.266  34.579  1.00  0.00     0.040 A 
ATOM     68  F   UNL A   1      42.677  41.086  34.175  1.00  0.00    -0.206 F 
ATOM     69  C   UNL A   1      41.899  44.619  34.253  1.00  0.00     0.006 A 
ENDBRANCH  48  62
BRANCH  49  70
ATOM     70  C   UNL A   1      45.428  42.520  23.978  1.00  0.00     0.057 A 
ATOM     71  C   UNL A   1      44.142  43.073  24.055  1.00  0.00     0.134 A 
ATOM     72  C   UNL A   1      46.153  42.837  22.813  1.00  0.00     0.134 A 
ATOM     73  F   UNL A   1      43.402  42.966  25.167  1.00  0.00    -0.206 F 
ATOM     74  C   UNL A   1      43.559  43.765  22.986  1.00  0.00     0.040 A 
ATOM     75  C   UNL A   1      45.594  43.549  21.746  1.00  0.00     0.040 A 
ATOM     76  F   UNL A   1      47.438  42.467  22.691  1.00  0.00    -0.206 F 
ATOM     77  C   UNL A   1      44.279  43.988  21.819  1.00  0.00     0.006 A 
ENDBRANCH  49  70
BRANCH  61  78
ATOM     78  C   UNL A   1      49.062  40.685  29.074  1.00  0.00     0.057 A 
ATOM     79  C   UNL A   1      50.340  41.258  29.031  1.00  0.00     0.134 A 
ATOM     80  C   UNL A   1      48.954  39.326  28.758  1.00  0.00     0.134 A 
ATOM     81  F   UNL A   1      50.530  42.550  29.343  1.00  0.00    -0.206 F 
ATOM     82  C   UNL A   1      51.462  40.517  28.656  1.00  0.00     0.040 A 
ATOM     83  C   UNL A   1      50.072  38.568  28.411  1.00  0.00     0.040 A 
ATOM     84  F   UNL A   1      47.756  38.718  28.767  1.00  0.00    -0.206 F 
ATOM     85  C   UNL A   1      51.329  39.166  28.349  1.00  0.00     0.006 A 
ENDBRANCH  61  78
ENDBRANCH  35  36
ENDBRANCH  27  30
ENDBRANCH  25  26
ENDBRANCH   1  25
TORSDOF 11
ENDMDL
MODEL 3
REMARK VINA RESULT:     -11.5      2.626      7.506
REMARK SMILES Cc1nn(C)cc1-c1cc(C(=O)NCCCNC(=O)c2ccc(-c3c4nc(c(-c5c(F)cccc5F)c5ccc([nH]5)c(-c5c(F)cccc5F)c5nc(c(-c6c(F)cccc6F)c6ccc3[nH]6)C=C5)C=C4)cc2)n2nc(C)c(Br)c2n1
REMARK SMILES IDX 15 1 14 2 13 3 11 4 12 5 10 7 8 8 9 9 81 10 80 11 74 12
REMARK SMILES IDX 78 13 75 14 76 15 79 16 77 17 7 18 1 19 2 20 3 21 4 22 6 23
REMARK SMILES IDX 5 24 16 25 17 26 18 27 19 29 20 30 21 31 73 32 22 33 72 34
REMARK SMILES IDX 23 35 24 36 25 37 66 38 26 39 71 40 65 41 67 42 27 43 70 44
REMARK SMILES IDX 64 45 63 46 28 48 54 49 37 50 53 51 38 52 41 53 52 54 68 55
REMARK SMILES IDX 39 56 40 57 51 59 69 60 42 61 29 62 30 63 35 64 31 65 32 66
REMARK SMILES IDX 34 67 36 68 33 69 55 70 56 71 61 72 57 73 58 74 60 75 62 76
REMARK SMILES IDX 59 77 43 78 44 79 49 80 45 81 46 82 48 83 50 84 47 85
REMARK H PARENT 13 6 17 28 67 47 41 58
REMARK Flexibility Score: inf
ROOT
ATOM      1  C   UNL A   1      34.733  30.839  27.233  1.00  0.00     0.042 C 
ENDROOT
BRANCH   1   2
ATOM      2  C   UNL A   1      34.499  29.323  27.081  1.00  0.00     0.118 C 
BRANCH   2   3
ATOM      3  N   UNL A   1      33.215  28.912  27.627  1.00  0.00    -0.351 N 
ATOM      4  C   UNL A   1      32.058  28.379  27.142  1.00  0.00     0.270 C 
ATOM      5  O   UNL A   1      31.204  28.158  28.001  1.00  0.00    -0.268 OA
ATOM      6  H   UNL A   1      33.170  29.055  28.600  1.00  0.00     0.163 HD
BRANCH   4   7
ATOM      7  C   UNL A   1      31.799  28.063  25.700  1.00  0.00     0.134 A 
ATOM      8  C   UNL A   1      30.638  28.263  23.599  1.00  0.00     0.079 A 
ATOM      9  C   UNL A   1      30.766  28.610  25.036  1.00  0.00     0.063 A 
ATOM     10  N   UNL A   1      31.305  27.363  22.957  1.00  0.00    -0.227 NA
ATOM     11  C   UNL A   1      32.269  26.724  23.689  1.00  0.00     0.171 A 
ATOM     12  N   UNL A   1      32.574  27.083  25.022  1.00  0.00    -0.208 N 
ATOM     13  C   UNL A   1      33.097  25.672  23.385  1.00  0.00     0.085 A 
ATOM     14  N   UNL A   1      33.622  26.337  25.479  1.00  0.00    -0.170 NA
ATOM     15  C   UNL A   1      33.894  25.452  24.515  1.00  0.00     0.076 A 
ATOM     16  Br  UNL A   1      33.158  24.694  21.789  1.00  0.00    -0.045 Br
ATOM     17  C   UNL A   1      34.929  24.409  24.729  1.00  0.00     0.070 C 
BRANCH   8  18
ATOM     18  C   UNL A   1      29.643  29.047  22.912  1.00  0.00     0.041 A 
ATOM     19  C   UNL A   1      27.394  27.825  23.501  1.00  0.00     0.069 C 
ATOM     20  C   UNL A   1      28.236  28.847  22.829  1.00  0.00     0.069 A 
ATOM     21  N   UNL A   1      27.659  29.744  22.019  1.00  0.00    -0.178 NA
ATOM     22  N   UNL A   1      28.672  30.541  21.637  1.00  0.00    -0.275 N 
ATOM     23  C   UNL A   1      29.875  30.182  22.163  1.00  0.00     0.119 A 
ATOM     24  C   UNL A   1      28.413  31.618  20.712  1.00  0.00     0.173 C 
ENDBRANCH   8  18
ENDBRANCH   4   7
ENDBRANCH   2   3
ENDBRANCH   1   2
BRANCH   1  25
ATOM     25  C   UNL A   1      33.603  31.578  27.979  1.00  0.00     0.118 C 
BRANCH  25  26
ATOM     26  N   UNL A   1      34.134  32.751  28.655  1.00  0.00    -0.352 N 
ATOM     27  C   UNL A   1      35.007  32.891  29.695  1.00  0.00     0.251 C 
ATOM     28  H   UNL A   1      33.801  33.605  28.293  1.00  0.00     0.163 HD
ATOM     29  O   UNL A   1      34.908  33.902  30.386  1.00  0.00    -0.269 OA
BRANCH  27  30
ATOM     30  C   UNL A   1      36.104  31.939  29.978  1.00  0.00     0.039 A 
ATOM     31  C   UNL A   1      35.986  31.161  31.137  1.00  0.00     0.014 A 
ATOM     32  C   UNL A   1      37.321  31.976  29.292  1.00  0.00     0.014 A 
ATOM     33  C   UNL A   1      37.075  30.436  31.618  1.00  0.00     0.010 A 
ATOM     34  C   UNL A   1      38.415  31.247  29.779  1.00  0.00     0.010 A 
ATOM     35  C   UNL A   1      38.305  30.478  30.950  1.00  0.00    -0.014 A 
BRANCH  35  36
ATOM     36  C   UNL A   1      39.395  29.619  31.469  1.00  0.00     0.031 A 
ATOM     37  C   UNL A   1      39.599  28.331  30.736  1.00  0.00     0.074 A 
ATOM     38  C   UNL A   1      40.445  30.138  32.146  1.00  0.00     0.049 A 
ATOM     39  N   UNL A   1      40.262  28.246  29.618  1.00  0.00    -0.248 NA
ATOM     40  C   UNL A   1      38.855  27.116  31.069  1.00  0.00     0.031 C 
ATOM     41  C   UNL A   1      41.058  31.432  31.823  1.00  0.00     0.029 A 
ATOM     42  N   UNL A   1      41.310  29.575  33.063  1.00  0.00    -0.354 N 
ATOM     43  C   UNL A   1      40.013  26.995  29.081  1.00  0.00     0.074 A 
ATOM     44  C   UNL A   1      39.135  26.329  30.017  1.00  0.00     0.031 C 
ATOM     45  C   UNL A   1      42.277  31.491  32.398  1.00  0.00     0.029 A 
ATOM     46  C   UNL A   1      42.484  30.309  33.239  1.00  0.00     0.049 A 
ATOM     47  H   UNL A   1      41.118  28.739  33.545  1.00  0.00     0.167 HD
ATOM     48  C   UNL A   1      40.552  26.579  27.905  1.00  0.00     0.037 A 
ATOM     49  C   UNL A   1      43.711  29.765  33.481  1.00  0.00     0.037 A 
ATOM     50  C   UNL A   1      41.440  27.506  27.269  1.00  0.00     0.049 A 
ATOM     51  C   UNL A   1      44.020  29.126  32.154  1.00  0.00     0.074 A 
ATOM     52  C   UNL A   1      41.402  28.448  26.264  1.00  0.00     0.029 A 
ATOM     53  N   UNL A   1      42.730  27.560  27.740  1.00  0.00    -0.354 N 
ATOM     54  N   UNL A   1      44.450  29.745  31.090  1.00  0.00    -0.248 NA
ATOM     55  C   UNL A   1      43.477  27.789  31.907  1.00  0.00     0.031 C 
ATOM     56  C   UNL A   1      42.507  29.322  26.524  1.00  0.00     0.029 A 
ATOM     57  C   UNL A   1      43.116  28.872  27.694  1.00  0.00     0.049 A 
ATOM     58  H   UNL A   1      43.272  26.800  28.052  1.00  0.00     0.167 HD
ATOM     59  C   UNL A   1      43.984  28.994  30.008  1.00  0.00     0.074 A 
ATOM     60  C   UNL A   1      43.418  27.789  30.582  1.00  0.00     0.031 C 
ATOM     61  C   UNL A   1      43.915  29.478  28.733  1.00  0.00     0.037 A 
BRANCH  48  62
ATOM     62  C   UNL A   1      40.491  25.203  27.373  1.00  0.00     0.057 A 
ATOM     63  C   UNL A   1      41.469  24.244  27.635  1.00  0.00     0.134 A 
ATOM     64  C   UNL A   1      39.271  24.768  26.839  1.00  0.00     0.134 A 
ATOM     65  F   UNL A   1      42.651  24.597  28.162  1.00  0.00    -0.206 F 
ATOM     66  C   UNL A   1      41.216  22.885  27.418  1.00  0.00     0.040 A 
ATOM     67  C   UNL A   1      39.000  23.419  26.633  1.00  0.00     0.040 A 
ATOM     68  F   UNL A   1      38.293  25.655  26.586  1.00  0.00    -0.206 F 
ATOM     69  C   UNL A   1      39.970  22.469  26.939  1.00  0.00     0.006 A 
ENDBRANCH  48  62
BRANCH  49  70
ATOM     70  C   UNL A   1      43.920  29.077  34.791  1.00  0.00     0.057 A 
ATOM     71  C   UNL A   1      43.174  27.996  35.281  1.00  0.00     0.134 A 
ATOM     72  C   UNL A   1      44.985  29.497  35.611  1.00  0.00     0.134 A 
ATOM     73  F   UNL A   1      42.224  27.411  34.540  1.00  0.00    -0.206 F 
ATOM     74  C   UNL A   1      43.374  27.468  36.562  1.00  0.00     0.040 A 
ATOM     75  C   UNL A   1      45.214  28.963  36.883  1.00  0.00     0.040 A 
ATOM     76  F   UNL A   1      45.841  30.439  35.183  1.00  0.00    -0.206 F 
ATOM     77  C   UNL A   1      44.385  27.964  37.376  1.00  0.00     0.006 A 
ENDBRANCH  49  70
BRANCH  61  78
ATOM     78  C   UNL A   1      44.497  30.835  28.537  1.00  0.00     0.057 A 
ATOM     79  C   UNL A   1      43.742  32.000  28.732  1.00  0.00     0.134 A 
ATOM     80  C   UNL A   1      45.833  30.990  28.149  1.00  0.00     0.134 A 
ATOM     81  F   UNL A   1      42.459  31.936  29.126  1.00  0.00    -0.206 F 
ATOM     82  C   UNL A   1      44.285  33.268  28.518  1.00  0.00     0.040 A 
ATOM     83  C   UNL A   1      46.394  32.253  27.963  1.00  0.00     0.040 A 
ATOM     84  F   UNL A   1      46.608  29.915  27.933  1.00  0.00    -0.206 F 
ATOM     85  C   UNL A   1      45.617  33.396  28.137  1.00  0.00     0.006 A 
ENDBRANCH  61  78
ENDBRANCH  35  36
ENDBRANCH  27  30
ENDBRANCH  25  26
ENDBRANCH   1  25
TORSDOF 11
ENDMDL
