MODEL 1
REMARK VINA RESULT:     -11.5      0.000      0.000
REMARK SMILES C=C(C)COc1cc(/C=C/c2cc(C(=O)NCCCNC(=O)c3ccc(-c4c5nc(c(-c6c(F)cccc6F)c6ccc([nH]6)c(-c6c(F)cccc6F)c6nc(c(-c7c(F)cccc7F)c7ccc4[nH]7)C=C6)C=C5)cc3)ncn2)ccc1OC
REMARK SMILES IDX 14 1 15 2 16 3 13 5 11 6 12 7 79 8 78 9 77 10 10 11 9 12
REMARK SMILES IDX 8 13 6 14 7 15 82 16 81 17 80 18 5 19 4 20 2 21 1 22 3 23
REMARK SMILES IDX 83 24 84 25 17 26 18 27 19 28 20 29 21 30 22 32 23 33 24 34
REMARK SMILES IDX 76 35 25 36 75 37 26 38 27 39 28 40 69 41 29 42 74 43 68 44
REMARK SMILES IDX 70 45 30 46 73 47 67 48 66 49 31 51 57 52 40 53 56 54 41 55
REMARK SMILES IDX 44 56 55 57 71 58 42 59 43 60 54 62 72 63 45 64 32 65 33 66
REMARK SMILES IDX 38 67 34 68 35 69 37 70 39 71 36 72 58 73 59 74 64 75 60 76
REMARK SMILES IDX 61 77 63 78 65 79 62 80 46 81 47 82 52 83 48 84 49 85 51 86
REMARK SMILES IDX 53 87 50 88
REMARK H PARENT 16 4 20 31 70 50 44 61
REMARK Flexibility Score: inf
ROOT
ATOM      1  C   UNL A   1      33.467  19.808  25.241  1.00  0.00     0.270 C 
ATOM      2  O   UNL A   1      32.852  18.855  25.724  1.00  0.00    -0.268 OA
ATOM      3  N   UNL A   1      34.832  19.810  25.432  1.00  0.00    -0.351 N 
ATOM      4  H   UNL A   1      35.150  19.050  25.972  1.00  0.00     0.163 HD
ENDROOT
BRANCH   1   5
ATOM      5  C   UNL A   1      32.723  20.862  24.468  1.00  0.00     0.132 A 
ATOM      6  C   UNL A   1      31.672  22.938  24.171  1.00  0.00     0.067 A 
ATOM      7  C   UNL A   1      32.240  22.016  25.033  1.00  0.00     0.062 A 
ATOM      8  N   UNL A   1      31.466  22.692  22.870  1.00  0.00    -0.237 NA
ATOM      9  C   UNL A   1      31.906  21.504  22.430  1.00  0.00     0.223 A 
ATOM     10  N   UNL A   1      32.548  20.583  23.157  1.00  0.00    -0.231 NA
BRANCH   6  11
ATOM     11  C   UNL A   1      31.307  24.274  24.668  1.00  0.00     0.029 C 
ATOM     12  C   UNL A   1      30.691  25.124  23.829  1.00  0.00     0.010 C 
BRANCH  12  13
ATOM     13  C   UNL A   1      30.428  26.567  23.969  1.00  0.00    -0.022 A 
ATOM     14  C   UNL A   1      31.078  28.895  24.347  1.00  0.00     0.162 A 
ATOM     15  C   UNL A   1      31.316  27.512  24.505  1.00  0.00     0.058 A 
ATOM     16  C   UNL A   1      29.961  29.339  23.626  1.00  0.00     0.160 A 
ATOM     17  C   UNL A   1      29.033  28.394  23.184  1.00  0.00     0.051 A 
ATOM     18  C   UNL A   1      29.257  27.031  23.355  1.00  0.00     0.012 A 
BRANCH  14  19
ATOM     19  O   UNL A   1      32.055  29.757  24.774  1.00  0.00    -0.485 OA
BRANCH  19  20
ATOM     20  C   UNL A   1      31.774  30.348  26.055  1.00  0.00     0.260 C 
BRANCH  20  21
ATOM     21  C   UNL A   1      32.965  30.122  26.967  1.00  0.00    -0.043 C 
ATOM     22  C   UNL A   1      33.537  28.913  27.119  1.00  0.00     0.011 C 
ATOM     23  C   UNL A   1      33.559  31.338  27.622  1.00  0.00     0.042 C 
ENDBRANCH  20  21
ENDBRANCH  19  20
ENDBRANCH  14  19
BRANCH  16  24
ATOM     24  O   UNL A   1      29.605  30.596  23.235  1.00  0.00    -0.493 OA
ATOM     25  C   UNL A   1      29.047  30.807  21.953  1.00  0.00     0.278 C 
ENDBRANCH  16  24
ENDBRANCH  12  13
ENDBRANCH   6  11
ENDBRANCH   1   5
BRANCH   3  26
ATOM     26  C   UNL A   1      35.900  20.697  25.004  1.00  0.00     0.118 C 
BRANCH  26  27
ATOM     27  C   UNL A   1      37.184  19.917  24.719  1.00  0.00     0.042 C 
BRANCH  27  28
ATOM     28  C   UNL A   1      38.395  20.440  25.491  1.00  0.00     0.118 C 
BRANCH  28  29
ATOM     29  N   UNL A   1      39.402  19.405  25.695  1.00  0.00    -0.352 N 
ATOM     30  C   UNL A   1      40.724  19.515  26.041  1.00  0.00     0.251 C 
ATOM     31  H   UNL A   1      39.083  18.484  25.565  1.00  0.00     0.163 HD
ATOM     32  O   UNL A   1      41.459  18.529  25.936  1.00  0.00    -0.269 OA
BRANCH  30  33
ATOM     33  C   UNL A   1      41.282  20.793  26.527  1.00  0.00     0.039 A 
ATOM     34  C   UNL A   1      41.780  21.712  25.597  1.00  0.00     0.014 A 
ATOM     35  C   UNL A   1      41.363  21.072  27.893  1.00  0.00     0.014 A 
ATOM     36  C   UNL A   1      42.303  22.931  26.035  1.00  0.00     0.010 A 
ATOM     37  C   UNL A   1      41.818  22.315  28.325  1.00  0.00     0.010 A 
ATOM     38  C   UNL A   1      42.296  23.257  27.400  1.00  0.00    -0.014 A 
BRANCH  38  39
ATOM     39  C   UNL A   1      42.778  24.576  27.883  1.00  0.00     0.031 A 
ATOM     40  C   UNL A   1      41.796  25.658  28.241  1.00  0.00     0.074 A 
ATOM     41  C   UNL A   1      44.101  24.825  27.926  1.00  0.00     0.049 A 
ATOM     42  N   UNL A   1      42.023  26.899  28.589  1.00  0.00    -0.248 NA
ATOM     43  C   UNL A   1      40.369  25.305  28.174  1.00  0.00     0.031 C 
ATOM     44  C   UNL A   1      45.153  23.873  27.565  1.00  0.00     0.029 A 
ATOM     45  N   UNL A   1      44.789  25.960  28.278  1.00  0.00    -0.354 N 
ATOM     46  C   UNL A   1      40.772  27.478  28.764  1.00  0.00     0.074 A 
ATOM     47  C   UNL A   1      39.790  26.467  28.436  1.00  0.00     0.031 C 
ATOM     48  C   UNL A   1      46.350  24.457  27.727  1.00  0.00     0.029 A 
ATOM     49  C   UNL A   1      46.152  25.835  28.162  1.00  0.00     0.049 A 
ATOM     50  H   UNL A   1      44.346  26.784  28.583  1.00  0.00     0.167 HD
ATOM     51  C   UNL A   1      40.470  28.732  29.177  1.00  0.00     0.037 A 
ATOM     52  C   UNL A   1      47.131  26.736  28.368  1.00  0.00     0.037 A 
ATOM     53  C   UNL A   1      41.452  29.727  29.523  1.00  0.00     0.049 A 
ATOM     54  C   UNL A   1      46.770  28.125  28.814  1.00  0.00     0.074 A 
ATOM     55  C   UNL A   1      41.247  31.006  30.012  1.00  0.00     0.029 A 
ATOM     56  N   UNL A   1      42.823  29.557  29.410  1.00  0.00    -0.354 N 
ATOM     57  N   UNL A   1      45.585  28.639  29.040  1.00  0.00    -0.248 NA
ATOM     58  C   UNL A   1      47.882  29.059  29.041  1.00  0.00     0.031 C 
ATOM     59  C   UNL A   1      42.492  31.627  30.147  1.00  0.00     0.029 A 
ATOM     60  C   UNL A   1      43.477  30.716  29.796  1.00  0.00     0.049 A 
ATOM     61  H   UNL A   1      43.267  28.734  29.102  1.00  0.00     0.167 HD
ATOM     62  C   UNL A   1      45.809  29.943  29.462  1.00  0.00     0.074 A 
ATOM     63  C   UNL A   1      47.243  30.138  29.473  1.00  0.00     0.031 C 
ATOM     64  C   UNL A   1      44.907  30.893  29.810  1.00  0.00     0.037 A 
BRANCH  51  65
ATOM     65  C   UNL A   1      39.017  29.102  29.276  1.00  0.00     0.057 A 
ATOM     66  C   UNL A   1      38.288  29.549  28.166  1.00  0.00     0.134 A 
ATOM     67  C   UNL A   1      38.328  28.972  30.489  1.00  0.00     0.134 A 
ATOM     68  F   UNL A   1      38.889  29.704  26.977  1.00  0.00    -0.206 F 
ATOM     69  C   UNL A   1      36.935  29.880  28.264  1.00  0.00     0.040 A 
ATOM     70  C   UNL A   1      36.968  29.272  30.593  1.00  0.00     0.040 A 
ATOM     71  F   UNL A   1      38.961  28.542  31.591  1.00  0.00    -0.206 F 
ATOM     72  C   UNL A   1      36.270  29.735  29.480  1.00  0.00     0.006 A 
ENDBRANCH  51  65
BRANCH  52  73
ATOM     73  C   UNL A   1      48.551  26.347  28.166  1.00  0.00     0.057 A 
ATOM     74  C   UNL A   1      49.320  25.847  29.222  1.00  0.00     0.134 A 
ATOM     75  C   UNL A   1      49.174  26.470  26.918  1.00  0.00     0.134 A 
ATOM     76  F   UNL A   1      48.785  25.722  30.446  1.00  0.00    -0.206 F 
ATOM     77  C   UNL A   1      50.661  25.500  29.052  1.00  0.00     0.040 A 
ATOM     78  C   UNL A   1      50.506  26.101  26.726  1.00  0.00     0.040 A 
ATOM     79  F   UNL A   1      48.489  26.935  25.862  1.00  0.00    -0.206 F 
ATOM     80  C   UNL A   1      51.256  25.622  27.798  1.00  0.00     0.006 A 
ENDBRANCH  52  73
BRANCH  64  81
ATOM     81  C   UNL A   1      45.443  32.217  30.270  1.00  0.00     0.057 A 
ATOM     82  C   UNL A   1      45.655  33.280  29.385  1.00  0.00     0.134 A 
ATOM     83  C   UNL A   1      45.705  32.444  31.628  1.00  0.00     0.134 A 
ATOM     84  F   UNL A   1      45.437  33.125  28.070  1.00  0.00    -0.206 F 
ATOM     85  C   UNL A   1      46.128  34.516  29.830  1.00  0.00     0.040 A 
ATOM     86  C   UNL A   1      46.151  33.683  32.090  1.00  0.00     0.040 A 
ATOM     87  F   UNL A   1      45.514  31.470  32.531  1.00  0.00    -0.206 F 
ATOM     88  C   UNL A   1      46.369  34.722  31.188  1.00  0.00     0.006 A 
ENDBRANCH  64  81
ENDBRANCH  38  39
ENDBRANCH  30  33
ENDBRANCH  28  29
ENDBRANCH  27  28
ENDBRANCH  26  27
ENDBRANCH   3  26
TORSDOF 16
ENDMDL
MODEL 2
REMARK VINA RESULT:     -11.5      2.329      7.911
REMARK SMILES C=C(C)COc1cc(/C=C/c2cc(C(=O)NCCCNC(=O)c3ccc(-c4c5nc(c(-c6c(F)cccc6F)c6ccc([nH]6)c(-c6c(F)cccc6F)c6nc(c(-c7c(F)cccc7F)c7ccc4[nH]7)C=C6)C=C5)cc3)ncn2)ccc1OC
REMARK SMILES IDX 14 1 15 2 16 3 13 5 11 6 12 7 79 8 78 9 77 10 10 11 9 12
REMARK SMILES IDX 8 13 6 14 7 15 82 16 81 17 80 18 5 19 4 20 2 21 1 22 3 23
REMARK SMILES IDX 83 24 84 25 17 26 18 27 19 28 20 29 21 30 22 32 23 33 24 34
REMARK SMILES IDX 76 35 25 36 75 37 26 38 27 39 28 40 69 41 29 42 74 43 68 44
REMARK SMILES IDX 70 45 30 46 73 47 67 48 66 49 31 51 57 52 40 53 56 54 41 55
REMARK SMILES IDX 44 56 55 57 71 58 42 59 43 60 54 62 72 63 45 64 32 65 33 66
REMARK SMILES IDX 38 67 34 68 35 69 37 70 39 71 36 72 58 73 59 74 64 75 60 76
REMARK SMILES IDX 61 77 63 78 65 79 62 80 46 81 47 82 52 83 48 84 49 85 51 86
REMARK SMILES IDX 53 87 50 88
REMARK H PARENT 16 4 20 31 70 50 44 61
REMARK Flexibility Score: inf
ROOT
ATOM      1  C   UNL A   1      30.913  28.900  22.822  1.00  0.00     0.270 C 
ATOM      2  O   UNL A   1      30.551  29.420  21.764  1.00  0.00    -0.268 OA
ATOM      3  N   UNL A   1      31.536  29.731  23.726  1.00  0.00    -0.351 N 
ATOM      4  H   UNL A   1      31.649  30.652  23.394  1.00  0.00     0.163 HD
ENDROOT
BRANCH   1   5
ATOM      5  C   UNL A   1      30.632  27.443  23.071  1.00  0.00     0.132 A 
ATOM      6  C   UNL A   1      31.134  25.152  23.081  1.00  0.00     0.067 A 
ATOM      7  C   UNL A   1      31.478  26.433  22.685  1.00  0.00     0.062 A 
ATOM      8  N   UNL A   1      29.977  24.860  23.691  1.00  0.00    -0.237 NA
ATOM      9  C   UNL A   1      29.184  25.909  23.957  1.00  0.00     0.223 A 
ATOM     10  N   UNL A   1      29.463  27.192  23.700  1.00  0.00    -0.231 NA
BRANCH   6  11
ATOM     11  C   UNL A   1      32.081  24.045  22.874  1.00  0.00     0.029 C 
ATOM     12  C   UNL A   1      31.919  22.919  23.591  1.00  0.00     0.010 C 
BRANCH  12  13
ATOM     13  C   UNL A   1      32.824  21.770  23.766  1.00  0.00    -0.022 A 
ATOM     14  C   UNL A   1      34.816  20.653  24.642  1.00  0.00     0.162 A 
ATOM     15  C   UNL A   1      34.135  21.830  24.261  1.00  0.00     0.058 A 
ATOM     16  C   UNL A   1      34.176  19.409  24.553  1.00  0.00     0.160 A 
ATOM     17  C   UNL A   1      32.910  19.351  23.965  1.00  0.00     0.051 A 
ATOM     18  C   UNL A   1      32.245  20.509  23.573  1.00  0.00     0.012 A 
BRANCH  14  19
ATOM     19  O   UNL A   1      36.039  20.798  25.246  1.00  0.00    -0.485 OA
BRANCH  19  20
ATOM     20  C   UNL A   1      36.926  21.678  24.535  1.00  0.00     0.260 C 
BRANCH  20  21
ATOM     21  C   UNL A   1      37.517  22.671  25.517  1.00  0.00    -0.043 C 
ATOM     22  C   UNL A   1      36.889  23.813  25.855  1.00  0.00     0.011 C 
ATOM     23  C   UNL A   1      38.801  22.276  26.193  1.00  0.00     0.042 C 
ENDBRANCH  20  21
ENDBRANCH  19  20
ENDBRANCH  14  19
BRANCH  16  24
ATOM     24  O   UNL A   1      34.576  18.177  24.979  1.00  0.00    -0.493 OA
ATOM     25  C   UNL A   1      34.486  17.064  24.112  1.00  0.00     0.278 C 
ENDBRANCH  16  24
ENDBRANCH  12  13
ENDBRANCH   6  11
ENDBRANCH   1   5
BRANCH   3  26
ATOM     26  C   UNL A   1      32.064  29.535  25.066  1.00  0.00     0.118 C 
BRANCH  26  27
ATOM     27  C   UNL A   1      33.478  28.954  25.022  1.00  0.00     0.042 C 
BRANCH  27  28
ATOM     28  C   UNL A   1      34.141  28.869  26.397  1.00  0.00     0.118 C 
BRANCH  28  29
ATOM     29  N   UNL A   1      33.987  30.105  27.155  1.00  0.00    -0.352 N 
ATOM     30  C   UNL A   1      34.788  30.653  28.122  1.00  0.00     0.251 C 
ATOM     31  H   UNL A   1      33.182  30.627  26.939  1.00  0.00     0.163 HD
ATOM     32  O   UNL A   1      34.359  31.590  28.802  1.00  0.00    -0.269 OA
BRANCH  30  33
ATOM     33  C   UNL A   1      36.150  30.137  28.367  1.00  0.00     0.039 A 
ATOM     34  C   UNL A   1      37.098  30.211  27.340  1.00  0.00     0.014 A 
ATOM     35  C   UNL A   1      36.487  29.538  29.583  1.00  0.00     0.014 A 
ATOM     36  C   UNL A   1      38.394  29.738  27.554  1.00  0.00     0.010 A 
ATOM     37  C   UNL A   1      37.798  29.132  29.820  1.00  0.00     0.010 A 
ATOM     38  C   UNL A   1      38.765  29.225  28.807  1.00  0.00    -0.014 A 
BRANCH  38  39
ATOM     39  C   UNL A   1      40.157  28.785  29.082  1.00  0.00     0.031 A 
ATOM     40  C   UNL A   1      41.137  29.726  29.725  1.00  0.00     0.074 A 
ATOM     41  C   UNL A   1      40.557  27.562  28.682  1.00  0.00     0.049 A 
ATOM     42  N   UNL A   1      42.415  29.559  29.957  1.00  0.00    -0.248 NA
ATOM     43  C   UNL A   1      40.620  31.041  30.136  1.00  0.00     0.031 C 
ATOM     44  C   UNL A   1      39.713  26.572  28.012  1.00  0.00     0.029 A 
ATOM     45  N   UNL A   1      41.782  26.948  28.769  1.00  0.00    -0.354 N 
ATOM     46  C   UNL A   1      42.855  30.749  30.524  1.00  0.00     0.074 A 
ATOM     47  C   UNL A   1      41.721  31.646  30.555  1.00  0.00     0.031 C 
ATOM     48  C   UNL A   1      40.440  25.472  27.761  1.00  0.00     0.029 A 
ATOM     49  C   UNL A   1      41.809  25.693  28.213  1.00  0.00     0.049 A 
ATOM     50  H   UNL A   1      42.567  27.369  29.189  1.00  0.00     0.167 HD
ATOM     51  C   UNL A   1      44.088  31.058  30.992  1.00  0.00     0.037 A 
ATOM     52  C   UNL A   1      42.827  24.822  28.070  1.00  0.00     0.037 A 
ATOM     53  C   UNL A   1      45.207  30.152  30.979  1.00  0.00     0.049 A 
ATOM     54  C   UNL A   1      44.189  25.193  28.587  1.00  0.00     0.074 A 
ATOM     55  C   UNL A   1      46.480  30.349  31.486  1.00  0.00     0.029 A 
ATOM     56  N   UNL A   1      45.189  28.882  30.424  1.00  0.00    -0.354 N 
ATOM     57  N   UNL A   1      44.575  26.296  29.181  1.00  0.00    -0.248 NA
ATOM     58  C   UNL A   1      45.256  24.197  28.419  1.00  0.00     0.031 C 
ATOM     59  C   UNL A   1      47.247  29.217  31.193  1.00  0.00     0.029 A 
ATOM     60  C   UNL A   1      46.437  28.292  30.553  1.00  0.00     0.049 A 
ATOM     61  H   UNL A   1      44.407  28.461  30.001  1.00  0.00     0.167 HD
ATOM     62  C   UNL A   1      45.918  26.116  29.484  1.00  0.00     0.074 A 
ATOM     63  C   UNL A   1      46.277  24.792  29.019  1.00  0.00     0.031 C 
ATOM     64  C   UNL A   1      46.777  26.969  30.093  1.00  0.00     0.037 A 
BRANCH  51  65
ATOM     65  C   UNL A   1      44.293  32.434  31.558  1.00  0.00     0.057 A 
ATOM     66  C   UNL A   1      44.091  32.717  32.916  1.00  0.00     0.134 A 
ATOM     67  C   UNL A   1      44.735  33.484  30.742  1.00  0.00     0.134 A 
ATOM     68  F   UNL A   1      43.659  31.759  33.751  1.00  0.00    -0.206 F 
ATOM     69  C   UNL A   1      44.295  33.996  33.436  1.00  0.00     0.040 A 
ATOM     70  C   UNL A   1      44.971  34.760  31.256  1.00  0.00     0.040 A 
ATOM     71  F   UNL A   1      44.957  33.284  29.434  1.00  0.00    -0.206 F 
ATOM     72  C   UNL A   1      44.743  35.021  32.606  1.00  0.00     0.006 A 
ENDBRANCH  51  65
BRANCH  52  73
ATOM     73  C   UNL A   1      42.592  23.507  27.419  1.00  0.00     0.057 A 
ATOM     74  C   UNL A   1      42.248  22.380  28.172  1.00  0.00     0.134 A 
ATOM     75  C   UNL A   1      42.711  23.345  26.033  1.00  0.00     0.134 A 
ATOM     76  F   UNL A   1      42.137  22.468  29.506  1.00  0.00    -0.206 F 
ATOM     77  C   UNL A   1      42.048  21.134  27.576  1.00  0.00     0.040 A 
ATOM     78  C   UNL A   1      42.487  22.112  25.419  1.00  0.00     0.040 A 
ATOM     79  F   UNL A   1      43.030  24.389  25.253  1.00  0.00    -0.206 F 
ATOM     80  C   UNL A   1      42.162  20.999  26.193  1.00  0.00     0.006 A 
ENDBRANCH  52  73
BRANCH  64  81
ATOM     81  C   UNL A   1      48.178  26.487  30.328  1.00  0.00     0.057 A 
ATOM     82  C   UNL A   1      49.212  26.734  29.417  1.00  0.00     0.134 A 
ATOM     83  C   UNL A   1      48.505  25.805  31.509  1.00  0.00     0.134 A 
ATOM     84  F   UNL A   1      48.962  27.369  28.262  1.00  0.00    -0.206 F 
ATOM     85  C   UNL A   1      50.517  26.303  29.661  1.00  0.00     0.040 A 
ATOM     86  C   UNL A   1      49.812  25.395  31.777  1.00  0.00     0.040 A 
ATOM     87  F   UNL A   1      47.564  25.543  32.428  1.00  0.00    -0.206 F 
ATOM     88  C   UNL A   1      50.821  25.639  30.849  1.00  0.00     0.006 A 
ENDBRANCH  64  81
ENDBRANCH  38  39
ENDBRANCH  30  33
ENDBRANCH  28  29
ENDBRANCH  27  28
ENDBRANCH  26  27
ENDBRANCH   3  26
TORSDOF 16
ENDMDL
MODEL 3
REMARK VINA RESULT:     -11.2      4.594      8.340
REMARK SMILES C=C(C)COc1cc(/C=C/c2cc(C(=O)NCCCNC(=O)c3ccc(-c4c5nc(c(-c6c(F)cccc6F)c6ccc([nH]6)c(-c6c(F)cccc6F)c6nc(c(-c7c(F)cccc7F)c7ccc4[nH]7)C=C6)C=C5)cc3)ncn2)ccc1OC
REMARK SMILES IDX 14 1 15 2 16 3 13 5 11 6 12 7 79 8 78 9 77 10 10 11 9 12
REMARK SMILES IDX 8 13 6 14 7 15 82 16 81 17 80 18 5 19 4 20 2 21 1 22 3 23
REMARK SMILES IDX 83 24 84 25 17 26 18 27 19 28 20 29 21 30 22 32 23 33 24 34
REMARK SMILES IDX 76 35 25 36 75 37 26 38 27 39 28 40 69 41 29 42 74 43 68 44
REMARK SMILES IDX 70 45 30 46 73 47 67 48 66 49 31 51 57 52 40 53 56 54 41 55
REMARK SMILES IDX 44 56 55 57 71 58 42 59 43 60 54 62 72 63 45 64 32 65 33 66
REMARK SMILES IDX 38 67 34 68 35 69 37 70 39 71 36 72 58 73 59 74 64 75 60 76
REMARK SMILES IDX 61 77 63 78 65 79 62 80 46 81 47 82 52 83 48 84 49 85 51 86
REMARK SMILES IDX 53 87 50 88
REMARK H PARENT 16 4 20 31 70 50 44 61
REMARK Flexibility Score: inf
ROOT
ATOM      1  C   UNL A   1      44.098  21.722  25.261  1.00  0.00     0.270 C 
ATOM      2  O   UNL A   1      44.255  21.405  24.080  1.00  0.00    -0.268 OA
ATOM      3  N   UNL A   1      45.106  22.471  25.828  1.00  0.00    -0.351 N 
ATOM      4  H   UNL A   1      45.860  22.636  25.216  1.00  0.00     0.163 HD
ENDROOT
BRANCH   1   5
ATOM      5  C   UNL A   1      42.842  21.317  25.983  1.00  0.00     0.132 A 
ATOM      6  C   UNL A   1      40.589  21.511  26.604  1.00  0.00     0.067 A 
ATOM      7  C   UNL A   1      41.694  22.069  25.984  1.00  0.00     0.062 A 
ATOM      8  N   UNL A   1      40.638  20.362  27.292  1.00  0.00    -0.237 NA
ATOM      9  C   UNL A   1      41.826  19.740  27.294  1.00  0.00     0.223 A 
ATOM     10  N   UNL A   1      42.929  20.146  26.653  1.00  0.00    -0.231 NA
BRANCH   6  11
ATOM     11  C   UNL A   1      39.276  22.165  26.482  1.00  0.00     0.029 C 
ATOM     12  C   UNL A   1      38.328  21.567  25.741  1.00  0.00     0.010 C 
BRANCH  12  13
ATOM     13  C   UNL A   1      37.037  22.087  25.258  1.00  0.00    -0.022 A 
ATOM     14  C   UNL A   1      34.680  21.888  24.633  1.00  0.00     0.162 A 
ATOM     15  C   UNL A   1      35.956  21.310  24.816  1.00  0.00     0.058 A 
ATOM     16  C   UNL A   1      34.474  23.245  24.917  1.00  0.00     0.160 A 
ATOM     17  C   UNL A   1      35.578  24.030  25.260  1.00  0.00     0.051 A 
ATOM     18  C   UNL A   1      36.839  23.465  25.424  1.00  0.00     0.012 A 
BRANCH  14  19
ATOM     19  O   UNL A   1      33.642  21.044  24.333  1.00  0.00    -0.485 OA
BRANCH  19  20
ATOM     20  C   UNL A   1      33.621  19.855  25.141  1.00  0.00     0.260 C 
BRANCH  20  21
ATOM     21  C   UNL A   1      33.596  18.645  24.226  1.00  0.00    -0.043 C 
ATOM     22  C   UNL A   1      34.558  17.704  24.250  1.00  0.00     0.011 C 
ATOM     23  C   UNL A   1      32.384  18.478  23.353  1.00  0.00     0.042 C 
ENDBRANCH  20  21
ENDBRANCH  19  20
ENDBRANCH  14  19
BRANCH  16  24
ATOM     24  O   UNL A   1      33.324  23.977  24.945  1.00  0.00    -0.493 OA
ATOM     25  C   UNL A   1      32.648  24.187  26.168  1.00  0.00     0.278 C 
ENDBRANCH  16  24
ENDBRANCH  12  13
ENDBRANCH   6  11
ENDBRANCH   1   5
BRANCH   3  26
ATOM     26  C   UNL A   1      45.291  23.069  27.140  1.00  0.00     0.118 C 
BRANCH  26  27
ATOM     27  C   UNL A   1      44.346  24.254  27.343  1.00  0.00     0.042 C 
BRANCH  27  28
ATOM     28  C   UNL A   1      44.441  25.303  26.234  1.00  0.00     0.118 C 
BRANCH  28  29
ATOM     29  N   UNL A   1      43.226  25.361  25.430  1.00  0.00    -0.352 N 
ATOM     30  C   UNL A   1      41.980  25.834  25.747  1.00  0.00     0.251 C 
ATOM     31  H   UNL A   1      43.315  25.006  24.517  1.00  0.00     0.163 HD
ATOM     32  O   UNL A   1      41.030  25.580  25.001  1.00  0.00    -0.269 OA
BRANCH  30  33
ATOM     33  C   UNL A   1      41.755  26.633  26.969  1.00  0.00     0.039 A 
ATOM     34  C   UNL A   1      42.257  27.937  27.027  1.00  0.00     0.014 A 
ATOM     35  C   UNL A   1      41.095  26.091  28.075  1.00  0.00     0.014 A 
ATOM     36  C   UNL A   1      42.047  28.714  28.168  1.00  0.00     0.010 A 
ATOM     37  C   UNL A   1      40.824  26.889  29.184  1.00  0.00     0.010 A 
ATOM     38  C   UNL A   1      41.300  28.208  29.244  1.00  0.00    -0.014 A 
BRANCH  38  39
ATOM     39  C   UNL A   1      41.000  29.040  30.436  1.00  0.00     0.031 A 
ATOM     40  C   UNL A   1      39.855  30.015  30.413  1.00  0.00     0.074 A 
ATOM     41  C   UNL A   1      41.806  28.972  31.514  1.00  0.00     0.049 A 
ATOM     42  N   UNL A   1      39.496  30.891  31.317  1.00  0.00    -0.248 NA
ATOM     43  C   UNL A   1      39.019  30.025  29.203  1.00  0.00     0.031 C 
ATOM     44  C   UNL A   1      42.973  28.097  31.643  1.00  0.00     0.029 A 
ATOM     45  N   UNL A   1      41.777  29.662  32.700  1.00  0.00    -0.354 N 
ATOM     46  C   UNL A   1      38.407  31.567  30.778  1.00  0.00     0.074 A 
ATOM     47  C   UNL A   1      38.195  31.032  29.450  1.00  0.00     0.031 C 
ATOM     48  C   UNL A   1      43.538  28.292  32.845  1.00  0.00     0.029 A 
ATOM     49  C   UNL A   1      42.802  29.333  33.553  1.00  0.00     0.049 A 
ATOM     50  H   UNL A   1      41.087  30.329  32.918  1.00  0.00     0.167 HD
ATOM     51  C   UNL A   1      37.643  32.530  31.345  1.00  0.00     0.037 A 
ATOM     52  C   UNL A   1      43.122  29.827  34.765  1.00  0.00     0.037 A 
ATOM     53  C   UNL A   1      37.845  33.042  32.676  1.00  0.00     0.049 A 
ATOM     54  C   UNL A   1      42.266  30.905  35.369  1.00  0.00     0.074 A 
ATOM     55  C   UNL A   1      37.088  33.973  33.365  1.00  0.00     0.029 A 
ATOM     56  N   UNL A   1      38.884  32.670  33.516  1.00  0.00    -0.354 N 
ATOM     57  N   UNL A   1      41.200  31.486  34.875  1.00  0.00    -0.248 NA
ATOM     58  C   UNL A   1      42.653  31.392  36.699  1.00  0.00     0.031 C 
ATOM     59  C   UNL A   1      37.697  34.203  34.603  1.00  0.00     0.029 A 
ATOM     60  C   UNL A   1      38.802  33.373  34.708  1.00  0.00     0.049 A 
ATOM     61  H   UNL A   1      39.577  32.006  33.299  1.00  0.00     0.167 HD
ATOM     62  C   UNL A   1      40.772  32.385  35.844  1.00  0.00     0.074 A 
ATOM     63  C   UNL A   1      41.687  32.262  36.960  1.00  0.00     0.031 C 
ATOM     64  C   UNL A   1      39.716  33.234  35.814  1.00  0.00     0.037 A 
BRANCH  51  65
ATOM     65  C   UNL A   1      36.517  33.097  30.529  1.00  0.00     0.057 A 
ATOM     66  C   UNL A   1      35.178  32.774  30.786  1.00  0.00     0.134 A 
ATOM     67  C   UNL A   1      36.772  34.008  29.495  1.00  0.00     0.134 A 
ATOM     68  F   UNL A   1      34.864  31.901  31.756  1.00  0.00    -0.206 F 
ATOM     69  C   UNL A   1      34.137  33.314  30.030  1.00  0.00     0.040 A 
ATOM     70  C   UNL A   1      35.737  34.577  28.751  1.00  0.00     0.040 A 
ATOM     71  F   UNL A   1      38.030  34.368  29.199  1.00  0.00    -0.206 F 
ATOM     72  C   UNL A   1      34.415  34.225  29.013  1.00  0.00     0.006 A 
ENDBRANCH  51  65
BRANCH  52  73
ATOM     73  C   UNL A   1      44.303  29.296  35.494  1.00  0.00     0.057 A 
ATOM     74  C   UNL A   1      44.176  28.236  36.398  1.00  0.00     0.134 A 
ATOM     75  C   UNL A   1      45.581  29.836  35.309  1.00  0.00     0.134 A 
ATOM     76  F   UNL A   1      42.974  27.688  36.631  1.00  0.00    -0.206 F 
ATOM     77  C   UNL A   1      45.273  27.742  37.107  1.00  0.00     0.040 A 
ATOM     78  C   UNL A   1      46.692  29.335  35.989  1.00  0.00     0.040 A 
ATOM     79  F   UNL A   1      45.772  30.848  34.449  1.00  0.00    -0.206 F 
ATOM     80  C   UNL A   1      46.538  28.290  36.898  1.00  0.00     0.006 A 
ENDBRANCH  52  73
BRANCH  64  81
ATOM     81  C   UNL A   1      39.467  34.069  37.035  1.00  0.00     0.057 A 
ATOM     82  C   UNL A   1      39.900  35.398  37.126  1.00  0.00     0.134 A 
ATOM     83  C   UNL A   1      38.743  33.549  38.116  1.00  0.00     0.134 A 
ATOM     84  F   UNL A   1      40.610  35.952  36.132  1.00  0.00    -0.206 F 
ATOM     85  C   UNL A   1      39.638  36.173  38.258  1.00  0.00     0.040 A 
ATOM     86  C   UNL A   1      38.450  34.322  39.240  1.00  0.00     0.040 A 
ATOM     87  F   UNL A   1      38.292  32.285  38.089  1.00  0.00    -0.206 F 
ATOM     88  C   UNL A   1      38.903  35.637  39.315  1.00  0.00     0.006 A 
ENDBRANCH  64  81
ENDBRANCH  38  39
ENDBRANCH  30  33
ENDBRANCH  28  29
ENDBRANCH  27  28
ENDBRANCH  26  27
ENDBRANCH   3  26
TORSDOF 16
ENDMDL
