MODEL 1
REMARK VINA RESULT:     -12.4      0.000      0.000
REMARK SMILES Nc1ncc(C(=O)NCCCNC(=O)c2ccc(-c3c4nc(c(-c5c(F)cccc5F)c5ccc([nH]5)c(-c5c(F)cccc5F)c5nc(c(-c6c(F)cccc6F)c6ccc3[nH]6)C=C5)C=C4)cc2)c(-c2ccccc2)n1
REMARK SMILES IDX 10 1 9 2 8 3 6 4 7 5 5 7 2 8 3 9 76 10 4 11 69 12 1 13 70 16
REMARK SMILES IDX 71 17 75 18 72 19 74 20 73 21 11 22 12 23 13 24 14 26 15 27
REMARK SMILES IDX 16 28 68 29 17 30 67 31 18 32 19 33 20 34 61 35 21 36 66 37
REMARK SMILES IDX 60 38 62 39 22 40 65 41 59 42 58 43 23 45 49 46 32 47 48 48
REMARK SMILES IDX 33 49 36 50 47 51 63 52 34 53 35 54 46 56 64 57 37 58 24 59
REMARK SMILES IDX 25 60 30 61 26 62 27 63 29 64 31 65 28 66 50 67 51 68 56 69
REMARK SMILES IDX 52 70 53 71 55 72 57 73 54 74 38 75 39 76 44 77 40 78 41 79
REMARK SMILES IDX 43 80 45 81 42 82
REMARK H PARENT 8 6 1 14 1 15 12 25 62 44 36 55
REMARK Flexibility Score: inf
ROOT
ATOM      1  C   UNL A   1      31.772  29.545  27.085  1.00  0.00     0.042 C 
ENDROOT
BRANCH   1   2
ATOM      2  C   UNL A   1      32.084  28.142  26.594  1.00  0.00     0.118 C 
BRANCH   2   3
ATOM      3  N   UNL A   1      31.020  27.169  26.690  1.00  0.00    -0.352 N 
ATOM      4  C   UNL A   1      30.533  26.291  25.751  1.00  0.00     0.255 C 
ATOM      5  O   UNL A   1      29.681  25.487  26.138  1.00  0.00    -0.269 OA
ATOM      6  H   UNL A   1      30.574  27.128  27.567  1.00  0.00     0.163 HD
BRANCH   4   7
ATOM      7  C   UNL A   1      30.871  26.291  24.307  1.00  0.00     0.084 A 
ATOM      8  C   UNL A   1      31.768  25.953  21.740  1.00  0.00     0.220 A 
ATOM      9  N   UNL A   1      32.250  25.134  22.669  1.00  0.00    -0.221 NA
ATOM     10  N   UNL A   1      30.894  26.927  21.984  1.00  0.00    -0.212 NA
ATOM     11  C   UNL A   1      31.796  25.329  23.929  1.00  0.00     0.131 A 
ATOM     12  C   UNL A   1      30.458  27.108  23.264  1.00  0.00     0.089 A 
BRANCH   8  13
ATOM     13  N   UNL A   1      32.187  25.784  20.456  1.00  0.00    -0.368 N 
ATOM     14  H   UNL A   1      31.681  26.190  19.715  1.00  0.00     0.159 HD
ATOM     15  H   UNL A   1      32.995  25.255  20.268  1.00  0.00     0.159 HD
ENDBRANCH   8  13
BRANCH  12  16
ATOM     16  C   UNL A   1      29.499  28.217  23.343  1.00  0.00     0.001 A 
ATOM     17  C   UNL A   1      28.115  28.037  23.193  1.00  0.00     0.010 A 
ATOM     18  C   UNL A   1      29.984  29.528  23.538  1.00  0.00     0.010 A 
ATOM     19  C   UNL A   1      27.260  29.145  23.140  1.00  0.00     0.001 A 
ATOM     20  C   UNL A   1      29.134  30.633  23.466  1.00  0.00     0.001 A 
ATOM     21  C   UNL A   1      27.773  30.439  23.249  1.00  0.00     0.000 A 
ENDBRANCH  12  16
ENDBRANCH   4   7
ENDBRANCH   2   3
ENDBRANCH   1   2
BRANCH   1  22
ATOM     22  C   UNL A   1      32.166  30.656  26.118  1.00  0.00     0.118 C 
BRANCH  22  23
ATOM     23  N   UNL A   1      32.098  32.006  26.674  1.00  0.00    -0.352 N 
ATOM     24  C   UNL A   1      32.919  32.753  27.485  1.00  0.00     0.251 C 
ATOM     25  H   UNL A   1      31.282  32.488  26.408  1.00  0.00     0.163 HD
ATOM     26  O   UNL A   1      32.522  33.861  27.851  1.00  0.00    -0.269 OA
BRANCH  24  27
ATOM     27  C   UNL A   1      34.227  32.263  27.984  1.00  0.00     0.039 A 
ATOM     28  C   UNL A   1      35.312  33.153  28.013  1.00  0.00     0.014 A 
ATOM     29  C   UNL A   1      34.433  30.952  28.398  1.00  0.00     0.014 A 
ATOM     30  C   UNL A   1      36.543  32.760  28.555  1.00  0.00     0.010 A 
ATOM     31  C   UNL A   1      35.613  30.595  29.046  1.00  0.00     0.010 A 
ATOM     32  C   UNL A   1      36.682  31.496  29.144  1.00  0.00    -0.014 A 
BRANCH  32  33
ATOM     33  C   UNL A   1      37.909  31.080  29.880  1.00  0.00     0.031 A 
ATOM     34  C   UNL A   1      38.883  30.120  29.248  1.00  0.00     0.074 A 
ATOM     35  C   UNL A   1      38.081  31.457  31.163  1.00  0.00     0.049 A 
ATOM     36  N   UNL A   1      39.877  29.466  29.794  1.00  0.00    -0.248 NA
ATOM     37  C   UNL A   1      38.682  29.818  27.821  1.00  0.00     0.031 C 
ATOM     38  C   UNL A   1      37.191  32.342  31.919  1.00  0.00     0.029 A 
ATOM     39  N   UNL A   1      39.053  31.118  32.073  1.00  0.00    -0.354 N 
ATOM     40  C   UNL A   1      40.384  28.644  28.795  1.00  0.00     0.074 A 
ATOM     41  C   UNL A   1      39.560  28.848  27.623  1.00  0.00     0.031 C 
ATOM     42  C   UNL A   1      37.668  32.493  33.164  1.00  0.00     0.029 A 
ATOM     43  C   UNL A   1      38.864  31.673  33.316  1.00  0.00     0.049 A 
ATOM     44  H   UNL A   1      39.815  30.533  31.855  1.00  0.00     0.167 HD
ATOM     45  C   UNL A   1      41.452  27.811  28.840  1.00  0.00     0.037 A 
ATOM     46  C   UNL A   1      39.561  31.522  34.460  1.00  0.00     0.037 A 
ATOM     47  C   UNL A   1      42.308  27.657  29.986  1.00  0.00     0.049 A 
ATOM     48  C   UNL A   1      40.754  30.609  34.479  1.00  0.00     0.074 A 
ATOM     49  C   UNL A   1      43.465  26.907  30.104  1.00  0.00     0.029 A 
ATOM     50  N   UNL A   1      42.105  28.274  31.212  1.00  0.00    -0.354 N 
ATOM     51  N   UNL A   1      41.250  29.878  33.512  1.00  0.00    -0.248 NA
ATOM     52  C   UNL A   1      41.483  30.499  35.751  1.00  0.00     0.031 C 
ATOM     53  C   UNL A   1      43.943  27.042  31.411  1.00  0.00     0.029 A 
ATOM     54  C   UNL A   1      43.106  27.907  32.096  1.00  0.00     0.049 A 
ATOM     55  H   UNL A   1      41.359  28.882  31.421  1.00  0.00     0.167 HD
ATOM     56  C   UNL A   1      42.360  29.239  34.049  1.00  0.00     0.074 A 
ATOM     57  C   UNL A   1      42.473  29.681  35.424  1.00  0.00     0.031 C 
ATOM     58  C   UNL A   1      43.208  28.363  33.458  1.00  0.00     0.037 A 
BRANCH  45  59
ATOM     59  C   UNL A   1      41.762  27.012  27.607  1.00  0.00     0.057 A 
ATOM     60  C   UNL A   1      42.586  27.509  26.589  1.00  0.00     0.134 A 
ATOM     61  C   UNL A   1      41.255  25.715  27.449  1.00  0.00     0.134 A 
ATOM     62  F   UNL A   1      43.097  28.747  26.673  1.00  0.00    -0.206 F 
ATOM     63  C   UNL A   1      42.867  26.761  25.445  1.00  0.00     0.040 A 
ATOM     64  C   UNL A   1      41.552  24.946  26.323  1.00  0.00     0.040 A 
ATOM     65  F   UNL A   1      40.466  25.172  28.388  1.00  0.00    -0.206 F 
ATOM     66  C   UNL A   1      42.355  25.473  25.312  1.00  0.00     0.006 A 
ENDBRANCH  45  59
BRANCH  46  67
ATOM     67  C   UNL A   1      39.155  32.264  35.680  1.00  0.00     0.057 A 
ATOM     68  C   UNL A   1      38.307  31.678  36.626  1.00  0.00     0.134 A 
ATOM     69  C   UNL A   1      39.599  33.568  35.931  1.00  0.00     0.134 A 
ATOM     70  F   UNL A   1      37.834  30.438  36.431  1.00  0.00    -0.206 F 
ATOM     71  C   UNL A   1      37.898  32.366  37.769  1.00  0.00     0.040 A 
ATOM     72  C   UNL A   1      39.217  34.259  37.082  1.00  0.00     0.040 A 
ATOM     73  F   UNL A   1      40.420  34.182  35.068  1.00  0.00    -0.206 F 
ATOM     74  C   UNL A   1      38.358  33.660  38.002  1.00  0.00     0.006 A 
ENDBRANCH  46  67
BRANCH  58  75
ATOM     75  C   UNL A   1      44.348  27.848  34.284  1.00  0.00     0.057 A 
ATOM     76  C   UNL A   1      44.250  26.659  35.016  1.00  0.00     0.134 A 
ATOM     77  C   UNL A   1      45.574  28.526  34.307  1.00  0.00     0.134 A 
ATOM     78  F   UNL A   1      43.098  25.972  35.045  1.00  0.00    -0.206 F 
ATOM     79  C   UNL A   1      45.326  26.169  35.756  1.00  0.00     0.040 A 
ATOM     80  C   UNL A   1      46.665  28.032  35.024  1.00  0.00     0.040 A 
ATOM     81  F   UNL A   1      45.735  29.667  33.620  1.00  0.00    -0.206 F 
ATOM     82  C   UNL A   1      46.540  26.853  35.755  1.00  0.00     0.006 A 
ENDBRANCH  58  75
ENDBRANCH  32  33
ENDBRANCH  24  27
ENDBRANCH  22  23
ENDBRANCH   1  22
TORSDOF 12
ENDMDL
MODEL 2
REMARK VINA RESULT:     -12.2      4.393      7.971
REMARK SMILES Nc1ncc(C(=O)NCCCNC(=O)c2ccc(-c3c4nc(c(-c5c(F)cccc5F)c5ccc([nH]5)c(-c5c(F)cccc5F)c5nc(c(-c6c(F)cccc6F)c6ccc3[nH]6)C=C5)C=C4)cc2)c(-c2ccccc2)n1
REMARK SMILES IDX 10 1 9 2 8 3 6 4 7 5 5 7 2 8 3 9 76 10 4 11 69 12 1 13 70 16
REMARK SMILES IDX 71 17 75 18 72 19 74 20 73 21 11 22 12 23 13 24 14 26 15 27
REMARK SMILES IDX 16 28 68 29 17 30 67 31 18 32 19 33 20 34 61 35 21 36 66 37
REMARK SMILES IDX 60 38 62 39 22 40 65 41 59 42 58 43 23 45 49 46 32 47 48 48
REMARK SMILES IDX 33 49 36 50 47 51 63 52 34 53 35 54 46 56 64 57 37 58 24 59
REMARK SMILES IDX 25 60 30 61 26 62 27 63 29 64 31 65 28 66 50 67 51 68 56 69
REMARK SMILES IDX 52 70 53 71 55 72 57 73 54 74 38 75 39 76 44 77 40 78 41 79
REMARK SMILES IDX 43 80 45 81 42 82
REMARK H PARENT 8 6 1 14 1 15 12 25 62 44 36 55
REMARK Flexibility Score: inf
ROOT
ATOM      1  C   UNL A   1      33.795  29.519  26.126  1.00  0.00     0.042 C 
ENDROOT
BRANCH   1   2
ATOM      2  C   UNL A   1      32.286  29.524  25.960  1.00  0.00     0.118 C 
BRANCH   2   3
ATOM      3  N   UNL A   1      31.574  28.367  26.451  1.00  0.00    -0.352 N 
ATOM      4  C   UNL A   1      31.237  27.196  25.815  1.00  0.00     0.255 C 
ATOM      5  O   UNL A   1      30.716  26.320  26.510  1.00  0.00    -0.269 OA
ATOM      6  H   UNL A   1      31.285  28.426  27.391  1.00  0.00     0.163 HD
BRANCH   4   7
ATOM      7  C   UNL A   1      31.355  26.936  24.359  1.00  0.00     0.084 A 
ATOM      8  C   UNL A   1      31.904  26.176  21.784  1.00  0.00     0.220 A 
ATOM      9  N   UNL A   1      32.626  25.622  22.753  1.00  0.00    -0.221 NA
ATOM     10  N   UNL A   1      30.948  27.080  21.989  1.00  0.00    -0.212 NA
ATOM     11  C   UNL A   1      32.339  26.022  24.013  1.00  0.00     0.131 A 
ATOM     12  C   UNL A   1      30.684  27.472  23.269  1.00  0.00     0.089 A 
BRANCH   8  13
ATOM     13  N   UNL A   1      32.149  25.793  20.501  1.00  0.00    -0.368 N 
ATOM     14  H   UNL A   1      33.020  25.405  20.261  1.00  0.00     0.159 HD
ATOM     15  H   UNL A   1      31.453  25.905  19.814  1.00  0.00     0.159 HD
ENDBRANCH   8  13
BRANCH  12  16
ATOM     16  C   UNL A   1      29.602  28.464  23.305  1.00  0.00     0.001 A 
ATOM     17  C   UNL A   1      28.253  28.124  23.126  1.00  0.00     0.010 A 
ATOM     18  C   UNL A   1      29.928  29.826  23.486  1.00  0.00     0.010 A 
ATOM     19  C   UNL A   1      27.278  29.125  23.032  1.00  0.00     0.001 A 
ATOM     20  C   UNL A   1      28.960  30.824  23.373  1.00  0.00     0.001 A 
ATOM     21  C   UNL A   1      27.636  30.471  23.128  1.00  0.00     0.000 A 
ENDBRANCH  12  16
ENDBRANCH   4   7
ENDBRANCH   2   3
ENDBRANCH   1   2
BRANCH   1  22
ATOM     22  C   UNL A   1      34.278  29.101  27.511  1.00  0.00     0.118 C 
BRANCH  22  23
ATOM     23  N   UNL A   1      34.598  30.209  28.409  1.00  0.00    -0.352 N 
ATOM     24  C   UNL A   1      35.740  30.624  29.053  1.00  0.00     0.251 C 
ATOM     25  H   UNL A   1      33.824  30.788  28.594  1.00  0.00     0.163 HD
ATOM     26  O   UNL A   1      35.656  31.577  29.829  1.00  0.00    -0.269 OA
BRANCH  24  27
ATOM     27  C   UNL A   1      37.049  29.942  28.901  1.00  0.00     0.039 A 
ATOM     28  C   UNL A   1      37.634  29.887  27.627  1.00  0.00     0.014 A 
ATOM     29  C   UNL A   1      37.706  29.328  29.961  1.00  0.00     0.014 A 
ATOM     30  C   UNL A   1      38.907  29.328  27.451  1.00  0.00     0.010 A 
ATOM     31  C   UNL A   1      39.018  28.884  29.814  1.00  0.00     0.010 A 
ATOM     32  C   UNL A   1      39.642  28.886  28.559  1.00  0.00    -0.014 A 
BRANCH  32  33
ATOM     33  C   UNL A   1      41.059  28.436  28.459  1.00  0.00     0.031 A 
ATOM     34  C   UNL A   1      42.180  29.439  28.537  1.00  0.00     0.074 A 
ATOM     35  C   UNL A   1      41.334  27.150  28.163  1.00  0.00     0.049 A 
ATOM     36  N   UNL A   1      43.449  29.290  28.250  1.00  0.00    -0.248 NA
ATOM     37  C   UNL A   1      41.817  30.806  28.947  1.00  0.00     0.031 C 
ATOM     38  C   UNL A   1      40.345  26.081  28.006  1.00  0.00     0.029 A 
ATOM     39  N   UNL A   1      42.532  26.526  27.910  1.00  0.00    -0.354 N 
ATOM     40  C   UNL A   1      44.021  30.549  28.398  1.00  0.00     0.074 A 
ATOM     41  C   UNL A   1      42.953  31.458  28.754  1.00  0.00     0.031 C 
ATOM     42  C   UNL A   1      40.975  24.934  27.708  1.00  0.00     0.029 A 
ATOM     43  C   UNL A   1      42.406  25.194  27.595  1.00  0.00     0.049 A 
ATOM     44  H   UNL A   1      43.400  26.989  27.952  1.00  0.00     0.167 HD
ATOM     45  C   UNL A   1      45.320  30.912  28.269  1.00  0.00     0.037 A 
ATOM     46  C   UNL A   1      43.332  24.287  27.231  1.00  0.00     0.037 A 
ATOM     47  C   UNL A   1      46.390  29.996  27.977  1.00  0.00     0.049 A 
ATOM     48  C   UNL A   1      44.770  24.708  27.117  1.00  0.00     0.074 A 
ATOM     49  C   UNL A   1      47.749  30.248  27.913  1.00  0.00     0.029 A 
ATOM     50  N   UNL A   1      46.221  28.645  27.708  1.00  0.00    -0.354 N 
ATOM     51  N   UNL A   1      45.301  25.891  27.308  1.00  0.00    -0.248 NA
ATOM     52  C   UNL A   1      45.737  23.669  26.733  1.00  0.00     0.031 C 
ATOM     53  C   UNL A   1      48.400  29.058  27.572  1.00  0.00     0.029 A 
ATOM     54  C   UNL A   1      47.450  28.056  27.463  1.00  0.00     0.049 A 
ATOM     55  H   UNL A   1      45.356  28.176  27.695  1.00  0.00     0.167 HD
ATOM     56  C   UNL A   1      46.664  25.735  27.091  1.00  0.00     0.074 A 
ATOM     57  C   UNL A   1      46.880  24.339  26.767  1.00  0.00     0.031 C 
ATOM     58  C   UNL A   1      47.648  26.664  27.150  1.00  0.00     0.037 A 
BRANCH  45  59
ATOM     59  C   UNL A   1      45.658  32.363  28.458  1.00  0.00     0.057 A 
ATOM     60  C   UNL A   1      45.989  32.889  29.714  1.00  0.00     0.134 A 
ATOM     61  C   UNL A   1      45.682  33.240  27.366  1.00  0.00     0.134 A 
ATOM     62  F   UNL A   1      45.975  32.106  30.804  1.00  0.00    -0.206 F 
ATOM     63  C   UNL A   1      46.298  34.240  29.883  1.00  0.00     0.040 A 
ATOM     64  C   UNL A   1      46.018  34.587  27.517  1.00  0.00     0.040 A 
ATOM     65  F   UNL A   1      45.384  32.803  26.133  1.00  0.00    -0.206 F 
ATOM     66  C   UNL A   1      46.320  35.092  28.781  1.00  0.00     0.006 A 
ENDBRANCH  45  59
BRANCH  46  67
ATOM     67  C   UNL A   1      42.932  22.883  26.962  1.00  0.00     0.057 A 
ATOM     68  C   UNL A   1      42.820  22.408  25.650  1.00  0.00     0.134 A 
ATOM     69  C   UNL A   1      42.650  21.985  27.999  1.00  0.00     0.134 A 
ATOM     70  F   UNL A   1      43.060  23.227  24.615  1.00  0.00    -0.206 F 
ATOM     71  C   UNL A   1      42.426  21.098  25.376  1.00  0.00     0.040 A 
ATOM     72  C   UNL A   1      42.278  20.664  27.740  1.00  0.00     0.040 A 
ATOM     73  F   UNL A   1      42.747  22.375  29.278  1.00  0.00    -0.206 F 
ATOM     74  C   UNL A   1      42.158  20.220  26.424  1.00  0.00     0.006 A 
ENDBRANCH  46  67
BRANCH  58  75
ATOM     75  C   UNL A   1      49.049  26.198  26.891  1.00  0.00     0.057 A 
ATOM     76  C   UNL A   1      49.642  26.314  25.629  1.00  0.00     0.134 A 
ATOM     77  C   UNL A   1      49.828  25.671  27.929  1.00  0.00     0.134 A 
ATOM     78  F   UNL A   1      48.944  26.798  24.591  1.00  0.00    -0.206 F 
ATOM     79  C   UNL A   1      50.958  25.908  25.404  1.00  0.00     0.040 A 
ATOM     80  C   UNL A   1      51.153  25.285  27.722  1.00  0.00     0.040 A 
ATOM     81  F   UNL A   1      49.320  25.541  29.164  1.00  0.00    -0.206 F 
ATOM     82  C   UNL A   1      51.719  25.399  26.454  1.00  0.00     0.006 A 
ENDBRANCH  58  75
ENDBRANCH  32  33
ENDBRANCH  24  27
ENDBRANCH  22  23
ENDBRANCH   1  22
TORSDOF 12
ENDMDL
MODEL 3
REMARK VINA RESULT:     -12.1      1.915      2.806
REMARK SMILES Nc1ncc(C(=O)NCCCNC(=O)c2ccc(-c3c4nc(c(-c5c(F)cccc5F)c5ccc([nH]5)c(-c5c(F)cccc5F)c5nc(c(-c6c(F)cccc6F)c6ccc3[nH]6)C=C5)C=C4)cc2)c(-c2ccccc2)n1
REMARK SMILES IDX 10 1 9 2 8 3 6 4 7 5 5 7 2 8 3 9 76 10 4 11 69 12 1 13 70 16
REMARK SMILES IDX 71 17 75 18 72 19 74 20 73 21 11 22 12 23 13 24 14 26 15 27
REMARK SMILES IDX 16 28 68 29 17 30 67 31 18 32 19 33 20 34 61 35 21 36 66 37
REMARK SMILES IDX 60 38 62 39 22 40 65 41 59 42 58 43 23 45 49 46 32 47 48 48
REMARK SMILES IDX 33 49 36 50 47 51 63 52 34 53 35 54 46 56 64 57 37 58 24 59
REMARK SMILES IDX 25 60 30 61 26 62 27 63 29 64 31 65 28 66 50 67 51 68 56 69
REMARK SMILES IDX 52 70 53 71 55 72 57 73 54 74 38 75 39 76 44 77 40 78 41 79
REMARK SMILES IDX 43 80 45 81 42 82
REMARK H PARENT 8 6 1 14 1 15 12 25 62 44 36 55
REMARK Flexibility Score: inf
ROOT
ATOM      1  C   UNL A   1      31.496  31.947  26.588  1.00  0.00     0.042 C 
ENDROOT
BRANCH   1   2
ATOM      2  C   UNL A   1      31.707  30.455  26.398  1.00  0.00     0.118 C 
BRANCH   2   3
ATOM      3  N   UNL A   1      32.455  30.048  25.231  1.00  0.00    -0.352 N 
ATOM      4  C   UNL A   1      32.060  29.322  24.133  1.00  0.00     0.255 C 
ATOM      5  O   UNL A   1      32.883  29.210  23.220  1.00  0.00    -0.269 OA
ATOM      6  H   UNL A   1      33.396  30.338  25.220  1.00  0.00     0.163 HD
BRANCH   4   7
ATOM      7  C   UNL A   1      30.778  28.589  23.994  1.00  0.00     0.084 A 
ATOM      8  C   UNL A   1      28.630  26.888  23.917  1.00  0.00     0.220 A 
ATOM      9  N   UNL A   1      29.765  26.418  24.423  1.00  0.00    -0.221 NA
ATOM     10  N   UNL A   1      28.481  28.121  23.437  1.00  0.00    -0.212 NA
ATOM     11  C   UNL A   1      30.811  27.276  24.441  1.00  0.00     0.131 A 
ATOM     12  C   UNL A   1      29.553  28.965  23.459  1.00  0.00     0.089 A 
BRANCH   8  13
ATOM     13  N   UNL A   1      27.548  26.064  23.892  1.00  0.00    -0.368 N 
ATOM     14  H   UNL A   1      26.648  26.426  24.057  1.00  0.00     0.159 HD
ATOM     15  H   UNL A   1      27.666  25.104  23.708  1.00  0.00     0.159 HD
ENDBRANCH   8  13
BRANCH  12  16
ATOM     16  C   UNL A   1      29.206  30.276  22.899  1.00  0.00     0.001 A 
ATOM     17  C   UNL A   1      29.131  31.441  23.679  1.00  0.00     0.010 A 
ATOM     18  C   UNL A   1      28.891  30.372  21.526  1.00  0.00     0.010 A 
ATOM     19  C   UNL A   1      28.660  32.636  23.121  1.00  0.00     0.001 A 
ATOM     20  C   UNL A   1      28.404  31.559  20.975  1.00  0.00     0.001 A 
ATOM     21  C   UNL A   1      28.273  32.686  21.781  1.00  0.00     0.000 A 
ENDBRANCH  12  16
ENDBRANCH   4   7
ENDBRANCH   2   3
ENDBRANCH   1   2
BRANCH   1  22
ATOM     22  C   UNL A   1      32.701  32.689  27.158  1.00  0.00     0.118 C 
BRANCH  22  23
ATOM     23  N   UNL A   1      32.417  34.037  27.644  1.00  0.00    -0.352 N 
ATOM     24  C   UNL A   1      33.008  34.871  28.564  1.00  0.00     0.251 C 
ATOM     25  H   UNL A   1      31.626  34.439  27.218  1.00  0.00     0.163 HD
ATOM     26  O   UNL A   1      32.458  35.945  28.812  1.00  0.00    -0.269 OA
BRANCH  24  27
ATOM     27  C   UNL A   1      34.239  34.510  29.310  1.00  0.00     0.039 A 
ATOM     28  C   UNL A   1      34.116  34.061  30.634  1.00  0.00     0.014 A 
ATOM     29  C   UNL A   1      35.512  34.626  28.763  1.00  0.00     0.014 A 
ATOM     30  C   UNL A   1      35.241  33.630  31.348  1.00  0.00     0.010 A 
ATOM     31  C   UNL A   1      36.613  34.086  29.423  1.00  0.00     0.010 A 
ATOM     32  C   UNL A   1      36.493  33.570  30.721  1.00  0.00    -0.014 A 
BRANCH  32  33
ATOM     33  C   UNL A   1      37.692  32.969  31.371  1.00  0.00     0.031 A 
ATOM     34  C   UNL A   1      38.369  31.773  30.754  1.00  0.00     0.074 A 
ATOM     35  C   UNL A   1      38.090  33.411  32.581  1.00  0.00     0.049 A 
ATOM     36  N   UNL A   1      39.269  30.973  31.266  1.00  0.00    -0.248 NA
ATOM     37  C   UNL A   1      37.940  31.398  29.396  1.00  0.00     0.031 C 
ATOM     38  C   UNL A   1      37.494  34.527  33.320  1.00  0.00     0.029 A 
ATOM     39  N   UNL A   1      39.077  32.953  33.420  1.00  0.00    -0.354 N 
ATOM     40  C   UNL A   1      39.477  29.978  30.317  1.00  0.00     0.074 A 
ATOM     41  C   UNL A   1      38.575  30.250  29.219  1.00  0.00     0.031 C 
ATOM     42  C   UNL A   1      38.140  34.681  34.487  1.00  0.00     0.029 A 
ATOM     43  C   UNL A   1      39.156  33.642  34.608  1.00  0.00     0.049 A 
ATOM     44  H   UNL A   1      39.673  32.203  33.192  1.00  0.00     0.167 HD
ATOM     45  C   UNL A   1      40.352  28.945  30.347  1.00  0.00     0.037 A 
ATOM     46  C   UNL A   1      39.940  33.446  35.685  1.00  0.00     0.037 A 
ATOM     47  C   UNL A   1      41.292  28.712  31.411  1.00  0.00     0.049 A 
ATOM     48  C   UNL A   1      40.920  32.306  35.685  1.00  0.00     0.074 A 
ATOM     49  C   UNL A   1      42.280  27.747  31.494  1.00  0.00     0.029 A 
ATOM     50  N   UNL A   1      41.367  29.462  32.576  1.00  0.00    -0.354 N 
ATOM     51  N   UNL A   1      41.137  31.404  34.759  1.00  0.00    -0.248 NA
ATOM     52  C   UNL A   1      41.759  32.154  36.882  1.00  0.00     0.031 C 
ATOM     53  C   UNL A   1      42.930  27.890  32.724  1.00  0.00     0.029 A 
ATOM     54  C   UNL A   1      42.373  28.970  33.389  1.00  0.00     0.049 A 
ATOM     55  H   UNL A   1      40.790  30.230  32.791  1.00  0.00     0.167 HD
ATOM     56  C   UNL A   1      42.153  30.594  35.249  1.00  0.00     0.074 A 
ATOM     57  C   UNL A   1      42.518  31.119  36.549  1.00  0.00     0.031 C 
ATOM     58  C   UNL A   1      42.729  29.510  34.676  1.00  0.00     0.037 A 
BRANCH  45  59
ATOM     59  C   UNL A   1      40.344  27.994  29.185  1.00  0.00     0.057 A 
ATOM     60  C   UNL A   1      41.144  28.199  28.053  1.00  0.00     0.134 A 
ATOM     61  C   UNL A   1      39.547  26.842  29.209  1.00  0.00     0.134 A 
ATOM     62  F   UNL A   1      41.923  29.288  27.961  1.00  0.00    -0.206 F 
ATOM     63  C   UNL A   1      41.128  27.312  26.976  1.00  0.00     0.040 A 
ATOM     64  C   UNL A   1      39.544  25.932  28.150  1.00  0.00     0.040 A 
ATOM     65  F   UNL A   1      38.762  26.577  30.265  1.00  0.00    -0.206 F 
ATOM     66  C   UNL A   1      40.331  26.170  27.025  1.00  0.00     0.006 A 
ENDBRANCH  45  59
BRANCH  46  67
ATOM     67  C   UNL A   1      39.843  34.360  36.850  1.00  0.00     0.057 A 
ATOM     68  C   UNL A   1      39.069  34.020  37.965  1.00  0.00     0.134 A 
ATOM     69  C   UNL A   1      40.514  35.589  36.881  1.00  0.00     0.134 A 
ATOM     70  F   UNL A   1      38.388  32.864  37.986  1.00  0.00    -0.206 F 
ATOM     71  C   UNL A   1      38.949  34.874  39.061  1.00  0.00     0.040 A 
ATOM     72  C   UNL A   1      40.422  36.443  37.982  1.00  0.00     0.040 A 
ATOM     73  F   UNL A   1      41.279  35.969  35.848  1.00  0.00    -0.206 F 
ATOM     74  C   UNL A   1      39.632  36.089  39.074  1.00  0.00     0.006 A 
ENDBRANCH  46  67
BRANCH  58  75
ATOM     75  C   UNL A   1      43.834  28.838  35.435  1.00  0.00     0.057 A 
ATOM     76  C   UNL A   1      45.174  29.197  35.256  1.00  0.00     0.134 A 
ATOM     77  C   UNL A   1      43.546  27.854  36.390  1.00  0.00     0.134 A 
ATOM     78  F   UNL A   1      45.515  30.123  34.347  1.00  0.00    -0.206 F 
ATOM     79  C   UNL A   1      46.194  28.589  35.989  1.00  0.00     0.040 A 
ATOM     80  C   UNL A   1      44.555  27.257  37.146  1.00  0.00     0.040 A 
ATOM     81  F   UNL A   1      42.280  27.471  36.613  1.00  0.00    -0.206 F 
ATOM     82  C   UNL A   1      45.884  27.622  36.943  1.00  0.00     0.006 A 
ENDBRANCH  58  75
ENDBRANCH  32  33
ENDBRANCH  24  27
ENDBRANCH  22  23
ENDBRANCH   1  22
TORSDOF 12
ENDMDL
