MODEL 1
REMARK VINA RESULT:     -12.6      0.000      0.000
REMARK SMILES O=C(NCCCNC(=O)[C@@H]1CCCC[C@@H]1NS(=O)(=O)c1ccc2ccccc2c1)c1ccc(-c2c3nc(c(-c4c(F)cccc4F)c4ccc([nH]4)c(-c4c(F)cccc4F)c4nc(c(-c5c(F)cccc5F)c5ccc2[nH]5)C=C4)C=C3)cc1
REMARK SMILES IDX 5 1 4 2 3 3 1 4 2 5 30 7 31 8 83 9 32 10 82 11 33 12 34 13
REMARK SMILES IDX 35 14 76 15 36 16 81 17 75 18 77 19 37 20 80 21 74 22 73 23
REMARK SMILES IDX 38 25 64 26 47 27 63 28 48 29 51 30 62 31 78 32 49 33 50 34
REMARK SMILES IDX 61 36 79 37 52 38 39 39 40 40 45 41 41 42 42 43 44 44 46 45
REMARK SMILES IDX 43 46 65 47 66 48 71 49 67 50 68 51 70 52 72 53 69 54 53 55
REMARK SMILES IDX 54 56 59 57 55 58 56 59 58 60 60 61 57 62 6 63 7 64 8 65
REMARK SMILES IDX 9 67 10 68 11 69 15 70 12 71 14 72 13 73 16 74 17 76 18 77
REMARK SMILES IDX 19 78 20 79 21 80 29 81 22 82 28 83 23 84 27 85 24 86 26 87
REMARK SMILES IDX 25 88
REMARK H PARENT 3 6 77 24 51 35 7 66 16 75
REMARK Flexibility Score: inf
ROOT
ATOM      1  C   UNL A   1      38.320  20.461  24.922  1.00  0.00     0.042 C 
ENDROOT
BRANCH   1   2
ATOM      2  C   UNL A   1      38.961  19.783  26.119  1.00  0.00     0.118 C 
BRANCH   2   3
ATOM      3  N   UNL A   1      40.263  19.198  25.808  1.00  0.00    -0.352 N 
ATOM      4  O   UNL A   1      42.452  19.059  25.330  1.00  0.00    -0.269 OA
ATOM      5  C   UNL A   1      41.541  19.701  25.847  1.00  0.00     0.251 C 
ATOM      6  H   UNL A   1      40.216  18.259  25.511  1.00  0.00     0.163 HD
BRANCH   5   7
ATOM      7  C   UNL A   1      41.836  21.011  26.467  1.00  0.00     0.039 A 
ATOM      8  C   UNL A   1      42.047  22.141  25.685  1.00  0.00     0.014 A 
ATOM      9  C   UNL A   1      41.862  21.128  27.863  1.00  0.00     0.014 A 
ATOM     10  C   UNL A   1      42.498  23.315  26.266  1.00  0.00     0.010 A 
ATOM     11  C   UNL A   1      42.170  22.356  28.459  1.00  0.00     0.010 A 
ATOM     12  C   UNL A   1      42.526  23.452  27.661  1.00  0.00    -0.014 A 
BRANCH  12  13
ATOM     13  C   UNL A   1      42.832  24.788  28.228  1.00  0.00     0.031 A 
ATOM     14  C   UNL A   1      44.237  25.197  28.563  1.00  0.00     0.074 A 
ATOM     15  C   UNL A   1      41.814  25.657  28.381  1.00  0.00     0.049 A 
ATOM     16  N   UNL A   1      44.680  26.338  29.025  1.00  0.00    -0.248 NA
ATOM     17  C   UNL A   1      45.285  24.192  28.356  1.00  0.00     0.031 C 
ATOM     18  C   UNL A   1      40.406  25.365  28.090  1.00  0.00     0.029 A 
ATOM     19  N   UNL A   1      41.803  26.964  28.784  1.00  0.00    -0.354 N 
ATOM     20  C   UNL A   1      46.052  26.179  29.179  1.00  0.00     0.074 A 
ATOM     21  C   UNL A   1      46.366  24.822  28.792  1.00  0.00     0.031 C 
ATOM     22  C   UNL A   1      39.681  26.476  28.261  1.00  0.00     0.029 A 
ATOM     23  C   UNL A   1      40.553  27.531  28.758  1.00  0.00     0.049 A 
ATOM     24  H   UNL A   1      42.612  27.450  29.065  1.00  0.00     0.167 HD
ATOM     25  C   UNL A   1      46.965  27.087  29.601  1.00  0.00     0.037 A 
ATOM     26  C   UNL A   1      40.146  28.759  29.124  1.00  0.00     0.037 A 
ATOM     27  C   UNL A   1      46.634  28.434  29.986  1.00  0.00     0.049 A 
ATOM     28  C   UNL A   1      41.169  29.729  29.634  1.00  0.00     0.074 A 
ATOM     29  C   UNL A   1      47.477  29.441  30.421  1.00  0.00     0.029 A 
ATOM     30  N   UNL A   1      45.349  28.957  29.989  1.00  0.00    -0.354 N 
ATOM     31  N   UNL A   1      42.465  29.574  29.751  1.00  0.00    -0.248 NA
ATOM     32  C   UNL A   1      40.672  31.038  30.070  1.00  0.00     0.031 C 
ATOM     33  C   UNL A   1      46.695  30.556  30.741  1.00  0.00     0.029 A 
ATOM     34  C   UNL A   1      45.371  30.263  30.450  1.00  0.00     0.049 A 
ATOM     35  H   UNL A   1      44.540  28.472  29.707  1.00  0.00     0.167 HD
ATOM     36  C   UNL A   1      42.945  30.771  30.262  1.00  0.00     0.074 A 
ATOM     37  C   UNL A   1      41.799  31.647  30.409  1.00  0.00     0.031 C 
ATOM     38  C   UNL A   1      44.215  31.113  30.585  1.00  0.00     0.037 A 
BRANCH  25  39
ATOM     39  C   UNL A   1      48.397  26.641  29.698  1.00  0.00     0.057 A 
ATOM     40  C   UNL A   1      49.312  26.841  28.656  1.00  0.00     0.134 A 
ATOM     41  C   UNL A   1      48.873  26.023  30.862  1.00  0.00     0.134 A 
ATOM     42  F   UNL A   1      48.921  27.412  27.507  1.00  0.00    -0.206 F 
ATOM     43  C   UNL A   1      50.642  26.425  28.760  1.00  0.00     0.040 A 
ATOM     44  C   UNL A   1      50.205  25.624  30.987  1.00  0.00     0.040 A 
ATOM     45  F   UNL A   1      48.052  25.801  31.899  1.00  0.00    -0.206 F 
ATOM     46  C   UNL A   1      51.093  25.819  29.931  1.00  0.00     0.006 A 
ENDBRANCH  25  39
BRANCH  26  47
ATOM     47  C   UNL A   1      38.709  29.113  29.036  1.00  0.00     0.057 A 
ATOM     48  C   UNL A   1      37.872  29.033  30.153  1.00  0.00     0.134 A 
ATOM     49  C   UNL A   1      38.145  29.569  27.838  1.00  0.00     0.134 A 
ATOM     50  F   UNL A   1      38.349  28.593  31.327  1.00  0.00    -0.206 F 
ATOM     51  C   UNL A   1      36.522  29.383  30.079  1.00  0.00     0.040 A 
ATOM     52  C   UNL A   1      36.807  29.951  27.756  1.00  0.00     0.040 A 
ATOM     53  F   UNL A   1      38.900  29.682  26.735  1.00  0.00    -0.206 F 
ATOM     54  C   UNL A   1      35.989  29.852  28.879  1.00  0.00     0.006 A 
ENDBRANCH  26  47
BRANCH  38  55
ATOM     55  C   UNL A   1      44.429  32.505  31.100  1.00  0.00     0.057 A 
ATOM     56  C   UNL A   1      44.392  32.799  32.469  1.00  0.00     0.134 A 
ATOM     57  C   UNL A   1      44.703  33.556  30.216  1.00  0.00     0.134 A 
ATOM     58  F   UNL A   1      44.119  31.839  33.365  1.00  0.00    -0.206 F 
ATOM     59  C   UNL A   1      44.596  34.098  32.938  1.00  0.00     0.040 A 
ATOM     60  C   UNL A   1      44.937  34.850  30.675  1.00  0.00     0.040 A 
ATOM     61  F   UNL A   1      44.759  33.335  28.893  1.00  0.00    -0.206 F 
ATOM     62  C   UNL A   1      44.877  35.125  32.040  1.00  0.00     0.006 A 
ENDBRANCH  38  55
ENDBRANCH  12  13
ENDBRANCH   5   7
ENDBRANCH   2   3
ENDBRANCH   1   2
BRANCH   1  63
ATOM     63  C   UNL A   1      37.864  21.873  25.224  1.00  0.00     0.117 C 
BRANCH  63  64
ATOM     64  N   UNL A   1      37.228  22.502  24.093  1.00  0.00    -0.356 N 
ATOM     65  C   UNL A   1      35.964  22.893  23.827  1.00  0.00     0.224 C 
ATOM     66  H   UNL A   1      37.852  22.688  23.355  1.00  0.00     0.163 HD
ATOM     67  O   UNL A   1      35.812  23.342  22.682  1.00  0.00    -0.275 OA
BRANCH  65  68
ATOM     68  C   UNL A   1      34.746  22.784  24.764  1.00  0.00     0.096 C 
ATOM     69  C   UNL A   1      33.982  21.497  24.363  1.00  0.00     0.015 C 
ATOM     70  C   UNL A   1      33.758  23.954  24.996  1.00  0.00     0.082 C 
ATOM     71  C   UNL A   1      32.873  21.133  25.344  1.00  0.00     0.001 C 
ATOM     72  C   UNL A   1      32.682  23.541  26.008  1.00  0.00     0.021 C 
ATOM     73  C   UNL A   1      31.921  22.293  25.579  1.00  0.00     0.002 C 
BRANCH  70  74
ATOM     74  N   UNL A   1      33.175  24.411  23.717  1.00  0.00    -0.207 NA
ATOM     75  H   UNL A   1      32.176  24.216  23.795  1.00  0.00     0.141 HD
BRANCH  74  76
ATOM     76  S   UNL A   1      33.276  25.962  23.087  1.00  0.00     0.240 S 
ATOM     77  O   UNL A   1      34.084  26.698  24.039  1.00  0.00    -0.207 OA
ATOM     78  O   UNL A   1      33.653  25.865  21.700  1.00  0.00    -0.207 OA
BRANCH  76  79
ATOM     79  C   UNL A   1      31.630  26.630  23.173  1.00  0.00     0.083 A 
ATOM     80  C   UNL A   1      30.623  25.895  23.803  1.00  0.00     0.022 A 
ATOM     81  C   UNL A   1      31.328  27.842  22.547  1.00  0.00     0.030 A 
ATOM     82  C   UNL A   1      29.323  26.402  23.861  1.00  0.00     0.010 A 
ATOM     83  C   UNL A   1      30.030  28.375  22.632  1.00  0.00    -0.017 A 
ATOM     84  C   UNL A   1      29.016  27.650  23.301  1.00  0.00    -0.018 A 
ATOM     85  C   UNL A   1      29.715  29.616  22.065  1.00  0.00     0.009 A 
ATOM     86  C   UNL A   1      27.721  28.188  23.385  1.00  0.00     0.009 A 
ATOM     87  C   UNL A   1      28.429  30.142  22.170  1.00  0.00     0.001 A 
ATOM     88  C   UNL A   1      27.431  29.435  22.830  1.00  0.00     0.001 A 
ENDBRANCH  76  79
ENDBRANCH  74  76
ENDBRANCH  70  74
ENDBRANCH  65  68
ENDBRANCH  63  64
ENDBRANCH   1  63
TORSDOF 13
ENDMDL
MODEL 2
REMARK VINA RESULT:     -12.5      4.007      8.081
REMARK SMILES O=C(NCCCNC(=O)[C@@H]1CCCC[C@@H]1NS(=O)(=O)c1ccc2ccccc2c1)c1ccc(-c2c3nc(c(-c4c(F)cccc4F)c4ccc([nH]4)c(-c4c(F)cccc4F)c4nc(c(-c5c(F)cccc5F)c5ccc2[nH]5)C=C4)C=C3)cc1
REMARK SMILES IDX 5 1 4 2 3 3 1 4 2 5 30 7 31 8 83 9 32 10 82 11 33 12 34 13
REMARK SMILES IDX 35 14 76 15 36 16 81 17 75 18 77 19 37 20 80 21 74 22 73 23
REMARK SMILES IDX 38 25 64 26 47 27 63 28 48 29 51 30 62 31 78 32 49 33 50 34
REMARK SMILES IDX 61 36 79 37 52 38 39 39 40 40 45 41 41 42 42 43 44 44 46 45
REMARK SMILES IDX 43 46 65 47 66 48 71 49 67 50 68 51 70 52 72 53 69 54 53 55
REMARK SMILES IDX 54 56 59 57 55 58 56 59 58 60 60 61 57 62 6 63 7 64 8 65
REMARK SMILES IDX 9 67 10 68 11 69 15 70 12 71 14 72 13 73 16 74 17 76 18 77
REMARK SMILES IDX 19 78 20 79 21 80 29 81 22 82 28 83 23 84 27 85 24 86 26 87
REMARK SMILES IDX 25 88
REMARK H PARENT 3 6 77 24 51 35 7 66 16 75
REMARK Flexibility Score: inf
ROOT
ATOM      1  C   UNL A   1      36.770  23.002  26.041  1.00  0.00     0.042 C 
ENDROOT
BRANCH   1   2
ATOM      2  C   UNL A   1      37.740  24.165  26.111  1.00  0.00     0.118 C 
BRANCH   2   3
ATOM      3  N   UNL A   1      39.137  23.745  26.013  1.00  0.00    -0.352 N 
ATOM      4  O   UNL A   1      41.377  23.838  26.106  1.00  0.00    -0.269 OA
ATOM      5  C   UNL A   1      40.303  24.274  26.513  1.00  0.00     0.251 C 
ATOM      6  H   UNL A   1      39.269  22.923  25.486  1.00  0.00     0.163 HD
BRANCH   5   7
ATOM      7  C   UNL A   1      40.291  25.375  27.499  1.00  0.00     0.039 A 
ATOM      8  C   UNL A   1      39.487  25.312  28.632  1.00  0.00     0.014 A 
ATOM      9  C   UNL A   1      41.134  26.479  27.316  1.00  0.00     0.014 A 
ATOM     10  C   UNL A   1      39.350  26.421  29.450  1.00  0.00     0.010 A 
ATOM     11  C   UNL A   1      41.108  27.541  28.228  1.00  0.00     0.010 A 
ATOM     12  C   UNL A   1      40.187  27.534  29.284  1.00  0.00    -0.014 A 
BRANCH  12  13
ATOM     13  C   UNL A   1      40.130  28.611  30.302  1.00  0.00     0.031 A 
ATOM     14  C   UNL A   1      39.110  29.710  30.229  1.00  0.00     0.074 A 
ATOM     15  C   UNL A   1      40.988  28.545  31.340  1.00  0.00     0.049 A 
ATOM     16  N   UNL A   1      38.898  30.702  31.056  1.00  0.00    -0.248 NA
ATOM     17  C   UNL A   1      38.210  29.700  29.070  1.00  0.00     0.031 C 
ATOM     18  C   UNL A   1      42.023  27.521  31.513  1.00  0.00     0.029 A 
ATOM     19  N   UNL A   1      41.107  29.327  32.456  1.00  0.00    -0.354 N 
ATOM     20  C   UNL A   1      37.855  31.438  30.508  1.00  0.00     0.074 A 
ATOM     21  C   UNL A   1      37.496  30.799  29.261  1.00  0.00     0.031 C 
ATOM     22  C   UNL A   1      42.626  27.699  32.693  1.00  0.00     0.029 A 
ATOM     23  C   UNL A   1      42.085  28.898  33.319  1.00  0.00     0.049 A 
ATOM     24  H   UNL A   1      40.547  30.120  32.624  1.00  0.00     0.167 HD
ATOM     25  C   UNL A   1      37.250  32.543  31.005  1.00  0.00     0.037 A 
ATOM     26  C   UNL A   1      42.520  29.428  34.475  1.00  0.00     0.037 A 
ATOM     27  C   UNL A   1      37.623  33.168  32.247  1.00  0.00     0.049 A 
ATOM     28  C   UNL A   1      41.867  30.679  34.978  1.00  0.00     0.074 A 
ATOM     29  C   UNL A   1      37.075  34.286  32.851  1.00  0.00     0.029 A 
ATOM     30  N   UNL A   1      38.649  32.730  33.071  1.00  0.00    -0.354 N 
ATOM     31  N   UNL A   1      40.866  31.351  34.463  1.00  0.00    -0.248 NA
ATOM     32  C   UNL A   1      42.409  31.251  36.216  1.00  0.00     0.031 C 
ATOM     33  C   UNL A   1      37.806  34.556  34.013  1.00  0.00     0.029 A 
ATOM     34  C   UNL A   1      38.773  33.573  34.163  1.00  0.00     0.049 A 
ATOM     35  H   UNL A   1      39.208  31.937  32.904  1.00  0.00     0.167 HD
ATOM     36  C   UNL A   1      40.646  32.419  35.321  1.00  0.00     0.074 A 
ATOM     37  C   UNL A   1      41.605  32.289  36.400  1.00  0.00     0.031 C 
ATOM     38  C   UNL A   1      39.736  33.419  35.223  1.00  0.00     0.037 A 
BRANCH  25  39
ATOM     39  C   UNL A   1      36.150  33.162  30.189  1.00  0.00     0.057 A 
ATOM     40  C   UNL A   1      34.799  33.019  30.531  1.00  0.00     0.134 A 
ATOM     41  C   UNL A   1      36.449  33.931  29.057  1.00  0.00     0.134 A 
ATOM     42  F   UNL A   1      34.439  32.282  31.592  1.00  0.00    -0.206 F 
ATOM     43  C   UNL A   1      33.785  33.601  29.765  1.00  0.00     0.040 A 
ATOM     44  C   UNL A   1      35.447  34.539  28.298  1.00  0.00     0.040 A 
ATOM     45  F   UNL A   1      37.722  34.111  28.673  1.00  0.00    -0.206 F 
ATOM     46  C   UNL A   1      34.109  34.369  28.648  1.00  0.00     0.006 A 
ENDBRANCH  25  39
BRANCH  26  47
ATOM     47  C   UNL A   1      43.638  28.782  35.204  1.00  0.00     0.057 A 
ATOM     48  C   UNL A   1      44.969  29.106  34.929  1.00  0.00     0.134 A 
ATOM     49  C   UNL A   1      43.398  27.844  36.218  1.00  0.00     0.134 A 
ATOM     50  F   UNL A   1      45.264  29.989  33.962  1.00  0.00    -0.206 F 
ATOM     51  C   UNL A   1      46.024  28.514  35.626  1.00  0.00     0.040 A 
ATOM     52  C   UNL A   1      44.439  27.268  36.944  1.00  0.00     0.040 A 
ATOM     53  F   UNL A   1      42.142  27.502  36.540  1.00  0.00    -0.206 F 
ATOM     54  C   UNL A   1      45.759  27.598  36.643  1.00  0.00     0.006 A 
ENDBRANCH  26  47
BRANCH  38  55
ATOM     55  C   UNL A   1      39.724  34.430  36.330  1.00  0.00     0.057 A 
ATOM     56  C   UNL A   1      40.391  35.655  36.219  1.00  0.00     0.134 A 
ATOM     57  C   UNL A   1      39.010  34.182  37.510  1.00  0.00     0.134 A 
ATOM     58  F   UNL A   1      41.104  35.945  35.120  1.00  0.00    -0.206 F 
ATOM     59  C   UNL A   1      40.369  36.591  37.254  1.00  0.00     0.040 A 
ATOM     60  C   UNL A   1      38.958  35.121  38.538  1.00  0.00     0.040 A 
ATOM     61  F   UNL A   1      38.344  33.029  37.673  1.00  0.00    -0.206 F 
ATOM     62  C   UNL A   1      39.644  36.327  38.415  1.00  0.00     0.006 A 
ENDBRANCH  38  55
ENDBRANCH  12  13
ENDBRANCH   5   7
ENDBRANCH   2   3
ENDBRANCH   1   2
BRANCH   1  63
ATOM     63  C   UNL A   1      37.003  22.116  24.836  1.00  0.00     0.117 C 
BRANCH  63  64
ATOM     64  N   UNL A   1      36.302  22.579  23.664  1.00  0.00    -0.356 N 
ATOM     65  C   UNL A   1      35.039  22.991  23.430  1.00  0.00     0.224 C 
ATOM     66  H   UNL A   1      36.870  22.598  22.860  1.00  0.00     0.163 HD
ATOM     67  O   UNL A   1      34.811  23.247  22.239  1.00  0.00    -0.275 OA
BRANCH  65  68
ATOM     68  C   UNL A   1      33.901  23.116  24.461  1.00  0.00     0.096 C 
ATOM     69  C   UNL A   1      33.002  21.865  24.295  1.00  0.00     0.015 C 
ATOM     70  C   UNL A   1      33.036  24.392  24.606  1.00  0.00     0.082 C 
ATOM     71  C   UNL A   1      31.956  21.733  25.395  1.00  0.00     0.001 C 
ATOM     72  C   UNL A   1      32.020  24.213  25.741  1.00  0.00     0.021 C 
ATOM     73  C   UNL A   1      31.126  22.997  25.542  1.00  0.00     0.002 C 
BRANCH  70  74
ATOM     74  N   UNL A   1      32.385  24.735  23.324  1.00  0.00    -0.207 NA
ATOM     75  H   UNL A   1      31.384  24.657  23.505  1.00  0.00     0.141 HD
BRANCH  74  76
ATOM     76  S   UNL A   1      32.572  26.170  22.476  1.00  0.00     0.240 S 
ATOM     77  O   UNL A   1      33.948  26.155  22.019  1.00  0.00    -0.207 OA
ATOM     78  O   UNL A   1      31.475  26.296  21.550  1.00  0.00    -0.207 OA
BRANCH  76  79
ATOM     79  C   UNL A   1      32.437  27.469  23.682  1.00  0.00     0.083 A 
ATOM     80  C   UNL A   1      31.284  28.257  23.716  1.00  0.00     0.022 A 
ATOM     81  C   UNL A   1      33.507  27.753  24.535  1.00  0.00     0.030 A 
ATOM     82  C   UNL A   1      31.174  29.291  24.648  1.00  0.00     0.010 A 
ATOM     83  C   UNL A   1      33.390  28.769  25.499  1.00  0.00    -0.017 A 
ATOM     84  C   UNL A   1      32.208  29.545  25.561  1.00  0.00    -0.018 A 
ATOM     85  C   UNL A   1      34.424  29.035  26.405  1.00  0.00     0.009 A 
ATOM     86  C   UNL A   1      32.095  30.559  26.527  1.00  0.00     0.009 A 
ATOM     87  C   UNL A   1      34.290  30.035  27.366  1.00  0.00     0.001 A 
ATOM     88  C   UNL A   1      33.129  30.796  27.433  1.00  0.00     0.001 A 
ENDBRANCH  76  79
ENDBRANCH  74  76
ENDBRANCH  70  74
ENDBRANCH  65  68
ENDBRANCH  63  64
ENDBRANCH   1  63
TORSDOF 13
ENDMDL
MODEL 3
REMARK VINA RESULT:     -12.5      3.072      8.351
REMARK SMILES O=C(NCCCNC(=O)[C@@H]1CCCC[C@@H]1NS(=O)(=O)c1ccc2ccccc2c1)c1ccc(-c2c3nc(c(-c4c(F)cccc4F)c4ccc([nH]4)c(-c4c(F)cccc4F)c4nc(c(-c5c(F)cccc5F)c5ccc2[nH]5)C=C4)C=C3)cc1
REMARK SMILES IDX 5 1 4 2 3 3 1 4 2 5 30 7 31 8 83 9 32 10 82 11 33 12 34 13
REMARK SMILES IDX 35 14 76 15 36 16 81 17 75 18 77 19 37 20 80 21 74 22 73 23
REMARK SMILES IDX 38 25 64 26 47 27 63 28 48 29 51 30 62 31 78 32 49 33 50 34
REMARK SMILES IDX 61 36 79 37 52 38 39 39 40 40 45 41 41 42 42 43 44 44 46 45
REMARK SMILES IDX 43 46 65 47 66 48 71 49 67 50 68 51 70 52 72 53 69 54 53 55
REMARK SMILES IDX 54 56 59 57 55 58 56 59 58 60 60 61 57 62 6 63 7 64 8 65
REMARK SMILES IDX 9 67 10 68 11 69 15 70 12 71 14 72 13 73 16 74 17 76 18 77
REMARK SMILES IDX 19 78 20 79 21 80 29 81 22 82 28 83 23 84 27 85 24 86 26 87
REMARK SMILES IDX 25 88
REMARK H PARENT 3 6 77 24 51 35 7 66 16 75
REMARK Flexibility Score: inf
ROOT
ATOM      1  C   UNL A   1      34.020  29.383  26.097  1.00  0.00     0.042 C 
ENDROOT
BRANCH   1   2
ATOM      2  C   UNL A   1      34.646  28.953  27.409  1.00  0.00     0.118 C 
BRANCH   2   3
ATOM      3  N   UNL A   1      34.730  30.042  28.381  1.00  0.00    -0.352 N 
ATOM      4  O   UNL A   1      35.500  31.307  30.067  1.00  0.00    -0.269 OA
ATOM      5  C   UNL A   1      35.753  30.501  29.175  1.00  0.00     0.251 C 
ATOM      6  H   UNL A   1      33.889  30.543  28.489  1.00  0.00     0.163 HD
BRANCH   5   7
ATOM      7  C   UNL A   1      37.141  30.021  29.001  1.00  0.00     0.039 A 
ATOM      8  C   UNL A   1      37.761  30.062  27.757  1.00  0.00     0.014 A 
ATOM      9  C   UNL A   1      37.859  29.559  30.111  1.00  0.00     0.014 A 
ATOM     10  C   UNL A   1      38.988  29.447  27.570  1.00  0.00     0.010 A 
ATOM     11  C   UNL A   1      39.163  29.075  29.951  1.00  0.00     0.010 A 
ATOM     12  C   UNL A   1      39.723  28.982  28.670  1.00  0.00    -0.014 A 
BRANCH  12  13
ATOM     13  C   UNL A   1      41.110  28.508  28.436  1.00  0.00     0.031 A 
ATOM     14  C   UNL A   1      41.404  27.078  28.087  1.00  0.00     0.074 A 
ATOM     15  C   UNL A   1      42.104  29.416  28.486  1.00  0.00     0.049 A 
ATOM     16  N   UNL A   1      42.550  26.510  27.813  1.00  0.00    -0.248 NA
ATOM     17  C   UNL A   1      40.260  26.160  28.046  1.00  0.00     0.031 C 
ATOM     18  C   UNL A   1      41.934  30.835  28.818  1.00  0.00     0.029 A 
ATOM     19  N   UNL A   1      43.442  29.296  28.229  1.00  0.00    -0.354 N 
ATOM     20  C   UNL A   1      42.265  25.170  27.583  1.00  0.00     0.074 A 
ATOM     21  C   UNL A   1      40.843  25.000  27.782  1.00  0.00     0.031 C 
ATOM     22  C   UNL A   1      43.106  31.463  28.681  1.00  0.00     0.029 A 
ATOM     23  C   UNL A   1      44.126  30.481  28.340  1.00  0.00     0.049 A 
ATOM     24  H   UNL A   1      43.872  28.443  27.987  1.00  0.00     0.167 HD
ATOM     25  C   UNL A   1      43.115  24.174  27.234  1.00  0.00     0.037 A 
ATOM     26  C   UNL A   1      45.438  30.744  28.212  1.00  0.00     0.037 A 
ATOM     27  C   UNL A   1      44.530  24.361  27.043  1.00  0.00     0.049 A 
ATOM     28  C   UNL A   1      46.364  29.616  27.873  1.00  0.00     0.074 A 
ATOM     29  C   UNL A   1      45.484  23.427  26.682  1.00  0.00     0.029 A 
ATOM     30  N   UNL A   1      45.193  25.568  27.210  1.00  0.00    -0.354 N 
ATOM     31  N   UNL A   1      46.079  28.359  27.635  1.00  0.00    -0.248 NA
ATOM     32  C   UNL A   1      47.792  29.940  27.795  1.00  0.00     0.031 C 
ATOM     33  C   UNL A   1      46.733  24.058  26.684  1.00  0.00     0.029 A 
ATOM     34  C   UNL A   1      46.549  25.398  26.991  1.00  0.00     0.049 A 
ATOM     35  H   UNL A   1      44.763  26.421  27.450  1.00  0.00     0.167 HD
ATOM     36  C   UNL A   1      47.291  27.741  27.364  1.00  0.00     0.074 A 
ATOM     37  C   UNL A   1      48.309  28.770  27.445  1.00  0.00     0.031 C 
ATOM     38  C   UNL A   1      47.540  26.440  27.078  1.00  0.00     0.037 A 
BRANCH  25  39
ATOM     39  C   UNL A   1      42.542  22.795  27.069  1.00  0.00     0.057 A 
ATOM     40  C   UNL A   1      42.170  22.007  28.166  1.00  0.00     0.134 A 
ATOM     41  C   UNL A   1      42.339  22.256  25.792  1.00  0.00     0.134 A 
ATOM     42  F   UNL A   1      42.353  22.453  29.418  1.00  0.00    -0.206 F 
ATOM     43  C   UNL A   1      41.636  20.726  28.000  1.00  0.00     0.040 A 
ATOM     44  C   UNL A   1      41.784  20.988  25.612  1.00  0.00     0.040 A 
ATOM     45  F   UNL A   1      42.670  22.956  24.697  1.00  0.00    -0.206 F 
ATOM     46  C   UNL A   1      41.437  20.215  26.719  1.00  0.00     0.006 A 
ENDBRANCH  25  39
BRANCH  26  47
ATOM     47  C   UNL A   1      45.934  32.125  28.428  1.00  0.00     0.057 A 
ATOM     48  C   UNL A   1      46.338  32.562  29.693  1.00  0.00     0.134 A 
ATOM     49  C   UNL A   1      46.045  33.032  27.366  1.00  0.00     0.134 A 
ATOM     50  F   UNL A   1      46.246  31.744  30.752  1.00  0.00    -0.206 F 
ATOM     51  C   UNL A   1      46.823  33.855  29.897  1.00  0.00     0.040 A 
ATOM     52  C   UNL A   1      46.556  34.315  27.548  1.00  0.00     0.040 A 
ATOM     53  F   UNL A   1      45.688  32.668  26.125  1.00  0.00    -0.206 F 
ATOM     54  C   UNL A   1      46.941  34.733  28.820  1.00  0.00     0.006 A 
ENDBRANCH  26  47
BRANCH  38  55
ATOM     55  C   UNL A   1      48.968  26.071  26.804  1.00  0.00     0.057 A 
ATOM     56  C   UNL A   1      49.558  26.282  25.553  1.00  0.00     0.134 A 
ATOM     57  C   UNL A   1      49.767  25.525  27.817  1.00  0.00     0.134 A 
ATOM     58  F   UNL A   1      48.840  26.788  24.538  1.00  0.00    -0.206 F 
ATOM     59  C   UNL A   1      50.889  25.939  25.310  1.00  0.00     0.040 A 
ATOM     60  C   UNL A   1      51.104  25.205  27.594  1.00  0.00     0.040 A 
ATOM     61  F   UNL A   1      49.260  25.306  29.040  1.00  0.00    -0.206 F 
ATOM     62  C   UNL A   1      51.667  25.405  26.335  1.00  0.00     0.006 A 
ENDBRANCH  38  55
ENDBRANCH  12  13
ENDBRANCH   5   7
ENDBRANCH   2   3
ENDBRANCH   1   2
BRANCH   1  63
ATOM     63  C   UNL A   1      32.550  29.720  26.231  1.00  0.00     0.117 C 
BRANCH  63  64
ATOM     64  N   UNL A   1      31.766  28.601  26.693  1.00  0.00    -0.356 N 
ATOM     65  C   UNL A   1      31.464  27.392  26.176  1.00  0.00     0.224 C 
ATOM     66  H   UNL A   1      31.364  28.753  27.579  1.00  0.00     0.163 HD
ATOM     67  O   UNL A   1      30.682  26.732  26.876  1.00  0.00    -0.275 OA
BRANCH  65  68
ATOM     68  C   UNL A   1      31.945  26.815  24.831  1.00  0.00     0.096 C 
ATOM     69  C   UNL A   1      30.858  27.152  23.780  1.00  0.00     0.015 C 
ATOM     70  C   UNL A   1      32.423  25.351  24.669  1.00  0.00     0.082 C 
ATOM     71  C   UNL A   1      31.292  26.840  22.353  1.00  0.00     0.001 C 
ATOM     72  C   UNL A   1      32.871  25.101  23.224  1.00  0.00     0.021 C 
ATOM     73  C   UNL A   1      31.778  25.407  22.209  1.00  0.00     0.002 C 
BRANCH  70  74
ATOM     74  N   UNL A   1      31.373  24.404  25.099  1.00  0.00    -0.207 NA
ATOM     75  H   UNL A   1      31.020  23.988  24.237  1.00  0.00     0.141 HD
BRANCH  74  76
ATOM     76  S   UNL A   1      31.578  23.120  26.158  1.00  0.00     0.240 S 
ATOM     77  O   UNL A   1      31.638  23.728  27.473  1.00  0.00    -0.207 OA
ATOM     78  O   UNL A   1      30.599  22.111  25.843  1.00  0.00    -0.207 OA
BRANCH  76  79
ATOM     79  C   UNL A   1      33.193  22.459  25.816  1.00  0.00     0.083 A 
ATOM     80  C   UNL A   1      33.309  21.175  25.277  1.00  0.00     0.022 A 
ATOM     81  C   UNL A   1      34.338  23.183  26.156  1.00  0.00     0.030 A 
ATOM     82  C   UNL A   1      34.572  20.639  25.020  1.00  0.00     0.010 A 
ATOM     83  C   UNL A   1      35.612  22.665  25.867  1.00  0.00    -0.017 A 
ATOM     84  C   UNL A   1      35.732  21.380  25.288  1.00  0.00    -0.018 A 
ATOM     85  C   UNL A   1      36.774  23.396  26.143  1.00  0.00     0.009 A 
ATOM     86  C   UNL A   1      37.008  20.867  25.000  1.00  0.00     0.009 A 
ATOM     87  C   UNL A   1      38.031  22.878  25.838  1.00  0.00     0.001 A 
ATOM     88  C   UNL A   1      38.153  21.618  25.265  1.00  0.00     0.001 A 
ENDBRANCH  76  79
ENDBRANCH  74  76
ENDBRANCH  70  74
ENDBRANCH  65  68
ENDBRANCH  63  64
ENDBRANCH   1  63
TORSDOF 13
ENDMDL
