MODEL 1
REMARK VINA RESULT:     -11.6      0.000      0.000
REMARK SMILES COc1ccc(C(=O)C2=C(NCCCNC(=O)c3ccc(-c4c5nc(c(-c6c(F)cccc6F)c6ccc([nH]6)c(-c6c(F)cccc6F)c6nc(c(-c7c(F)cccc7F)c7ccc4[nH]7)C=C6)C=C5)cc3)C(=O)N(CC(=O)[O-])[C@H]2c2ccccc2)cc1
REMARK SMILES IDX 12 1 11 2 10 4 9 5 79 6 72 7 74 8 73 9 7 10 8 11 6 12 3 13
REMARK SMILES IDX 4 14 87 15 5 16 86 17 2 18 1 19 80 20 81 21 85 22 82 23
REMARK SMILES IDX 84 24 83 25 75 26 76 27 77 28 78 29 13 30 14 31 15 32 16 33
REMARK SMILES IDX 17 35 18 36 19 37 71 38 20 39 70 40 21 41 22 42 23 43 64 44
REMARK SMILES IDX 24 45 69 46 63 47 65 48 25 49 68 50 62 51 61 52 26 54 52 55
REMARK SMILES IDX 35 56 51 57 36 58 39 59 50 60 66 61 37 62 38 63 49 65 67 66
REMARK SMILES IDX 40 67 27 68 28 69 33 70 29 71 30 72 32 73 34 74 31 75 53 76
REMARK SMILES IDX 54 77 59 78 55 79 56 80 58 81 60 82 57 83 41 84 42 85 47 86
REMARK SMILES IDX 43 87 44 88 46 89 48 90 45 91
REMARK H PARENT 11 3 15 34 65 53 39 64
REMARK Flexibility Score: inf
ROOT
ATOM      1  C   UNL A   1      33.267  26.844  23.427  1.00  0.00     0.115 C 
ENDROOT
BRANCH   1   2
ATOM      2  N   UNL A   1      34.081  26.155  24.399  1.00  0.00    -0.380 N 
ATOM      3  H   UNL A   1      34.836  26.679  24.751  1.00  0.00     0.160 HD
BRANCH   2   4
ATOM      4  C   UNL A   1      33.972  24.888  24.914  1.00  0.00     0.110 C 
ATOM      5  C   UNL A   1      34.656  23.734  24.851  1.00  0.00     0.056 C 
ATOM      6  C   UNL A   1      34.069  22.643  25.701  1.00  0.00     0.153 C 
ATOM      7  C   UNL A   1      32.869  24.615  25.904  1.00  0.00     0.271 C 
ATOM      8  N   UNL A   1      33.086  23.379  26.462  1.00  0.00    -0.320 N 
ATOM      9  O   UNL A   1      31.950  25.389  26.139  1.00  0.00    -0.267 OA
BRANCH   5  10
ATOM     10  C   UNL A   1      36.040  23.670  24.340  1.00  0.00     0.193 C 
ATOM     11  O   UNL A   1      36.255  23.976  23.167  1.00  0.00    -0.289 OA
BRANCH  10  12
ATOM     12  C   UNL A   1      37.187  23.250  25.197  1.00  0.00     0.023 A 
ATOM     13  C   UNL A   1      39.449  22.382  26.659  1.00  0.00     0.118 A 
ATOM     14  C   UNL A   1      38.769  21.502  25.818  1.00  0.00     0.047 A 
ATOM     15  C   UNL A   1      38.988  23.690  26.776  1.00  0.00     0.047 A 
ATOM     16  C   UNL A   1      37.651  21.931  25.089  1.00  0.00     0.016 A 
ATOM     17  C   UNL A   1      37.859  24.109  26.063  1.00  0.00     0.016 A 
BRANCH  13  18
ATOM     18  O   UNL A   1      40.544  21.868  27.295  1.00  0.00    -0.497 OA
ATOM     19  C   UNL A   1      41.039  20.627  26.803  1.00  0.00     0.278 C 
ENDBRANCH  13  18
ENDBRANCH  10  12
ENDBRANCH   5  10
BRANCH   6  20
ATOM     20  C   UNL A   1      33.349  21.542  24.927  1.00  0.00    -0.021 A 
ATOM     21  C   UNL A   1      33.308  20.214  25.411  1.00  0.00     0.006 A 
ATOM     22  C   UNL A   1      32.807  21.807  23.661  1.00  0.00     0.006 A 
ATOM     23  C   UNL A   1      32.732  19.193  24.659  1.00  0.00     0.000 A 
ATOM     24  C   UNL A   1      32.244  20.775  22.904  1.00  0.00     0.000 A 
ATOM     25  C   UNL A   1      32.207  19.473  23.402  1.00  0.00     0.000 A 
ENDBRANCH   6  20
BRANCH   8  26
ATOM     26  C   UNL A   1      32.110  22.726  27.329  1.00  0.00     0.173 C 
BRANCH  26  27
ATOM     27  C   UNL A   1      30.678  22.687  26.826  1.00  0.00     0.061 C 
ATOM     28  O   UNL A   1      30.287  22.006  25.887  1.00  0.00    -0.548 OA
ATOM     29  O   UNL A   1      29.792  23.370  27.574  1.00  0.00    -0.548 OA
ENDBRANCH  26  27
ENDBRANCH   8  26
ENDBRANCH   2   4
ENDBRANCH   1   2
BRANCH   1  30
ATOM     30  C   UNL A   1      32.625  28.088  24.029  1.00  0.00     0.042 C 
BRANCH  30  31
ATOM     31  C   UNL A   1      33.604  29.044  24.707  1.00  0.00     0.118 C 
BRANCH  31  32
ATOM     32  N   UNL A   1      32.942  30.124  25.424  1.00  0.00    -0.352 N 
ATOM     33  C   UNL A   1      33.226  30.735  26.617  1.00  0.00     0.251 C 
ATOM     34  H   UNL A   1      32.144  30.481  24.969  1.00  0.00     0.163 HD
ATOM     35  O   UNL A   1      32.398  31.503  27.104  1.00  0.00    -0.269 OA
BRANCH  33  36
ATOM     36  C   UNL A   1      34.496  30.493  27.338  1.00  0.00     0.039 A 
ATOM     37  C   UNL A   1      34.731  29.215  27.861  1.00  0.00     0.014 A 
ATOM     38  C   UNL A   1      35.416  31.515  27.587  1.00  0.00     0.014 A 
ATOM     39  C   UNL A   1      35.890  28.959  28.595  1.00  0.00     0.010 A 
ATOM     40  C   UNL A   1      36.615  31.236  28.244  1.00  0.00     0.010 A 
ATOM     41  C   UNL A   1      36.854  29.962  28.779  1.00  0.00    -0.014 A 
BRANCH  41  42
ATOM     42  C   UNL A   1      38.091  29.694  29.559  1.00  0.00     0.031 A 
ATOM     43  C   UNL A   1      38.270  30.283  30.933  1.00  0.00     0.074 A 
ATOM     44  C   UNL A   1      39.072  28.946  29.018  1.00  0.00     0.049 A 
ATOM     45  N   UNL A   1      39.277  30.160  31.763  1.00  0.00    -0.248 NA
ATOM     46  C   UNL A   1      37.190  31.148  31.431  1.00  0.00     0.031 C 
ATOM     47  C   UNL A   1      39.052  28.370  27.673  1.00  0.00     0.029 A 
ATOM     48  N   UNL A   1      40.280  28.545  29.534  1.00  0.00    -0.354 N 
ATOM     49  C   UNL A   1      38.959  30.944  32.865  1.00  0.00     0.074 A 
ATOM     50  C   UNL A   1      37.696  31.585  32.575  1.00  0.00     0.031 C 
ATOM     51  C   UNL A   1      40.177  27.663  27.481  1.00  0.00     0.029 A 
ATOM     52  C   UNL A   1      41.011  27.761  28.676  1.00  0.00     0.049 A 
ATOM     53  H   UNL A   1      40.590  28.794  30.434  1.00  0.00     0.167 HD
ATOM     54  C   UNL A   1      39.642  31.098  34.025  1.00  0.00     0.037 A 
ATOM     55  C   UNL A   1      42.215  27.182  28.834  1.00  0.00     0.037 A 
ATOM     56  C   UNL A   1      40.887  30.436  34.325  1.00  0.00     0.049 A 
ATOM     57  C   UNL A   1      42.939  27.336  30.142  1.00  0.00     0.074 A 
ATOM     58  C   UNL A   1      41.622  30.470  35.496  1.00  0.00     0.029 A 
ATOM     59  N   UNL A   1      41.580  29.623  33.441  1.00  0.00    -0.354 N 
ATOM     60  N   UNL A   1      42.588  28.015  31.207  1.00  0.00    -0.248 NA
ATOM     61  C   UNL A   1      44.219  26.627  30.275  1.00  0.00     0.031 C 
ATOM     62  C   UNL A   1      42.784  29.714  35.305  1.00  0.00     0.029 A 
ATOM     63  C   UNL A   1      42.746  29.164  34.034  1.00  0.00     0.049 A 
ATOM     64  H   UNL A   1      41.287  29.403  32.526  1.00  0.00     0.167 HD
ATOM     65  C   UNL A   1      43.587  27.792  32.146  1.00  0.00     0.074 A 
ATOM     66  C   UNL A   1      44.548  26.902  31.529  1.00  0.00     0.031 C 
ATOM     67  C   UNL A   1      43.696  28.280  33.408  1.00  0.00     0.037 A 
BRANCH  54  68
ATOM     68  C   UNL A   1      39.055  32.023  35.055  1.00  0.00     0.057 A 
ATOM     69  C   UNL A   1      38.267  31.552  36.114  1.00  0.00     0.134 A 
ATOM     70  C   UNL A   1      39.293  33.402  34.994  1.00  0.00     0.134 A 
ATOM     71  F   UNL A   1      37.990  30.244  36.227  1.00  0.00    -0.206 F 
ATOM     72  C   UNL A   1      37.707  32.422  37.052  1.00  0.00     0.040 A 
ATOM     73  C   UNL A   1      38.764  34.278  35.945  1.00  0.00     0.040 A 
ATOM     74  F   UNL A   1      40.046  33.923  34.013  1.00  0.00    -0.206 F 
ATOM     75  C   UNL A   1      37.960  33.789  36.972  1.00  0.00     0.006 A 
ENDBRANCH  54  68
BRANCH  55  76
ATOM     76  C   UNL A   1      42.791  26.366  27.735  1.00  0.00     0.057 A 
ATOM     77  C   UNL A   1      42.543  24.991  27.646  1.00  0.00     0.134 A 
ATOM     78  C   UNL A   1      43.592  26.942  26.742  1.00  0.00     0.134 A 
ATOM     79  F   UNL A   1      41.796  24.379  28.577  1.00  0.00    -0.206 F 
ATOM     80  C   UNL A   1      43.086  24.215  26.622  1.00  0.00     0.040 A 
ATOM     81  C   UNL A   1      44.120  26.182  25.697  1.00  0.00     0.040 A 
ATOM     82  F   UNL A   1      43.858  28.257  26.765  1.00  0.00    -0.206 F 
ATOM     83  C   UNL A   1      43.873  24.812  25.639  1.00  0.00     0.006 A 
ENDBRANCH  55  76
BRANCH  67  84
ATOM     84  C   UNL A   1      44.882  27.831  34.213  1.00  0.00     0.057 A 
ATOM     85  C   UNL A   1      46.088  28.543  34.224  1.00  0.00     0.134 A 
ATOM     86  C   UNL A   1      44.809  26.673  35.000  1.00  0.00     0.134 A 
ATOM     87  F   UNL A   1      46.228  29.654  33.485  1.00  0.00    -0.206 F 
ATOM     88  C   UNL A   1      47.189  28.101  34.959  1.00  0.00     0.040 A 
ATOM     89  C   UNL A   1      45.894  26.238  35.762  1.00  0.00     0.040 A 
ATOM     90  F   UNL A   1      43.681  25.948  35.043  1.00  0.00    -0.206 F 
ATOM     91  C   UNL A   1      47.092  26.948  35.735  1.00  0.00     0.006 A 
ENDBRANCH  67  84
ENDBRANCH  41  42
ENDBRANCH  33  36
ENDBRANCH  31  32
ENDBRANCH  30  31
ENDBRANCH   1  30
TORSDOF 16
ENDMDL
MODEL 2
REMARK VINA RESULT:     -11.4      0.685      5.930
REMARK SMILES COc1ccc(C(=O)C2=C(NCCCNC(=O)c3ccc(-c4c5nc(c(-c6c(F)cccc6F)c6ccc([nH]6)c(-c6c(F)cccc6F)c6nc(c(-c7c(F)cccc7F)c7ccc4[nH]7)C=C6)C=C5)cc3)C(=O)N(CC(=O)[O-])[C@H]2c2ccccc2)cc1
REMARK SMILES IDX 12 1 11 2 10 4 9 5 79 6 72 7 74 8 73 9 7 10 8 11 6 12 3 13
REMARK SMILES IDX 4 14 87 15 5 16 86 17 2 18 1 19 80 20 81 21 85 22 82 23
REMARK SMILES IDX 84 24 83 25 75 26 76 27 77 28 78 29 13 30 14 31 15 32 16 33
REMARK SMILES IDX 17 35 18 36 19 37 71 38 20 39 70 40 21 41 22 42 23 43 64 44
REMARK SMILES IDX 24 45 69 46 63 47 65 48 25 49 68 50 62 51 61 52 26 54 52 55
REMARK SMILES IDX 35 56 51 57 36 58 39 59 50 60 66 61 37 62 38 63 49 65 67 66
REMARK SMILES IDX 40 67 27 68 28 69 33 70 29 71 30 72 32 73 34 74 31 75 53 76
REMARK SMILES IDX 54 77 59 78 55 79 56 80 58 81 60 82 57 83 41 84 42 85 47 86
REMARK SMILES IDX 43 87 44 88 46 89 48 90 45 91
REMARK H PARENT 11 3 15 34 65 53 39 64
REMARK Flexibility Score: inf
ROOT
ATOM      1  C   UNL A   1      33.043  26.748  23.199  1.00  0.00     0.115 C 
ENDROOT
BRANCH   1   2
ATOM      2  N   UNL A   1      33.896  26.137  24.191  1.00  0.00    -0.380 N 
ATOM      3  H   UNL A   1      34.646  26.698  24.493  1.00  0.00     0.160 HD
BRANCH   2   4
ATOM      4  C   UNL A   1      33.830  24.902  24.782  1.00  0.00     0.110 C 
ATOM      5  C   UNL A   1      34.555  23.771  24.791  1.00  0.00     0.056 C 
ATOM      6  C   UNL A   1      34.003  22.714  25.706  1.00  0.00     0.153 C 
ATOM      7  C   UNL A   1      32.734  24.651  25.785  1.00  0.00     0.271 C 
ATOM      8  N   UNL A   1      32.992  23.460  26.418  1.00  0.00    -0.320 N 
ATOM      9  O   UNL A   1      31.787  25.404  25.971  1.00  0.00    -0.267 OA
BRANCH   5  10
ATOM     10  C   UNL A   1      35.942  23.725  24.287  1.00  0.00     0.193 C 
ATOM     11  O   UNL A   1      36.156  24.021  23.112  1.00  0.00    -0.289 OA
BRANCH  10  12
ATOM     12  C   UNL A   1      37.091  23.333  25.154  1.00  0.00     0.023 A 
ATOM     13  C   UNL A   1      39.360  22.519  26.636  1.00  0.00     0.118 A 
ATOM     14  C   UNL A   1      38.699  21.618  25.801  1.00  0.00     0.047 A 
ATOM     15  C   UNL A   1      38.878  23.820  26.735  1.00  0.00     0.047 A 
ATOM     16  C   UNL A   1      37.577  22.020  25.063  1.00  0.00     0.016 A 
ATOM     17  C   UNL A   1      37.745  24.212  26.013  1.00  0.00     0.016 A 
BRANCH  13  18
ATOM     18  O   UNL A   1      40.461  22.030  27.282  1.00  0.00    -0.497 OA
ATOM     19  C   UNL A   1      40.867  20.710  26.934  1.00  0.00     0.278 C 
ENDBRANCH  13  18
ENDBRANCH  10  12
ENDBRANCH   5  10
BRANCH   6  20
ATOM     20  C   UNL A   1      33.325  21.542  24.999  1.00  0.00    -0.021 A 
ATOM     21  C   UNL A   1      33.322  20.248  25.567  1.00  0.00     0.006 A 
ATOM     22  C   UNL A   1      32.785  21.708  23.716  1.00  0.00     0.006 A 
ATOM     23  C   UNL A   1      32.786  19.163  24.879  1.00  0.00     0.000 A 
ATOM     24  C   UNL A   1      32.262  20.612  23.023  1.00  0.00     0.000 A 
ATOM     25  C   UNL A   1      32.262  19.344  23.604  1.00  0.00     0.000 A 
ENDBRANCH   6  20
BRANCH   8  26
ATOM     26  C   UNL A   1      32.036  22.827  27.322  1.00  0.00     0.173 C 
BRANCH  26  27
ATOM     27  C   UNL A   1      30.600  22.744  26.837  1.00  0.00     0.061 C 
ATOM     28  O   UNL A   1      30.216  22.040  25.912  1.00  0.00    -0.548 OA
ATOM     29  O   UNL A   1      29.705  23.413  27.587  1.00  0.00    -0.548 OA
ENDBRANCH  26  27
ENDBRANCH   8  26
ENDBRANCH   2   4
ENDBRANCH   1   2
BRANCH   1  30
ATOM     30  C   UNL A   1      32.459  28.060  23.709  1.00  0.00     0.042 C 
BRANCH  30  31
ATOM     31  C   UNL A   1      33.282  28.741  24.800  1.00  0.00     0.118 C 
BRANCH  31  32
ATOM     32  N   UNL A   1      32.613  29.895  25.383  1.00  0.00    -0.352 N 
ATOM     33  C   UNL A   1      32.899  30.653  26.488  1.00  0.00     0.251 C 
ATOM     34  H   UNL A   1      31.806  30.182  24.895  1.00  0.00     0.163 HD
ATOM     35  O   UNL A   1      32.066  31.466  26.883  1.00  0.00    -0.269 OA
BRANCH  33  36
ATOM     36  C   UNL A   1      34.179  30.518  27.220  1.00  0.00     0.039 A 
ATOM     37  C   UNL A   1      34.581  29.240  27.625  1.00  0.00     0.014 A 
ATOM     38  C   UNL A   1      34.943  31.627  27.593  1.00  0.00     0.014 A 
ATOM     39  C   UNL A   1      35.753  29.073  28.366  1.00  0.00     0.010 A 
ATOM     40  C   UNL A   1      36.158  31.452  28.256  1.00  0.00     0.010 A 
ATOM     41  C   UNL A   1      36.564  30.177  28.673  1.00  0.00    -0.014 A 
BRANCH  41  42
ATOM     42  C   UNL A   1      37.813  30.006  29.460  1.00  0.00     0.031 A 
ATOM     43  C   UNL A   1      38.967  29.216  28.902  1.00  0.00     0.074 A 
ATOM     44  C   UNL A   1      37.901  30.536  30.696  1.00  0.00     0.049 A 
ATOM     45  N   UNL A   1      40.134  28.960  29.440  1.00  0.00    -0.248 NA
ATOM     46  C   UNL A   1      38.775  28.605  27.577  1.00  0.00     0.031 C 
ATOM     47  C   UNL A   1      36.834  31.269  31.378  1.00  0.00     0.029 A 
ATOM     48  N   UNL A   1      38.936  30.536  31.598  1.00  0.00    -0.354 N 
ATOM     49  C   UNL A   1      40.803  28.149  28.530  1.00  0.00     0.074 A 
ATOM     50  C   UNL A   1      39.890  27.905  27.436  1.00  0.00     0.031 C 
ATOM     51  C   UNL A   1      37.279  31.676  32.578  1.00  0.00     0.029 A 
ATOM     52  C   UNL A   1      38.650  31.207  32.762  1.00  0.00     0.049 A 
ATOM     53  H   UNL A   1      39.800  30.098  31.427  1.00  0.00     0.167 HD
ATOM     54  C   UNL A   1      42.069  27.671  28.588  1.00  0.00     0.037 A 
ATOM     55  C   UNL A   1      39.407  31.425  33.853  1.00  0.00     0.037 A 
ATOM     56  C   UNL A   1      42.987  27.938  29.666  1.00  0.00     0.049 A 
ATOM     57  C   UNL A   1      40.820  30.916  33.880  1.00  0.00     0.074 A 
ATOM     58  C   UNL A   1      44.312  27.559  29.785  1.00  0.00     0.029 A 
ATOM     59  N   UNL A   1      42.670  28.651  30.813  1.00  0.00    -0.354 N 
ATOM     60  N   UNL A   1      41.467  30.219  32.977  1.00  0.00    -0.248 NA
ATOM     61  C   UNL A   1      41.616  31.241  35.072  1.00  0.00     0.031 C 
ATOM     62  C   UNL A   1      44.783  28.003  31.026  1.00  0.00     0.029 A 
ATOM     63  C   UNL A   1      43.769  28.706  31.655  1.00  0.00     0.049 A 
ATOM     64  H   UNL A   1      41.793  29.058  31.001  1.00  0.00     0.167 HD
ATOM     65  C   UNL A   1      42.751  30.046  33.477  1.00  0.00     0.074 A 
ATOM     66  C   UNL A   1      42.796  30.727  34.754  1.00  0.00     0.031 C 
ATOM     67  C   UNL A   1      43.800  29.385  32.926  1.00  0.00     0.037 A 
BRANCH  54  68
ATOM     68  C   UNL A   1      42.532  26.804  27.450  1.00  0.00     0.057 A 
ATOM     69  C   UNL A   1      42.376  25.410  27.466  1.00  0.00     0.134 A 
ATOM     70  C   UNL A   1      43.127  27.371  26.316  1.00  0.00     0.134 A 
ATOM     71  F   UNL A   1      41.824  24.800  28.525  1.00  0.00    -0.206 F 
ATOM     72  C   UNL A   1      42.830  24.612  26.414  1.00  0.00     0.040 A 
ATOM     73  C   UNL A   1      43.557  26.585  25.244  1.00  0.00     0.040 A 
ATOM     74  F   UNL A   1      43.300  28.699  26.227  1.00  0.00    -0.206 F 
ATOM     75  C   UNL A   1      43.418  25.199  25.297  1.00  0.00     0.006 A 
ENDBRANCH  54  68
BRANCH  55  76
ATOM     76  C   UNL A   1      38.853  32.199  34.992  1.00  0.00     0.057 A 
ATOM     77  C   UNL A   1      38.268  31.555  36.090  1.00  0.00     0.134 A 
ATOM     78  C   UNL A   1      38.906  33.598  35.019  1.00  0.00     0.134 A 
ATOM     79  F   UNL A   1      38.173  30.218  36.115  1.00  0.00    -0.206 F 
ATOM     80  C   UNL A   1      37.738  32.274  37.161  1.00  0.00     0.040 A 
ATOM     81  C   UNL A   1      38.403  34.328  36.096  1.00  0.00     0.040 A 
ATOM     82  F   UNL A   1      39.464  34.273  34.003  1.00  0.00    -0.206 F 
ATOM     83  C   UNL A   1      37.811  33.665  37.169  1.00  0.00     0.006 A 
ENDBRANCH  55  76
BRANCH  67  84
ATOM     84  C   UNL A   1      45.093  29.398  33.689  1.00  0.00     0.057 A 
ATOM     85  C   UNL A   1      46.062  30.391  33.497  1.00  0.00     0.134 A 
ATOM     86  C   UNL A   1      45.365  28.408  34.643  1.00  0.00     0.134 A 
ATOM     87  F   UNL A   1      45.869  31.363  32.591  1.00  0.00    -0.206 F 
ATOM     88  C   UNL A   1      47.269  30.378  34.197  1.00  0.00     0.040 A 
ATOM     89  C   UNL A   1      46.556  28.402  35.371  1.00  0.00     0.040 A 
ATOM     90  F   UNL A   1      44.477  27.432  34.886  1.00  0.00    -0.206 F 
ATOM     91  C   UNL A   1      47.517  29.384  35.141  1.00  0.00     0.006 A 
ENDBRANCH  67  84
ENDBRANCH  41  42
ENDBRANCH  33  36
ENDBRANCH  31  32
ENDBRANCH  30  31
ENDBRANCH   1  30
TORSDOF 16
ENDMDL
MODEL 3
REMARK VINA RESULT:     -11.4      2.717      5.728
REMARK SMILES COc1ccc(C(=O)C2=C(NCCCNC(=O)c3ccc(-c4c5nc(c(-c6c(F)cccc6F)c6ccc([nH]6)c(-c6c(F)cccc6F)c6nc(c(-c7c(F)cccc7F)c7ccc4[nH]7)C=C6)C=C5)cc3)C(=O)N(CC(=O)[O-])[C@H]2c2ccccc2)cc1
REMARK SMILES IDX 12 1 11 2 10 4 9 5 79 6 72 7 74 8 73 9 7 10 8 11 6 12 3 13
REMARK SMILES IDX 4 14 87 15 5 16 86 17 2 18 1 19 80 20 81 21 85 22 82 23
REMARK SMILES IDX 84 24 83 25 75 26 76 27 77 28 78 29 13 30 14 31 15 32 16 33
REMARK SMILES IDX 17 35 18 36 19 37 71 38 20 39 70 40 21 41 22 42 23 43 64 44
REMARK SMILES IDX 24 45 69 46 63 47 65 48 25 49 68 50 62 51 61 52 26 54 52 55
REMARK SMILES IDX 35 56 51 57 36 58 39 59 50 60 66 61 37 62 38 63 49 65 67 66
REMARK SMILES IDX 40 67 27 68 28 69 33 70 29 71 30 72 32 73 34 74 31 75 53 76
REMARK SMILES IDX 54 77 59 78 55 79 56 80 58 81 60 82 57 83 41 84 42 85 47 86
REMARK SMILES IDX 43 87 44 88 46 89 48 90 45 91
REMARK H PARENT 11 3 15 34 65 53 39 64
REMARK Flexibility Score: inf
ROOT
ATOM      1  C   UNL A   1      31.426  30.526  26.394  1.00  0.00     0.115 C 
ENDROOT
BRANCH   1   2
ATOM      2  N   UNL A   1      31.359  30.107  25.014  1.00  0.00    -0.380 N 
ATOM      3  H   UNL A   1      31.218  30.836  24.367  1.00  0.00     0.160 HD
BRANCH   2   4
ATOM      4  C   UNL A   1      31.459  28.858  24.457  1.00  0.00     0.110 C 
ATOM      5  C   UNL A   1      30.629  27.937  23.940  1.00  0.00     0.056 C 
ATOM      6  C   UNL A   1      31.338  26.724  23.407  1.00  0.00     0.153 C 
ATOM      7  C   UNL A   1      32.836  28.290  24.230  1.00  0.00     0.271 C 
ATOM      8  N   UNL A   1      32.715  27.159  23.459  1.00  0.00    -0.320 N 
ATOM      9  O   UNL A   1      33.864  28.779  24.679  1.00  0.00    -0.267 OA
BRANCH   5  10
ATOM     10  C   UNL A   1      29.237  28.258  23.567  1.00  0.00     0.193 C 
ATOM     11  O   UNL A   1      28.375  27.387  23.685  1.00  0.00    -0.289 OA
BRANCH  10  12
ATOM     12  C   UNL A   1      28.840  29.601  23.053  1.00  0.00     0.023 A 
ATOM     13  C   UNL A   1      28.015  32.059  21.919  1.00  0.00     0.118 A 
ATOM     14  C   UNL A   1      28.810  31.174  21.191  1.00  0.00     0.047 A 
ATOM     15  C   UNL A   1      27.645  31.717  23.215  1.00  0.00     0.047 A 
ATOM     16  C   UNL A   1      29.216  29.954  21.749  1.00  0.00     0.016 A 
ATOM     17  C   UNL A   1      28.070  30.507  23.777  1.00  0.00     0.016 A 
BRANCH  13  18
ATOM     18  O   UNL A   1      27.650  33.202  21.265  1.00  0.00    -0.497 OA
ATOM     19  C   UNL A   1      27.625  33.141  19.843  1.00  0.00     0.278 C 
ENDBRANCH  13  18
ENDBRANCH  10  12
ENDBRANCH   5  10
BRANCH   6  20
ATOM     20  C   UNL A   1      31.199  25.469  24.266  1.00  0.00    -0.021 A 
ATOM     21  C   UNL A   1      30.975  24.203  23.681  1.00  0.00     0.006 A 
ATOM     22  C   UNL A   1      31.183  25.569  25.665  1.00  0.00     0.006 A 
ATOM     23  C   UNL A   1      30.755  23.076  24.469  1.00  0.00     0.000 A 
ATOM     24  C   UNL A   1      30.947  24.437  26.451  1.00  0.00     0.000 A 
ATOM     25  C   UNL A   1      30.735  23.195  25.854  1.00  0.00     0.000 A 
ENDBRANCH   6  20
BRANCH   8  26
ATOM     26  C   UNL A   1      33.835  26.260  23.201  1.00  0.00     0.173 C 
BRANCH  26  27
ATOM     27  C   UNL A   1      33.704  25.346  21.995  1.00  0.00     0.061 C 
ATOM     28  O   UNL A   1      33.360  25.710  20.879  1.00  0.00    -0.548 OA
ATOM     29  O   UNL A   1      34.125  24.082  22.188  1.00  0.00    -0.548 OA
ENDBRANCH  26  27
ENDBRANCH   8  26
ENDBRANCH   2   4
ENDBRANCH   1   2
BRANCH   1  30
ATOM     30  C   UNL A   1      31.361  32.044  26.512  1.00  0.00     0.042 C 
BRANCH  30  31
ATOM     31  C   UNL A   1      32.698  32.716  26.815  1.00  0.00     0.118 C 
BRANCH  31  32
ATOM     32  N   UNL A   1      32.554  33.977  27.528  1.00  0.00    -0.352 N 
ATOM     33  C   UNL A   1      33.179  34.471  28.643  1.00  0.00     0.251 C 
ATOM     34  H   UNL A   1      31.885  34.586  27.138  1.00  0.00     0.163 HD
ATOM     35  O   UNL A   1      32.742  35.495  29.165  1.00  0.00    -0.269 OA
BRANCH  33  36
ATOM     36  C   UNL A   1      34.359  33.805  29.239  1.00  0.00     0.039 A 
ATOM     37  C   UNL A   1      35.632  34.213  28.824  1.00  0.00     0.014 A 
ATOM     38  C   UNL A   1      34.239  32.732  30.126  1.00  0.00     0.014 A 
ATOM     39  C   UNL A   1      36.771  33.574  29.318  1.00  0.00     0.010 A 
ATOM     40  C   UNL A   1      35.377  32.153  30.688  1.00  0.00     0.010 A 
ATOM     41  C   UNL A   1      36.656  32.549  30.270  1.00  0.00    -0.014 A 
BRANCH  41  42
ATOM     42  C   UNL A   1      37.865  31.865  30.802  1.00  0.00     0.031 A 
ATOM     43  C   UNL A   1      38.410  32.222  32.159  1.00  0.00     0.074 A 
ATOM     44  C   UNL A   1      38.495  30.943  30.049  1.00  0.00     0.049 A 
ATOM     45  N   UNL A   1      39.451  31.734  32.789  1.00  0.00    -0.248 NA
ATOM     46  C   UNL A   1      37.714  33.288  32.896  1.00  0.00     0.031 C 
ATOM     47  C   UNL A   1      38.108  30.552  28.692  1.00  0.00     0.029 A 
ATOM     48  N   UNL A   1      39.597  30.170  30.316  1.00  0.00    -0.354 N 
ATOM     49  C   UNL A   1      39.542  32.445  33.980  1.00  0.00     0.074 A 
ATOM     50  C   UNL A   1      38.490  33.436  33.959  1.00  0.00     0.031 C 
ATOM     51  C   UNL A   1      38.938  29.590  28.259  1.00  0.00     0.029 A 
ATOM     52  C   UNL A   1      39.934  29.319  29.293  1.00  0.00     0.049 A 
ATOM     53  H   UNL A   1      40.098  30.221  31.163  1.00  0.00     0.167 HD
ATOM     54  C   UNL A   1      40.405  32.272  35.009  1.00  0.00     0.037 A 
ATOM     55  C   UNL A   1      40.928  28.417  29.198  1.00  0.00     0.037 A 
ATOM     56  C   UNL A   1      41.435  31.264  35.041  1.00  0.00     0.049 A 
ATOM     57  C   UNL A   1      41.852  28.217  30.366  1.00  0.00     0.074 A 
ATOM     58  C   UNL A   1      42.315  30.962  36.065  1.00  0.00     0.029 A 
ATOM     59  N   UNL A   1      41.723  30.398  33.997  1.00  0.00    -0.354 N 
ATOM     60  N   UNL A   1      41.876  28.840  31.519  1.00  0.00    -0.248 NA
ATOM     61  C   UNL A   1      42.878  27.174  30.225  1.00  0.00     0.031 C 
ATOM     62  C   UNL A   1      43.166  29.943  35.622  1.00  0.00     0.029 A 
ATOM     63  C   UNL A   1      42.781  29.573  34.345  1.00  0.00     0.049 A 
ATOM     64  H   UNL A   1      41.246  30.372  33.136  1.00  0.00     0.167 HD
ATOM     65  C   UNL A   1      42.897  28.247  32.251  1.00  0.00     0.074 A 
ATOM     66  C   UNL A   1      43.456  27.203  31.417  1.00  0.00     0.031 C 
ATOM     67  C   UNL A   1      43.330  28.539  33.503  1.00  0.00     0.037 A 
BRANCH  54  68
ATOM     68  C   UNL A   1      40.272  33.199  36.185  1.00  0.00     0.057 A 
ATOM     69  C   UNL A   1      39.371  32.951  37.230  1.00  0.00     0.134 A 
ATOM     70  C   UNL A   1      41.066  34.349  36.282  1.00  0.00     0.134 A 
ATOM     71  F   UNL A   1      38.572  31.874  37.196  1.00  0.00    -0.206 F 
ATOM     72  C   UNL A   1      39.238  33.830  38.306  1.00  0.00     0.040 A 
ATOM     73  C   UNL A   1      40.965  35.220  37.369  1.00  0.00     0.040 A 
ATOM     74  F   UNL A   1      41.958  34.646  35.323  1.00  0.00    -0.206 F 
ATOM     75  C   UNL A   1      40.040  34.966  38.380  1.00  0.00     0.006 A 
ENDBRANCH  54  68
BRANCH  55  76
ATOM     76  C   UNL A   1      41.072  27.605  27.964  1.00  0.00     0.057 A 
ATOM     77  C   UNL A   1      41.844  28.056  26.885  1.00  0.00     0.134 A 
ATOM     78  C   UNL A   1      40.453  26.356  27.836  1.00  0.00     0.134 A 
ATOM     79  F   UNL A   1      42.448  29.251  26.942  1.00  0.00    -0.206 F 
ATOM     80  C   UNL A   1      41.978  27.303  25.718  1.00  0.00     0.040 A 
ATOM     81  C   UNL A   1      40.601  25.581  26.684  1.00  0.00     0.040 A 
ATOM     82  F   UNL A   1      39.710  25.863  28.838  1.00  0.00    -0.206 F 
ATOM     83  C   UNL A   1      41.361  26.058  25.618  1.00  0.00     0.006 A 
ENDBRANCH  55  76
BRANCH  67  84
ATOM     84  C   UNL A   1      44.441  27.693  34.056  1.00  0.00     0.057 A 
ATOM     85  C   UNL A   1      45.789  28.040  33.900  1.00  0.00     0.134 A 
ATOM     86  C   UNL A   1      44.154  26.520  34.768  1.00  0.00     0.134 A 
ATOM     87  F   UNL A   1      46.133  29.144  33.220  1.00  0.00    -0.206 F 
ATOM     88  C   UNL A   1      46.813  27.232  34.398  1.00  0.00     0.040 A 
ATOM     89  C   UNL A   1      45.168  25.720  35.297  1.00  0.00     0.040 A 
ATOM     90  F   UNL A   1      42.885  26.134  34.963  1.00  0.00    -0.206 F 
ATOM     91  C   UNL A   1      46.503  26.070  35.104  1.00  0.00     0.006 A 
ENDBRANCH  67  84
ENDBRANCH  41  42
ENDBRANCH  33  36
ENDBRANCH  31  32
ENDBRANCH  30  31
ENDBRANCH   1  30
TORSDOF 16
ENDMDL
