MODEL 1
REMARK VINA RESULT:     -10.3      0.000      0.000
REMARK SMILES CCCC[C@@H](C)[NH2+]Cc1ccc(C(=O)NCCCNC(=O)c2ccc(-c3c4nc(c(-c5c(F)cccc5F)c5ccc([nH]5)c(-c5c(F)cccc5F)c5nc(c(-c6c(F)cccc6F)c6ccc3[nH]6)C=C5)C=C4)cc2)cn1
REMARK SMILES IDX 13 1 14 2 15 3 12 5 9 6 10 7 77 8 11 9 76 10 8 11 7 12 5 15
REMARK SMILES IDX 6 16 4 17 3 18 2 19 1 20 16 21 17 22 18 23 19 24 20 25 21 27
REMARK SMILES IDX 22 28 23 29 75 30 24 31 74 32 25 33 26 34 27 35 68 36 28 37
REMARK SMILES IDX 73 38 67 39 69 40 29 41 72 42 66 43 65 44 30 46 56 47 39 48
REMARK SMILES IDX 55 49 40 50 43 51 54 52 70 53 41 54 42 55 53 57 71 58 44 59
REMARK SMILES IDX 31 60 32 61 37 62 33 63 34 64 36 65 38 66 35 67 57 68 58 69
REMARK SMILES IDX 63 70 59 71 60 72 62 73 64 74 61 75 45 76 46 77 51 78 47 79
REMARK SMILES IDX 48 80 50 81 52 82 49 83
REMARK H PARENT 15 4 7 13 7 14 19 26 69 45 43 56
REMARK Flexibility Score: inf
ROOT
ATOM      1  C   UNL A   1      37.330  23.419  25.665  1.00  0.00     0.252 C 
ATOM      2  O   UNL A   1      38.077  24.255  26.172  1.00  0.00    -0.269 OA
ATOM      3  N   UNL A   1      37.907  22.283  25.155  1.00  0.00    -0.352 N 
ATOM      4  H   UNL A   1      38.885  22.252  25.264  1.00  0.00     0.163 HD
ENDROOT
BRANCH   1   5
ATOM      5  C   UNL A   1      35.867  23.637  25.715  1.00  0.00     0.058 A 
ATOM      6  C   UNL A   1      33.117  23.492  25.832  1.00  0.00     0.094 A 
ATOM      7  C   UNL A   1      33.711  24.244  24.822  1.00  0.00     0.030 A 
ATOM      8  N   UNL A   1      33.832  22.974  26.859  1.00  0.00    -0.255 NA
ATOM      9  C   UNL A   1      35.102  24.325  24.776  1.00  0.00     0.017 A 
ATOM     10  C   UNL A   1      35.183  23.051  26.774  1.00  0.00     0.125 A 
BRANCH   6  11
ATOM     11  C   UNL A   1      31.676  23.040  25.687  1.00  0.00     0.318 C 
BRANCH  11  12
ATOM     12  N   UNL A   1      31.513  21.573  25.609  1.00  0.00    -0.339 N 
ATOM     13  H   UNL A   1      31.526  21.206  26.561  1.00  0.00     0.346 HD
ATOM     14  H   UNL A   1      30.633  21.416  25.118  1.00  0.00     0.346 HD
BRANCH  12  15
ATOM     15  C   UNL A   1      32.544  20.857  24.831  1.00  0.00     0.179 C 
ATOM     16  C   UNL A   1      32.215  20.724  23.339  1.00  0.00     0.075 C 
BRANCH  15  17
ATOM     17  C   UNL A   1      32.682  19.455  25.470  1.00  0.00     0.065 C 
BRANCH  17  18
ATOM     18  C   UNL A   1      32.728  18.272  24.488  1.00  0.00     0.006 C 
BRANCH  18  19
ATOM     19  C   UNL A   1      34.113  17.665  24.254  1.00  0.00    -0.003 C 
ATOM     20  C   UNL A   1      34.184  16.827  22.987  1.00  0.00     0.004 C 
ENDBRANCH  18  19
ENDBRANCH  17  18
ENDBRANCH  15  17
ENDBRANCH  12  15
ENDBRANCH  11  12
ENDBRANCH   6  11
ENDBRANCH   1   5
BRANCH   3  21
ATOM     21  C   UNL A   1      37.357  21.118  24.487  1.00  0.00     0.118 C 
BRANCH  21  22
ATOM     22  C   UNL A   1      38.180  19.871  24.808  1.00  0.00     0.042 C 
BRANCH  22  23
ATOM     23  C   UNL A   1      39.111  20.059  26.002  1.00  0.00     0.118 C 
BRANCH  23  24
ATOM     24  N   UNL A   1      40.302  19.234  25.896  1.00  0.00    -0.352 N 
ATOM     25  C   UNL A   1      41.625  19.582  26.011  1.00  0.00     0.251 C 
ATOM     26  H   UNL A   1      40.134  18.281  25.715  1.00  0.00     0.163 HD
ATOM     27  O   UNL A   1      42.489  18.780  25.670  1.00  0.00    -0.269 OA
BRANCH  25  28
ATOM     28  C   UNL A   1      42.021  20.911  26.531  1.00  0.00     0.039 A 
ATOM     29  C   UNL A   1      42.080  21.096  27.916  1.00  0.00     0.014 A 
ATOM     30  C   UNL A   1      42.268  21.988  25.675  1.00  0.00     0.014 A 
ATOM     31  C   UNL A   1      42.418  22.346  28.441  1.00  0.00     0.010 A 
ATOM     32  C   UNL A   1      42.673  23.215  26.197  1.00  0.00     0.010 A 
ATOM     33  C   UNL A   1      42.735  23.412  27.585  1.00  0.00    -0.014 A 
BRANCH  33  34
ATOM     34  C   UNL A   1      43.094  24.750  28.122  1.00  0.00     0.031 A 
ATOM     35  C   UNL A   1      42.018  25.770  28.380  1.00  0.00     0.074 A 
ATOM     36  C   UNL A   1      44.388  25.068  28.324  1.00  0.00     0.049 A 
ATOM     37  N   UNL A   1      42.132  27.015  28.765  1.00  0.00    -0.248 NA
ATOM     38  C   UNL A   1      40.628  25.341  28.150  1.00  0.00     0.031 C 
ATOM     39  C   UNL A   1      45.527  24.182  28.075  1.00  0.00     0.029 A 
ATOM     40  N   UNL A   1      44.963  26.230  28.773  1.00  0.00    -0.354 N 
ATOM     41  C   UNL A   1      40.839  27.524  28.796  1.00  0.00     0.074 A 
ATOM     42  C   UNL A   1      39.958  26.466  28.355  1.00  0.00     0.031 C 
ATOM     43  C   UNL A   1      46.663  24.828  28.388  1.00  0.00     0.029 A 
ATOM     44  C   UNL A   1      46.335  26.181  28.828  1.00  0.00     0.049 A 
ATOM     45  H   UNL A   1      44.441  27.023  29.033  1.00  0.00     0.167 HD
ATOM     46  C   UNL A   1      40.423  28.756  29.174  1.00  0.00     0.037 A 
ATOM     47  C   UNL A   1      47.228  27.123  29.186  1.00  0.00     0.037 A 
ATOM     48  C   UNL A   1      41.295  29.793  29.658  1.00  0.00     0.049 A 
ATOM     49  C   UNL A   1      46.733  28.474  29.626  1.00  0.00     0.074 A 
ATOM     50  C   UNL A   1      40.961  31.050  30.130  1.00  0.00     0.029 A 
ATOM     51  N   UNL A   1      42.674  29.687  29.741  1.00  0.00    -0.354 N 
ATOM     52  N   UNL A   1      45.503  28.918  29.710  1.00  0.00    -0.248 NA
ATOM     53  C   UNL A   1      47.752  29.452  30.034  1.00  0.00     0.031 C 
ATOM     54  C   UNL A   1      42.142  31.718  30.469  1.00  0.00     0.029 A 
ATOM     55  C   UNL A   1      43.207  30.861  30.246  1.00  0.00     0.049 A 
ATOM     56  H   UNL A   1      43.198  28.895  29.480  1.00  0.00     0.167 HD
ATOM     57  C   UNL A   1      45.598  30.209  30.212  1.00  0.00     0.074 A 
ATOM     58  C   UNL A   1      47.005  30.475  30.423  1.00  0.00     0.031 C 
ATOM     59  C   UNL A   1      44.608  31.097  30.475  1.00  0.00     0.037 A 
BRANCH  46  60
ATOM     60  C   UNL A   1      38.955  29.053  29.091  1.00  0.00     0.057 A 
ATOM     61  C   UNL A   1      38.119  28.971  30.211  1.00  0.00     0.134 A 
ATOM     62  C   UNL A   1      38.382  29.485  27.887  1.00  0.00     0.134 A 
ATOM     63  F   UNL A   1      38.604  28.552  31.391  1.00  0.00    -0.206 F 
ATOM     64  C   UNL A   1      36.763  29.291  30.136  1.00  0.00     0.040 A 
ATOM     65  C   UNL A   1      37.031  29.831  27.805  1.00  0.00     0.040 A 
ATOM     66  F   UNL A   1      39.127  29.593  26.777  1.00  0.00    -0.206 F 
ATOM     67  C   UNL A   1      36.218  29.731  28.931  1.00  0.00     0.006 A 
ENDBRANCH  46  60
BRANCH  47  68
ATOM     68  C   UNL A   1      48.682  26.826  29.165  1.00  0.00     0.057 A 
ATOM     69  C   UNL A   1      49.460  27.120  28.040  1.00  0.00     0.134 A 
ATOM     70  C   UNL A   1      49.320  26.215  30.250  1.00  0.00     0.134 A 
ATOM     71  F   UNL A   1      48.901  27.689  26.961  1.00  0.00    -0.206 F 
ATOM     72  C   UNL A   1      50.816  26.790  27.981  1.00  0.00     0.040 A 
ATOM     73  C   UNL A   1      50.680  25.902  30.214  1.00  0.00     0.040 A 
ATOM     74  F   UNL A   1      48.632  25.915  31.361  1.00  0.00    -0.206 F 
ATOM     75  C   UNL A   1      51.429  26.180  29.073  1.00  0.00     0.006 A 
ENDBRANCH  47  68
BRANCH  59  76
ATOM     76  C   UNL A   1      45.006  32.412  31.074  1.00  0.00     0.057 A 
ATOM     77  C   UNL A   1      45.115  32.595  32.457  1.00  0.00     0.134 A 
ATOM     78  C   UNL A   1      45.320  33.500  30.249  1.00  0.00     0.134 A 
ATOM     79  F   UNL A   1      44.816  31.594  33.300  1.00  0.00    -0.206 F 
ATOM     80  C   UNL A   1      45.502  33.820  33.001  1.00  0.00     0.040 A 
ATOM     81  C   UNL A   1      45.731  34.723  30.780  1.00  0.00     0.040 A 
ATOM     82  F   UNL A   1      45.245  33.388  28.914  1.00  0.00    -0.206 F 
ATOM     83  C   UNL A   1      45.818  34.887  32.161  1.00  0.00     0.006 A 
ENDBRANCH  59  76
ENDBRANCH  33  34
ENDBRANCH  25  28
ENDBRANCH  23  24
ENDBRANCH  22  23
ENDBRANCH  21  22
ENDBRANCH   3  21
TORSDOF 16
ENDMDL
MODEL 2
REMARK VINA RESULT:     -10.1      0.472      6.467
REMARK SMILES CCCC[C@@H](C)[NH2+]Cc1ccc(C(=O)NCCCNC(=O)c2ccc(-c3c4nc(c(-c5c(F)cccc5F)c5ccc([nH]5)c(-c5c(F)cccc5F)c5nc(c(-c6c(F)cccc6F)c6ccc3[nH]6)C=C5)C=C4)cc2)cn1
REMARK SMILES IDX 13 1 14 2 15 3 12 5 9 6 10 7 77 8 11 9 76 10 8 11 7 12 5 15
REMARK SMILES IDX 6 16 4 17 3 18 2 19 1 20 16 21 17 22 18 23 19 24 20 25 21 27
REMARK SMILES IDX 22 28 23 29 75 30 24 31 74 32 25 33 26 34 27 35 68 36 28 37
REMARK SMILES IDX 73 38 67 39 69 40 29 41 72 42 66 43 65 44 30 46 56 47 39 48
REMARK SMILES IDX 55 49 40 50 43 51 54 52 70 53 41 54 42 55 53 57 71 58 44 59
REMARK SMILES IDX 31 60 32 61 37 62 33 63 34 64 36 65 38 66 35 67 57 68 58 69
REMARK SMILES IDX 63 70 59 71 60 72 62 73 64 74 61 75 45 76 46 77 51 78 47 79
REMARK SMILES IDX 48 80 50 81 52 82 49 83
REMARK H PARENT 15 4 7 13 7 14 19 26 69 45 43 56
REMARK Flexibility Score: inf
ROOT
ATOM      1  C   UNL A   1      37.408  23.350  25.614  1.00  0.00     0.252 C 
ATOM      2  O   UNL A   1      38.189  24.198  26.044  1.00  0.00    -0.269 OA
ATOM      3  N   UNL A   1      37.945  22.189  25.118  1.00  0.00    -0.352 N 
ATOM      4  H   UNL A   1      38.927  22.152  25.172  1.00  0.00     0.163 HD
ENDROOT
BRANCH   1   5
ATOM      5  C   UNL A   1      35.952  23.587  25.737  1.00  0.00     0.058 A 
ATOM      6  C   UNL A   1      33.207  23.475  25.966  1.00  0.00     0.094 A 
ATOM      7  C   UNL A   1      33.770  24.267  24.969  1.00  0.00     0.030 A 
ATOM      8  N   UNL A   1      33.956  22.898  26.934  1.00  0.00    -0.255 NA
ATOM      9  C   UNL A   1      35.159  24.331  24.866  1.00  0.00     0.017 A 
ATOM     10  C   UNL A   1      35.304  22.959  26.795  1.00  0.00     0.125 A 
BRANCH   6  11
ATOM     11  C   UNL A   1      31.754  23.052  25.861  1.00  0.00     0.318 C 
BRANCH  11  12
ATOM     12  N   UNL A   1      31.568  21.610  25.597  1.00  0.00    -0.339 N 
ATOM     13  H   UNL A   1      31.636  21.117  26.488  1.00  0.00     0.346 HD
ATOM     14  H   UNL A   1      30.657  21.524  25.147  1.00  0.00     0.346 HD
BRANCH  12  15
ATOM     15  C   UNL A   1      32.539  21.001  24.666  1.00  0.00     0.179 C 
ATOM     16  C   UNL A   1      32.217  21.245  23.186  1.00  0.00     0.075 C 
BRANCH  15  17
ATOM     17  C   UNL A   1      32.541  19.483  24.963  1.00  0.00     0.065 C 
BRANCH  17  18
ATOM     18  C   UNL A   1      32.719  18.561  23.744  1.00  0.00     0.006 C 
BRANCH  18  19
ATOM     19  C   UNL A   1      33.172  17.134  24.059  1.00  0.00    -0.003 C 
ATOM     20  C   UNL A   1      34.196  16.607  23.067  1.00  0.00     0.004 C 
ENDBRANCH  18  19
ENDBRANCH  17  18
ENDBRANCH  15  17
ENDBRANCH  12  15
ENDBRANCH  11  12
ENDBRANCH   6  11
ENDBRANCH   1   5
BRANCH   3  21
ATOM     21  C   UNL A   1      37.347  21.005  24.529  1.00  0.00     0.118 C 
BRANCH  21  22
ATOM     22  C   UNL A   1      38.209  19.773  24.798  1.00  0.00     0.042 C 
BRANCH  22  23
ATOM     23  C   UNL A   1      39.099  19.921  26.028  1.00  0.00     0.118 C 
BRANCH  23  24
ATOM     24  N   UNL A   1      40.336  19.172  25.896  1.00  0.00    -0.352 N 
ATOM     25  C   UNL A   1      41.637  19.602  25.982  1.00  0.00     0.251 C 
ATOM     26  H   UNL A   1      40.225  18.210  25.719  1.00  0.00     0.163 HD
ATOM     27  O   UNL A   1      42.543  18.855  25.623  1.00  0.00    -0.269 OA
BRANCH  25  28
ATOM     28  C   UNL A   1      41.961  20.954  26.494  1.00  0.00     0.039 A 
ATOM     29  C   UNL A   1      41.943  21.167  27.877  1.00  0.00     0.014 A 
ATOM     30  C   UNL A   1      42.213  22.023  25.630  1.00  0.00     0.014 A 
ATOM     31  C   UNL A   1      42.212  22.438  28.392  1.00  0.00     0.010 A 
ATOM     32  C   UNL A   1      42.548  23.274  26.146  1.00  0.00     0.010 A 
ATOM     33  C   UNL A   1      42.534  23.498  27.531  1.00  0.00    -0.014 A 
BRANCH  33  34
ATOM     34  C   UNL A   1      42.819  24.858  28.058  1.00  0.00     0.031 A 
ATOM     35  C   UNL A   1      44.221  25.228  28.462  1.00  0.00     0.074 A 
ATOM     36  C   UNL A   1      41.813  25.738  28.227  1.00  0.00     0.049 A 
ATOM     37  N   UNL A   1      44.659  26.328  29.020  1.00  0.00    -0.248 NA
ATOM     38  C   UNL A   1      45.267  24.217  28.231  1.00  0.00     0.031 C 
ATOM     39  C   UNL A   1      40.406  25.487  27.911  1.00  0.00     0.029 A 
ATOM     40  N   UNL A   1      41.820  27.019  28.719  1.00  0.00    -0.354 N 
ATOM     41  C   UNL A   1      46.019  26.131  29.232  1.00  0.00     0.074 A 
ATOM     42  C   UNL A   1      46.328  24.793  28.778  1.00  0.00     0.031 C 
ATOM     43  C   UNL A   1      39.687  26.584  28.205  1.00  0.00     0.029 A 
ATOM     44  C   UNL A   1      40.576  27.602  28.758  1.00  0.00     0.049 A 
ATOM     45  H   UNL A   1      42.639  27.477  29.016  1.00  0.00     0.167 HD
ATOM     46  C   UNL A   1      46.929  26.993  29.743  1.00  0.00     0.037 A 
ATOM     47  C   UNL A   1      40.195  28.816  29.197  1.00  0.00     0.037 A 
ATOM     48  C   UNL A   1      46.630  28.340  30.150  1.00  0.00     0.049 A 
ATOM     49  C   UNL A   1      41.234  29.762  29.735  1.00  0.00     0.074 A 
ATOM     50  C   UNL A   1      47.498  29.313  30.616  1.00  0.00     0.029 A 
ATOM     51  N   UNL A   1      45.365  28.907  30.130  1.00  0.00    -0.354 N 
ATOM     52  N   UNL A   1      42.525  29.583  29.870  1.00  0.00    -0.248 NA
ATOM     53  C   UNL A   1      40.763  31.084  30.171  1.00  0.00     0.031 C 
ATOM     54  C   UNL A   1      46.752  30.460  30.908  1.00  0.00     0.029 A 
ATOM     55  C   UNL A   1      45.428  30.213  30.586  1.00  0.00     0.049 A 
ATOM     56  H   UNL A   1      44.545  28.449  29.836  1.00  0.00     0.167 HD
ATOM     57  C   UNL A   1      43.025  30.779  30.370  1.00  0.00     0.074 A 
ATOM     58  C   UNL A   1      41.899  31.679  30.507  1.00  0.00     0.031 C 
ATOM     59  C   UNL A   1      44.301  31.102  30.689  1.00  0.00     0.037 A 
BRANCH  46  60
ATOM     60  C   UNL A   1      48.343  26.513  29.883  1.00  0.00     0.057 A 
ATOM     61  C   UNL A   1      49.312  26.768  28.904  1.00  0.00     0.134 A 
ATOM     62  C   UNL A   1      48.756  25.839  31.041  1.00  0.00     0.134 A 
ATOM     63  F   UNL A   1      48.978  27.399  27.768  1.00  0.00    -0.206 F 
ATOM     64  C   UNL A   1      50.635  26.357  29.062  1.00  0.00     0.040 A 
ATOM     65  C   UNL A   1      50.084  25.443  31.220  1.00  0.00     0.040 A 
ATOM     66  F   UNL A   1      47.882  25.568  32.020  1.00  0.00    -0.206 F 
ATOM     67  C   UNL A   1      51.026  25.699  30.227  1.00  0.00     0.006 A 
ENDBRANCH  46  60
BRANCH  47  68
ATOM     68  C   UNL A   1      38.770  29.224  29.132  1.00  0.00     0.057 A 
ATOM     69  C   UNL A   1      37.948  29.154  30.263  1.00  0.00     0.134 A 
ATOM     70  C   UNL A   1      38.187  29.662  27.938  1.00  0.00     0.134 A 
ATOM     71  F   UNL A   1      38.445  28.723  31.433  1.00  0.00    -0.206 F 
ATOM     72  C   UNL A   1      36.591  29.475  30.204  1.00  0.00     0.040 A 
ATOM     73  C   UNL A   1      36.836  30.010  27.870  1.00  0.00     0.040 A 
ATOM     74  F   UNL A   1      38.921  29.760  26.821  1.00  0.00    -0.206 F 
ATOM     75  C   UNL A   1      36.032  29.906  29.003  1.00  0.00     0.006 A 
ENDBRANCH  47  68
BRANCH  59  76
ATOM     76  C   UNL A   1      44.557  32.502  31.159  1.00  0.00     0.057 A 
ATOM     77  C   UNL A   1      44.842  33.544  30.268  1.00  0.00     0.134 A 
ATOM     78  C   UNL A   1      44.481  32.817  32.522  1.00  0.00     0.134 A 
ATOM     79  F   UNL A   1      44.941  33.303  28.951  1.00  0.00    -0.206 F 
ATOM     80  C   UNL A   1      45.064  34.846  30.718  1.00  0.00     0.040 A 
ATOM     81  C   UNL A   1      44.677  34.120  32.981  1.00  0.00     0.040 A 
ATOM     82  F   UNL A   1      44.203  31.867  33.427  1.00  0.00    -0.206 F 
ATOM     83  C   UNL A   1      44.974  35.138  32.078  1.00  0.00     0.006 A 
ENDBRANCH  59  76
ENDBRANCH  33  34
ENDBRANCH  25  28
ENDBRANCH  23  24
ENDBRANCH  22  23
ENDBRANCH  21  22
ENDBRANCH   3  21
TORSDOF 16
ENDMDL
MODEL 3
REMARK VINA RESULT:      -9.9      6.112     10.926
REMARK SMILES CCCC[C@@H](C)[NH2+]Cc1ccc(C(=O)NCCCNC(=O)c2ccc(-c3c4nc(c(-c5c(F)cccc5F)c5ccc([nH]5)c(-c5c(F)cccc5F)c5nc(c(-c6c(F)cccc6F)c6ccc3[nH]6)C=C5)C=C4)cc2)cn1
REMARK SMILES IDX 13 1 14 2 15 3 12 5 9 6 10 7 77 8 11 9 76 10 8 11 7 12 5 15
REMARK SMILES IDX 6 16 4 17 3 18 2 19 1 20 16 21 17 22 18 23 19 24 20 25 21 27
REMARK SMILES IDX 22 28 23 29 75 30 24 31 74 32 25 33 26 34 27 35 68 36 28 37
REMARK SMILES IDX 73 38 67 39 69 40 29 41 72 42 66 43 65 44 30 46 56 47 39 48
REMARK SMILES IDX 55 49 40 50 43 51 54 52 70 53 41 54 42 55 53 57 71 58 44 59
REMARK SMILES IDX 31 60 32 61 37 62 33 63 34 64 36 65 38 66 35 67 57 68 58 69
REMARK SMILES IDX 63 70 59 71 60 72 62 73 64 74 61 75 45 76 46 77 51 78 47 79
REMARK SMILES IDX 48 80 50 81 52 82 49 83
REMARK H PARENT 15 4 7 13 7 14 19 26 69 45 43 56
REMARK Flexibility Score: inf
ROOT
ATOM      1  C   UNL A   1      35.875  32.968  28.074  1.00  0.00     0.252 C 
ATOM      2  O   UNL A   1      37.097  32.942  28.217  1.00  0.00    -0.269 OA
ATOM      3  N   UNL A   1      35.269  34.198  28.037  1.00  0.00    -0.352 N 
ATOM      4  H   UNL A   1      35.896  34.952  28.119  1.00  0.00     0.163 HD
ENDROOT
BRANCH   1   5
ATOM      5  C   UNL A   1      35.149  31.695  27.861  1.00  0.00     0.058 A 
ATOM      6  C   UNL A   1      34.157  29.255  27.047  1.00  0.00     0.094 A 
ATOM      7  C   UNL A   1      33.278  30.323  27.208  1.00  0.00     0.030 A 
ATOM      8  N   UNL A   1      35.450  29.323  27.443  1.00  0.00    -0.255 NA
ATOM      9  C   UNL A   1      33.783  31.551  27.632  1.00  0.00     0.017 A 
ATOM     10  C   UNL A   1      35.917  30.536  27.831  1.00  0.00     0.125 A 
BRANCH   6  11
ATOM     11  C   UNL A   1      33.744  28.057  26.213  1.00  0.00     0.318 C 
BRANCH  11  12
ATOM     12  N   UNL A   1      32.362  28.136  25.697  1.00  0.00    -0.339 N 
ATOM     13  H   UNL A   1      31.840  27.346  26.077  1.00  0.00     0.346 HD
ATOM     14  H   UNL A   1      32.006  29.046  25.989  1.00  0.00     0.346 HD
BRANCH  12  15
ATOM     15  C   UNL A   1      32.227  28.103  24.227  1.00  0.00     0.179 C 
ATOM     16  C   UNL A   1      33.499  28.516  23.477  1.00  0.00     0.075 C 
BRANCH  15  17
ATOM     17  C   UNL A   1      31.067  29.064  23.870  1.00  0.00     0.065 C 
BRANCH  17  18
ATOM     18  C   UNL A   1      29.794  28.401  23.316  1.00  0.00     0.006 C 
BRANCH  18  19
ATOM     19  C   UNL A   1      28.689  29.363  22.876  1.00  0.00    -0.003 C 
ATOM     20  C   UNL A   1      27.294  28.812  23.119  1.00  0.00     0.004 C 
ENDBRANCH  18  19
ENDBRANCH  17  18
ENDBRANCH  15  17
ENDBRANCH  12  15
ENDBRANCH  11  12
ENDBRANCH   6  11
ENDBRANCH   1   5
BRANCH   3  21
ATOM     21  C   UNL A   1      33.882  34.605  27.900  1.00  0.00     0.118 C 
BRANCH  21  22
ATOM     22  C   UNL A   1      33.228  34.766  29.271  1.00  0.00     0.042 C 
BRANCH  22  23
ATOM     23  C   UNL A   1      33.262  36.201  29.786  1.00  0.00     0.118 C 
BRANCH  23  24
ATOM     24  N   UNL A   1      32.443  36.370  30.974  1.00  0.00    -0.352 N 
ATOM     25  C   UNL A   1      32.554  35.781  32.209  1.00  0.00     0.251 C 
ATOM     26  H   UNL A   1      31.696  37.004  30.880  1.00  0.00     0.163 HD
ATOM     27  O   UNL A   1      31.633  35.890  33.013  1.00  0.00    -0.269 OA
BRANCH  25  28
ATOM     28  C   UNL A   1      33.765  35.011  32.581  1.00  0.00     0.039 A 
ATOM     29  C   UNL A   1      35.011  35.638  32.482  1.00  0.00     0.014 A 
ATOM     30  C   UNL A   1      33.690  33.667  32.958  1.00  0.00     0.014 A 
ATOM     31  C   UNL A   1      36.176  34.931  32.794  1.00  0.00     0.010 A 
ATOM     32  C   UNL A   1      34.845  32.984  33.334  1.00  0.00     0.010 A 
ATOM     33  C   UNL A   1      36.101  33.602  33.239  1.00  0.00    -0.014 A 
BRANCH  33  34
ATOM     34  C   UNL A   1      37.327  32.832  33.572  1.00  0.00     0.031 A 
ATOM     35  C   UNL A   1      38.076  33.124  34.844  1.00  0.00     0.074 A 
ATOM     36  C   UNL A   1      37.798  31.912  32.707  1.00  0.00     0.049 A 
ATOM     37  N   UNL A   1      39.207  32.625  35.273  1.00  0.00    -0.248 NA
ATOM     38  C   UNL A   1      37.488  34.131  35.743  1.00  0.00     0.031 C 
ATOM     39  C   UNL A   1      37.186  31.564  31.423  1.00  0.00     0.029 A 
ATOM     40  N   UNL A   1      38.910  31.111  32.774  1.00  0.00    -0.354 N 
ATOM     41  C   UNL A   1      39.479  33.275  36.472  1.00  0.00     0.074 A 
ATOM     42  C   UNL A   1      38.415  34.231  36.685  1.00  0.00     0.031 C 
ATOM     43  C   UNL A   1      37.923  30.610  30.830  1.00  0.00     0.029 A 
ATOM     44  C   UNL A   1      39.074  30.303  31.674  1.00  0.00     0.049 A 
ATOM     45  H   UNL A   1      39.531  31.113  33.538  1.00  0.00     0.167 HD
ATOM     46  C   UNL A   1      40.512  33.079  37.324  1.00  0.00     0.037 A 
ATOM     47  C   UNL A   1      40.046  29.420  31.378  1.00  0.00     0.037 A 
ATOM     48  C   UNL A   1      41.544  32.095  37.135  1.00  0.00     0.049 A 
ATOM     49  C   UNL A   1      41.168  29.206  32.358  1.00  0.00     0.074 A 
ATOM     50  C   UNL A   1      42.595  31.774  37.977  1.00  0.00     0.029 A 
ATOM     51  N   UNL A   1      41.649  31.266  36.030  1.00  0.00    -0.354 N 
ATOM     52  N   UNL A   1      41.376  29.783  33.516  1.00  0.00    -0.248 NA
ATOM     53  C   UNL A   1      42.184  28.208  31.994  1.00  0.00     0.031 C 
ATOM     54  C   UNL A   1      43.354  30.771  37.366  1.00  0.00     0.029 A 
ATOM     55  C   UNL A   1      42.753  30.441  36.163  1.00  0.00     0.049 A 
ATOM     56  H   UNL A   1      41.030  31.262  35.264  1.00  0.00     0.167 HD
ATOM     57  C   UNL A   1      42.522  29.194  34.034  1.00  0.00     0.074 A 
ATOM     58  C   UNL A   1      42.960  28.208  33.068  1.00  0.00     0.031 C 
ATOM     59  C   UNL A   1      43.157  29.446  35.204  1.00  0.00     0.037 A 
BRANCH  46  60
ATOM     60  C   UNL A   1      40.577  33.941  38.551  1.00  0.00     0.057 A 
ATOM     61  C   UNL A   1      41.302  35.139  38.575  1.00  0.00     0.134 A 
ATOM     62  C   UNL A   1      39.857  33.597  39.703  1.00  0.00     0.134 A 
ATOM     63  F   UNL A   1      42.022  35.519  37.508  1.00  0.00    -0.206 F 
ATOM     64  C   UNL A   1      41.322  35.957  39.705  1.00  0.00     0.040 A 
ATOM     65  C   UNL A   1      39.850  34.420  40.831  1.00  0.00     0.040 A 
ATOM     66  F   UNL A   1      39.137  32.467  39.744  1.00  0.00    -0.206 F 
ATOM     67  C   UNL A   1      40.588  35.602  40.835  1.00  0.00     0.006 A 
ENDBRANCH  46  60
BRANCH  47  68
ATOM     68  C   UNL A   1      40.002  28.652  30.109  1.00  0.00     0.057 A 
ATOM     69  C   UNL A   1      39.309  27.438  30.025  1.00  0.00     0.134 A 
ATOM     70  C   UNL A   1      40.673  29.092  28.963  1.00  0.00     0.134 A 
ATOM     71  F   UNL A   1      38.661  26.955  31.096  1.00  0.00    -0.206 F 
ATOM     72  C   UNL A   1      39.309  26.674  28.856  1.00  0.00     0.040 A 
ATOM     73  C   UNL A   1      40.662  28.350  27.780  1.00  0.00     0.040 A 
ATOM     74  F   UNL A   1      41.349  30.250  28.975  1.00  0.00    -0.206 F 
ATOM     75  C   UNL A   1      39.987  27.132  27.729  1.00  0.00     0.006 A 
ENDBRANCH  47  68
BRANCH  59  76
ATOM     76  C   UNL A   1      44.354  28.606  35.531  1.00  0.00     0.057 A 
ATOM     77  C   UNL A   1      45.647  28.974  35.141  1.00  0.00     0.134 A 
ATOM     78  C   UNL A   1      44.211  27.430  36.279  1.00  0.00     0.134 A 
ATOM     79  F   UNL A   1      45.848  30.083  34.412  1.00  0.00    -0.206 F 
ATOM     80  C   UNL A   1      46.755  28.190  35.465  1.00  0.00     0.040 A 
ATOM     81  C   UNL A   1      45.315  26.651  36.630  1.00  0.00     0.040 A 
ATOM     82  F   UNL A   1      43.000  27.027  36.691  1.00  0.00    -0.206 F 
ATOM     83  C   UNL A   1      46.591  27.029  36.218  1.00  0.00     0.006 A 
ENDBRANCH  59  76
ENDBRANCH  33  34
ENDBRANCH  25  28
ENDBRANCH  23  24
ENDBRANCH  22  23
ENDBRANCH  21  22
ENDBRANCH   3  21
TORSDOF 16
ENDMDL
