MODEL 1
REMARK VINA RESULT:     -12.1      0.000      0.000
REMARK SMILES Cc1c(Br)c(C)c2c(c1Br)O[C@H](C(F)(F)F)C(C(=O)NCCCNC(=O)c1ccc(-c3c4nc(c(-c5c(F)cccc5F)c5ccc([nH]5)c(-c5c(F)cccc5F)c5nc(c(-c6c(F)cccc6F)c6ccc3[nH]6)C=C5)C=C4)cc1)=C2
REMARK SMILES IDX 22 1 21 2 20 3 18 4 19 5 17 7 1 8 2 9 3 10 9 11 4 12 5 13
REMARK SMILES IDX 8 14 10 15 6 16 7 17 11 18 81 19 12 20 13 21 14 22 15 23
REMARK SMILES IDX 16 24 23 25 24 26 25 27 26 29 27 30 28 31 80 32 29 33 79 34
REMARK SMILES IDX 30 35 31 36 32 37 73 38 33 39 78 40 72 41 74 42 34 43 77 44
REMARK SMILES IDX 71 45 70 46 35 48 61 49 44 50 60 51 45 52 48 53 59 54 75 55
REMARK SMILES IDX 46 56 47 57 58 59 76 60 49 61 36 62 37 63 42 64 38 65 39 66
REMARK SMILES IDX 41 67 43 68 40 69 62 70 63 71 68 72 64 73 65 74 67 75 69 76
REMARK SMILES IDX 66 77 50 78 51 79 56 80 52 81 53 82 55 83 57 84 54 85
REMARK H PARENT 20 6 24 28 74 47 48 58
REMARK Flexibility Score: inf
ROOT
ATOM      1  C   UNL A   1      34.027  28.590  25.514  1.00  0.00     0.042 C 
ENDROOT
BRANCH   1   2
ATOM      2  C   UNL A   1      33.261  27.460  24.846  1.00  0.00     0.118 C 
BRANCH   2   3
ATOM      3  N   UNL A   1      32.194  26.955  25.696  1.00  0.00    -0.352 N 
ATOM      4  C   UNL A   1      31.738  25.748  26.107  1.00  0.00     0.251 C 
ATOM      5  O   UNL A   1      30.754  25.784  26.853  1.00  0.00    -0.270 OA
ATOM      6  H   UNL A   1      31.657  27.689  26.074  1.00  0.00     0.163 HD
BRANCH   4   7
ATOM      7  C   UNL A   1      32.331  24.435  25.726  1.00  0.00     0.067 C 
ATOM      8  C   UNL A   1      36.035  19.136  24.641  1.00  0.00     0.047 C 
ATOM      9  C   UNL A   1      35.448  20.480  25.002  1.00  0.00    -0.019 A 
ATOM     10  C   UNL A   1      36.266  21.579  25.372  1.00  0.00     0.025 A 
ATOM     11  C   UNL A   1      34.059  20.689  24.917  1.00  0.00     0.064 A 
ATOM     12  Br  UNL A   1      38.172  21.351  25.375  1.00  0.00    -0.050 Br
ATOM     13  C   UNL A   1      35.709  22.841  25.715  1.00  0.00    -0.026 A 
ATOM     14  C   UNL A   1      33.500  21.931  25.248  1.00  0.00     0.142 A 
ATOM     15  Br  UNL A   1      32.878  19.311  24.298  1.00  0.00    -0.046 Br
ATOM     16  C   UNL A   1      36.560  24.020  26.138  1.00  0.00     0.046 C 
ATOM     17  C   UNL A   1      34.304  23.003  25.656  1.00  0.00     0.022 A 
ATOM     18  O   UNL A   1      32.134  22.032  25.208  1.00  0.00    -0.474 OA
ATOM     19  C   UNL A   1      33.630  24.256  26.029  1.00  0.00     0.026 C 
ATOM     20  C   UNL A   1      31.578  23.353  25.023  1.00  0.00     0.314 C 
BRANCH  20  21
ATOM     21  C   UNL A   1      31.377  23.635  23.522  1.00  0.00     0.429 C 
ATOM     22  F   UNL A   1      32.358  24.448  23.058  1.00  0.00    -0.167 F 
ATOM     23  F   UNL A   1      31.428  22.508  22.772  1.00  0.00    -0.167 F 
ATOM     24  F   UNL A   1      30.193  24.228  23.255  1.00  0.00    -0.167 F 
ENDBRANCH  20  21
ENDBRANCH   4   7
ENDBRANCH   2   3
ENDBRANCH   1   2
BRANCH   1  25
ATOM     25  C   UNL A   1      33.880  28.559  27.029  1.00  0.00     0.118 C 
BRANCH  25  26
ATOM     26  N   UNL A   1      33.849  29.906  27.596  1.00  0.00    -0.352 N 
ATOM     27  C   UNL A   1      34.772  30.559  28.371  1.00  0.00     0.251 C 
ATOM     28  H   UNL A   1      33.039  30.425  27.389  1.00  0.00     0.163 HD
ATOM     29  O   UNL A   1      34.451  31.573  28.988  1.00  0.00    -0.269 OA
BRANCH  27  30
ATOM     30  C   UNL A   1      36.149  30.042  28.463  1.00  0.00     0.039 A 
ATOM     31  C   UNL A   1      37.001  30.153  27.362  1.00  0.00     0.014 A 
ATOM     32  C   UNL A   1      36.591  29.432  29.639  1.00  0.00     0.014 A 
ATOM     33  C   UNL A   1      38.319  29.710  27.468  1.00  0.00     0.010 A 
ATOM     34  C   UNL A   1      37.928  29.092  29.779  1.00  0.00     0.010 A 
ATOM     35  C   UNL A   1      38.800  29.211  28.690  1.00  0.00    -0.014 A 
BRANCH  35  36
ATOM     36  C   UNL A   1      40.206  28.771  28.846  1.00  0.00     0.031 A 
ATOM     37  C   UNL A   1      41.218  29.711  29.440  1.00  0.00     0.074 A 
ATOM     38  C   UNL A   1      40.575  27.551  28.411  1.00  0.00     0.049 A 
ATOM     39  N   UNL A   1      42.504  29.540  29.608  1.00  0.00    -0.248 NA
ATOM     40  C   UNL A   1      40.727  31.029  29.877  1.00  0.00     0.031 C 
ATOM     41  C   UNL A   1      39.686  26.571  27.784  1.00  0.00     0.029 A 
ATOM     42  N   UNL A   1      41.795  26.926  28.432  1.00  0.00    -0.354 N 
ATOM     43  C   UNL A   1      42.969  30.723  30.167  1.00  0.00     0.074 A 
ATOM     44  C   UNL A   1      41.850  31.633  30.237  1.00  0.00     0.031 C 
ATOM     45  C   UNL A   1      40.379  25.451  27.526  1.00  0.00     0.029 A 
ATOM     46  C   UNL A   1      41.769  25.648  27.927  1.00  0.00     0.049 A 
ATOM     47  H   UNL A   1      42.613  27.352  28.778  1.00  0.00     0.167 HD
ATOM     48  C   UNL A   1      44.211  31.009  30.620  1.00  0.00     0.037 A 
ATOM     49  C   UNL A   1      42.755  24.740  27.809  1.00  0.00     0.037 A 
ATOM     50  C   UNL A   1      45.314  30.089  30.571  1.00  0.00     0.049 A 
ATOM     51  C   UNL A   1      44.136  25.100  28.283  1.00  0.00     0.074 A 
ATOM     52  C   UNL A   1      46.606  30.270  31.029  1.00  0.00     0.029 A 
ATOM     53  N   UNL A   1      45.250  28.812  30.036  1.00  0.00    -0.354 N 
ATOM     54  N   UNL A   1      44.552  26.205  28.851  1.00  0.00    -0.248 NA
ATOM     55  C   UNL A   1      45.185  24.087  28.099  1.00  0.00     0.031 C 
ATOM     56  C   UNL A   1      47.336  29.117  30.735  1.00  0.00     0.029 A 
ATOM     57  C   UNL A   1      46.487  28.199  30.137  1.00  0.00     0.049 A 
ATOM     58  H   UNL A   1      44.447  28.402  29.642  1.00  0.00     0.167 HD
ATOM     59  C   UNL A   1      45.901  26.012  29.118  1.00  0.00     0.074 A 
ATOM     60  C   UNL A   1      46.230  24.678  28.661  1.00  0.00     0.031 C 
ATOM     61  C   UNL A   1      46.788  26.863  29.688  1.00  0.00     0.037 A 
BRANCH  48  62
ATOM     62  C   UNL A   1      44.432  32.359  31.238  1.00  0.00     0.057 A 
ATOM     63  C   UNL A   1      44.258  32.570  32.612  1.00  0.00     0.134 A 
ATOM     64  C   UNL A   1      44.874  33.441  30.469  1.00  0.00     0.134 A 
ATOM     65  F   UNL A   1      43.821  31.579  33.403  1.00  0.00    -0.206 F 
ATOM     66  C   UNL A   1      44.498  33.815  33.196  1.00  0.00     0.040 A 
ATOM     67  C   UNL A   1      45.144  34.683  31.046  1.00  0.00     0.040 A 
ATOM     68  F   UNL A   1      45.064  33.306  29.147  1.00  0.00    -0.206 F 
ATOM     69  C   UNL A   1      44.954  34.873  32.413  1.00  0.00     0.006 A 
ENDBRANCH  48  62
BRANCH  49  70
ATOM     70  C   UNL A   1      42.461  23.390  27.264  1.00  0.00     0.057 A 
ATOM     71  C   UNL A   1      42.031  22.357  28.107  1.00  0.00     0.134 A 
ATOM     72  C   UNL A   1      42.589  23.098  25.901  1.00  0.00     0.134 A 
ATOM     73  F   UNL A   1      41.904  22.571  29.425  1.00  0.00    -0.206 F 
ATOM     74  C   UNL A   1      41.753  21.080  27.617  1.00  0.00     0.040 A 
ATOM     75  C   UNL A   1      42.291  21.831  25.394  1.00  0.00     0.040 A 
ATOM     76  F   UNL A   1      42.987  24.045  25.040  1.00  0.00    -0.206 F 
ATOM     77  C   UNL A   1      41.877  20.816  26.255  1.00  0.00     0.006 A 
ENDBRANCH  49  70
BRANCH  61  78
ATOM     78  C   UNL A   1      48.195  26.378  29.875  1.00  0.00     0.057 A 
ATOM     79  C   UNL A   1      49.176  26.576  28.897  1.00  0.00     0.134 A 
ATOM     80  C   UNL A   1      48.591  25.789  31.084  1.00  0.00     0.134 A 
ATOM     81  F   UNL A   1      48.858  27.127  27.716  1.00  0.00    -0.206 F 
ATOM     82  C   UNL A   1      50.503  26.198  29.112  1.00  0.00     0.040 A 
ATOM     83  C   UNL A   1      49.918  25.433  31.319  1.00  0.00     0.040 A 
ATOM     84  F   UNL A   1      47.700  25.584  32.066  1.00  0.00    -0.206 F 
ATOM     85  C   UNL A   1      50.878  25.636  30.330  1.00  0.00     0.006 A 
ENDBRANCH  61  78
ENDBRANCH  35  36
ENDBRANCH  27  30
ENDBRANCH  25  26
ENDBRANCH   1  25
TORSDOF 11
ENDMDL
MODEL 2
REMARK VINA RESULT:     -12.1      2.873      7.572
REMARK SMILES Cc1c(Br)c(C)c2c(c1Br)O[C@H](C(F)(F)F)C(C(=O)NCCCNC(=O)c1ccc(-c3c4nc(c(-c5c(F)cccc5F)c5ccc([nH]5)c(-c5c(F)cccc5F)c5nc(c(-c6c(F)cccc6F)c6ccc3[nH]6)C=C5)C=C4)cc1)=C2
REMARK SMILES IDX 22 1 21 2 20 3 18 4 19 5 17 7 1 8 2 9 3 10 9 11 4 12 5 13
REMARK SMILES IDX 8 14 10 15 6 16 7 17 11 18 81 19 12 20 13 21 14 22 15 23
REMARK SMILES IDX 16 24 23 25 24 26 25 27 26 29 27 30 28 31 80 32 29 33 79 34
REMARK SMILES IDX 30 35 31 36 32 37 73 38 33 39 78 40 72 41 74 42 34 43 77 44
REMARK SMILES IDX 71 45 70 46 35 48 61 49 44 50 60 51 45 52 48 53 59 54 75 55
REMARK SMILES IDX 46 56 47 57 58 59 76 60 49 61 36 62 37 63 42 64 38 65 39 66
REMARK SMILES IDX 41 67 43 68 40 69 62 70 63 71 68 72 64 73 65 74 67 75 69 76
REMARK SMILES IDX 66 77 50 78 51 79 56 80 52 81 53 82 55 83 57 84 54 85
REMARK H PARENT 20 6 24 28 74 47 48 58
REMARK Flexibility Score: inf
ROOT
ATOM      1  C   UNL A   1      37.609  19.496  24.818  1.00  0.00     0.042 C 
ENDROOT
BRANCH   1   2
ATOM      2  C   UNL A   1      36.326  20.288  25.009  1.00  0.00     0.118 C 
BRANCH   2   3
ATOM      3  N   UNL A   1      35.154  19.427  25.001  1.00  0.00    -0.352 N 
ATOM      4  C   UNL A   1      33.809  19.580  25.017  1.00  0.00     0.251 C 
ATOM      5  O   UNL A   1      33.160  18.529  25.010  1.00  0.00    -0.270 OA
ATOM      6  H   UNL A   1      35.406  18.476  24.978  1.00  0.00     0.163 HD
BRANCH   4   7
ATOM      7  C   UNL A   1      33.098  20.890  25.041  1.00  0.00     0.067 C 
ATOM      8  C   UNL A   1      30.236  26.665  23.845  1.00  0.00     0.047 C 
ATOM      9  C   UNL A   1      30.985  25.354  23.821  1.00  0.00    -0.019 A 
ATOM     10  C   UNL A   1      31.818  24.988  22.731  1.00  0.00     0.025 A 
ATOM     11  C   UNL A   1      30.918  24.483  24.923  1.00  0.00     0.064 A 
ATOM     12  Br  UNL A   1      32.020  26.217  21.270  1.00  0.00    -0.050 Br
ATOM     13  C   UNL A   1      32.517  23.750  22.710  1.00  0.00    -0.026 A 
ATOM     14  C   UNL A   1      31.608  23.263  24.915  1.00  0.00     0.142 A 
ATOM     15  Br  UNL A   1      29.931  24.944  26.501  1.00  0.00    -0.046 Br
ATOM     16  C   UNL A   1      33.390  23.327  21.548  1.00  0.00     0.046 C 
ATOM     17  C   UNL A   1      32.395  22.881  23.821  1.00  0.00     0.022 A 
ATOM     18  O   UNL A   1      31.434  22.440  25.997  1.00  0.00    -0.474 OA
ATOM     19  C   UNL A   1      33.046  21.564  23.877  1.00  0.00     0.026 C 
ATOM     20  C   UNL A   1      32.480  21.481  26.267  1.00  0.00     0.314 C 
BRANCH  20  21
ATOM     21  C   UNL A   1      33.517  22.087  27.232  1.00  0.00     0.429 C 
ATOM     22  F   UNL A   1      32.903  22.578  28.337  1.00  0.00    -0.167 F 
ATOM     23  F   UNL A   1      34.415  21.173  27.669  1.00  0.00    -0.167 F 
ATOM     24  F   UNL A   1      34.224  23.094  26.675  1.00  0.00    -0.167 F 
ENDBRANCH  20  21
ENDBRANCH   4   7
ENDBRANCH   2   3
ENDBRANCH   1   2
BRANCH   1  25
ATOM     25  C   UNL A   1      38.795  20.161  25.502  1.00  0.00     0.118 C 
BRANCH  25  26
ATOM     26  N   UNL A   1      39.869  19.206  25.772  1.00  0.00    -0.352 N 
ATOM     27  C   UNL A   1      41.188  19.423  26.076  1.00  0.00     0.251 C 
ATOM     28  H   UNL A   1      39.603  18.260  25.727  1.00  0.00     0.163 HD
ATOM     29  O   UNL A   1      41.998  18.504  25.988  1.00  0.00    -0.269 OA
BRANCH  27  30
ATOM     30  C   UNL A   1      41.629  20.761  26.509  1.00  0.00     0.039 A 
ATOM     31  C   UNL A   1      42.088  21.676  25.559  1.00  0.00     0.014 A 
ATOM     32  C   UNL A   1      41.605  21.101  27.863  1.00  0.00     0.014 A 
ATOM     33  C   UNL A   1      42.457  22.958  25.965  1.00  0.00     0.010 A 
ATOM     34  C   UNL A   1      41.868  22.406  28.251  1.00  0.00     0.010 A 
ATOM     35  C   UNL A   1      42.313  23.342  27.309  1.00  0.00    -0.014 A 
BRANCH  35  36
ATOM     36  C   UNL A   1      42.657  24.709  27.764  1.00  0.00     0.031 A 
ATOM     37  C   UNL A   1      44.101  25.099  27.924  1.00  0.00     0.074 A 
ATOM     38  C   UNL A   1      41.674  25.575  28.076  1.00  0.00     0.049 A 
ATOM     39  N   UNL A   1      44.609  26.221  28.363  1.00  0.00    -0.248 NA
ATOM     40  C   UNL A   1      45.108  24.083  27.571  1.00  0.00     0.031 C 
ATOM     41  C   UNL A   1      40.240  25.292  27.995  1.00  0.00     0.029 A 
ATOM     42  N   UNL A   1      41.732  26.871  28.521  1.00  0.00    -0.354 N 
ATOM     43  C   UNL A   1      45.986  26.045  28.337  1.00  0.00     0.074 A 
ATOM     44  C   UNL A   1      46.236  24.685  27.918  1.00  0.00     0.031 C 
ATOM     45  C   UNL A   1      39.555  26.398  28.331  1.00  0.00     0.029 A 
ATOM     46  C   UNL A   1      40.499  27.451  28.692  1.00  0.00     0.049 A 
ATOM     47  H   UNL A   1      42.579  27.341  28.699  1.00  0.00     0.167 HD
ATOM     48  C   UNL A   1      46.956  26.949  28.600  1.00  0.00     0.037 A 
ATOM     49  C   UNL A   1      40.170  28.694  29.088  1.00  0.00     0.037 A 
ATOM     50  C   UNL A   1      46.700  28.308  28.992  1.00  0.00     0.049 A 
ATOM     51  C   UNL A   1      41.269  29.667  29.415  1.00  0.00     0.074 A 
ATOM     52  C   UNL A   1      47.612  29.314  29.255  1.00  0.00     0.029 A 
ATOM     53  N   UNL A   1      45.437  28.851  29.171  1.00  0.00    -0.354 N 
ATOM     54  N   UNL A   1      42.568  29.502  29.344  1.00  0.00    -0.248 NA
ATOM     55  C   UNL A   1      40.859  31.001  29.878  1.00  0.00     0.031 C 
ATOM     56  C   UNL A   1      46.902  30.456  29.632  1.00  0.00     0.029 A 
ATOM     57  C   UNL A   1      45.546  30.175  29.558  1.00  0.00     0.049 A 
ATOM     58  H   UNL A   1      44.589  28.368  29.043  1.00  0.00     0.167 HD
ATOM     59  C   UNL A   1      43.128  30.713  29.723  1.00  0.00     0.074 A 
ATOM     60  C   UNL A   1      42.028  31.610  30.013  1.00  0.00     0.031 C 
ATOM     61  C   UNL A   1      44.436  31.053  29.827  1.00  0.00     0.037 A 
BRANCH  48  62
ATOM     62  C   UNL A   1      48.381  26.507  28.440  1.00  0.00     0.057 A 
ATOM     63  C   UNL A   1      49.078  25.895  29.490  1.00  0.00     0.134 A 
ATOM     64  C   UNL A   1      49.045  26.642  27.216  1.00  0.00     0.134 A 
ATOM     65  F   UNL A   1      48.505  25.749  30.694  1.00  0.00    -0.206 F 
ATOM     66  C   UNL A   1      50.391  25.449  29.333  1.00  0.00     0.040 A 
ATOM     67  C   UNL A   1      50.349  26.174  27.038  1.00  0.00     0.040 A 
ATOM     68  F   UNL A   1      48.435  27.217  26.168  1.00  0.00    -0.206 F 
ATOM     69  C   UNL A   1      51.026  25.578  28.100  1.00  0.00     0.006 A 
ENDBRANCH  48  62
BRANCH  49  70
ATOM     70  C   UNL A   1      38.744  29.102  29.151  1.00  0.00     0.057 A 
ATOM     71  C   UNL A   1      38.087  29.583  28.011  1.00  0.00     0.134 A 
ATOM     72  C   UNL A   1      38.001  29.016  30.334  1.00  0.00     0.134 A 
ATOM     73  F   UNL A   1      38.750  29.703  26.852  1.00  0.00    -0.206 F 
ATOM     74  C   UNL A   1      36.749  29.976  28.049  1.00  0.00     0.040 A 
ATOM     75  C   UNL A   1      36.654  29.383  30.380  1.00  0.00     0.040 A 
ATOM     76  F   UNL A   1      38.568  28.556  31.458  1.00  0.00    -0.206 F 
ATOM     77  C   UNL A   1      36.026  29.870  29.235  1.00  0.00     0.006 A 
ENDBRANCH  49  70
BRANCH  61  78
ATOM     78  C   UNL A   1      44.758  32.457  30.247  1.00  0.00     0.057 A 
ATOM     79  C   UNL A   1      45.006  32.785  31.584  1.00  0.00     0.134 A 
ATOM     80  C   UNL A   1      44.912  33.469  29.289  1.00  0.00     0.134 A 
ATOM     81  F   UNL A   1      44.867  31.862  32.547  1.00  0.00    -0.206 F 
ATOM     82  C   UNL A   1      45.388  34.074  31.958  1.00  0.00     0.040 A 
ATOM     83  C   UNL A   1      45.319  34.754  29.648  1.00  0.00     0.040 A 
ATOM     84  F   UNL A   1      44.702  33.215  27.989  1.00  0.00    -0.206 F 
ATOM     85  C   UNL A   1      45.557  35.059  30.986  1.00  0.00     0.006 A 
ENDBRANCH  61  78
ENDBRANCH  35  36
ENDBRANCH  27  30
ENDBRANCH  25  26
ENDBRANCH   1  25
TORSDOF 11
ENDMDL
MODEL 3
REMARK VINA RESULT:     -12.0      1.953      2.575
REMARK SMILES Cc1c(Br)c(C)c2c(c1Br)O[C@H](C(F)(F)F)C(C(=O)NCCCNC(=O)c1ccc(-c3c4nc(c(-c5c(F)cccc5F)c5ccc([nH]5)c(-c5c(F)cccc5F)c5nc(c(-c6c(F)cccc6F)c6ccc3[nH]6)C=C5)C=C4)cc1)=C2
REMARK SMILES IDX 22 1 21 2 20 3 18 4 19 5 17 7 1 8 2 9 3 10 9 11 4 12 5 13
REMARK SMILES IDX 8 14 10 15 6 16 7 17 11 18 81 19 12 20 13 21 14 22 15 23
REMARK SMILES IDX 16 24 23 25 24 26 25 27 26 29 27 30 28 31 80 32 29 33 79 34
REMARK SMILES IDX 30 35 31 36 32 37 73 38 33 39 78 40 72 41 74 42 34 43 77 44
REMARK SMILES IDX 71 45 70 46 35 48 61 49 44 50 60 51 45 52 48 53 59 54 75 55
REMARK SMILES IDX 46 56 47 57 58 59 76 60 49 61 36 62 37 63 42 64 38 65 39 66
REMARK SMILES IDX 41 67 43 68 40 69 62 70 63 71 68 72 64 73 65 74 67 75 69 76
REMARK SMILES IDX 66 77 50 78 51 79 56 80 52 81 53 82 55 83 57 84 54 85
REMARK H PARENT 20 6 24 28 74 47 48 58
REMARK Flexibility Score: inf
ROOT
ATOM      1  C   UNL A   1      34.064  28.157  24.844  1.00  0.00     0.042 C 
ENDROOT
BRANCH   1   2
ATOM      2  C   UNL A   1      32.881  27.368  24.309  1.00  0.00     0.118 C 
BRANCH   2   3
ATOM      3  N   UNL A   1      32.014  26.902  25.380  1.00  0.00    -0.352 N 
ATOM      4  C   UNL A   1      31.738  25.728  25.995  1.00  0.00     0.251 C 
ATOM      5  O   UNL A   1      30.889  25.790  26.890  1.00  0.00    -0.270 OA
ATOM      6  H   UNL A   1      31.484  27.640  25.761  1.00  0.00     0.163 HD
BRANCH   4   7
ATOM      7  C   UNL A   1      32.374  24.421  25.667  1.00  0.00     0.067 C 
ATOM      8  C   UNL A   1      36.248  19.206  24.789  1.00  0.00     0.047 C 
ATOM      9  C   UNL A   1      35.618  20.544  25.096  1.00  0.00    -0.019 A 
ATOM     10  C   UNL A   1      36.400  21.684  25.417  1.00  0.00     0.025 A 
ATOM     11  C   UNL A   1      34.223  20.704  25.007  1.00  0.00     0.064 A 
ATOM     12  Br  UNL A   1      38.313  21.519  25.423  1.00  0.00    -0.050 Br
ATOM     13  C   UNL A   1      35.802  22.940  25.709  1.00  0.00    -0.026 A 
ATOM     14  C   UNL A   1      33.624  21.939  25.288  1.00  0.00     0.142 A 
ATOM     15  Br  UNL A   1      33.087  19.263  24.449  1.00  0.00    -0.046 Br
ATOM     16  C   UNL A   1      36.615  24.163  26.080  1.00  0.00     0.046 C 
ATOM     17  C   UNL A   1      34.392  23.053  25.649  1.00  0.00     0.022 A 
ATOM     18  O   UNL A   1      32.255  21.993  25.249  1.00  0.00    -0.474 OA
ATOM     19  C   UNL A   1      33.678  24.298  25.972  1.00  0.00     0.026 C 
ATOM     20  C   UNL A   1      31.656  23.286  25.011  1.00  0.00     0.314 C 
BRANCH  20  21
ATOM     21  C   UNL A   1      31.441  23.499  23.501  1.00  0.00     0.429 C 
ATOM     22  F   UNL A   1      30.179  23.930  23.259  1.00  0.00    -0.167 F 
ATOM     23  F   UNL A   1      32.271  24.439  22.988  1.00  0.00    -0.167 F 
ATOM     24  F   UNL A   1      31.634  22.373  22.781  1.00  0.00    -0.167 F 
ENDBRANCH  20  21
ENDBRANCH   4   7
ENDBRANCH   2   3
ENDBRANCH   1   2
BRANCH   1  25
ATOM     25  C   UNL A   1      33.932  28.442  26.334  1.00  0.00     0.118 C 
BRANCH  25  26
ATOM     26  N   UNL A   1      33.782  29.871  26.600  1.00  0.00    -0.352 N 
ATOM     27  C   UNL A   1      34.461  30.683  27.471  1.00  0.00     0.251 C 
ATOM     28  H   UNL A   1      33.084  30.321  26.070  1.00  0.00     0.163 HD
ATOM     29  O   UNL A   1      34.007  31.788  27.763  1.00  0.00    -0.269 OA
BRANCH  27  30
ATOM     30  C   UNL A   1      35.734  30.227  28.057  1.00  0.00     0.039 A 
ATOM     31  C   UNL A   1      35.739  29.655  29.331  1.00  0.00     0.014 A 
ATOM     32  C   UNL A   1      36.926  30.384  27.349  1.00  0.00     0.014 A 
ATOM     33  C   UNL A   1      36.938  29.177  29.862  1.00  0.00     0.010 A 
ATOM     34  C   UNL A   1      38.095  29.814  27.829  1.00  0.00     0.010 A 
ATOM     35  C   UNL A   1      38.115  29.221  29.098  1.00  0.00    -0.014 A 
BRANCH  35  36
ATOM     36  C   UNL A   1      39.395  28.685  29.618  1.00  0.00     0.031 A 
ATOM     37  C   UNL A   1      40.046  29.336  30.807  1.00  0.00     0.074 A 
ATOM     38  C   UNL A   1      39.987  27.650  28.992  1.00  0.00     0.049 A 
ATOM     39  N   UNL A   1      41.190  29.057  31.377  1.00  0.00    -0.248 NA
ATOM     40  C   UNL A   1      39.333  30.470  31.419  1.00  0.00     0.031 C 
ATOM     41  C   UNL A   1      39.466  26.966  27.808  1.00  0.00     0.029 A 
ATOM     42  N   UNL A   1      41.158  26.990  29.268  1.00  0.00    -0.354 N 
ATOM     43  C   UNL A   1      41.328  29.976  32.408  1.00  0.00     0.074 A 
ATOM     44  C   UNL A   1      40.197  30.871  32.340  1.00  0.00     0.031 C 
ATOM     45  C   UNL A   1      40.287  25.952  27.488  1.00  0.00     0.029 A 
ATOM     46  C   UNL A   1      41.413  25.943  28.417  1.00  0.00     0.049 A 
ATOM     47  H   UNL A   1      41.757  27.243  30.006  1.00  0.00     0.167 HD
ATOM     48  C   UNL A   1      42.292  30.041  33.355  1.00  0.00     0.037 A 
ATOM     49  C   UNL A   1      42.438  25.071  28.394  1.00  0.00     0.037 A 
ATOM     50  C   UNL A   1      43.402  29.131  33.432  1.00  0.00     0.049 A 
ATOM     51  C   UNL A   1      43.519  25.192  29.433  1.00  0.00     0.074 A 
ATOM     52  C   UNL A   1      44.419  29.092  34.369  1.00  0.00     0.029 A 
ATOM     53  N   UNL A   1      43.634  28.095  32.542  1.00  0.00    -0.354 N 
ATOM     54  N   UNL A   1      43.615  26.038  30.430  1.00  0.00    -0.248 NA
ATOM     55  C   UNL A   1      44.635  24.240  29.344  1.00  0.00     0.031 C 
ATOM     56  C   UNL A   1      45.289  28.057  34.021  1.00  0.00     0.029 A 
ATOM     57  C   UNL A   1      44.789  27.420  32.896  1.00  0.00     0.049 A 
ATOM     58  H   UNL A   1      43.063  27.871  31.771  1.00  0.00     0.167 HD
ATOM     59  C   UNL A   1      44.782  25.703  31.104  1.00  0.00     0.074 A 
ATOM     60  C   UNL A   1      45.354  24.568  30.409  1.00  0.00     0.031 C 
ATOM     61  C   UNL A   1      45.333  26.284  32.197  1.00  0.00     0.037 A 
BRANCH  48  62
ATOM     62  C   UNL A   1      42.170  31.111  34.399  1.00  0.00     0.057 A 
ATOM     63  C   UNL A   1      41.467  30.892  35.592  1.00  0.00     0.134 A 
ATOM     64  C   UNL A   1      42.803  32.350  34.241  1.00  0.00     0.134 A 
ATOM     65  F   UNL A   1      40.825  29.733  35.799  1.00  0.00    -0.206 F 
ATOM     66  C   UNL A   1      41.384  31.872  36.581  1.00  0.00     0.040 A 
ATOM     67  C   UNL A   1      42.750  33.328  35.236  1.00  0.00     0.040 A 
ATOM     68  F   UNL A   1      43.495  32.624  33.125  1.00  0.00    -0.206 F 
ATOM     69  C   UNL A   1      42.036  33.091  36.409  1.00  0.00     0.006 A 
ENDBRANCH  48  62
BRANCH  49  70
ATOM     70  C   UNL A   1      42.466  23.981  27.386  1.00  0.00     0.057 A 
ATOM     71  C   UNL A   1      43.039  24.187  26.125  1.00  0.00     0.134 A 
ATOM     72  C   UNL A   1      41.935  22.713  27.652  1.00  0.00     0.134 A 
ATOM     73  F   UNL A   1      43.550  25.386  25.806  1.00  0.00    -0.206 F 
ATOM     74  C   UNL A   1      43.071  23.179  25.162  1.00  0.00     0.040 A 
ATOM     75  C   UNL A   1      41.983  21.687  26.706  1.00  0.00     0.040 A 
ATOM     76  F   UNL A   1      41.380  22.447  28.844  1.00  0.00    -0.206 F 
ATOM     77  C   UNL A   1      42.547  21.921  25.453  1.00  0.00     0.006 A 
ENDBRANCH  49  70
BRANCH  61  78
ATOM     78  C   UNL A   1      46.605  25.695  32.731  1.00  0.00     0.057 A 
ATOM     79  C   UNL A   1      47.858  26.131  32.288  1.00  0.00     0.134 A 
ATOM     80  C   UNL A   1      46.573  24.748  33.763  1.00  0.00     0.134 A 
ATOM     81  F   UNL A   1      47.954  27.030  31.296  1.00  0.00    -0.206 F 
ATOM     82  C   UNL A   1      49.038  25.640  32.848  1.00  0.00     0.040 A 
ATOM     83  C   UNL A   1      47.745  24.270  34.349  1.00  0.00     0.040 A 
ATOM     84  F   UNL A   1      45.402  24.299  34.241  1.00  0.00    -0.206 F 
ATOM     85  C   UNL A   1      48.983  24.716  33.889  1.00  0.00     0.006 A 
ENDBRANCH  61  78
ENDBRANCH  35  36
ENDBRANCH  27  30
ENDBRANCH  25  26
ENDBRANCH   1  25
TORSDOF 11
ENDMDL
