MODEL 1
REMARK VINA RESULT:      -9.1      0.000      0.000
REMARK SMILES C=Cc1cncc(-c2ccc([C@@H](C)C(=O)NCCCNC(=O)c3ccc(-c4c5nc(c(-c6c(F)cccc6F)c6ccc([nH]6)c(-c6c(F)cccc6F)c6nc(c(-c7c(F)cccc7F)c7ccc4[nH]7)C=C6)C=C5)cc3)cc2)c1
REMARK SMILES IDX 17 1 16 2 14 3 15 4 12 6 13 7 11 8 8 9 9 10 78 11 10 12
REMARK SMILES IDX 77 13 7 14 3 15 4 16 79 17 5 18 6 19 2 20 1 21 18 22 19 23
REMARK SMILES IDX 20 24 21 25 22 27 23 28 24 29 76 30 25 31 75 32 26 33 27 34
REMARK SMILES IDX 28 35 69 36 29 37 74 38 68 39 70 40 30 41 73 42 67 43 66 44
REMARK SMILES IDX 31 46 57 47 40 48 56 49 41 50 44 51 55 52 71 53 42 54 43 55
REMARK SMILES IDX 54 57 72 58 45 59 32 60 33 61 38 62 34 63 35 64 37 65 39 66
REMARK SMILES IDX 36 67 58 68 59 69 64 70 60 71 61 72 63 73 65 74 62 75 46 76
REMARK SMILES IDX 47 77 52 78 48 79 49 80 51 81 53 82 50 83
REMARK H PARENT 16 5 20 26 70 45 44 56
REMARK Flexibility Score: inf
ROOT
ATOM      1  C   UNL A   1      37.007  33.422  29.516  1.00  0.00     0.117 C 
ENDROOT
BRANCH   1   2
ATOM      2  N   UNL A   1      37.020  34.352  30.627  1.00  0.00    -0.356 N 
ATOM      3  C   UNL A   1      36.640  34.225  31.928  1.00  0.00     0.227 C 
ATOM      4  O   UNL A   1      36.704  35.252  32.616  1.00  0.00    -0.274 OA
ATOM      5  H   UNL A   1      37.369  35.244  30.398  1.00  0.00     0.163 HD
BRANCH   3   6
ATOM      6  C   UNL A   1      36.159  32.911  32.561  1.00  0.00     0.105 C 
ATOM      7  C   UNL A   1      34.906  33.050  33.428  1.00  0.00     0.023 C 
BRANCH   6   8
ATOM      8  C   UNL A   1      37.282  32.072  33.150  1.00  0.00    -0.036 A 
ATOM      9  C   UNL A   1      39.423  30.438  34.124  1.00  0.00    -0.017 A 
ATOM     10  C   UNL A   1      39.424  31.833  34.281  1.00  0.00     0.009 A 
ATOM     11  C   UNL A   1      38.308  29.876  33.482  1.00  0.00     0.009 A 
ATOM     12  C   UNL A   1      38.363  32.630  33.834  1.00  0.00     0.005 A 
ATOM     13  C   UNL A   1      37.266  30.679  32.989  1.00  0.00     0.005 A 
BRANCH   9  14
ATOM     14  C   UNL A   1      40.549  29.615  34.619  1.00  0.00     0.001 A 
ATOM     15  C   UNL A   1      42.386  28.036  34.285  1.00  0.00    -0.007 A 
ATOM     16  C   UNL A   1      42.658  28.148  35.645  1.00  0.00     0.119 A 
ATOM     17  C   UNL A   1      41.311  28.782  33.780  1.00  0.00     0.020 A 
ATOM     18  N   UNL A   1      41.961  28.927  36.499  1.00  0.00    -0.263 NA
ATOM     19  C   UNL A   1      40.930  29.627  35.965  1.00  0.00     0.119 A 
BRANCH  15  20
ATOM     20  C   UNL A   1      43.180  27.114  33.465  1.00  0.00     0.002 C 
ATOM     21  C   UNL A   1      44.303  26.515  33.878  1.00  0.00     0.009 C 
ENDBRANCH  15  20
ENDBRANCH   9  14
ENDBRANCH   6   8
ENDBRANCH   3   6
ENDBRANCH   1   2
BRANCH   1  22
ATOM     22  C   UNL A   1      35.685  33.449  28.753  1.00  0.00     0.042 C 
BRANCH  22  23
ATOM     23  C   UNL A   1      34.557  32.689  29.442  1.00  0.00     0.118 C 
BRANCH  23  24
ATOM     24  N   UNL A   1      33.978  31.664  28.584  1.00  0.00    -0.352 N 
ATOM     25  C   UNL A   1      34.547  30.570  27.980  1.00  0.00     0.251 C 
ATOM     26  H   UNL A   1      33.016  31.774  28.408  1.00  0.00     0.163 HD
ATOM     27  O   UNL A   1      33.905  29.958  27.131  1.00  0.00    -0.269 OA
BRANCH  25  28
ATOM     28  C   UNL A   1      35.918  30.119  28.322  1.00  0.00     0.039 A 
ATOM     29  C   UNL A   1      36.925  30.249  27.358  1.00  0.00     0.014 A 
ATOM     30  C   UNL A   1      36.212  29.512  29.545  1.00  0.00     0.014 A 
ATOM     31  C   UNL A   1      38.226  29.822  27.639  1.00  0.00     0.010 A 
ATOM     32  C   UNL A   1      37.524  29.159  29.856  1.00  0.00     0.010 A 
ATOM     33  C   UNL A   1      38.543  29.299  28.902  1.00  0.00    -0.014 A 
BRANCH  33  34
ATOM     34  C   UNL A   1      39.928  28.879  29.240  1.00  0.00     0.031 A 
ATOM     35  C   UNL A   1      40.823  29.785  30.040  1.00  0.00     0.074 A 
ATOM     36  C   UNL A   1      40.403  27.708  28.774  1.00  0.00     0.049 A 
ATOM     37  N   UNL A   1      42.082  29.631  30.366  1.00  0.00    -0.248 NA
ATOM     38  C   UNL A   1      40.233  31.047  30.513  1.00  0.00     0.031 C 
ATOM     39  C   UNL A   1      39.654  26.758  27.950  1.00  0.00     0.029 A 
ATOM     40  N   UNL A   1      41.637  27.124  28.915  1.00  0.00    -0.354 N 
ATOM     41  C   UNL A   1      42.438  30.782  31.056  1.00  0.00     0.074 A 
ATOM     42  C   UNL A   1      41.277  31.645  31.066  1.00  0.00     0.031 C 
ATOM     43  C   UNL A   1      40.435  25.701  27.678  1.00  0.00     0.029 A 
ATOM     44  C   UNL A   1      41.749  25.913  28.277  1.00  0.00     0.049 A 
ATOM     45  H   UNL A   1      42.372  27.534  29.426  1.00  0.00     0.167 HD
ATOM     46  C   UNL A   1      43.620  31.085  31.647  1.00  0.00     0.037 A 
ATOM     47  C   UNL A   1      42.795  25.071  28.179  1.00  0.00     0.037 A 
ATOM     48  C   UNL A   1      44.763  30.211  31.670  1.00  0.00     0.049 A 
ATOM     49  C   UNL A   1      44.091  25.423  28.852  1.00  0.00     0.074 A 
ATOM     50  C   UNL A   1      45.980  30.397  32.303  1.00  0.00     0.029 A 
ATOM     51  N   UNL A   1      44.828  28.982  31.029  1.00  0.00    -0.354 N 
ATOM     52  N   UNL A   1      44.394  26.487  29.554  1.00  0.00    -0.248 NA
ATOM     53  C   UNL A   1      45.189  24.455  28.721  1.00  0.00     0.031 C 
ATOM     54  C   UNL A   1      46.796  29.297  32.013  1.00  0.00     0.029 A 
ATOM     55  C   UNL A   1      46.072  28.409  31.235  1.00  0.00     0.049 A 
ATOM     56  H   UNL A   1      44.099  28.578  30.505  1.00  0.00     0.167 HD
ATOM     57  C   UNL A   1      45.707  26.307  29.970  1.00  0.00     0.074 A 
ATOM     58  C   UNL A   1      46.138  25.025  29.450  1.00  0.00     0.031 C 
ATOM     59  C   UNL A   1      46.484  27.130  30.714  1.00  0.00     0.037 A 
BRANCH  46  60
ATOM     60  C   UNL A   1      43.730  32.421  32.321  1.00  0.00     0.057 A 
ATOM     61  C   UNL A   1      44.042  33.587  31.607  1.00  0.00     0.134 A 
ATOM     62  C   UNL A   1      43.500  32.550  33.697  1.00  0.00     0.134 A 
ATOM     63  F   UNL A   1      44.286  33.531  30.290  1.00  0.00    -0.206 F 
ATOM     64  C   UNL A   1      44.151  34.825  32.243  1.00  0.00     0.040 A 
ATOM     65  C   UNL A   1      43.579  33.787  34.338  1.00  0.00     0.040 A 
ATOM     66  F   UNL A   1      43.189  31.477  34.439  1.00  0.00    -0.206 F 
ATOM     67  C   UNL A   1      43.914  34.929  33.612  1.00  0.00     0.006 A 
ENDBRANCH  46  60
BRANCH  47  68
ATOM     68  C   UNL A   1      42.646  23.794  27.437  1.00  0.00     0.057 A 
ATOM     69  C   UNL A   1      42.876  23.735  26.058  1.00  0.00     0.134 A 
ATOM     70  C   UNL A   1      42.285  22.608  28.084  1.00  0.00     0.134 A 
ATOM     71  F   UNL A   1      43.207  24.845  25.380  1.00  0.00    -0.206 F 
ATOM     72  C   UNL A   1      42.740  22.544  25.345  1.00  0.00     0.040 A 
ATOM     73  C   UNL A   1      42.167  21.404  27.387  1.00  0.00     0.040 A 
ATOM     74  F   UNL A   1      42.054  22.599  29.405  1.00  0.00    -0.206 F 
ATOM     75  C   UNL A   1      42.391  21.371  26.012  1.00  0.00     0.006 A 
ENDBRANCH  47  68
BRANCH  59  76
ATOM     76  C   UNL A   1      47.870  26.655  31.036  1.00  0.00     0.057 A 
ATOM     77  C   UNL A   1      48.131  25.833  32.140  1.00  0.00     0.134 A 
ATOM     78  C   UNL A   1      48.950  26.994  30.210  1.00  0.00     0.134 A 
ATOM     79  F   UNL A   1      47.141  25.484  32.976  1.00  0.00    -0.206 F 
ATOM     80  C   UNL A   1      49.421  25.380  32.421  1.00  0.00     0.040 A 
ATOM     81  C   UNL A   1      50.239  26.528  30.470  1.00  0.00     0.040 A 
ATOM     82  F   UNL A   1      48.765  27.772  29.134  1.00  0.00    -0.206 F 
ATOM     83  C   UNL A   1      50.478  25.723  31.581  1.00  0.00     0.006 A 
ENDBRANCH  59  76
ENDBRANCH  33  34
ENDBRANCH  25  28
ENDBRANCH  23  24
ENDBRANCH  22  23
ENDBRANCH   1  22
TORSDOF 13
ENDMDL
MODEL 2
REMARK VINA RESULT:      -9.1      3.271      9.611
REMARK SMILES C=Cc1cncc(-c2ccc([C@@H](C)C(=O)NCCCNC(=O)c3ccc(-c4c5nc(c(-c6c(F)cccc6F)c6ccc([nH]6)c(-c6c(F)cccc6F)c6nc(c(-c7c(F)cccc7F)c7ccc4[nH]7)C=C6)C=C5)cc3)cc2)c1
REMARK SMILES IDX 17 1 16 2 14 3 15 4 12 6 13 7 11 8 8 9 9 10 78 11 10 12
REMARK SMILES IDX 77 13 7 14 3 15 4 16 79 17 5 18 6 19 2 20 1 21 18 22 19 23
REMARK SMILES IDX 20 24 21 25 22 27 23 28 24 29 76 30 25 31 75 32 26 33 27 34
REMARK SMILES IDX 28 35 69 36 29 37 74 38 68 39 70 40 30 41 73 42 67 43 66 44
REMARK SMILES IDX 31 46 57 47 40 48 56 49 41 50 44 51 55 52 71 53 42 54 43 55
REMARK SMILES IDX 54 57 72 58 45 59 32 60 33 61 38 62 34 63 35 64 37 65 39 66
REMARK SMILES IDX 36 67 58 68 59 69 64 70 60 71 61 72 63 73 65 74 62 75 46 76
REMARK SMILES IDX 47 77 52 78 48 79 49 80 51 81 53 82 50 83
REMARK H PARENT 16 5 20 26 70 45 44 56
REMARK Flexibility Score: inf
ROOT
ATOM      1  C   UNL A   1      42.677  22.290  27.351  1.00  0.00     0.117 C 
ENDROOT
BRANCH   1   2
ATOM      2  N   UNL A   1      44.062  21.977  27.064  1.00  0.00    -0.356 N 
ATOM      3  C   UNL A   1      44.875  22.308  26.023  1.00  0.00     0.227 C 
ATOM      4  O   UNL A   1      46.006  21.805  26.036  1.00  0.00    -0.274 OA
ATOM      5  H   UNL A   1      44.498  21.421  27.749  1.00  0.00     0.163 HD
BRANCH   3   6
ATOM      6  C   UNL A   1      44.471  23.249  24.878  1.00  0.00     0.105 C 
ATOM      7  C   UNL A   1      44.894  22.769  23.489  1.00  0.00     0.023 C 
BRANCH   6   8
ATOM      8  C   UNL A   1      44.725  24.717  25.178  1.00  0.00    -0.036 A 
ATOM      9  C   UNL A   1      45.104  27.475  25.852  1.00  0.00    -0.017 A 
ATOM     10  C   UNL A   1      46.166  26.556  25.863  1.00  0.00     0.009 A 
ATOM     11  C   UNL A   1      43.846  26.981  25.472  1.00  0.00     0.009 A 
ATOM     12  C   UNL A   1      45.988  25.215  25.503  1.00  0.00     0.005 A 
ATOM     13  C   UNL A   1      43.656  25.625  25.159  1.00  0.00     0.005 A 
BRANCH   9  14
ATOM     14  C   UNL A   1      45.320  28.892  26.222  1.00  0.00     0.001 A 
ATOM     15  C   UNL A   1      44.663  30.957  27.355  1.00  0.00    -0.007 A 
ATOM     16  C   UNL A   1      45.843  31.526  26.885  1.00  0.00     0.119 A 
ATOM     17  C   UNL A   1      44.410  29.622  27.007  1.00  0.00     0.020 A 
ATOM     18  N   UNL A   1      46.752  30.877  26.126  1.00  0.00    -0.263 NA
ATOM     19  C   UNL A   1      46.461  29.591  25.814  1.00  0.00     0.119 A 
BRANCH  15  20
ATOM     20  C   UNL A   1      43.725  31.778  28.127  1.00  0.00     0.002 C 
ATOM     21  C   UNL A   1      44.016  32.983  28.631  1.00  0.00     0.009 C 
ENDBRANCH  15  20
ENDBRANCH   9  14
ENDBRANCH   6   8
ENDBRANCH   3   6
ENDBRANCH   1   2
BRANCH   1  22
ATOM     22  C   UNL A   1      41.714  21.582  26.401  1.00  0.00     0.042 C 
BRANCH  22  23
ATOM     23  C   UNL A   1      40.305  21.414  26.959  1.00  0.00     0.118 C 
BRANCH  23  24
ATOM     24  N   UNL A   1      39.285  21.887  26.033  1.00  0.00    -0.352 N 
ATOM     25  C   UNL A   1      38.660  23.106  25.931  1.00  0.00     0.251 C 
ATOM     26  H   UNL A   1      38.994  21.222  25.370  1.00  0.00     0.163 HD
ATOM     27  O   UNL A   1      37.680  23.212  25.199  1.00  0.00    -0.269 OA
BRANCH  25  28
ATOM     28  C   UNL A   1      39.135  24.289  26.688  1.00  0.00     0.039 A 
ATOM     29  C   UNL A   1      39.956  25.217  26.035  1.00  0.00     0.014 A 
ATOM     30  C   UNL A   1      38.843  24.464  28.042  1.00  0.00     0.014 A 
ATOM     31  C   UNL A   1      40.435  26.337  26.721  1.00  0.00     0.010 A 
ATOM     32  C   UNL A   1      39.254  25.620  28.705  1.00  0.00     0.010 A 
ATOM     33  C   UNL A   1      40.064  26.563  28.055  1.00  0.00    -0.014 A 
BRANCH  33  34
ATOM     34  C   UNL A   1      40.525  27.768  28.792  1.00  0.00     0.031 A 
ATOM     35  C   UNL A   1      41.935  27.847  29.312  1.00  0.00     0.074 A 
ATOM     36  C   UNL A   1      39.658  28.765  29.051  1.00  0.00     0.049 A 
ATOM     37  N   UNL A   1      42.498  28.776  30.043  1.00  0.00    -0.248 NA
ATOM     38  C   UNL A   1      42.822  26.718  28.990  1.00  0.00     0.031 C 
ATOM     39  C   UNL A   1      38.253  28.792  28.643  1.00  0.00     0.029 A 
ATOM     40  N   UNL A   1      39.829  29.945  29.731  1.00  0.00    -0.354 N 
ATOM     41  C   UNL A   1      43.791  28.332  30.289  1.00  0.00     0.074 A 
ATOM     42  C   UNL A   1      43.917  27.032  29.666  1.00  0.00     0.031 C 
ATOM     43  C   UNL A   1      37.696  29.940  29.060  1.00  0.00     0.029 A 
ATOM     44  C   UNL A   1      38.692  30.713  29.796  1.00  0.00     0.049 A 
ATOM     45  H   UNL A   1      40.686  30.215  30.135  1.00  0.00     0.167 HD
ATOM     46  C   UNL A   1      44.791  28.959  30.955  1.00  0.00     0.037 A 
ATOM     47  C   UNL A   1      38.474  31.903  30.387  1.00  0.00     0.037 A 
ATOM     48  C   UNL A   1      44.677  30.269  31.543  1.00  0.00     0.049 A 
ATOM     49  C   UNL A   1      39.601  32.584  31.111  1.00  0.00     0.074 A 
ATOM     50  C   UNL A   1      45.653  31.018  32.176  1.00  0.00     0.029 A 
ATOM     51  N   UNL A   1      43.513  31.023  31.567  1.00  0.00    -0.354 N 
ATOM     52  N   UNL A   1      40.836  32.181  31.282  1.00  0.00    -0.248 NA
ATOM     53  C   UNL A   1      39.304  33.888  31.720  1.00  0.00     0.031 C 
ATOM     54  C   UNL A   1      45.070  32.212  32.618  1.00  0.00     0.029 A 
ATOM     55  C   UNL A   1      43.742  32.221  32.224  1.00  0.00     0.049 A 
ATOM     56  H   UNL A   1      42.652  30.748  31.177  1.00  0.00     0.167 HD
ATOM     57  C   UNL A   1      41.470  33.189  31.996  1.00  0.00     0.074 A 
ATOM     58  C   UNL A   1      40.485  34.228  32.215  1.00  0.00     0.031 C 
ATOM     59  C   UNL A   1      42.752  33.247  32.430  1.00  0.00     0.037 A 
BRANCH  46  60
ATOM     60  C   UNL A   1      46.098  28.232  31.081  1.00  0.00     0.057 A 
ATOM     61  C   UNL A   1      46.348  27.334  32.128  1.00  0.00     0.134 A 
ATOM     62  C   UNL A   1      47.110  28.414  30.131  1.00  0.00     0.134 A 
ATOM     63  F   UNL A   1      45.424  27.124  33.077  1.00  0.00    -0.206 F 
ATOM     64  C   UNL A   1      47.569  26.667  32.241  1.00  0.00     0.040 A 
ATOM     65  C   UNL A   1      48.326  27.732  30.220  1.00  0.00     0.040 A 
ATOM     66  F   UNL A   1      46.935  29.252  29.099  1.00  0.00    -0.206 F 
ATOM     67  C   UNL A   1      48.561  26.862  31.282  1.00  0.00     0.006 A 
ENDBRANCH  46  60
BRANCH  47  68
ATOM     68  C   UNL A   1      37.138  32.540  30.290  1.00  0.00     0.057 A 
ATOM     69  C   UNL A   1      36.132  32.242  31.215  1.00  0.00     0.134 A 
ATOM     70  C   UNL A   1      36.838  33.465  29.284  1.00  0.00     0.134 A 
ATOM     71  F   UNL A   1      36.356  31.349  32.191  1.00  0.00    -0.206 F 
ATOM     72  C   UNL A   1      34.870  32.832  31.139  1.00  0.00     0.040 A 
ATOM     73  C   UNL A   1      35.587  34.080  29.208  1.00  0.00     0.040 A 
ATOM     74  F   UNL A   1      37.761  33.794  28.369  1.00  0.00    -0.206 F 
ATOM     75  C   UNL A   1      34.597  33.760  30.135  1.00  0.00     0.006 A 
ENDBRANCH  47  68
BRANCH  59  76
ATOM     76  C   UNL A   1      43.171  34.489  33.160  1.00  0.00     0.057 A 
ATOM     77  C   UNL A   1      43.142  34.567  34.559  1.00  0.00     0.134 A 
ATOM     78  C   UNL A   1      43.643  35.605  32.457  1.00  0.00     0.134 A 
ATOM     79  F   UNL A   1      42.688  33.537  35.288  1.00  0.00    -0.206 F 
ATOM     80  C   UNL A   1      43.551  35.720  35.231  1.00  0.00     0.040 A 
ATOM     81  C   UNL A   1      44.075  36.754  33.121  1.00  0.00     0.040 A 
ATOM     82  F   UNL A   1      43.702  35.590  31.118  1.00  0.00    -0.206 F 
ATOM     83  C   UNL A   1      44.026  36.815  34.511  1.00  0.00     0.006 A 
ENDBRANCH  59  76
ENDBRANCH  33  34
ENDBRANCH  25  28
ENDBRANCH  23  24
ENDBRANCH  22  23
ENDBRANCH   1  22
TORSDOF 13
ENDMDL
MODEL 3
REMARK VINA RESULT:      -8.8      2.174      4.024
REMARK SMILES C=Cc1cncc(-c2ccc([C@@H](C)C(=O)NCCCNC(=O)c3ccc(-c4c5nc(c(-c6c(F)cccc6F)c6ccc([nH]6)c(-c6c(F)cccc6F)c6nc(c(-c7c(F)cccc7F)c7ccc4[nH]7)C=C6)C=C5)cc3)cc2)c1
REMARK SMILES IDX 17 1 16 2 14 3 15 4 12 6 13 7 11 8 8 9 9 10 78 11 10 12
REMARK SMILES IDX 77 13 7 14 3 15 4 16 79 17 5 18 6 19 2 20 1 21 18 22 19 23
REMARK SMILES IDX 20 24 21 25 22 27 23 28 24 29 76 30 25 31 75 32 26 33 27 34
REMARK SMILES IDX 28 35 69 36 29 37 74 38 68 39 70 40 30 41 73 42 67 43 66 44
REMARK SMILES IDX 31 46 57 47 40 48 56 49 41 50 44 51 55 52 71 53 42 54 43 55
REMARK SMILES IDX 54 57 72 58 45 59 32 60 33 61 38 62 34 63 35 64 37 65 39 66
REMARK SMILES IDX 36 67 58 68 59 69 64 70 60 71 61 72 63 73 65 74 62 75 46 76
REMARK SMILES IDX 47 77 52 78 48 79 49 80 51 81 53 82 50 83
REMARK H PARENT 16 5 20 26 70 45 44 56
REMARK Flexibility Score: inf
ROOT
ATOM      1  C   UNL A   1      34.168  35.358  29.356  1.00  0.00     0.117 C 
ENDROOT
BRANCH   1   2
ATOM      2  N   UNL A   1      34.125  35.327  30.804  1.00  0.00    -0.356 N 
ATOM      3  C   UNL A   1      34.616  34.440  31.713  1.00  0.00     0.227 C 
ATOM      4  O   UNL A   1      34.334  34.664  32.897  1.00  0.00    -0.274 OA
ATOM      5  H   UNL A   1      33.652  36.091  31.207  1.00  0.00     0.163 HD
BRANCH   3   6
ATOM      6  C   UNL A   1      35.477  33.222  31.350  1.00  0.00     0.105 C 
ATOM      7  C   UNL A   1      35.365  32.055  32.333  1.00  0.00     0.023 C 
BRANCH   6   8
ATOM      8  C   UNL A   1      36.886  33.582  30.907  1.00  0.00    -0.036 A 
ATOM      9  C   UNL A   1      39.481  34.346  29.967  1.00  0.00    -0.017 A 
ATOM     10  C   UNL A   1      39.074  34.578  31.291  1.00  0.00     0.009 A 
ATOM     11  C   UNL A   1      38.561  33.699  29.127  1.00  0.00     0.009 A 
ATOM     12  C   UNL A   1      37.818  34.177  31.760  1.00  0.00     0.005 A 
ATOM     13  C   UNL A   1      37.281  33.340  29.583  1.00  0.00     0.005 A 
BRANCH   9  14
ATOM     14  C   UNL A   1      40.821  34.766  29.498  1.00  0.00     0.001 A 
ATOM     15  C   UNL A   1      42.295  36.050  28.029  1.00  0.00    -0.007 A 
ATOM     16  C   UNL A   1      43.371  35.512  28.729  1.00  0.00     0.119 A 
ATOM     17  C   UNL A   1      41.009  35.658  28.428  1.00  0.00     0.020 A 
ATOM     18  N   UNL A   1      43.254  34.650  29.761  1.00  0.00    -0.263 NA
ATOM     19  C   UNL A   1      41.991  34.300  30.107  1.00  0.00     0.119 A 
BRANCH  15  20
ATOM     20  C   UNL A   1      42.548  36.936  26.888  1.00  0.00     0.002 C 
ATOM     21  C   UNL A   1      42.275  38.246  26.876  1.00  0.00     0.009 C 
ENDBRANCH  15  20
ENDBRANCH   9  14
ENDBRANCH   6   8
ENDBRANCH   3   6
ENDBRANCH   1   2
BRANCH   1  22
ATOM     22  C   UNL A   1      33.446  34.168  28.730  1.00  0.00     0.042 C 
BRANCH  22  23
ATOM     23  C   UNL A   1      34.374  33.168  28.050  1.00  0.00     0.118 C 
BRANCH  23  24
ATOM     24  N   UNL A   1      33.665  31.982  27.587  1.00  0.00    -0.352 N 
ATOM     25  C   UNL A   1      34.085  30.682  27.447  1.00  0.00     0.251 C 
ATOM     26  H   UNL A   1      32.728  32.139  27.333  1.00  0.00     0.163 HD
ATOM     27  O   UNL A   1      33.370  29.888  26.842  1.00  0.00    -0.269 OA
BRANCH  25  28
ATOM     28  C   UNL A   1      35.382  30.221  27.998  1.00  0.00     0.039 A 
ATOM     29  C   UNL A   1      35.428  29.790  29.330  1.00  0.00     0.014 A 
ATOM     30  C   UNL A   1      36.560  30.268  27.251  1.00  0.00     0.014 A 
ATOM     31  C   UNL A   1      36.636  29.362  29.889  1.00  0.00     0.010 A 
ATOM     32  C   UNL A   1      37.748  29.767  27.781  1.00  0.00     0.010 A 
ATOM     33  C   UNL A   1      37.802  29.319  29.109  1.00  0.00    -0.014 A 
BRANCH  33  34
ATOM     34  C   UNL A   1      39.088  28.827  29.668  1.00  0.00     0.031 A 
ATOM     35  C   UNL A   1      39.697  29.493  30.873  1.00  0.00     0.074 A 
ATOM     36  C   UNL A   1      39.742  27.822  29.055  1.00  0.00     0.049 A 
ATOM     37  N   UNL A   1      40.846  29.260  31.456  1.00  0.00    -0.248 NA
ATOM     38  C   UNL A   1      38.924  30.584  31.486  1.00  0.00     0.031 C 
ATOM     39  C   UNL A   1      39.283  27.122  27.854  1.00  0.00     0.029 A 
ATOM     40  N   UNL A   1      40.941  27.224  29.351  1.00  0.00    -0.354 N 
ATOM     41  C   UNL A   1      40.943  30.189  32.484  1.00  0.00     0.074 A 
ATOM     42  C   UNL A   1      39.758  31.017  32.419  1.00  0.00     0.031 C 
ATOM     43  C   UNL A   1      40.177  26.175  27.529  1.00  0.00     0.029 A 
ATOM     44  C   UNL A   1      41.287  26.224  28.475  1.00  0.00     0.049 A 
ATOM     45  H   UNL A   1      41.499  27.486  30.118  1.00  0.00     0.167 HD
ATOM     46  C   UNL A   1      41.921  30.327  33.412  1.00  0.00     0.037 A 
ATOM     47  C   UNL A   1      42.381  25.440  28.433  1.00  0.00     0.037 A 
ATOM     48  C   UNL A   1      43.082  29.481  33.499  1.00  0.00     0.049 A 
ATOM     49  C   UNL A   1      43.447  25.605  29.479  1.00  0.00     0.074 A 
ATOM     50  C   UNL A   1      44.092  29.495  34.445  1.00  0.00     0.029 A 
ATOM     51  N   UNL A   1      43.385  28.465  32.605  1.00  0.00    -0.354 N 
ATOM     52  N   UNL A   1      43.496  26.446  30.482  1.00  0.00    -0.248 NA
ATOM     53  C   UNL A   1      44.608  24.708  29.389  1.00  0.00     0.031 C 
ATOM     54  C   UNL A   1      45.027  28.512  34.101  1.00  0.00     0.029 A 
ATOM     55  C   UNL A   1      44.578  27.860  32.965  1.00  0.00     0.049 A 
ATOM     56  H   UNL A   1      42.836  28.212  31.829  1.00  0.00     0.167 HD
ATOM     57  C   UNL A   1      44.677  26.166  31.157  1.00  0.00     0.074 A 
ATOM     58  C   UNL A   1      45.309  25.067  30.455  1.00  0.00     0.031 C 
ATOM     59  C   UNL A   1      45.191  26.765  32.258  1.00  0.00     0.037 A 
BRANCH  46  60
ATOM     60  C   UNL A   1      41.772  31.439  34.409  1.00  0.00     0.057 A 
ATOM     61  C   UNL A   1      42.314  32.713  34.184  1.00  0.00     0.134 A 
ATOM     62  C   UNL A   1      41.060  31.242  35.598  1.00  0.00     0.134 A 
ATOM     63  F   UNL A   1      43.017  32.965  33.071  1.00  0.00    -0.206 F 
ATOM     64  C   UNL A   1      42.177  33.739  35.120  1.00  0.00     0.040 A 
ATOM     65  C   UNL A   1      40.894  32.269  36.530  1.00  0.00     0.040 A 
ATOM     66  F   UNL A   1      40.509  30.050  35.873  1.00  0.00    -0.206 F 
ATOM     67  C   UNL A   1      41.461  33.520  36.296  1.00  0.00     0.006 A 
ENDBRANCH  46  60
BRANCH  47  68
ATOM     68  C   UNL A   1      42.506  24.404  27.378  1.00  0.00     0.057 A 
ATOM     69  C   UNL A   1      42.056  23.098  27.599  1.00  0.00     0.134 A 
ATOM     70  C   UNL A   1      43.064  24.693  26.129  1.00  0.00     0.134 A 
ATOM     71  F   UNL A   1      41.528  22.757  28.784  1.00  0.00    -0.206 F 
ATOM     72  C   UNL A   1      42.165  22.112  26.618  1.00  0.00     0.040 A 
ATOM     73  C   UNL A   1      43.160  23.723  25.131  1.00  0.00     0.040 A 
ATOM     74  F   UNL A   1      43.512  25.928  25.856  1.00  0.00    -0.206 F 
ATOM     75  C   UNL A   1      42.714  22.425  25.376  1.00  0.00     0.006 A 
ENDBRANCH  47  68
BRANCH  59  76
ATOM     76  C   UNL A   1      46.486  26.225  32.789  1.00  0.00     0.057 A 
ATOM     77  C   UNL A   1      46.524  25.182  33.724  1.00  0.00     0.134 A 
ATOM     78  C   UNL A   1      47.711  26.728  32.329  1.00  0.00     0.134 A 
ATOM     79  F   UNL A   1      45.385  24.667  34.212  1.00  0.00    -0.206 F 
ATOM     80  C   UNL A   1      47.733  24.673  34.198  1.00  0.00     0.040 A 
ATOM     81  C   UNL A   1      48.925  26.211  32.779  1.00  0.00     0.040 A 
ATOM     82  F   UNL A   1      47.743  27.721  31.429  1.00  0.00    -0.206 F 
ATOM     83  C   UNL A   1      48.939  25.183  33.720  1.00  0.00     0.006 A 
ENDBRANCH  59  76
ENDBRANCH  33  34
ENDBRANCH  25  28
ENDBRANCH  23  24
ENDBRANCH  22  23
ENDBRANCH   1  22
TORSDOF 13
ENDMDL
