MODEL 1
REMARK VINA RESULT:     -12.6      0.000      0.000
REMARK SMILES O=C(C[C@H]1C(=O)N[NH+]=C2c3ccc(F)cc3N=CN21)NCCCNC(=O)c1ccc(-c2c3nc(c(-c4c(F)cccc4F)c4ccc([nH]4)c(-c4c(F)cccc4F)c4nc(c(-c5c(F)cccc5F)c5ccc2[nH]5)C=C4)C=C3)cc1
REMARK SMILES IDX 22 1 21 2 20 3 1 4 2 5 3 7 4 8 5 9 19 10 6 11 7 12 9 13
REMARK SMILES IDX 18 14 8 15 10 17 17 18 11 20 16 21 12 22 15 23 13 24 14 25
REMARK SMILES IDX 23 26 24 27 25 28 26 30 27 31 28 32 80 33 29 34 79 35 30 36
REMARK SMILES IDX 31 37 32 38 73 39 33 40 78 41 72 42 74 43 34 44 77 45 71 46
REMARK SMILES IDX 70 47 35 49 61 50 44 51 60 52 45 53 48 54 59 55 75 56 46 57
REMARK SMILES IDX 47 58 58 60 76 61 49 62 36 63 37 64 42 65 38 66 39 67 41 68
REMARK SMILES IDX 43 69 40 70 62 71 63 72 68 73 64 74 65 75 67 76 69 77 66 78
REMARK SMILES IDX 50 79 51 80 56 81 52 82 53 83 55 84 57 85 54 86
REMARK H PARENT 20 6 7 16 8 19 24 29 74 48 48 59
REMARK Flexibility Score: inf
ROOT
ATOM      1  C   UNL A   1      33.276  29.518  25.762  1.00  0.00     0.042 C 
ENDROOT
BRANCH   1   2
ATOM      2  C   UNL A   1      31.799  29.241  25.510  1.00  0.00     0.117 C 
BRANCH   2   3
ATOM      3  N   UNL A   1      31.568  27.849  25.180  1.00  0.00    -0.356 N 
ATOM      4  O   UNL A   1      30.999  27.124  27.295  1.00  0.00    -0.275 OA
ATOM      5  C   UNL A   1      31.183  26.906  26.105  1.00  0.00     0.224 C 
ATOM      6  H   UNL A   1      31.693  27.563  24.247  1.00  0.00     0.163 HD
BRANCH   5   7
ATOM      7  C   UNL A   1      31.081  25.516  25.518  1.00  0.00     0.160 C 
BRANCH   7   8
ATOM      8  C   UNL A   1      31.687  24.463  26.450  1.00  0.00     0.284 C 
ATOM      9  C   UNL A   1      30.607  23.411  26.724  1.00  0.00     0.300 C 
ATOM     10  N   UNL A   1      32.907  23.880  25.848  1.00  0.00    -0.203 N 
ATOM     11  O   UNL A   1      29.527  23.682  27.250  1.00  0.00    -0.267 OA
ATOM     12  N   UNL A   1      30.844  22.128  26.317  1.00  0.00    -0.193 N 
ATOM     13  C   UNL A   1      32.977  22.506  25.666  1.00  0.00     0.309 C 
ATOM     14  C   UNL A   1      33.986  24.688  25.553  1.00  0.00     0.317 C 
ATOM     15  N   UNL A   1      32.015  21.654  25.846  1.00  0.00    -0.169 N 
ATOM     16  H   UNL A   1      30.092  21.494  26.372  1.00  0.00     0.216 HD
ATOM     17  C   UNL A   1      34.312  21.972  25.264  1.00  0.00     0.092 A 
ATOM     18  N   UNL A   1      35.144  24.300  25.126  1.00  0.00    -0.216 NA
ATOM     19  H   UNL A   1      32.134  20.698  25.646  1.00  0.00     0.340 HD
ATOM     20  C   UNL A   1      34.568  20.594  25.239  1.00  0.00     0.022 A 
ATOM     21  C   UNL A   1      35.338  22.906  25.027  1.00  0.00     0.085 A 
ATOM     22  C   UNL A   1      35.864  20.143  25.001  1.00  0.00     0.040 A 
ATOM     23  C   UNL A   1      36.623  22.435  24.758  1.00  0.00     0.068 A 
ATOM     24  C   UNL A   1      36.877  21.066  24.764  1.00  0.00     0.125 A 
ATOM     25  F   UNL A   1      38.128  20.630  24.568  1.00  0.00    -0.207 F 
ENDBRANCH   7   8
ENDBRANCH   5   7
ENDBRANCH   2   3
ENDBRANCH   1   2
BRANCH   1  26
ATOM     26  C   UNL A   1      33.743  29.270  27.194  1.00  0.00     0.118 C 
BRANCH  26  27
ATOM     27  N   UNL A   1      33.843  30.478  28.002  1.00  0.00    -0.352 N 
ATOM     28  C   UNL A   1      34.904  30.953  28.737  1.00  0.00     0.251 C 
ATOM     29  H   UNL A   1      33.032  31.036  28.025  1.00  0.00     0.163 HD
ATOM     30  O   UNL A   1      34.772  31.954  29.435  1.00  0.00    -0.269 OA
BRANCH  28  31
ATOM     31  C   UNL A   1      36.192  30.227  28.728  1.00  0.00     0.039 A 
ATOM     32  C   UNL A   1      36.646  29.552  29.863  1.00  0.00     0.014 A 
ATOM     33  C   UNL A   1      36.978  30.267  27.572  1.00  0.00     0.014 A 
ATOM     34  C   UNL A   1      37.954  29.077  29.903  1.00  0.00     0.010 A 
ATOM     35  C   UNL A   1      38.264  29.721  27.590  1.00  0.00     0.010 A 
ATOM     36  C   UNL A   1      38.784  29.177  28.775  1.00  0.00    -0.014 A 
BRANCH  36  37
ATOM     37  C   UNL A   1      40.209  28.761  28.861  1.00  0.00     0.031 A 
ATOM     38  C   UNL A   1      41.246  29.708  29.408  1.00  0.00     0.074 A 
ATOM     39  C   UNL A   1      40.568  27.518  28.490  1.00  0.00     0.049 A 
ATOM     40  N   UNL A   1      42.539  29.541  29.529  1.00  0.00    -0.248 NA
ATOM     41  C   UNL A   1      40.767  31.017  29.878  1.00  0.00     0.031 C 
ATOM     42  C   UNL A   1      39.659  26.495  27.971  1.00  0.00     0.029 A 
ATOM     43  N   UNL A   1      41.793  26.900  28.501  1.00  0.00    -0.354 N 
ATOM     44  C   UNL A   1      43.029  30.723  30.070  1.00  0.00     0.074 A 
ATOM     45  C   UNL A   1      41.898  31.614  30.225  1.00  0.00     0.031 C 
ATOM     46  C   UNL A   1      40.351  25.368  27.743  1.00  0.00     0.029 A 
ATOM     47  C   UNL A   1      41.760  25.608  28.038  1.00  0.00     0.049 A 
ATOM     48  H   UNL A   1      42.616  27.342  28.812  1.00  0.00     0.167 HD
ATOM     49  C   UNL A   1      44.300  31.036  30.419  1.00  0.00     0.037 A 
ATOM     50  C   UNL A   1      42.757  24.725  27.847  1.00  0.00     0.037 A 
ATOM     51  C   UNL A   1      45.424  30.148  30.279  1.00  0.00     0.049 A 
ATOM     52  C   UNL A   1      44.168  25.128  28.161  1.00  0.00     0.074 A 
ATOM     53  C   UNL A   1      46.746  30.362  30.631  1.00  0.00     0.029 A 
ATOM     54  N   UNL A   1      45.358  28.873  29.738  1.00  0.00    -0.354 N 
ATOM     55  N   UNL A   1      44.614  26.245  28.682  1.00  0.00    -0.248 NA
ATOM     56  C   UNL A   1      45.219  24.149  27.845  1.00  0.00     0.031 C 
ATOM     57  C   UNL A   1      47.488  29.235  30.260  1.00  0.00     0.029 A 
ATOM     58  C   UNL A   1      46.621  28.301  29.717  1.00  0.00     0.049 A 
ATOM     59  H   UNL A   1      44.536  28.437  29.415  1.00  0.00     0.167 HD
ATOM     60  C   UNL A   1      45.994  26.102  28.763  1.00  0.00     0.074 A 
ATOM     61  C   UNL A   1      46.307  24.778  28.265  1.00  0.00     0.031 C 
ATOM     62  C   UNL A   1      46.918  26.988  29.204  1.00  0.00     0.037 A 
BRANCH  49  63
ATOM     63  C   UNL A   1      44.547  32.412  30.969  1.00  0.00     0.057 A 
ATOM     64  C   UNL A   1      44.870  33.475  30.115  1.00  0.00     0.134 A 
ATOM     65  C   UNL A   1      44.495  32.682  32.343  1.00  0.00     0.134 A 
ATOM     66  F   UNL A   1      44.943  33.285  28.789  1.00  0.00    -0.206 F 
ATOM     67  C   UNL A   1      45.130  34.755  30.608  1.00  0.00     0.040 A 
ATOM     68  C   UNL A   1      44.730  33.963  32.845  1.00  0.00     0.040 A 
ATOM     69  F   UNL A   1      44.180  31.711  33.214  1.00  0.00    -0.206 F 
ATOM     70  C   UNL A   1      45.053  35.004  31.976  1.00  0.00     0.006 A 
ENDBRANCH  49  63
BRANCH  50  71
ATOM     71  C   UNL A   1      42.462  23.380  27.294  1.00  0.00     0.057 A 
ATOM     72  C   UNL A   1      42.550  23.119  25.921  1.00  0.00     0.134 A 
ATOM     73  C   UNL A   1      42.107  22.316  28.132  1.00  0.00     0.134 A 
ATOM     74  F   UNL A   1      42.885  24.098  25.067  1.00  0.00    -0.206 F 
ATOM     75  C   UNL A   1      42.287  21.853  25.399  1.00  0.00     0.040 A 
ATOM     76  C   UNL A   1      41.868  21.038  27.626  1.00  0.00     0.040 A 
ATOM     77  F   UNL A   1      42.029  22.499  29.458  1.00  0.00    -0.206 F 
ATOM     78  C   UNL A   1      41.953  20.805  26.255  1.00  0.00     0.006 A 
ENDBRANCH  50  71
BRANCH  62  79
ATOM     79  C   UNL A   1      48.351  26.546  29.169  1.00  0.00     0.057 A 
ATOM     80  C   UNL A   1      49.153  26.798  28.049  1.00  0.00     0.134 A 
ATOM     81  C   UNL A   1      48.936  25.866  30.246  1.00  0.00     0.134 A 
ATOM     82  F   UNL A   1      48.654  27.441  26.983  1.00  0.00    -0.206 F 
ATOM     83  C   UNL A   1      50.486  26.387  28.001  1.00  0.00     0.040 A 
ATOM     84  C   UNL A   1      50.275  25.474  30.219  1.00  0.00     0.040 A 
ATOM     85  F   UNL A   1      48.226  25.612  31.355  1.00  0.00    -0.206 F 
ATOM     86  C   UNL A   1      51.053  25.730  29.091  1.00  0.00     0.006 A 
ENDBRANCH  62  79
ENDBRANCH  36  37
ENDBRANCH  28  31
ENDBRANCH  26  27
ENDBRANCH   1  26
TORSDOF 11
ENDMDL
MODEL 2
REMARK VINA RESULT:     -12.5      0.102      1.310
REMARK SMILES O=C(C[C@H]1C(=O)N[NH+]=C2c3ccc(F)cc3N=CN21)NCCCNC(=O)c1ccc(-c2c3nc(c(-c4c(F)cccc4F)c4ccc([nH]4)c(-c4c(F)cccc4F)c4nc(c(-c5c(F)cccc5F)c5ccc2[nH]5)C=C4)C=C3)cc1
REMARK SMILES IDX 22 1 21 2 20 3 1 4 2 5 3 7 4 8 5 9 19 10 6 11 7 12 9 13
REMARK SMILES IDX 18 14 8 15 10 17 17 18 11 20 16 21 12 22 15 23 13 24 14 25
REMARK SMILES IDX 23 26 24 27 25 28 26 30 27 31 28 32 80 33 29 34 79 35 30 36
REMARK SMILES IDX 31 37 32 38 73 39 33 40 78 41 72 42 74 43 34 44 77 45 71 46
REMARK SMILES IDX 70 47 35 49 61 50 44 51 60 52 45 53 48 54 59 55 75 56 46 57
REMARK SMILES IDX 47 58 58 60 76 61 49 62 36 63 37 64 42 65 38 66 39 67 41 68
REMARK SMILES IDX 43 69 40 70 62 71 63 72 68 73 64 74 65 75 67 76 69 77 66 78
REMARK SMILES IDX 50 79 51 80 56 81 52 82 53 83 55 84 57 85 54 86
REMARK H PARENT 20 6 7 16 8 19 24 29 74 48 48 59
REMARK Flexibility Score: inf
ROOT
ATOM      1  C   UNL A   1      33.266  29.602  25.713  1.00  0.00     0.042 C 
ENDROOT
BRANCH   1   2
ATOM      2  C   UNL A   1      31.777  29.319  25.556  1.00  0.00     0.117 C 
BRANCH   2   3
ATOM      3  N   UNL A   1      31.531  27.929  25.227  1.00  0.00    -0.356 N 
ATOM      4  O   UNL A   1      31.034  27.194  27.356  1.00  0.00    -0.275 OA
ATOM      5  C   UNL A   1      31.176  26.982  26.159  1.00  0.00     0.224 C 
ATOM      6  H   UNL A   1      31.623  27.649  24.288  1.00  0.00     0.163 HD
BRANCH   5   7
ATOM      7  C   UNL A   1      31.051  25.595  25.568  1.00  0.00     0.160 C 
BRANCH   7   8
ATOM      8  C   UNL A   1      31.658  24.533  26.486  1.00  0.00     0.284 C 
ATOM      9  C   UNL A   1      30.587  23.464  26.731  1.00  0.00     0.300 C 
ATOM     10  N   UNL A   1      32.890  23.973  25.886  1.00  0.00    -0.203 N 
ATOM     11  O   UNL A   1      29.499  23.715  27.251  1.00  0.00    -0.267 OA
ATOM     12  N   UNL A   1      30.841  22.192  26.303  1.00  0.00    -0.193 N 
ATOM     13  C   UNL A   1      32.976  22.604  25.680  1.00  0.00     0.309 C 
ATOM     14  C   UNL A   1      33.964  24.797  25.617  1.00  0.00     0.317 C 
ATOM     15  N   UNL A   1      32.021  21.738  25.835  1.00  0.00    -0.169 N 
ATOM     16  H   UNL A   1      30.095  21.549  26.340  1.00  0.00     0.216 HD
ATOM     17  C   UNL A   1      34.321  22.090  25.282  1.00  0.00     0.092 A 
ATOM     18  N   UNL A   1      35.130  24.428  25.194  1.00  0.00    -0.216 NA
ATOM     19  H   UNL A   1      32.153  20.787  25.619  1.00  0.00     0.340 HD
ATOM     20  C   UNL A   1      34.591  20.716  25.234  1.00  0.00     0.022 A 
ATOM     21  C   UNL A   1      35.339  23.039  25.072  1.00  0.00     0.085 A 
ATOM     22  C   UNL A   1      35.894  20.282  25.001  1.00  0.00     0.040 A 
ATOM     23  C   UNL A   1      36.631  22.586  24.807  1.00  0.00     0.068 A 
ATOM     24  C   UNL A   1      36.900  21.220  24.791  1.00  0.00     0.125 A 
ATOM     25  F   UNL A   1      38.157  20.800  24.599  1.00  0.00    -0.207 F 
ENDBRANCH   7   8
ENDBRANCH   5   7
ENDBRANCH   2   3
ENDBRANCH   1   2
BRANCH   1  26
ATOM     26  C   UNL A   1      33.836  29.307  27.098  1.00  0.00     0.118 C 
BRANCH  26  27
ATOM     27  N   UNL A   1      33.901  30.471  27.971  1.00  0.00    -0.352 N 
ATOM     28  C   UNL A   1      34.935  30.914  28.763  1.00  0.00     0.251 C 
ATOM     29  H   UNL A   1      33.084  31.020  28.001  1.00  0.00     0.163 HD
ATOM     30  O   UNL A   1      34.772  31.875  29.509  1.00  0.00    -0.269 OA
BRANCH  28  31
ATOM     31  C   UNL A   1      36.230  30.201  28.753  1.00  0.00     0.039 A 
ATOM     32  C   UNL A   1      36.695  29.537  29.890  1.00  0.00     0.014 A 
ATOM     33  C   UNL A   1      37.011  30.241  27.594  1.00  0.00     0.014 A 
ATOM     34  C   UNL A   1      38.007  29.075  29.928  1.00  0.00     0.010 A 
ATOM     35  C   UNL A   1      38.302  29.707  27.610  1.00  0.00     0.010 A 
ATOM     36  C   UNL A   1      38.832  29.176  28.796  1.00  0.00    -0.014 A 
BRANCH  36  37
ATOM     37  C   UNL A   1      40.261  28.774  28.879  1.00  0.00     0.031 A 
ATOM     38  C   UNL A   1      41.289  29.731  29.425  1.00  0.00     0.074 A 
ATOM     39  C   UNL A   1      40.632  27.535  28.506  1.00  0.00     0.049 A 
ATOM     40  N   UNL A   1      42.585  29.577  29.543  1.00  0.00    -0.248 NA
ATOM     41  C   UNL A   1      40.798  31.036  29.897  1.00  0.00     0.031 C 
ATOM     42  C   UNL A   1      39.732  26.504  27.988  1.00  0.00     0.029 A 
ATOM     43  N   UNL A   1      41.863  26.930  28.515  1.00  0.00    -0.354 N 
ATOM     44  C   UNL A   1      43.063  30.765  30.084  1.00  0.00     0.074 A 
ATOM     45  C   UNL A   1      41.924  31.643  30.242  1.00  0.00     0.031 C 
ATOM     46  C   UNL A   1      40.436  25.384  27.758  1.00  0.00     0.029 A 
ATOM     47  C   UNL A   1      41.842  25.638  28.051  1.00  0.00     0.049 A 
ATOM     48  H   UNL A   1      42.682  27.380  28.824  1.00  0.00     0.167 HD
ATOM     49  C   UNL A   1      44.332  31.090  30.430  1.00  0.00     0.037 A 
ATOM     50  C   UNL A   1      42.848  24.765  27.857  1.00  0.00     0.037 A 
ATOM     51  C   UNL A   1      45.465  30.213  30.288  1.00  0.00     0.049 A 
ATOM     52  C   UNL A   1      44.256  25.182  28.169  1.00  0.00     0.074 A 
ATOM     53  C   UNL A   1      46.785  30.440  30.637  1.00  0.00     0.029 A 
ATOM     54  N   UNL A   1      45.411  28.938  29.746  1.00  0.00    -0.354 N 
ATOM     55  N   UNL A   1      44.691  26.304  28.690  1.00  0.00    -0.248 NA
ATOM     56  C   UNL A   1      45.315  24.214  27.850  1.00  0.00     0.031 C 
ATOM     57  C   UNL A   1      47.537  29.321  30.264  1.00  0.00     0.029 A 
ATOM     58  C   UNL A   1      46.679  28.378  29.722  1.00  0.00     0.049 A 
ATOM     59  H   UNL A   1      44.593  28.494  29.425  1.00  0.00     0.167 HD
ATOM     60  C   UNL A   1      46.072  26.174  28.768  1.00  0.00     0.074 A 
ATOM     61  C   UNL A   1      46.398  24.853  28.269  1.00  0.00     0.031 C 
ATOM     62  C   UNL A   1      46.989  27.070  29.208  1.00  0.00     0.037 A 
BRANCH  49  63
ATOM     63  C   UNL A   1      44.567  32.468  30.982  1.00  0.00     0.057 A 
ATOM     64  C   UNL A   1      44.465  32.712  32.357  1.00  0.00     0.134 A 
ATOM     65  C   UNL A   1      44.864  33.557  30.153  1.00  0.00     0.134 A 
ATOM     66  F   UNL A   1      44.176  31.715  33.207  1.00  0.00    -0.206 F 
ATOM     67  C   UNL A   1      44.652  33.990  32.888  1.00  0.00     0.040 A 
ATOM     68  C   UNL A   1      45.077  34.835  30.675  1.00  0.00     0.040 A 
ATOM     69  F   UNL A   1      44.989  33.389  28.828  1.00  0.00    -0.206 F 
ATOM     70  C   UNL A   1      44.966  35.055  32.046  1.00  0.00     0.006 A 
ENDBRANCH  49  63
BRANCH  50  71
ATOM     71  C   UNL A   1      42.565  23.417  27.304  1.00  0.00     0.057 A 
ATOM     72  C   UNL A   1      42.236  22.341  28.138  1.00  0.00     0.134 A 
ATOM     73  C   UNL A   1      42.596  23.180  25.926  1.00  0.00     0.134 A 
ATOM     74  F   UNL A   1      42.192  22.504  29.469  1.00  0.00    -0.206 F 
ATOM     75  C   UNL A   1      41.957  21.076  27.622  1.00  0.00     0.040 A 
ATOM     76  C   UNL A   1      42.291  21.927  25.394  1.00  0.00     0.040 A 
ATOM     77  F   UNL A   1      42.881  24.178  25.076  1.00  0.00    -0.206 F 
ATOM     78  C   UNL A   1      41.976  20.869  26.244  1.00  0.00     0.006 A 
ENDBRANCH  50  71
BRANCH  62  79
ATOM     79  C   UNL A   1      48.426  26.642  29.170  1.00  0.00     0.057 A 
ATOM     80  C   UNL A   1      49.234  26.937  28.065  1.00  0.00     0.134 A 
ATOM     81  C   UNL A   1      49.009  25.933  30.229  1.00  0.00     0.134 A 
ATOM     82  F   UNL A   1      48.736  27.608  27.016  1.00  0.00    -0.206 F 
ATOM     83  C   UNL A   1      50.571  26.540  28.014  1.00  0.00     0.040 A 
ATOM     84  C   UNL A   1      50.352  25.555  30.200  1.00  0.00     0.040 A 
ATOM     85  F   UNL A   1      48.293  25.637  31.324  1.00  0.00    -0.206 F 
ATOM     86  C   UNL A   1      51.136  25.854  29.087  1.00  0.00     0.006 A 
ENDBRANCH  62  79
ENDBRANCH  36  37
ENDBRANCH  28  31
ENDBRANCH  26  27
ENDBRANCH   1  26
TORSDOF 11
ENDMDL
MODEL 3
REMARK VINA RESULT:     -12.5      2.546      7.426
REMARK SMILES O=C(C[C@H]1C(=O)N[NH+]=C2c3ccc(F)cc3N=CN21)NCCCNC(=O)c1ccc(-c2c3nc(c(-c4c(F)cccc4F)c4ccc([nH]4)c(-c4c(F)cccc4F)c4nc(c(-c5c(F)cccc5F)c5ccc2[nH]5)C=C4)C=C3)cc1
REMARK SMILES IDX 22 1 21 2 20 3 1 4 2 5 3 7 4 8 5 9 19 10 6 11 7 12 9 13
REMARK SMILES IDX 18 14 8 15 10 17 17 18 11 20 16 21 12 22 15 23 13 24 14 25
REMARK SMILES IDX 23 26 24 27 25 28 26 30 27 31 28 32 80 33 29 34 79 35 30 36
REMARK SMILES IDX 31 37 32 38 73 39 33 40 78 41 72 42 74 43 34 44 77 45 71 46
REMARK SMILES IDX 70 47 35 49 61 50 44 51 60 52 45 53 48 54 59 55 75 56 46 57
REMARK SMILES IDX 47 58 58 60 76 61 49 62 36 63 37 64 42 65 38 66 39 67 41 68
REMARK SMILES IDX 43 69 40 70 62 71 63 72 68 73 64 74 65 75 67 76 69 77 66 78
REMARK SMILES IDX 50 79 51 80 56 81 52 82 53 83 55 84 57 85 54 86
REMARK H PARENT 20 6 7 16 8 19 24 29 74 48 48 59
REMARK Flexibility Score: inf
ROOT
ATOM      1  C   UNL A   1      37.335  21.131  24.679  1.00  0.00     0.042 C 
ENDROOT
BRANCH   1   2
ATOM      2  C   UNL A   1      36.188  20.190  25.025  1.00  0.00     0.117 C 
BRANCH   2   3
ATOM      3  N   UNL A   1      35.159  20.863  25.791  1.00  0.00    -0.356 N 
ATOM      4  O   UNL A   1      33.615  21.093  24.093  1.00  0.00    -0.275 OA
ATOM      5  C   UNL A   1      33.954  21.257  25.258  1.00  0.00     0.224 C 
ATOM      6  H   UNL A   1      35.331  21.050  26.742  1.00  0.00     0.163 HD
BRANCH   5   7
ATOM      7  C   UNL A   1      33.089  22.004  26.248  1.00  0.00     0.160 C 
BRANCH   7   8
ATOM      8  C   UNL A   1      32.199  23.037  25.555  1.00  0.00     0.284 C 
ATOM      9  C   UNL A   1      30.758  22.793  26.017  1.00  0.00     0.300 C 
ATOM     10  N   UNL A   1      32.666  24.409  25.858  1.00  0.00    -0.203 N 
ATOM     11  O   UNL A   1      30.169  21.727  25.833  1.00  0.00    -0.267 OA
ATOM     12  N   UNL A   1      30.128  23.789  26.706  1.00  0.00    -0.193 N 
ATOM     13  C   UNL A   1      31.781  25.309  26.434  1.00  0.00     0.309 C 
ATOM     14  C   UNL A   1      33.937  24.803  25.493  1.00  0.00     0.317 C 
ATOM     15  N   UNL A   1      30.590  25.045  26.876  1.00  0.00    -0.169 N 
ATOM     16  H   UNL A   1      29.259  23.571  27.116  1.00  0.00     0.216 HD
ATOM     17  C   UNL A   1      32.250  26.725  26.507  1.00  0.00     0.092 A 
ATOM     18  N   UNL A   1      34.435  25.992  25.600  1.00  0.00    -0.216 NA
ATOM     19  H   UNL A   1      30.043  25.734  27.318  1.00  0.00     0.340 HD
ATOM     20  C   UNL A   1      31.385  27.761  26.882  1.00  0.00     0.022 A 
ATOM     21  C   UNL A   1      33.560  26.995  26.067  1.00  0.00     0.085 A 
ATOM     22  C   UNL A   1      31.819  29.082  26.795  1.00  0.00     0.040 A 
ATOM     23  C   UNL A   1      33.989  28.322  26.018  1.00  0.00     0.068 A 
ATOM     24  C   UNL A   1      33.115  29.348  26.364  1.00  0.00     0.125 A 
ATOM     25  F   UNL A   1      33.518  30.620  26.251  1.00  0.00    -0.207 F 
ENDBRANCH   7   8
ENDBRANCH   5   7
ENDBRANCH   2   3
ENDBRANCH   1   2
BRANCH   1  26
ATOM     26  C   UNL A   1      38.466  21.174  25.704  1.00  0.00     0.118 C 
BRANCH  26  27
ATOM     27  N   UNL A   1      39.363  20.028  25.642  1.00  0.00    -0.352 N 
ATOM     28  C   UNL A   1      40.691  19.936  25.991  1.00  0.00     0.251 C 
ATOM     29  H   UNL A   1      38.961  19.197  25.299  1.00  0.00     0.163 HD
ATOM     30  O   UNL A   1      41.314  18.900  25.781  1.00  0.00    -0.269 OA
BRANCH  28  31
ATOM     31  C   UNL A   1      41.384  21.106  26.573  1.00  0.00     0.039 A 
ATOM     32  C   UNL A   1      41.417  21.309  27.954  1.00  0.00     0.014 A 
ATOM     33  C   UNL A   1      41.968  22.038  25.711  1.00  0.00     0.014 A 
ATOM     34  C   UNL A   1      41.869  22.525  28.459  1.00  0.00     0.010 A 
ATOM     35  C   UNL A   1      42.492  23.226  26.228  1.00  0.00     0.010 A 
ATOM     36  C   UNL A   1      42.389  23.505  27.599  1.00  0.00    -0.014 A 
BRANCH  36  37
ATOM     37  C   UNL A   1      42.773  24.838  28.136  1.00  0.00     0.031 A 
ATOM     38  C   UNL A   1      41.726  25.898  28.359  1.00  0.00     0.074 A 
ATOM     39  C   UNL A   1      44.055  25.083  28.466  1.00  0.00     0.049 A 
ATOM     40  N   UNL A   1      41.870  27.129  28.784  1.00  0.00    -0.248 NA
ATOM     41  C   UNL A   1      40.333  25.528  28.060  1.00  0.00     0.031 C 
ATOM     42  C   UNL A   1      45.161  24.135  28.327  1.00  0.00     0.029 A 
ATOM     43  N   UNL A   1      44.642  26.204  28.996  1.00  0.00    -0.354 N 
ATOM     44  C   UNL A   1      40.595  27.683  28.788  1.00  0.00     0.074 A 
ATOM     45  C   UNL A   1      39.693  26.666  28.293  1.00  0.00     0.031 C 
ATOM     46  C   UNL A   1      46.286  24.702  28.789  1.00  0.00     0.029 A 
ATOM     47  C   UNL A   1      45.994  26.073  29.196  1.00  0.00     0.049 A 
ATOM     48  H   UNL A   1      44.141  27.024  29.211  1.00  0.00     0.167 HD
ATOM     49  C   UNL A   1      40.208  28.920  29.181  1.00  0.00     0.037 A 
ATOM     50  C   UNL A   1      46.902  26.965  29.633  1.00  0.00     0.037 A 
ATOM     51  C   UNL A   1      41.101  29.929  29.688  1.00  0.00     0.049 A 
ATOM     52  C   UNL A   1      46.459  28.357  29.980  1.00  0.00     0.074 A 
ATOM     53  C   UNL A   1      40.801  31.203  30.140  1.00  0.00     0.029 A 
ATOM     54  N   UNL A   1      42.474  29.779  29.807  1.00  0.00    -0.354 N 
ATOM     55  N   UNL A   1      45.249  28.863  29.989  1.00  0.00    -0.248 NA
ATOM     56  C   UNL A   1      47.513  29.307  30.364  1.00  0.00     0.031 C 
ATOM     57  C   UNL A   1      41.997  31.840  30.488  1.00  0.00     0.029 A 
ATOM     58  C   UNL A   1      43.040  30.948  30.295  1.00  0.00     0.049 A 
ATOM     59  H   UNL A   1      42.976  28.962  29.579  1.00  0.00     0.167 HD
ATOM     60  C   UNL A   1      45.395  30.186  30.385  1.00  0.00     0.074 A 
ATOM     61  C   UNL A   1      46.807  30.395  30.636  1.00  0.00     0.031 C 
ATOM     62  C   UNL A   1      44.447  31.144  30.524  1.00  0.00     0.037 A 
BRANCH  49  63
ATOM     63  C   UNL A   1      38.750  29.261  29.057  1.00  0.00     0.057 A 
ATOM     64  C   UNL A   1      37.904  29.188  30.172  1.00  0.00     0.134 A 
ATOM     65  C   UNL A   1      38.176  29.632  27.835  1.00  0.00     0.134 A 
ATOM     66  F   UNL A   1      38.387  28.833  31.372  1.00  0.00    -0.206 F 
ATOM     67  C   UNL A   1      36.541  29.474  30.074  1.00  0.00     0.040 A 
ATOM     68  C   UNL A   1      36.819  29.943  27.730  1.00  0.00     0.040 A 
ATOM     69  F   UNL A   1      38.934  29.733  26.732  1.00  0.00    -0.206 F 
ATOM     70  C   UNL A   1      35.996  29.859  28.851  1.00  0.00     0.006 A 
ENDBRANCH  49  63
BRANCH  50  71
ATOM     71  C   UNL A   1      48.332  26.582  29.732  1.00  0.00     0.057 A 
ATOM     72  C   UNL A   1      49.233  26.853  28.695  1.00  0.00     0.134 A 
ATOM     73  C   UNL A   1      48.835  25.956  30.877  1.00  0.00     0.134 A 
ATOM     74  F   UNL A   1      48.812  27.451  27.570  1.00  0.00    -0.206 F 
ATOM     75  C   UNL A   1      50.581  26.508  28.789  1.00  0.00     0.040 A 
ATOM     76  C   UNL A   1      50.187  25.630  30.997  1.00  0.00     0.040 A 
ATOM     77  F   UNL A   1      48.025  25.692  31.913  1.00  0.00    -0.206 F 
ATOM     78  C   UNL A   1      51.063  25.901  29.948  1.00  0.00     0.006 A 
ENDBRANCH  50  71
BRANCH  62  79
ATOM     79  C   UNL A   1      44.912  32.498  30.970  1.00  0.00     0.057 A 
ATOM     80  C   UNL A   1      45.271  33.478  30.036  1.00  0.00     0.134 A 
ATOM     81  C   UNL A   1      45.010  32.831  32.328  1.00  0.00     0.134 A 
ATOM     82  F   UNL A   1      45.205  33.224  28.721  1.00  0.00    -0.206 F 
ATOM     83  C   UNL A   1      45.712  34.741  30.438  1.00  0.00     0.040 A 
ATOM     84  C   UNL A   1      45.423  34.098  32.740  1.00  0.00     0.040 A 
ATOM     85  F   UNL A   1      44.663  31.942  33.271  1.00  0.00    -0.206 F 
ATOM     86  C   UNL A   1      45.781  35.056  31.793  1.00  0.00     0.006 A 
ENDBRANCH  62  79
ENDBRANCH  36  37
ENDBRANCH  28  31
ENDBRANCH  26  27
ENDBRANCH   1  26
TORSDOF 11
ENDMDL
