MODEL 1
REMARK VINA RESULT:     -11.3      0.000      0.000
REMARK SMILES CCC(CC)NC(=O)NC[C@H]1CC[C@H](C(=O)NCCCNC(=O)c2ccc(-c3c4nc(c(-c5c(F)cccc5F)c5ccc([nH]5)c(-c5c(F)cccc5F)c5nc(c(-c6c(F)cccc6F)c6ccc3[nH]6)C=C5)C=C4)cc2)O1
REMARK SMILES IDX 18 1 17 2 15 3 16 4 14 6 11 7 12 8 78 9 13 10 10 11 9 12
REMARK SMILES IDX 6 13 7 14 8 16 3 18 2 19 1 20 4 21 5 22 19 23 20 24 21 25
REMARK SMILES IDX 22 26 23 28 24 29 25 30 77 31 26 32 76 33 27 34 28 35 29 36
REMARK SMILES IDX 70 37 30 38 75 39 69 40 71 41 31 42 74 43 68 44 67 45 32 47
REMARK SMILES IDX 58 48 41 49 57 50 42 51 45 52 56 53 72 54 43 55 44 56 55 58
REMARK SMILES IDX 73 59 46 60 33 61 34 62 39 63 35 64 36 65 38 66 40 67 37 68
REMARK SMILES IDX 59 69 60 70 65 71 61 72 62 73 64 74 66 75 63 76 47 77 48 78
REMARK SMILES IDX 53 79 49 80 50 81 52 82 54 83 51 84
REMARK H PARENT 17 5 6 15 9 17 21 27 71 46 45 57
REMARK Flexibility Score: inf
ROOT
ATOM      1  C   UNL A   1      31.610  30.814  26.041  1.00  0.00     0.117 C 
ENDROOT
BRANCH   1   2
ATOM      2  N   UNL A   1      32.895  30.286  26.446  1.00  0.00    -0.354 N 
ATOM      3  C   UNL A   1      33.462  29.070  26.210  1.00  0.00     0.249 C 
ATOM      4  O   UNL A   1      34.591  28.878  26.675  1.00  0.00    -0.272 OA
ATOM      5  H   UNL A   1      33.447  30.904  26.977  1.00  0.00     0.163 HD
BRANCH   3   6
ATOM      6  C   UNL A   1      32.706  27.933  25.484  1.00  0.00     0.207 C 
ATOM      7  C   UNL A   1      32.381  25.653  25.939  1.00  0.00     0.138 C 
ATOM      8  C   UNL A   1      33.707  25.790  25.218  1.00  0.00     0.037 C 
ATOM      9  O   UNL A   1      31.991  26.996  26.297  1.00  0.00    -0.363 OA
ATOM     10  C   UNL A   1      33.639  27.147  24.575  1.00  0.00     0.045 C 
BRANCH   7  11
ATOM     11  C   UNL A   1      31.237  24.939  25.196  1.00  0.00     0.149 C 
BRANCH  11  12
ATOM     12  N   UNL A   1      30.308  24.226  26.058  1.00  0.00    -0.336 N 
ATOM     13  N   UNL A   1      31.303  22.195  26.754  1.00  0.00    -0.335 N 
ATOM     14  C   UNL A   1      30.346  23.128  26.817  1.00  0.00     0.315 C 
ATOM     15  H   UNL A   1      31.252  21.539  27.486  1.00  0.00     0.165 HD
ATOM     16  O   UNL A   1      29.431  22.957  27.625  1.00  0.00    -0.249 OA
ATOM     17  H   UNL A   1      29.427  24.664  26.090  1.00  0.00     0.165 HD
BRANCH  13  18
ATOM     18  C   UNL A   1      32.402  21.941  25.837  1.00  0.00     0.083 C 
BRANCH  18  19
ATOM     19  C   UNL A   1      33.746  21.972  26.570  1.00  0.00     0.021 C 
ATOM     20  C   UNL A   1      33.584  22.347  28.039  1.00  0.00     0.006 C 
ENDBRANCH  18  19
BRANCH  18  21
ATOM     21  C   UNL A   1      32.140  20.681  24.989  1.00  0.00     0.021 C 
ATOM     22  C   UNL A   1      33.364  20.070  24.326  1.00  0.00     0.006 C 
ENDBRANCH  18  21
ENDBRANCH  13  18
ENDBRANCH  11  12
ENDBRANCH   7  11
ENDBRANCH   3   6
ENDBRANCH   1   2
BRANCH   1  23
ATOM     23  C   UNL A   1      31.378  32.222  26.582  1.00  0.00     0.042 C 
BRANCH  23  24
ATOM     24  C   UNL A   1      32.589  32.796  27.300  1.00  0.00     0.118 C 
BRANCH  24  25
ATOM     25  N   UNL A   1      32.411  34.208  27.611  1.00  0.00    -0.352 N 
ATOM     26  C   UNL A   1      32.986  34.983  28.586  1.00  0.00     0.251 C 
ATOM     27  H   UNL A   1      31.775  34.682  27.028  1.00  0.00     0.163 HD
ATOM     28  O   UNL A   1      32.497  36.075  28.859  1.00  0.00    -0.269 OA
BRANCH  26  29
ATOM     29  C   UNL A   1      34.181  34.507  29.313  1.00  0.00     0.039 A 
ATOM     30  C   UNL A   1      34.023  33.974  30.595  1.00  0.00     0.014 A 
ATOM     31  C   UNL A   1      35.454  34.617  28.750  1.00  0.00     0.014 A 
ATOM     32  C   UNL A   1      35.135  33.483  31.281  1.00  0.00     0.010 A 
ATOM     33  C   UNL A   1      36.548  34.056  29.398  1.00  0.00     0.010 A 
ATOM     34  C   UNL A   1      36.399  33.481  30.668  1.00  0.00    -0.014 A 
BRANCH  34  35
ATOM     35  C   UNL A   1      37.574  32.856  31.321  1.00  0.00     0.031 A 
ATOM     36  C   UNL A   1      38.216  31.640  30.716  1.00  0.00     0.074 A 
ATOM     37  C   UNL A   1      37.998  33.335  32.505  1.00  0.00     0.049 A 
ATOM     38  N   UNL A   1      39.176  30.890  31.194  1.00  0.00    -0.248 NA
ATOM     39  C   UNL A   1      37.694  31.193  29.416  1.00  0.00     0.031 C 
ATOM     40  C   UNL A   1      37.423  34.483  33.210  1.00  0.00     0.029 A 
ATOM     41  N   UNL A   1      39.000  32.904  33.337  1.00  0.00    -0.354 N 
ATOM     42  C   UNL A   1      39.364  29.879  30.262  1.00  0.00     0.074 A 
ATOM     43  C   UNL A   1      38.386  30.080  29.215  1.00  0.00     0.031 C 
ATOM     44  C   UNL A   1      38.088  34.674  34.359  1.00  0.00     0.029 A 
ATOM     45  C   UNL A   1      39.105  33.636  34.495  1.00  0.00     0.049 A 
ATOM     46  H   UNL A   1      39.588  32.143  33.126  1.00  0.00     0.167 HD
ATOM     47  C   UNL A   1      40.281  28.883  30.272  1.00  0.00     0.037 A 
ATOM     48  C   UNL A   1      39.915  33.475  35.558  1.00  0.00     0.037 A 
ATOM     49  C   UNL A   1      41.260  28.698  31.312  1.00  0.00     0.049 A 
ATOM     50  C   UNL A   1      40.902  32.342  35.558  1.00  0.00     0.074 A 
ATOM     51  C   UNL A   1      42.276  27.763  31.383  1.00  0.00     0.029 A 
ATOM     52  N   UNL A   1      41.337  29.463  32.467  1.00  0.00    -0.354 N 
ATOM     53  N   UNL A   1      41.118  31.435  34.637  1.00  0.00    -0.248 NA
ATOM     54  C   UNL A   1      41.756  32.209  36.746  1.00  0.00     0.031 C 
ATOM     55  C   UNL A   1      42.935  27.925  32.606  1.00  0.00     0.029 A 
ATOM     56  C   UNL A   1      42.362  28.995  33.274  1.00  0.00     0.049 A 
ATOM     57  H   UNL A   1      40.750  30.223  32.682  1.00  0.00     0.167 HD
ATOM     58  C   UNL A   1      42.143  30.635  35.124  1.00  0.00     0.074 A 
ATOM     59  C   UNL A   1      42.520  31.178  36.413  1.00  0.00     0.031 C 
ATOM     60  C   UNL A   1      42.718  29.545  34.557  1.00  0.00     0.037 A 
BRANCH  47  61
ATOM     61  C   UNL A   1      40.268  27.913  29.125  1.00  0.00     0.057 A 
ATOM     62  C   UNL A   1      39.506  26.738  29.157  1.00  0.00     0.134 A 
ATOM     63  C   UNL A   1      40.996  28.178  27.958  1.00  0.00     0.134 A 
ATOM     64  F   UNL A   1      38.795  26.419  30.250  1.00  0.00    -0.206 F 
ATOM     65  C   UNL A   1      39.487  25.849  28.081  1.00  0.00     0.040 A 
ATOM     66  C   UNL A   1      40.964  27.311  26.864  1.00  0.00     0.040 A 
ATOM     67  F   UNL A   1      41.743  29.287  27.856  1.00  0.00    -0.206 F 
ATOM     68  C   UNL A   1      40.212  26.139  26.927  1.00  0.00     0.006 A 
ENDBRANCH  47  61
BRANCH  48  69
ATOM     69  C   UNL A   1      39.825  34.408  36.710  1.00  0.00     0.057 A 
ATOM     70  C   UNL A   1      40.519  35.622  36.709  1.00  0.00     0.134 A 
ATOM     71  C   UNL A   1      39.047  34.110  37.835  1.00  0.00     0.134 A 
ATOM     72  F   UNL A   1      41.295  35.955  35.667  1.00  0.00    -0.206 F 
ATOM     73  C   UNL A   1      40.461  36.499  37.793  1.00  0.00     0.040 A 
ATOM     74  C   UNL A   1      38.958  34.990  38.916  1.00  0.00     0.040 A 
ATOM     75  F   UNL A   1      38.348  32.967  37.894  1.00  0.00    -0.206 F 
ATOM     76  C   UNL A   1      39.674  36.185  38.900  1.00  0.00     0.006 A 
ENDBRANCH  48  69
BRANCH  60  77
ATOM     77  C   UNL A   1      43.822  28.879  35.324  1.00  0.00     0.057 A 
ATOM     78  C   UNL A   1      45.164  29.241  35.144  1.00  0.00     0.134 A 
ATOM     79  C   UNL A   1      43.539  27.896  36.279  1.00  0.00     0.134 A 
ATOM     80  F   UNL A   1      45.503  30.165  34.233  1.00  0.00    -0.206 F 
ATOM     81  C   UNL A   1      46.186  28.633  35.875  1.00  0.00     0.040 A 
ATOM     82  C   UNL A   1      44.549  27.301  37.036  1.00  0.00     0.040 A 
ATOM     83  F   UNL A   1      42.274  27.509  36.505  1.00  0.00    -0.206 F 
ATOM     84  C   UNL A   1      45.878  27.665  36.829  1.00  0.00     0.006 A 
ENDBRANCH  60  77
ENDBRANCH  34  35
ENDBRANCH  26  29
ENDBRANCH  24  25
ENDBRANCH  23  24
ENDBRANCH   1  23
TORSDOF 15
ENDMDL
MODEL 2
REMARK VINA RESULT:     -11.3      5.682     10.645
REMARK SMILES CCC(CC)NC(=O)NC[C@H]1CC[C@H](C(=O)NCCCNC(=O)c2ccc(-c3c4nc(c(-c5c(F)cccc5F)c5ccc([nH]5)c(-c5c(F)cccc5F)c5nc(c(-c6c(F)cccc6F)c6ccc3[nH]6)C=C5)C=C4)cc2)O1
REMARK SMILES IDX 18 1 17 2 15 3 16 4 14 6 11 7 12 8 78 9 13 10 10 11 9 12
REMARK SMILES IDX 6 13 7 14 8 16 3 18 2 19 1 20 4 21 5 22 19 23 20 24 21 25
REMARK SMILES IDX 22 26 23 28 24 29 25 30 77 31 26 32 76 33 27 34 28 35 29 36
REMARK SMILES IDX 70 37 30 38 75 39 69 40 71 41 31 42 74 43 68 44 67 45 32 47
REMARK SMILES IDX 58 48 41 49 57 50 42 51 45 52 56 53 72 54 43 55 44 56 55 58
REMARK SMILES IDX 73 59 46 60 33 61 34 62 39 63 35 64 36 65 38 66 40 67 37 68
REMARK SMILES IDX 59 69 60 70 65 71 61 72 62 73 64 74 66 75 63 76 47 77 48 78
REMARK SMILES IDX 53 79 49 80 50 81 52 82 54 83 51 84
REMARK H PARENT 17 5 6 15 9 17 21 27 71 46 45 57
REMARK Flexibility Score: inf
ROOT
ATOM      1  C   UNL A   1      36.877  20.550  25.007  1.00  0.00     0.117 C 
ENDROOT
BRANCH   1   2
ATOM      2  N   UNL A   1      37.229  21.840  25.559  1.00  0.00    -0.354 N 
ATOM      3  C   UNL A   1      36.487  22.976  25.686  1.00  0.00     0.249 C 
ATOM      4  O   UNL A   1      37.040  23.951  26.207  1.00  0.00    -0.272 OA
ATOM      5  H   UNL A   1      38.151  21.908  25.897  1.00  0.00     0.163 HD
BRANCH   3   6
ATOM      6  C   UNL A   1      35.053  23.094  25.121  1.00  0.00     0.207 C 
ATOM      7  C   UNL A   1      33.926  24.743  23.888  1.00  0.00     0.138 C 
ATOM      8  C   UNL A   1      33.821  25.117  25.353  1.00  0.00     0.037 C 
ATOM      9  O   UNL A   1      34.905  23.684  23.824  1.00  0.00    -0.363 OA
ATOM     10  C   UNL A   1      34.144  23.843  26.082  1.00  0.00     0.045 C 
BRANCH   7  11
ATOM     11  C   UNL A   1      32.632  24.327  23.165  1.00  0.00     0.149 C 
BRANCH  11  12
ATOM     12  N   UNL A   1      32.636  24.568  21.731  1.00  0.00    -0.336 N 
ATOM     13  N   UNL A   1      32.400  26.889  21.337  1.00  0.00    -0.335 N 
ATOM     14  C   UNL A   1      32.653  25.639  20.934  1.00  0.00     0.315 C 
ATOM     15  H   UNL A   1      32.606  27.565  20.651  1.00  0.00     0.165 HD
ATOM     16  O   UNL A   1      32.910  25.461  19.741  1.00  0.00    -0.249 OA
ATOM     17  H   UNL A   1      32.621  23.728  21.218  1.00  0.00     0.165 HD
BRANCH  13  18
ATOM     18  C   UNL A   1      31.888  27.465  22.569  1.00  0.00     0.083 C 
BRANCH  18  19
ATOM     19  C   UNL A   1      32.653  28.739  22.939  1.00  0.00     0.021 C 
ATOM     20  C   UNL A   1      34.161  28.548  22.832  1.00  0.00     0.006 C 
ENDBRANCH  18  19
BRANCH  18  21
ATOM     21  C   UNL A   1      30.354  27.604  22.523  1.00  0.00     0.021 C 
ATOM     22  C   UNL A   1      29.769  28.708  23.388  1.00  0.00     0.006 C 
ENDBRANCH  18  21
ENDBRANCH  13  18
ENDBRANCH  11  12
ENDBRANCH   7  11
ENDBRANCH   3   6
ENDBRANCH   1   2
BRANCH   1  23
ATOM     23  C   UNL A   1      38.066  19.593  24.998  1.00  0.00     0.042 C 
BRANCH  23  24
ATOM     24  C   UNL A   1      39.262  20.115  25.778  1.00  0.00     0.118 C 
BRANCH  24  25
ATOM     25  N   UNL A   1      40.293  19.096  25.927  1.00  0.00    -0.352 N 
ATOM     26  C   UNL A   1      41.647  19.222  26.109  1.00  0.00     0.251 C 
ATOM     27  H   UNL A   1      39.966  18.168  25.888  1.00  0.00     0.163 HD
ATOM     28  O   UNL A   1      42.375  18.251  25.931  1.00  0.00    -0.269 OA
BRANCH  26  29
ATOM     29  C   UNL A   1      42.231  20.519  26.509  1.00  0.00     0.039 A 
ATOM     30  C   UNL A   1      42.768  21.350  25.522  1.00  0.00     0.014 A 
ATOM     31  C   UNL A   1      42.283  20.899  27.851  1.00  0.00     0.014 A 
ATOM     32  C   UNL A   1      43.288  22.596  25.875  1.00  0.00     0.010 A 
ATOM     33  C   UNL A   1      42.726  22.171  28.194  1.00  0.00     0.010 A 
ATOM     34  C   UNL A   1      43.230  23.033  27.209  1.00  0.00    -0.014 A 
BRANCH  34  35
ATOM     35  C   UNL A   1      43.661  24.397  27.595  1.00  0.00     0.031 A 
ATOM     36  C   UNL A   1      42.643  25.426  27.996  1.00  0.00     0.074 A 
ATOM     37  C   UNL A   1      44.962  24.728  27.494  1.00  0.00     0.049 A 
ATOM     38  N   UNL A   1      42.813  26.697  28.259  1.00  0.00    -0.248 NA
ATOM     39  C   UNL A   1      41.247  24.974  28.090  1.00  0.00     0.031 C 
ATOM     40  C   UNL A   1      46.035  23.823  27.072  1.00  0.00     0.029 A 
ATOM     41  N   UNL A   1      45.603  25.920  27.718  1.00  0.00    -0.354 N 
ATOM     42  C   UNL A   1      41.549  27.197  28.536  1.00  0.00     0.074 A 
ATOM     43  C   UNL A   1      40.614  26.107  28.362  1.00  0.00     0.031 C 
ATOM     44  C   UNL A   1      47.200  24.488  27.081  1.00  0.00     0.029 A 
ATOM     45  C   UNL A   1      46.952  25.874  27.463  1.00  0.00     0.049 A 
ATOM     46  H   UNL A   1      45.141  26.730  28.031  1.00  0.00     0.167 HD
ATOM     47  C   UNL A   1      41.202  28.449  28.917  1.00  0.00     0.037 A 
ATOM     48  C   UNL A   1      47.882  26.847  27.510  1.00  0.00     0.037 A 
ATOM     49  C   UNL A   1      42.142  29.525  29.102  1.00  0.00     0.049 A 
ATOM     50  C   UNL A   1      47.466  28.235  27.906  1.00  0.00     0.074 A 
ATOM     51  C   UNL A   1      41.902  30.811  29.552  1.00  0.00     0.029 A 
ATOM     52  N   UNL A   1      43.501  29.439  28.838  1.00  0.00    -0.354 N 
ATOM     53  N   UNL A   1      46.277  28.678  28.235  1.00  0.00    -0.248 NA
ATOM     54  C   UNL A   1      48.519  29.258  27.934  1.00  0.00     0.031 C 
ATOM     55  C   UNL A   1      43.107  31.521  29.508  1.00  0.00     0.029 A 
ATOM     56  C   UNL A   1      44.107  30.661  29.081  1.00  0.00     0.049 A 
ATOM     57  H   UNL A   1      43.966  28.631  28.523  1.00  0.00     0.167 HD
ATOM     58  C   UNL A   1      46.440  30.026  28.527  1.00  0.00     0.074 A 
ATOM     59  C   UNL A   1      47.849  30.322  28.357  1.00  0.00     0.031 C 
ATOM     60  C   UNL A   1      45.509  30.938  28.899  1.00  0.00     0.037 A 
BRANCH  47  61
ATOM     61  C   UNL A   1      39.746  28.726  29.159  1.00  0.00     0.057 A 
ATOM     62  C   UNL A   1      39.167  28.586  30.427  1.00  0.00     0.134 A 
ATOM     63  C   UNL A   1      38.922  29.175  28.120  1.00  0.00     0.134 A 
ATOM     64  F   UNL A   1      39.898  28.148  31.464  1.00  0.00    -0.206 F 
ATOM     65  C   UNL A   1      37.816  28.860  30.648  1.00  0.00     0.040 A 
ATOM     66  C   UNL A   1      37.576  29.479  28.334  1.00  0.00     0.040 A 
ATOM     67  F   UNL A   1      39.411  29.336  26.881  1.00  0.00    -0.206 F 
ATOM     68  C   UNL A   1      37.018  29.315  29.600  1.00  0.00     0.006 A 
ENDBRANCH  47  61
BRANCH  48  69
ATOM     69  C   UNL A   1      49.295  26.541  27.173  1.00  0.00     0.057 A 
ATOM     70  C   UNL A   1      49.758  26.636  25.856  1.00  0.00     0.134 A 
ATOM     71  C   UNL A   1      50.215  26.147  28.152  1.00  0.00     0.134 A 
ATOM     72  F   UNL A   1      48.921  26.992  24.870  1.00  0.00    -0.206 F 
ATOM     73  C   UNL A   1      51.078  26.332  25.520  1.00  0.00     0.040 A 
ATOM     74  C   UNL A   1      51.545  25.865  27.836  1.00  0.00     0.040 A 
ATOM     75  F   UNL A   1      49.837  26.047  29.436  1.00  0.00    -0.206 F 
ATOM     76  C   UNL A   1      51.977  25.949  26.514  1.00  0.00     0.006 A 
ENDBRANCH  48  69
BRANCH  60  77
ATOM     77  C   UNL A   1      45.987  32.336  29.158  1.00  0.00     0.057 A 
ATOM     78  C   UNL A   1      45.995  33.309  28.150  1.00  0.00     0.134 A 
ATOM     79  C   UNL A   1      46.406  32.725  30.436  1.00  0.00     0.134 A 
ATOM     80  F   UNL A   1      45.621  32.997  26.900  1.00  0.00    -0.206 F 
ATOM     81  C   UNL A   1      46.421  34.615  28.401  1.00  0.00     0.040 A 
ATOM     82  C   UNL A   1      46.807  34.034  30.706  1.00  0.00     0.040 A 
ATOM     83  F   UNL A   1      46.416  31.843  31.447  1.00  0.00    -0.206 F 
ATOM     84  C   UNL A   1      46.821  34.981  29.684  1.00  0.00     0.006 A 
ENDBRANCH  60  77
ENDBRANCH  34  35
ENDBRANCH  26  29
ENDBRANCH  24  25
ENDBRANCH  23  24
ENDBRANCH   1  23
TORSDOF 15
ENDMDL
MODEL 3
REMARK VINA RESULT:     -11.1      0.802      1.671
REMARK SMILES CCC(CC)NC(=O)NC[C@H]1CC[C@H](C(=O)NCCCNC(=O)c2ccc(-c3c4nc(c(-c5c(F)cccc5F)c5ccc([nH]5)c(-c5c(F)cccc5F)c5nc(c(-c6c(F)cccc6F)c6ccc3[nH]6)C=C5)C=C4)cc2)O1
REMARK SMILES IDX 18 1 17 2 15 3 16 4 14 6 11 7 12 8 78 9 13 10 10 11 9 12
REMARK SMILES IDX 6 13 7 14 8 16 3 18 2 19 1 20 4 21 5 22 19 23 20 24 21 25
REMARK SMILES IDX 22 26 23 28 24 29 25 30 77 31 26 32 76 33 27 34 28 35 29 36
REMARK SMILES IDX 70 37 30 38 75 39 69 40 71 41 31 42 74 43 68 44 67 45 32 47
REMARK SMILES IDX 58 48 41 49 57 50 42 51 45 52 56 53 72 54 43 55 44 56 55 58
REMARK SMILES IDX 73 59 46 60 33 61 34 62 39 63 35 64 36 65 38 66 40 67 37 68
REMARK SMILES IDX 59 69 60 70 65 71 61 72 62 73 64 74 66 75 63 76 47 77 48 78
REMARK SMILES IDX 53 79 49 80 50 81 52 82 54 83 51 84
REMARK H PARENT 17 5 6 15 9 17 21 27 71 46 45 57
REMARK Flexibility Score: inf
ROOT
ATOM      1  C   UNL A   1      31.509  30.751  26.283  1.00  0.00     0.117 C 
ENDROOT
BRANCH   1   2
ATOM      2  N   UNL A   1      31.213  30.393  24.913  1.00  0.00    -0.354 N 
ATOM      3  C   UNL A   1      30.971  29.174  24.353  1.00  0.00     0.249 C 
ATOM      4  O   UNL A   1      30.737  29.151  23.140  1.00  0.00    -0.272 OA
ATOM      5  H   UNL A   1      31.181  31.150  24.284  1.00  0.00     0.163 HD
BRANCH   3   6
ATOM      6  C   UNL A   1      31.080  27.859  25.160  1.00  0.00     0.207 C 
ATOM      7  C   UNL A   1      32.522  26.009  25.059  1.00  0.00     0.138 C 
ATOM      8  C   UNL A   1      31.416  25.781  24.048  1.00  0.00     0.037 C 
ATOM      9  O   UNL A   1      32.395  27.387  25.472  1.00  0.00    -0.363 OA
ATOM     10  C   UNL A   1      30.329  26.730  24.471  1.00  0.00     0.045 C 
BRANCH   7  11
ATOM     11  C   UNL A   1      32.569  25.080  26.286  1.00  0.00     0.149 C 
BRANCH  11  12
ATOM     12  N   UNL A   1      31.293  24.483  26.642  1.00  0.00    -0.336 N 
ATOM     13  N   UNL A   1      31.451  22.132  26.417  1.00  0.00    -0.335 N 
ATOM     14  C   UNL A   1      30.823  23.244  26.815  1.00  0.00     0.315 C 
ATOM     15  H   UNL A   1      31.034  21.309  26.760  1.00  0.00     0.165 HD
ATOM     16  O   UNL A   1      29.731  23.118  27.373  1.00  0.00    -0.249 OA
ATOM     17  H   UNL A   1      30.597  25.163  26.793  1.00  0.00     0.165 HD
BRANCH  13  18
ATOM     18  C   UNL A   1      32.615  21.877  25.585  1.00  0.00     0.083 C 
BRANCH  18  19
ATOM     19  C   UNL A   1      33.673  21.079  26.353  1.00  0.00     0.021 C 
ATOM     20  C   UNL A   1      34.155  21.822  27.593  1.00  0.00     0.006 C 
ENDBRANCH  18  19
BRANCH  18  21
ATOM     21  C   UNL A   1      32.207  21.291  24.219  1.00  0.00     0.021 C 
ATOM     22  C   UNL A   1      31.788  22.306  23.169  1.00  0.00     0.006 C 
ENDBRANCH  18  21
ENDBRANCH  13  18
ENDBRANCH  11  12
ENDBRANCH   7  11
ENDBRANCH   3   6
ENDBRANCH   1   2
BRANCH   1  23
ATOM     23  C   UNL A   1      31.438  32.260  26.503  1.00  0.00     0.042 C 
BRANCH  23  24
ATOM     24  C   UNL A   1      32.591  32.800  27.333  1.00  0.00     0.118 C 
BRANCH  24  25
ATOM     25  N   UNL A   1      32.418  34.215  27.638  1.00  0.00    -0.352 N 
ATOM     26  C   UNL A   1      33.001  34.993  28.605  1.00  0.00     0.251 C 
ATOM     27  H   UNL A   1      31.779  34.687  27.058  1.00  0.00     0.163 HD
ATOM     28  O   UNL A   1      32.517  36.087  28.876  1.00  0.00    -0.269 OA
BRANCH  26  29
ATOM     29  C   UNL A   1      34.200  34.518  29.326  1.00  0.00     0.039 A 
ATOM     30  C   UNL A   1      34.053  34.006  30.618  1.00  0.00     0.014 A 
ATOM     31  C   UNL A   1      35.468  34.609  28.748  1.00  0.00     0.014 A 
ATOM     32  C   UNL A   1      35.168  33.516  31.299  1.00  0.00     0.010 A 
ATOM     33  C   UNL A   1      36.565  34.049  29.392  1.00  0.00     0.010 A 
ATOM     34  C   UNL A   1      36.425  33.495  30.672  1.00  0.00    -0.014 A 
BRANCH  34  35
ATOM     35  C   UNL A   1      37.602  32.870  31.321  1.00  0.00     0.031 A 
ATOM     36  C   UNL A   1      38.249  31.661  30.709  1.00  0.00     0.074 A 
ATOM     37  C   UNL A   1      38.024  33.342  32.509  1.00  0.00     0.049 A 
ATOM     38  N   UNL A   1      39.212  30.912  31.182  1.00  0.00    -0.248 NA
ATOM     39  C   UNL A   1      37.730  31.220  29.405  1.00  0.00     0.031 C 
ATOM     40  C   UNL A   1      37.443  34.484  33.221  1.00  0.00     0.029 A 
ATOM     41  N   UNL A   1      39.026  32.909  33.339  1.00  0.00    -0.354 N 
ATOM     42  C   UNL A   1      39.404  29.907  30.244  1.00  0.00     0.074 A 
ATOM     43  C   UNL A   1      38.426  30.112  29.197  1.00  0.00     0.031 C 
ATOM     44  C   UNL A   1      38.107  34.669  34.372  1.00  0.00     0.029 A 
ATOM     45  C   UNL A   1      39.128  33.634  34.502  1.00  0.00     0.049 A 
ATOM     46  H   UNL A   1      39.617  32.153  33.123  1.00  0.00     0.167 HD
ATOM     47  C   UNL A   1      40.325  28.915  30.248  1.00  0.00     0.037 A 
ATOM     48  C   UNL A   1      39.938  33.469  35.564  1.00  0.00     0.037 A 
ATOM     49  C   UNL A   1      41.304  28.727  31.286  1.00  0.00     0.049 A 
ATOM     50  C   UNL A   1      40.930  32.340  35.557  1.00  0.00     0.074 A 
ATOM     51  C   UNL A   1      42.324  27.795  31.352  1.00  0.00     0.029 A 
ATOM     52  N   UNL A   1      41.378  29.484  32.447  1.00  0.00    -0.354 N 
ATOM     53  N   UNL A   1      41.150  31.440  34.630  1.00  0.00    -0.248 NA
ATOM     54  C   UNL A   1      41.783  32.203  36.745  1.00  0.00     0.031 C 
ATOM     55  C   UNL A   1      42.982  27.951  32.577  1.00  0.00     0.029 A 
ATOM     56  C   UNL A   1      42.404  29.015  33.251  1.00  0.00     0.049 A 
ATOM     57  H   UNL A   1      40.788  30.241  32.667  1.00  0.00     0.167 HD
ATOM     58  C   UNL A   1      42.177  30.641  35.112  1.00  0.00     0.074 A 
ATOM     59  C   UNL A   1      42.551  31.177  36.405  1.00  0.00     0.031 C 
ATOM     60  C   UNL A   1      42.757  29.558  34.539  1.00  0.00     0.037 A 
BRANCH  47  61
ATOM     61  C   UNL A   1      40.317  27.953  29.094  1.00  0.00     0.057 A 
ATOM     62  C   UNL A   1      39.557  26.776  29.116  1.00  0.00     0.134 A 
ATOM     63  C   UNL A   1      41.047  28.227  27.930  1.00  0.00     0.134 A 
ATOM     64  F   UNL A   1      38.844  26.448  30.205  1.00  0.00    -0.206 F 
ATOM     65  C   UNL A   1      39.543  25.895  28.034  1.00  0.00     0.040 A 
ATOM     66  C   UNL A   1      41.019  27.367  26.830  1.00  0.00     0.040 A 
ATOM     67  F   UNL A   1      41.792  29.339  27.838  1.00  0.00    -0.206 F 
ATOM     68  C   UNL A   1      40.269  26.193  26.884  1.00  0.00     0.006 A 
ENDBRANCH  47  61
BRANCH  48  69
ATOM     69  C   UNL A   1      39.843  34.394  36.722  1.00  0.00     0.057 A 
ATOM     70  C   UNL A   1      39.110  34.048  37.862  1.00  0.00     0.134 A 
ATOM     71  C   UNL A   1      40.479  35.642  36.718  1.00  0.00     0.134 A 
ATOM     72  F   UNL A   1      38.465  32.874  37.919  1.00  0.00    -0.206 F 
ATOM     73  C   UNL A   1      38.995  34.916  38.949  1.00  0.00     0.040 A 
ATOM     74  C   UNL A   1      40.395  36.509  37.808  1.00  0.00     0.040 A 
ATOM     75  F   UNL A   1      41.207  36.029  35.660  1.00  0.00    -0.206 F 
ATOM     76  C   UNL A   1      39.643  36.150  38.925  1.00  0.00     0.006 A 
ENDBRANCH  48  69
BRANCH  60  77
ATOM     77  C   UNL A   1      43.864  28.891  35.301  1.00  0.00     0.057 A 
ATOM     78  C   UNL A   1      43.619  27.807  36.155  1.00  0.00     0.134 A 
ATOM     79  C   UNL A   1      45.191  29.310  35.150  1.00  0.00     0.134 A 
ATOM     80  F   UNL A   1      42.368  27.368  36.355  1.00  0.00    -0.206 F 
ATOM     81  C   UNL A   1      44.656  27.177  36.846  1.00  0.00     0.040 A 
ATOM     82  C   UNL A   1      46.238  28.670  35.813  1.00  0.00     0.040 A 
ATOM     83  F   UNL A   1      45.494  30.337  34.342  1.00  0.00    -0.206 F 
ATOM     84  C   UNL A   1      45.970  27.604  36.669  1.00  0.00     0.006 A 
ENDBRANCH  60  77
ENDBRANCH  34  35
ENDBRANCH  26  29
ENDBRANCH  24  25
ENDBRANCH  23  24
ENDBRANCH   1  23
TORSDOF 15
ENDMDL
