MODEL 1
REMARK VINA RESULT:     -11.2      0.000      0.000
REMARK SMILES C[C@@H](C(=O)NCCCNC(=O)c1ccc(-c2c3nc(c(-c4c(F)cccc4F)c4ccc([nH]4)c(-c4c(F)cccc4F)c4nc(c(-c5c(F)cccc5F)c5ccc2[nH]5)C=C4)C=C3)cc1)c1ccc(C[C@H]2CCC[C@@H]2O)cc1
REMARK SMILES IDX 6 1 5 2 3 3 4 4 2 6 1 7 66 8 67 9 78 10 68 11 77 12 69 13
REMARK SMILES IDX 70 14 71 15 72 16 75 17 73 18 74 19 76 20 7 22 8 23 9 24
REMARK SMILES IDX 10 25 11 27 12 28 13 29 65 30 14 31 64 32 15 33 16 34 17 35
REMARK SMILES IDX 58 36 18 37 63 38 57 39 59 40 19 41 62 42 56 43 55 44 20 46
REMARK SMILES IDX 46 47 29 48 45 49 30 50 33 51 44 52 60 53 31 54 32 55 43 57
REMARK SMILES IDX 61 58 34 59 21 60 22 61 27 62 23 63 24 64 26 65 28 66 25 67
REMARK SMILES IDX 47 68 48 69 53 70 49 71 50 72 52 73 54 74 51 75 35 76 36 77
REMARK SMILES IDX 41 78 37 79 38 80 40 81 42 82 39 83
REMARK H PARENT 5 5 76 21 9 26 59 45 33 56
REMARK Flexibility Score: inf
ROOT
ATOM      1  C   UNL A   1      36.611  20.312  25.035  1.00  0.00     0.117 C 
ENDROOT
BRANCH   1   2
ATOM      2  N   UNL A   1      36.843  21.555  25.742  1.00  0.00    -0.356 N 
ATOM      3  C   UNL A   1      36.375  22.814  25.498  1.00  0.00     0.227 C 
ATOM      4  O   UNL A   1      36.859  23.717  26.185  1.00  0.00    -0.274 OA
ATOM      5  H   UNL A   1      37.436  21.480  26.524  1.00  0.00     0.163 HD
BRANCH   3   6
ATOM      6  C   UNL A   1      35.283  23.049  24.436  1.00  0.00     0.105 C 
ATOM      7  C   UNL A   1      35.903  23.285  23.055  1.00  0.00     0.023 C 
BRANCH   6   8
ATOM      8  C   UNL A   1      34.341  24.174  24.864  1.00  0.00    -0.036 A 
ATOM      9  C   UNL A   1      33.494  24.067  25.976  1.00  0.00     0.005 A 
ATOM     10  C   UNL A   1      34.265  25.339  24.083  1.00  0.00     0.005 A 
ATOM     11  C   UNL A   1      32.586  25.080  26.285  1.00  0.00     0.004 A 
ATOM     12  C   UNL A   1      33.332  26.338  24.376  1.00  0.00     0.004 A 
ATOM     13  C   UNL A   1      32.458  26.200  25.460  1.00  0.00    -0.048 A 
BRANCH  13  14
ATOM     14  C   UNL A   1      31.364  27.211  25.708  1.00  0.00     0.041 C 
BRANCH  14  15
ATOM     15  C   UNL A   1      31.800  28.513  26.407  1.00  0.00     0.022 C 
ATOM     16  C   UNL A   1      33.023  28.407  27.335  1.00  0.00     0.007 C 
ATOM     17  C   UNL A   1      32.126  29.693  25.487  1.00  0.00     0.117 C 
ATOM     18  C   UNL A   1      33.784  29.730  27.188  1.00  0.00     0.003 C 
ATOM     19  C   UNL A   1      32.854  30.651  26.415  1.00  0.00     0.032 C 
BRANCH  17  20
ATOM     20  O   UNL A   1      30.947  30.269  24.956  1.00  0.00    -0.393 OA
ATOM     21  H   UNL A   1      30.481  30.755  25.655  1.00  0.00     0.210 HD
ENDBRANCH  17  20
ENDBRANCH  14  15
ENDBRANCH  13  14
ENDBRANCH   6   8
ENDBRANCH   3   6
ENDBRANCH   1   2
BRANCH   1  22
ATOM     22  C   UNL A   1      37.890  19.480  24.932  1.00  0.00     0.042 C 
BRANCH  22  23
ATOM     23  C   UNL A   1      39.063  20.030  25.741  1.00  0.00     0.118 C 
BRANCH  23  24
ATOM     24  N   UNL A   1      40.164  19.084  25.840  1.00  0.00    -0.352 N 
ATOM     25  C   UNL A   1      41.496  19.300  26.095  1.00  0.00     0.251 C 
ATOM     26  H   UNL A   1      39.916  18.143  25.702  1.00  0.00     0.163 HD
ATOM     27  O   UNL A   1      42.293  18.379  25.948  1.00  0.00    -0.269 OA
BRANCH  25  28
ATOM     28  C   UNL A   1      41.985  20.629  26.527  1.00  0.00     0.039 A 
ATOM     29  C   UNL A   1      42.409  21.535  25.550  1.00  0.00     0.014 A 
ATOM     30  C   UNL A   1      42.080  20.970  27.879  1.00  0.00     0.014 A 
ATOM     31  C   UNL A   1      42.871  22.800  25.923  1.00  0.00     0.010 A 
ATOM     32  C   UNL A   1      42.479  22.255  28.247  1.00  0.00     0.010 A 
ATOM     33  C   UNL A   1      42.881  23.180  27.274  1.00  0.00    -0.014 A 
BRANCH  33  34
ATOM     34  C   UNL A   1      43.307  24.543  27.683  1.00  0.00     0.031 A 
ATOM     35  C   UNL A   1      42.286  25.584  28.049  1.00  0.00     0.074 A 
ATOM     36  C   UNL A   1      44.616  24.864  27.668  1.00  0.00     0.049 A 
ATOM     37  N   UNL A   1      42.462  26.842  28.360  1.00  0.00    -0.248 NA
ATOM     38  C   UNL A   1      40.878  25.158  28.040  1.00  0.00     0.031 C 
ATOM     39  C   UNL A   1      45.705  23.959  27.293  1.00  0.00     0.029 A 
ATOM     40  N   UNL A   1      45.252  26.044  27.963  1.00  0.00    -0.354 N 
ATOM     41  C   UNL A   1      41.191  27.364  28.566  1.00  0.00     0.074 A 
ATOM     42  C   UNL A   1      40.249  26.295  28.305  1.00  0.00     0.031 C 
ATOM     43  C   UNL A   1      46.874  24.611  27.397  1.00  0.00     0.029 A 
ATOM     44  C   UNL A   1      46.615  25.987  27.811  1.00  0.00     0.049 A 
ATOM     45  H   UNL A   1      44.775  26.854  28.255  1.00  0.00     0.167 HD
ATOM     46  C   UNL A   1      40.840  28.612  28.957  1.00  0.00     0.037 A 
ATOM     47  C   UNL A   1      47.554  26.938  27.979  1.00  0.00     0.037 A 
ATOM     48  C   UNL A   1      41.776  29.667  29.245  1.00  0.00     0.049 A 
ATOM     49  C   UNL A   1      47.138  28.315  28.414  1.00  0.00     0.074 A 
ATOM     50  C   UNL A   1      41.519  30.945  29.709  1.00  0.00     0.029 A 
ATOM     51  N   UNL A   1      43.151  29.564  29.096  1.00  0.00    -0.354 N 
ATOM     52  N   UNL A   1      45.937  28.776  28.664  1.00  0.00    -0.248 NA
ATOM     53  C   UNL A   1      48.210  29.304  28.593  1.00  0.00     0.031 C 
ATOM     54  C   UNL A   1      42.737  31.629  29.807  1.00  0.00     0.029 A 
ATOM     55  C   UNL A   1      43.754  30.763  29.441  1.00  0.00     0.049 A 
ATOM     56  H   UNL A   1      43.628  28.759  28.792  1.00  0.00     0.167 HD
ATOM     57  C   UNL A   1      46.109  30.097  29.052  1.00  0.00     0.074 A 
ATOM     58  C   UNL A   1      47.533  30.363  29.017  1.00  0.00     0.031 C 
ATOM     59  C   UNL A   1      45.172  31.010  29.405  1.00  0.00     0.037 A 
BRANCH  46  60
ATOM     60  C   UNL A   1      39.375  28.905  29.099  1.00  0.00     0.057 A 
ATOM     61  C   UNL A   1      38.707  28.745  30.321  1.00  0.00     0.134 A 
ATOM     62  C   UNL A   1      38.632  29.384  28.014  1.00  0.00     0.134 A 
ATOM     63  F   UNL A   1      39.358  28.278  31.396  1.00  0.00    -0.206 F 
ATOM     64  C   UNL A   1      37.345  29.027  30.450  1.00  0.00     0.040 A 
ATOM     65  C   UNL A   1      37.276  29.694  28.137  1.00  0.00     0.040 A 
ATOM     66  F   UNL A   1      39.212  29.567  26.818  1.00  0.00    -0.206 F 
ATOM     67  C   UNL A   1      36.628  29.509  29.358  1.00  0.00     0.006 A 
ENDBRANCH  46  60
BRANCH  47  68
ATOM     68  C   UNL A   1      48.983  26.615  27.755  1.00  0.00     0.057 A 
ATOM     69  C   UNL A   1      49.553  26.714  26.481  1.00  0.00     0.134 A 
ATOM     70  C   UNL A   1      49.813  26.196  28.804  1.00  0.00     0.134 A 
ATOM     71  F   UNL A   1      48.803  27.091  25.434  1.00  0.00    -0.206 F 
ATOM     72  C   UNL A   1      50.893  26.396  26.252  1.00  0.00     0.040 A 
ATOM     73  C   UNL A   1      51.159  25.896  28.593  1.00  0.00     0.040 A 
ATOM     74  F   UNL A   1      49.327  26.088  30.049  1.00  0.00    -0.206 F 
ATOM     75  C   UNL A   1      51.700  25.989  27.312  1.00  0.00     0.006 A 
ENDBRANCH  47  68
BRANCH  59  76
ATOM     76  C   UNL A   1      45.659  32.371  29.807  1.00  0.00     0.057 A 
ATOM     77  C   UNL A   1      45.779  33.413  28.881  1.00  0.00     0.134 A 
ATOM     78  C   UNL A   1      45.979  32.647  31.142  1.00  0.00     0.134 A 
ATOM     79  F   UNL A   1      45.502  33.207  27.585  1.00  0.00    -0.206 F 
ATOM     80  C   UNL A   1      46.219  34.682  29.266  1.00  0.00     0.040 A 
ATOM     81  C   UNL A   1      46.398  33.916  31.543  1.00  0.00     0.040 A 
ATOM     82  F   UNL A   1      45.879  31.693  32.079  1.00  0.00    -0.206 F 
ATOM     83  C   UNL A   1      46.523  34.937  30.602  1.00  0.00     0.006 A 
ENDBRANCH  59  76
ENDBRANCH  33  34
ENDBRANCH  25  28
ENDBRANCH  23  24
ENDBRANCH  22  23
ENDBRANCH   1  22
TORSDOF 14
ENDMDL
MODEL 2
REMARK VINA RESULT:     -11.2      5.190     10.382
REMARK SMILES C[C@@H](C(=O)NCCCNC(=O)c1ccc(-c2c3nc(c(-c4c(F)cccc4F)c4ccc([nH]4)c(-c4c(F)cccc4F)c4nc(c(-c5c(F)cccc5F)c5ccc2[nH]5)C=C4)C=C3)cc1)c1ccc(C[C@H]2CCC[C@@H]2O)cc1
REMARK SMILES IDX 6 1 5 2 3 3 4 4 2 6 1 7 66 8 67 9 78 10 68 11 77 12 69 13
REMARK SMILES IDX 70 14 71 15 72 16 75 17 73 18 74 19 76 20 7 22 8 23 9 24
REMARK SMILES IDX 10 25 11 27 12 28 13 29 65 30 14 31 64 32 15 33 16 34 17 35
REMARK SMILES IDX 58 36 18 37 63 38 57 39 59 40 19 41 62 42 56 43 55 44 20 46
REMARK SMILES IDX 46 47 29 48 45 49 30 50 33 51 44 52 60 53 31 54 32 55 43 57
REMARK SMILES IDX 61 58 34 59 21 60 22 61 27 62 23 63 24 64 26 65 28 66 25 67
REMARK SMILES IDX 47 68 48 69 53 70 49 71 50 72 52 73 54 74 51 75 35 76 36 77
REMARK SMILES IDX 41 78 37 79 38 80 40 81 42 82 39 83
REMARK H PARENT 5 5 76 21 9 26 59 45 33 56
REMARK Flexibility Score: inf
ROOT
ATOM      1  C   UNL A   1      31.143  30.978  26.395  1.00  0.00     0.117 C 
ENDROOT
BRANCH   1   2
ATOM      2  N   UNL A   1      31.767  30.350  25.248  1.00  0.00    -0.356 N 
ATOM      3  C   UNL A   1      32.702  29.359  25.180  1.00  0.00     0.227 C 
ATOM      4  O   UNL A   1      33.163  29.120  24.061  1.00  0.00    -0.274 OA
ATOM      5  H   UNL A   1      31.467  30.695  24.376  1.00  0.00     0.163 HD
BRANCH   3   6
ATOM      6  C   UNL A   1      33.114  28.584  26.448  1.00  0.00     0.105 C 
ATOM      7  C   UNL A   1      34.525  28.978  26.897  1.00  0.00     0.023 C 
BRANCH   6   8
ATOM      8  C   UNL A   1      32.956  27.078  26.242  1.00  0.00    -0.036 A 
ATOM      9  C   UNL A   1      31.762  26.400  26.526  1.00  0.00     0.005 A 
ATOM     10  C   UNL A   1      34.061  26.325  25.814  1.00  0.00     0.005 A 
ATOM     11  C   UNL A   1      31.682  25.012  26.407  1.00  0.00     0.004 A 
ATOM     12  C   UNL A   1      33.988  24.931  25.728  1.00  0.00     0.004 A 
ATOM     13  C   UNL A   1      32.805  24.259  26.058  1.00  0.00    -0.048 A 
BRANCH  13  14
ATOM     14  C   UNL A   1      32.755  22.750  26.091  1.00  0.00     0.041 C 
BRANCH  14  15
ATOM     15  C   UNL A   1      32.109  22.074  24.867  1.00  0.00     0.022 C 
ATOM     16  C   UNL A   1      32.222  22.835  23.534  1.00  0.00     0.007 C 
ATOM     17  C   UNL A   1      32.606  20.663  24.539  1.00  0.00     0.117 C 
ATOM     18  C   UNL A   1      32.381  21.766  22.447  1.00  0.00     0.003 C 
ATOM     19  C   UNL A   1      32.081  20.442  23.129  1.00  0.00     0.032 C 
BRANCH  17  20
ATOM     20  O   UNL A   1      32.086  19.712  25.449  1.00  0.00    -0.393 OA
ATOM     21  H   UNL A   1      31.787  18.928  24.961  1.00  0.00     0.210 HD
ENDBRANCH  17  20
ENDBRANCH  14  15
ENDBRANCH  13  14
ENDBRANCH   6   8
ENDBRANCH   3   6
ENDBRANCH   1   2
BRANCH   1  22
ATOM     22  C   UNL A   1      31.340  32.494  26.377  1.00  0.00     0.042 C 
BRANCH  22  23
ATOM     23  C   UNL A   1      32.514  32.985  27.222  1.00  0.00     0.118 C 
BRANCH  23  24
ATOM     24  N   UNL A   1      32.355  34.366  27.649  1.00  0.00    -0.352 N 
ATOM     25  C   UNL A   1      33.011  35.071  28.628  1.00  0.00     0.251 C 
ATOM     26  H   UNL A   1      31.671  34.875  27.160  1.00  0.00     0.163 HD
ATOM     27  O   UNL A   1      32.593  36.177  28.955  1.00  0.00    -0.269 OA
BRANCH  25  28
ATOM     28  C   UNL A   1      34.202  34.510  29.305  1.00  0.00     0.039 A 
ATOM     29  C   UNL A   1      34.031  33.865  30.534  1.00  0.00     0.014 A 
ATOM     30  C   UNL A   1      35.485  34.657  28.770  1.00  0.00     0.014 A 
ATOM     31  C   UNL A   1      35.133  33.319  31.197  1.00  0.00     0.010 A 
ATOM     32  C   UNL A   1      36.576  34.056  29.399  1.00  0.00     0.010 A 
ATOM     33  C   UNL A   1      36.411  33.384  30.619  1.00  0.00    -0.014 A 
BRANCH  33  34
ATOM     34  C   UNL A   1      37.583  32.753  31.278  1.00  0.00     0.031 A 
ATOM     35  C   UNL A   1      38.258  31.563  30.655  1.00  0.00     0.074 A 
ATOM     36  C   UNL A   1      38.005  33.215  32.471  1.00  0.00     0.049 A 
ATOM     37  N   UNL A   1      39.244  30.836  31.115  1.00  0.00    -0.248 NA
ATOM     38  C   UNL A   1      37.739  31.116  29.353  1.00  0.00     0.031 C 
ATOM     39  C   UNL A   1      37.411  34.337  33.202  1.00  0.00     0.029 A 
ATOM     40  N   UNL A   1      39.024  32.790  33.286  1.00  0.00    -0.354 N 
ATOM     41  C   UNL A   1      39.452  29.838  30.171  1.00  0.00     0.074 A 
ATOM     42  C   UNL A   1      38.463  30.028  29.132  1.00  0.00     0.031 C 
ATOM     43  C   UNL A   1      38.087  34.521  34.348  1.00  0.00     0.029 A 
ATOM     44  C   UNL A   1      39.136  33.512  34.449  1.00  0.00     0.049 A 
ATOM     45  H   UNL A   1      39.617  32.038  33.059  1.00  0.00     0.167 HD
ATOM     46  C   UNL A   1      40.394  28.865  30.162  1.00  0.00     0.037 A 
ATOM     47  C   UNL A   1      39.984  33.372  35.485  1.00  0.00     0.037 A 
ATOM     48  C   UNL A   1      41.397  28.693  31.180  1.00  0.00     0.049 A 
ATOM     49  C   UNL A   1      41.021  32.285  35.449  1.00  0.00     0.074 A 
ATOM     50  C   UNL A   1      42.433  27.776  31.224  1.00  0.00     0.029 A 
ATOM     51  N   UNL A   1      41.488  29.457  32.334  1.00  0.00    -0.354 N 
ATOM     52  N   UNL A   1      41.244  31.387  34.521  1.00  0.00    -0.248 NA
ATOM     53  C   UNL A   1      41.925  32.194  36.604  1.00  0.00     0.031 C 
ATOM     54  C   UNL A   1      43.130  27.961  32.424  1.00  0.00     0.029 A 
ATOM     55  C   UNL A   1      42.551  29.018  33.107  1.00  0.00     0.049 A 
ATOM     56  H   UNL A   1      40.887  30.200  32.569  1.00  0.00     0.167 HD
ATOM     57  C   UNL A   1      42.327  30.641  34.967  1.00  0.00     0.074 A 
ATOM     58  C   UNL A   1      42.724  31.199  36.244  1.00  0.00     0.031 C 
ATOM     59  C   UNL A   1      42.937  29.587  34.372  1.00  0.00     0.037 A 
BRANCH  46  60
ATOM     60  C   UNL A   1      40.386  27.908  29.005  1.00  0.00     0.057 A 
ATOM     61  C   UNL A   1      39.608  26.743  29.018  1.00  0.00     0.134 A 
ATOM     62  C   UNL A   1      41.137  28.172  27.853  1.00  0.00     0.134 A 
ATOM     63  F   UNL A   1      38.875  26.426  30.096  1.00  0.00    -0.206 F 
ATOM     64  C   UNL A   1      39.597  25.861  27.935  1.00  0.00     0.040 A 
ATOM     65  C   UNL A   1      41.115  27.310  26.754  1.00  0.00     0.040 A 
ATOM     66  F   UNL A   1      41.898  29.273  27.772  1.00  0.00    -0.206 F 
ATOM     67  C   UNL A   1      40.347  26.148  26.797  1.00  0.00     0.006 A 
ENDBRANCH  46  60
BRANCH  47  68
ATOM     68  C   UNL A   1      39.903  34.302  36.638  1.00  0.00     0.057 A 
ATOM     69  C   UNL A   1      39.159  33.972  37.777  1.00  0.00     0.134 A 
ATOM     70  C   UNL A   1      40.560  35.538  36.630  1.00  0.00     0.134 A 
ATOM     71  F   UNL A   1      38.492  32.810  37.834  1.00  0.00    -0.206 F 
ATOM     72  C   UNL A   1      39.058  34.845  38.862  1.00  0.00     0.040 A 
ATOM     73  C   UNL A   1      40.486  36.410  37.717  1.00  0.00     0.040 A 
ATOM     74  F   UNL A   1      41.294  35.908  35.571  1.00  0.00    -0.206 F 
ATOM     75  C   UNL A   1      39.727  36.067  38.834  1.00  0.00     0.006 A 
ENDBRANCH  47  68
BRANCH  59  76
ATOM     76  C   UNL A   1      44.114  28.987  35.083  1.00  0.00     0.057 A 
ATOM     77  C   UNL A   1      43.967  27.931  35.990  1.00  0.00     0.134 A 
ATOM     78  C   UNL A   1      45.410  29.451  34.831  1.00  0.00     0.134 A 
ATOM     79  F   UNL A   1      42.749  27.452  36.284  1.00  0.00    -0.206 F 
ATOM     80  C   UNL A   1      45.069  27.368  36.636  1.00  0.00     0.040 A 
ATOM     81  C   UNL A   1      46.522  28.882  35.454  1.00  0.00     0.040 A 
ATOM     82  F   UNL A   1      45.619  30.457  33.968  1.00  0.00    -0.206 F 
ATOM     83  C   UNL A   1      46.352  27.840  36.363  1.00  0.00     0.006 A 
ENDBRANCH  59  76
ENDBRANCH  33  34
ENDBRANCH  25  28
ENDBRANCH  23  24
ENDBRANCH  22  23
ENDBRANCH   1  22
TORSDOF 14
ENDMDL
MODEL 3
REMARK VINA RESULT:     -11.1      4.597      9.966
REMARK SMILES C[C@@H](C(=O)NCCCNC(=O)c1ccc(-c2c3nc(c(-c4c(F)cccc4F)c4ccc([nH]4)c(-c4c(F)cccc4F)c4nc(c(-c5c(F)cccc5F)c5ccc2[nH]5)C=C4)C=C3)cc1)c1ccc(C[C@H]2CCC[C@@H]2O)cc1
REMARK SMILES IDX 6 1 5 2 3 3 4 4 2 6 1 7 66 8 67 9 78 10 68 11 77 12 69 13
REMARK SMILES IDX 70 14 71 15 72 16 75 17 73 18 74 19 76 20 7 22 8 23 9 24
REMARK SMILES IDX 10 25 11 27 12 28 13 29 65 30 14 31 64 32 15 33 16 34 17 35
REMARK SMILES IDX 58 36 18 37 63 38 57 39 59 40 19 41 62 42 56 43 55 44 20 46
REMARK SMILES IDX 46 47 29 48 45 49 30 50 33 51 44 52 60 53 31 54 32 55 43 57
REMARK SMILES IDX 61 58 34 59 21 60 22 61 27 62 23 63 24 64 26 65 28 66 25 67
REMARK SMILES IDX 47 68 48 69 53 70 49 71 50 72 52 73 54 74 51 75 35 76 36 77
REMARK SMILES IDX 41 78 37 79 38 80 40 81 42 82 39 83
REMARK H PARENT 5 5 76 21 9 26 59 45 33 56
REMARK Flexibility Score: inf
ROOT
ATOM      1  C   UNL A   1      31.415  30.574  25.707  1.00  0.00     0.117 C 
ENDROOT
BRANCH   1   2
ATOM      2  N   UNL A   1      32.752  30.046  25.889  1.00  0.00    -0.356 N 
ATOM      3  C   UNL A   1      33.184  28.760  26.041  1.00  0.00     0.227 C 
ATOM      4  O   UNL A   1      34.375  28.615  26.327  1.00  0.00    -0.274 OA
ATOM      5  H   UNL A   1      33.464  30.725  25.908  1.00  0.00     0.163 HD
BRANCH   3   6
ATOM      6  C   UNL A   1      32.214  27.580  25.831  1.00  0.00     0.105 C 
ATOM      7  C   UNL A   1      31.419  27.289  27.108  1.00  0.00     0.023 C 
BRANCH   6   8
ATOM      8  C   UNL A   1      32.956  26.353  25.301  1.00  0.00    -0.036 A 
ATOM      9  C   UNL A   1      33.383  26.246  23.970  1.00  0.00     0.005 A 
ATOM     10  C   UNL A   1      33.166  25.257  26.155  1.00  0.00     0.005 A 
ATOM     11  C   UNL A   1      33.980  25.076  23.502  1.00  0.00     0.004 A 
ATOM     12  C   UNL A   1      33.735  24.074  25.675  1.00  0.00     0.004 A 
ATOM     13  C   UNL A   1      34.115  23.961  24.332  1.00  0.00    -0.048 A 
BRANCH  13  14
ATOM     14  C   UNL A   1      34.610  22.647  23.776  1.00  0.00     0.041 C 
BRANCH  14  15
ATOM     15  C   UNL A   1      36.050  22.256  24.162  1.00  0.00     0.022 C 
ATOM     16  C   UNL A   1      37.002  23.418  24.495  1.00  0.00     0.007 C 
ATOM     17  C   UNL A   1      36.189  21.302  25.351  1.00  0.00     0.117 C 
ATOM     18  C   UNL A   1      37.918  22.910  25.613  1.00  0.00     0.003 C 
ATOM     19  C   UNL A   1      37.665  21.413  25.700  1.00  0.00     0.032 C 
BRANCH  17  20
ATOM     20  O   UNL A   1      35.833  19.980  24.992  1.00  0.00    -0.393 OA
ATOM     21  H   UNL A   1      36.278  19.738  24.165  1.00  0.00     0.210 HD
ENDBRANCH  17  20
ENDBRANCH  14  15
ENDBRANCH  13  14
ENDBRANCH   6   8
ENDBRANCH   3   6
ENDBRANCH   1   2
BRANCH   1  22
ATOM     22  C   UNL A   1      31.212  31.867  26.497  1.00  0.00     0.042 C 
BRANCH  22  23
ATOM     23  C   UNL A   1      32.500  32.473  27.050  1.00  0.00     0.118 C 
BRANCH  23  24
ATOM     24  N   UNL A   1      32.337  33.863  27.446  1.00  0.00    -0.352 N 
ATOM     25  C   UNL A   1      33.029  34.608  28.368  1.00  0.00     0.251 C 
ATOM     26  H   UNL A   1      31.618  34.346  26.979  1.00  0.00     0.163 HD
ATOM     27  O   UNL A   1      32.607  35.716  28.686  1.00  0.00    -0.269 OA
BRANCH  25  28
ATOM     28  C   UNL A   1      34.265  34.089  28.998  1.00  0.00     0.039 A 
ATOM     29  C   UNL A   1      34.147  33.266  30.122  1.00  0.00     0.014 A 
ATOM     30  C   UNL A   1      35.532  34.445  28.525  1.00  0.00     0.014 A 
ATOM     31  C   UNL A   1      35.294  32.754  30.736  1.00  0.00     0.010 A 
ATOM     32  C   UNL A   1      36.672  33.882  29.099  1.00  0.00     0.010 A 
ATOM     33  C   UNL A   1      36.565  33.034  30.210  1.00  0.00    -0.014 A 
BRANCH  33  34
ATOM     34  C   UNL A   1      37.789  32.446  30.811  1.00  0.00     0.031 A 
ATOM     35  C   UNL A   1      38.431  31.233  30.198  1.00  0.00     0.074 A 
ATOM     36  C   UNL A   1      38.291  32.970  31.947  1.00  0.00     0.049 A 
ATOM     37  N   UNL A   1      39.457  30.538  30.619  1.00  0.00    -0.248 NA
ATOM     38  C   UNL A   1      37.824  30.718  28.961  1.00  0.00     0.031 C 
ATOM     39  C   UNL A   1      37.739  34.120  32.664  1.00  0.00     0.029 A 
ATOM     40  N   UNL A   1      39.372  32.594  32.704  1.00  0.00    -0.354 N 
ATOM     41  C   UNL A   1      39.609  29.497  29.712  1.00  0.00     0.074 A 
ATOM     42  C   UNL A   1      38.544  29.626  28.740  1.00  0.00     0.031 C 
ATOM     43  C   UNL A   1      38.494  34.367  33.747  1.00  0.00     0.029 A 
ATOM     44  C   UNL A   1      39.560  33.372  33.819  1.00  0.00     0.049 A 
ATOM     45  H   UNL A   1      39.956  31.837  32.470  1.00  0.00     0.167 HD
ATOM     46  C   UNL A   1      40.559  28.533  29.680  1.00  0.00     0.037 A 
ATOM     47  C   UNL A   1      40.483  33.291  34.796  1.00  0.00     0.037 A 
ATOM     48  C   UNL A   1      41.636  28.419  30.629  1.00  0.00     0.049 A 
ATOM     49  C   UNL A   1      41.527  32.213  34.737  1.00  0.00     0.074 A 
ATOM     50  C   UNL A   1      42.683  27.515  30.642  1.00  0.00     0.029 A 
ATOM     51  N   UNL A   1      41.801  29.239  31.735  1.00  0.00    -0.354 N 
ATOM     52  N   UNL A   1      41.693  31.272  33.839  1.00  0.00    -0.248 NA
ATOM     53  C   UNL A   1      42.515  32.186  35.825  1.00  0.00     0.031 C 
ATOM     54  C   UNL A   1      43.464  27.764  31.777  1.00  0.00     0.029 A 
ATOM     55  C   UNL A   1      42.923  28.849  32.448  1.00  0.00     0.049 A 
ATOM     56  H   UNL A   1      41.209  29.988  31.978  1.00  0.00     0.167 HD
ATOM     57  C   UNL A   1      42.815  30.558  34.239  1.00  0.00     0.074 A 
ATOM     58  C   UNL A   1      43.297  31.182  35.455  1.00  0.00     0.031 C 
ATOM     59  C   UNL A   1      43.393  29.482  33.653  1.00  0.00     0.037 A 
BRANCH  46  60
ATOM     60  C   UNL A   1      40.479  27.520  28.575  1.00  0.00     0.057 A 
ATOM     61  C   UNL A   1      39.689  26.368  28.686  1.00  0.00     0.134 A 
ATOM     62  C   UNL A   1      41.170  27.717  27.373  1.00  0.00     0.134 A 
ATOM     63  F   UNL A   1      39.011  26.115  29.816  1.00  0.00    -0.206 F 
ATOM     64  C   UNL A   1      39.610  25.434  27.651  1.00  0.00     0.040 A 
ATOM     65  C   UNL A   1      41.079  26.802  26.321  1.00  0.00     0.040 A 
ATOM     66  F   UNL A   1      41.938  28.802  27.197  1.00  0.00    -0.206 F 
ATOM     67  C   UNL A   1      40.302  25.654  26.463  1.00  0.00     0.006 A 
ENDBRANCH  46  60
BRANCH  47  68
ATOM     68  C   UNL A   1      40.474  34.275  35.906  1.00  0.00     0.057 A 
ATOM     69  C   UNL A   1      39.696  34.063  37.049  1.00  0.00     0.134 A 
ATOM     70  C   UNL A   1      41.237  35.448  35.850  1.00  0.00     0.134 A 
ATOM     71  F   UNL A   1      38.929  32.968  37.150  1.00  0.00    -0.206 F 
ATOM     72  C   UNL A   1      39.664  34.990  38.093  1.00  0.00     0.040 A 
ATOM     73  C   UNL A   1      41.231  36.372  36.897  1.00  0.00     0.040 A 
ATOM     74  F   UNL A   1      42.008  35.705  34.784  1.00  0.00    -0.206 F 
ATOM     75  C   UNL A   1      40.437  36.146  38.020  1.00  0.00     0.006 A 
ENDBRANCH  47  68
BRANCH  59  76
ATOM     76  C   UNL A   1      44.625  28.928  34.304  1.00  0.00     0.057 A 
ATOM     77  C   UNL A   1      44.555  27.954  35.306  1.00  0.00     0.134 A 
ATOM     78  C   UNL A   1      45.897  29.352  33.898  1.00  0.00     0.134 A 
ATOM     79  F   UNL A   1      43.366  27.517  35.748  1.00  0.00    -0.206 F 
ATOM     80  C   UNL A   1      45.708  27.431  35.896  1.00  0.00     0.040 A 
ATOM     81  C   UNL A   1      47.056  28.822  34.465  1.00  0.00     0.040 A 
ATOM     82  F   UNL A   1      46.033  30.279  32.938  1.00  0.00    -0.206 F 
ATOM     83  C   UNL A   1      46.963  27.862  35.471  1.00  0.00     0.006 A 
ENDBRANCH  59  76
ENDBRANCH  33  34
ENDBRANCH  25  28
ENDBRANCH  23  24
ENDBRANCH  22  23
ENDBRANCH   1  22
TORSDOF 14
ENDMDL
