MODEL 1
REMARK VINA RESULT:     -12.4      0.000      0.000
REMARK SMILES Cc1ccc(NC(=O)C[N@@H+]2CC[C@@H](C(=O)NCCCNC(=O)c3ccc(-c4c5nc(c(-c6c(F)cccc6F)c6ccc([nH]6)c(-c6c(F)cccc6F)c6nc(c(-c7c(F)cccc7F)c7ccc4[nH]7)C=C6)C=C5)cc3)[C@@H]2C)cc1
REMARK SMILES IDX 17 1 16 2 14 3 15 4 13 6 10 7 11 8 77 9 12 11 78 12 9 13
REMARK SMILES IDX 7 14 6 15 8 17 5 18 1 19 2 20 3 21 80 22 4 23 79 24 18 25
REMARK SMILES IDX 19 26 20 27 21 28 22 30 23 31 24 32 76 33 25 34 75 35 26 36
REMARK SMILES IDX 27 37 28 38 69 39 29 40 74 41 68 42 70 43 30 44 73 45 67 46
REMARK SMILES IDX 66 47 31 49 57 50 40 51 56 52 41 53 44 54 55 55 71 56 42 57
REMARK SMILES IDX 43 58 54 60 72 61 45 62 32 63 33 64 38 65 34 66 35 67 37 68
REMARK SMILES IDX 39 69 36 70 58 71 59 72 64 73 60 74 61 75 63 76 65 77 62 78
REMARK SMILES IDX 46 79 47 80 52 81 48 82 49 83 51 84 53 85 50 86
REMARK H PARENT 16 5 10 10 6 16 20 29 70 48 44 59
REMARK Flexibility Score: inf
ROOT
ATOM      1  C   UNL A   1      33.624  29.847  26.992  1.00  0.00     0.117 C 
ENDROOT
BRANCH   1   2
ATOM      2  N   UNL A   1      34.002  29.180  25.741  1.00  0.00    -0.356 N 
ATOM      3  C   UNL A   1      33.333  28.966  24.566  1.00  0.00     0.229 C 
ATOM      4  O   UNL A   1      34.045  28.928  23.552  1.00  0.00    -0.275 OA
ATOM      5  H   UNL A   1      34.917  28.817  25.748  1.00  0.00     0.163 HD
BRANCH   3   6
ATOM      6  C   UNL A   1      31.825  28.677  24.406  1.00  0.00     0.142 C 
ATOM      7  N   UNL A   1      31.418  27.036  22.920  1.00  0.00    -0.324 N 
ATOM      8  C   UNL A   1      30.746  26.475  24.071  1.00  0.00     0.263 C 
ATOM      9  C   UNL A   1      31.306  28.493  22.991  1.00  0.00     0.194 C 
ATOM     10  H   UNL A   1      32.403  26.781  22.994  1.00  0.00     0.348 HD
ATOM     11  C   UNL A   1      31.257  27.440  25.165  1.00  0.00     0.081 C 
ATOM     12  C   UNL A   1      29.896  29.097  22.887  1.00  0.00     0.076 C 
BRANCH   7  13
ATOM     13  C   UNL A   1      31.403  26.366  21.644  1.00  0.00     0.364 C 
BRANCH  13  14
ATOM     14  C   UNL A   1      32.617  25.480  21.231  1.00  0.00     0.279 C 
ATOM     15  N   UNL A   1      33.547  24.789  21.957  1.00  0.00    -0.321 N 
ATOM     16  H   UNL A   1      34.330  24.594  21.392  1.00  0.00     0.170 HD
ATOM     17  O   UNL A   1      32.908  25.526  20.017  1.00  0.00    -0.268 OA
BRANCH  15  18
ATOM     18  C   UNL A   1      33.753  24.264  23.252  1.00  0.00     0.041 A 
ATOM     19  C   UNL A   1      34.361  22.624  27.245  1.00  0.00     0.044 C 
ATOM     20  C   UNL A   1      34.099  23.152  25.869  1.00  0.00    -0.051 A 
ATOM     21  C   UNL A   1      34.376  24.481  25.611  1.00  0.00     0.005 A 
ATOM     22  C   UNL A   1      33.643  22.366  24.806  1.00  0.00     0.005 A 
ATOM     23  C   UNL A   1      34.186  24.996  24.330  1.00  0.00     0.026 A 
ATOM     24  C   UNL A   1      33.464  22.919  23.515  1.00  0.00     0.026 A 
ENDBRANCH  15  18
ENDBRANCH  13  14
ENDBRANCH   7  13
ENDBRANCH   3   6
ENDBRANCH   1   2
BRANCH   1  25
ATOM     25  C   UNL A   1      34.341  31.155  27.288  1.00  0.00     0.042 C 
BRANCH  25  26
ATOM     26  C   UNL A   1      34.692  31.337  28.757  1.00  0.00     0.118 C 
BRANCH  26  27
ATOM     27  N   UNL A   1      35.940  32.051  29.046  1.00  0.00    -0.352 N 
ATOM     28  C   UNL A   1      37.242  31.551  29.173  1.00  0.00     0.251 C 
ATOM     29  H   UNL A   1      35.850  33.023  29.170  1.00  0.00     0.163 HD
ATOM     30  O   UNL A   1      38.169  32.293  29.403  1.00  0.00    -0.269 OA
BRANCH  28  31
ATOM     31  C   UNL A   1      37.498  30.114  28.855  1.00  0.00     0.039 A 
ATOM     32  C   UNL A   1      37.598  29.228  29.932  1.00  0.00     0.014 A 
ATOM     33  C   UNL A   1      38.023  29.768  27.623  1.00  0.00     0.014 A 
ATOM     34  C   UNL A   1      38.533  28.200  29.868  1.00  0.00     0.010 A 
ATOM     35  C   UNL A   1      39.088  28.897  27.623  1.00  0.00     0.010 A 
ATOM     36  C   UNL A   1      39.388  28.156  28.770  1.00  0.00    -0.014 A 
BRANCH  36  37
ATOM     37  C   UNL A   1      40.671  27.462  28.774  1.00  0.00     0.031 A 
ATOM     38  C   UNL A   1      40.722  26.013  28.482  1.00  0.00     0.074 A 
ATOM     39  C   UNL A   1      41.819  28.161  28.939  1.00  0.00     0.049 A 
ATOM     40  N   UNL A   1      41.669  25.226  28.866  1.00  0.00    -0.248 NA
ATOM     41  C   UNL A   1      39.668  25.319  27.755  1.00  0.00     0.031 C 
ATOM     42  C   UNL A   1      43.180  27.695  28.686  1.00  0.00     0.029 A 
ATOM     43  N   UNL A   1      41.990  29.411  29.552  1.00  0.00    -0.354 N 
ATOM     44  C   UNL A   1      41.501  24.018  28.224  1.00  0.00     0.074 A 
ATOM     45  C   UNL A   1      40.211  24.112  27.589  1.00  0.00     0.031 C 
ATOM     46  C   UNL A   1      44.041  28.474  29.358  1.00  0.00     0.029 A 
ATOM     47  C   UNL A   1      43.257  29.384  30.176  1.00  0.00     0.049 A 
ATOM     48  H   UNL A   1      41.352  30.160  29.548  1.00  0.00     0.167 HD
ATOM     49  C   UNL A   1      42.535  23.128  28.197  1.00  0.00     0.037 A 
ATOM     50  C   UNL A   1      43.387  29.519  31.527  1.00  0.00     0.037 A 
ATOM     51  C   UNL A   1      43.670  23.631  28.970  1.00  0.00     0.049 A 
ATOM     52  C   UNL A   1      43.975  28.304  32.207  1.00  0.00     0.074 A 
ATOM     53  C   UNL A   1      44.826  24.296  28.595  1.00  0.00     0.029 A 
ATOM     54  N   UNL A   1      43.563  23.774  30.350  1.00  0.00    -0.354 N 
ATOM     55  N   UNL A   1      44.050  27.127  31.650  1.00  0.00    -0.248 NA
ATOM     56  C   UNL A   1      44.496  28.307  33.573  1.00  0.00     0.031 C 
ATOM     57  C   UNL A   1      45.383  24.895  29.751  1.00  0.00     0.029 A 
ATOM     58  C   UNL A   1      44.579  24.576  30.832  1.00  0.00     0.049 A 
ATOM     59  H   UNL A   1      42.861  23.361  30.905  1.00  0.00     0.167 HD
ATOM     60  C   UNL A   1      44.557  26.226  32.549  1.00  0.00     0.074 A 
ATOM     61  C   UNL A   1      44.844  27.017  33.730  1.00  0.00     0.031 C 
ATOM     62  C   UNL A   1      44.678  24.899  32.248  1.00  0.00     0.037 A 
BRANCH  49  63
ATOM     63  C   UNL A   1      42.636  21.969  27.222  1.00  0.00     0.057 A 
ATOM     64  C   UNL A   1      41.823  20.829  27.376  1.00  0.00     0.134 A 
ATOM     65  C   UNL A   1      43.547  21.876  26.156  1.00  0.00     0.134 A 
ATOM     66  F   UNL A   1      40.809  20.797  28.252  1.00  0.00    -0.206 F 
ATOM     67  C   UNL A   1      42.000  19.653  26.635  1.00  0.00     0.040 A 
ATOM     68  C   UNL A   1      43.775  20.689  25.442  1.00  0.00     0.040 A 
ATOM     69  F   UNL A   1      44.212  22.942  25.700  1.00  0.00    -0.206 F 
ATOM     70  C   UNL A   1      43.011  19.562  25.693  1.00  0.00     0.006 A 
ENDBRANCH  49  63
BRANCH  50  71
ATOM     71  C   UNL A   1      42.371  30.426  32.121  1.00  0.00     0.057 A 
ATOM     72  C   UNL A   1      42.586  31.812  32.034  1.00  0.00     0.134 A 
ATOM     73  C   UNL A   1      41.066  29.996  32.374  1.00  0.00     0.134 A 
ATOM     74  F   UNL A   1      43.819  32.290  31.802  1.00  0.00    -0.206 F 
ATOM     75  C   UNL A   1      41.529  32.725  32.068  1.00  0.00     0.040 A 
ATOM     76  C   UNL A   1      40.000  30.904  32.416  1.00  0.00     0.040 A 
ATOM     77  F   UNL A   1      40.780  28.689  32.448  1.00  0.00    -0.206 F 
ATOM     78  C   UNL A   1      40.225  32.266  32.221  1.00  0.00     0.006 A 
ENDBRANCH  50  71
BRANCH  62  79
ATOM     79  C   UNL A   1      44.986  23.799  33.232  1.00  0.00     0.057 A 
ATOM     80  C   UNL A   1      46.228  23.629  33.860  1.00  0.00     0.134 A 
ATOM     81  C   UNL A   1      43.957  22.949  33.698  1.00  0.00     0.134 A 
ATOM     82  F   UNL A   1      47.265  24.436  33.593  1.00  0.00    -0.206 F 
ATOM     83  C   UNL A   1      46.448  22.651  34.838  1.00  0.00     0.040 A 
ATOM     84  C   UNL A   1      44.151  22.006  34.711  1.00  0.00     0.040 A 
ATOM     85  F   UNL A   1      42.711  23.016  33.205  1.00  0.00    -0.206 F 
ATOM     86  C   UNL A   1      45.405  21.843  35.276  1.00  0.00     0.006 A 
ENDBRANCH  62  79
ENDBRANCH  36  37
ENDBRANCH  28  31
ENDBRANCH  26  27
ENDBRANCH  25  26
ENDBRANCH   1  25
TORSDOF 13
ENDMDL
MODEL 2
REMARK VINA RESULT:     -12.2      1.713      2.384
REMARK SMILES Cc1ccc(NC(=O)C[N@@H+]2CC[C@@H](C(=O)NCCCNC(=O)c3ccc(-c4c5nc(c(-c6c(F)cccc6F)c6ccc([nH]6)c(-c6c(F)cccc6F)c6nc(c(-c7c(F)cccc7F)c7ccc4[nH]7)C=C6)C=C5)cc3)[C@@H]2C)cc1
REMARK SMILES IDX 17 1 16 2 14 3 15 4 13 6 10 7 11 8 77 9 12 11 78 12 9 13
REMARK SMILES IDX 7 14 6 15 8 17 5 18 1 19 2 20 3 21 80 22 4 23 79 24 18 25
REMARK SMILES IDX 19 26 20 27 21 28 22 30 23 31 24 32 76 33 25 34 75 35 26 36
REMARK SMILES IDX 27 37 28 38 69 39 29 40 74 41 68 42 70 43 30 44 73 45 67 46
REMARK SMILES IDX 66 47 31 49 57 50 40 51 56 52 41 53 44 54 55 55 71 56 42 57
REMARK SMILES IDX 43 58 54 60 72 61 45 62 32 63 33 64 38 65 34 66 35 67 37 68
REMARK SMILES IDX 39 69 36 70 58 71 59 72 64 73 60 74 61 75 63 76 65 77 62 78
REMARK SMILES IDX 46 79 47 80 52 81 48 82 49 83 51 84 53 85 50 86
REMARK H PARENT 16 5 10 10 6 16 20 29 70 48 44 59
REMARK Flexibility Score: inf
ROOT
ATOM      1  C   UNL A   1      32.072  31.030  26.877  1.00  0.00     0.117 C 
ENDROOT
BRANCH   1   2
ATOM      2  N   UNL A   1      31.923  30.506  25.516  1.00  0.00    -0.356 N 
ATOM      3  C   UNL A   1      31.386  29.348  25.021  1.00  0.00     0.229 C 
ATOM      4  O   UNL A   1      30.877  29.440  23.894  1.00  0.00    -0.275 OA
ATOM      5  H   UNL A   1      32.278  31.106  24.820  1.00  0.00     0.163 HD
BRANCH   3   6
ATOM      6  C   UNL A   1      31.441  27.954  25.682  1.00  0.00     0.142 C 
ATOM      7  N   UNL A   1      31.975  26.331  24.216  1.00  0.00    -0.324 N 
ATOM      8  C   UNL A   1      33.028  26.121  25.185  1.00  0.00     0.263 C 
ATOM      9  C   UNL A   1      30.789  26.808  24.926  1.00  0.00     0.194 C 
ATOM     10  H   UNL A   1      32.293  27.064  23.582  1.00  0.00     0.348 HD
ATOM     11  C   UNL A   1      32.851  27.396  26.040  1.00  0.00     0.081 C 
ATOM     12  C   UNL A   1      30.135  25.848  25.932  1.00  0.00     0.076 C 
BRANCH   7  13
ATOM     13  C   UNL A   1      31.839  25.478  23.062  1.00  0.00     0.364 C 
BRANCH  13  14
ATOM     14  C   UNL A   1      33.107  24.811  22.449  1.00  0.00     0.279 C 
ATOM     15  N   UNL A   1      33.746  23.630  22.705  1.00  0.00    -0.321 N 
ATOM     16  H   UNL A   1      34.665  23.667  22.353  1.00  0.00     0.170 HD
ATOM     17  O   UNL A   1      33.771  25.550  21.691  1.00  0.00    -0.268 OA
BRANCH  15  18
ATOM     18  C   UNL A   1      33.519  22.373  23.309  1.00  0.00     0.041 A 
ATOM     19  C   UNL A   1      32.850  18.491  25.176  1.00  0.00     0.044 C 
ATOM     20  C   UNL A   1      33.143  19.813  24.536  1.00  0.00    -0.051 A 
ATOM     21  C   UNL A   1      32.296  20.263  23.542  1.00  0.00     0.005 A 
ATOM     22  C   UNL A   1      34.193  20.651  24.924  1.00  0.00     0.005 A 
ATOM     23  C   UNL A   1      32.512  21.509  22.955  1.00  0.00     0.026 A 
ATOM     24  C   UNL A   1      34.383  21.913  24.310  1.00  0.00     0.026 A 
ENDBRANCH  15  18
ENDBRANCH  13  14
ENDBRANCH   7  13
ENDBRANCH   3   6
ENDBRANCH   1   2
BRANCH   1  25
ATOM     25  C   UNL A   1      33.367  30.668  27.589  1.00  0.00     0.042 C 
BRANCH  25  26
ATOM     26  C   UNL A   1      34.418  31.766  27.535  1.00  0.00     0.118 C 
BRANCH  26  27
ATOM     27  N   UNL A   1      34.949  32.225  28.823  1.00  0.00    -0.352 N 
ATOM     28  C   UNL A   1      35.818  31.576  29.709  1.00  0.00     0.251 C 
ATOM     29  H   UNL A   1      34.652  33.119  29.107  1.00  0.00     0.163 HD
ATOM     30  O   UNL A   1      36.170  32.114  30.734  1.00  0.00    -0.269 OA
BRANCH  28  31
ATOM     31  C   UNL A   1      36.440  30.283  29.294  1.00  0.00     0.039 A 
ATOM     32  C   UNL A   1      36.643  29.322  30.289  1.00  0.00     0.014 A 
ATOM     33  C   UNL A   1      37.151  30.213  28.109  1.00  0.00     0.014 A 
ATOM     34  C   UNL A   1      37.798  28.548  30.246  1.00  0.00     0.010 A 
ATOM     35  C   UNL A   1      38.387  29.613  28.160  1.00  0.00     0.010 A 
ATOM     36  C   UNL A   1      38.742  28.829  29.263  1.00  0.00    -0.014 A 
BRANCH  36  37
ATOM     37  C   UNL A   1      40.147  28.449  29.360  1.00  0.00     0.031 A 
ATOM     38  C   UNL A   1      40.607  27.181  28.753  1.00  0.00     0.074 A 
ATOM     39  C   UNL A   1      41.042  29.302  29.911  1.00  0.00     0.049 A 
ATOM     40  N   UNL A   1      41.662  26.538  29.124  1.00  0.00    -0.248 NA
ATOM     41  C   UNL A   1      39.877  26.507  27.688  1.00  0.00     0.031 C 
ATOM     42  C   UNL A   1      42.500  29.222  29.834  1.00  0.00     0.029 A 
ATOM     43  N   UNL A   1      40.801  30.341  30.821  1.00  0.00    -0.354 N 
ATOM     44  C   UNL A   1      41.900  25.546  28.196  1.00  0.00     0.074 A 
ATOM     45  C   UNL A   1      40.729  25.536  27.355  1.00  0.00     0.031 C 
ATOM     46  C   UNL A   1      43.030  29.950  30.828  1.00  0.00     0.029 A 
ATOM     47  C   UNL A   1      41.934  30.412  31.662  1.00  0.00     0.049 A 
ATOM     48  H   UNL A   1      39.999  30.909  30.865  1.00  0.00     0.167 HD
ATOM     49  C   UNL A   1      43.121  24.938  28.169  1.00  0.00     0.037 A 
ATOM     50  C   UNL A   1      41.837  30.194  33.005  1.00  0.00     0.037 A 
ATOM     51  C   UNL A   1      43.971  25.437  29.249  1.00  0.00     0.049 A 
ATOM     52  C   UNL A   1      42.618  28.992  33.485  1.00  0.00     0.074 A 
ATOM     53  C   UNL A   1      44.958  26.408  29.280  1.00  0.00     0.029 A 
ATOM     54  N   UNL A   1      43.641  25.168  30.574  1.00  0.00    -0.354 N 
ATOM     55  N   UNL A   1      43.068  28.057  32.695  1.00  0.00    -0.248 NA
ATOM     56  C   UNL A   1      42.926  28.728  34.889  1.00  0.00     0.031 C 
ATOM     57  C   UNL A   1      45.178  26.769  30.631  1.00  0.00     0.029 A 
ATOM     58  C   UNL A   1      44.341  26.002  31.424  1.00  0.00     0.049 A 
ATOM     59  H   UNL A   1      42.999  24.479  30.864  1.00  0.00     0.167 HD
ATOM     60  C   UNL A   1      43.660  27.071  33.440  1.00  0.00     0.074 A 
ATOM     61  C   UNL A   1      43.569  27.549  34.806  1.00  0.00     0.031 C 
ATOM     62  C   UNL A   1      44.157  25.936  32.867  1.00  0.00     0.037 A 
BRANCH  49  63
ATOM     63  C   UNL A   1      43.650  24.142  26.990  1.00  0.00     0.057 A 
ATOM     64  C   UNL A   1      44.317  24.788  25.930  1.00  0.00     0.134 A 
ATOM     65  C   UNL A   1      43.485  22.760  26.797  1.00  0.00     0.134 A 
ATOM     66  F   UNL A   1      44.681  26.075  26.005  1.00  0.00    -0.206 F 
ATOM     67  C   UNL A   1      44.656  24.147  24.731  1.00  0.00     0.040 A 
ATOM     68  C   UNL A   1      43.766  22.114  25.582  1.00  0.00     0.040 A 
ATOM     69  F   UNL A   1      43.112  21.947  27.791  1.00  0.00    -0.206 F 
ATOM     70  C   UNL A   1      44.339  22.813  24.534  1.00  0.00     0.006 A 
ENDBRANCH  49  63
BRANCH  50  71
ATOM     71  C   UNL A   1      40.551  30.665  33.579  1.00  0.00     0.057 A 
ATOM     72  C   UNL A   1      40.410  32.035  33.858  1.00  0.00     0.134 A 
ATOM     73  C   UNL A   1      39.379  29.913  33.464  1.00  0.00     0.134 A 
ATOM     74  F   UNL A   1      41.498  32.811  33.990  1.00  0.00    -0.206 F 
ATOM     75  C   UNL A   1      39.159  32.656  33.893  1.00  0.00     0.040 A 
ATOM     76  C   UNL A   1      38.119  30.525  33.503  1.00  0.00     0.040 A 
ATOM     77  F   UNL A   1      39.432  28.606  33.177  1.00  0.00    -0.206 F 
ATOM     78  C   UNL A   1      38.010  31.904  33.675  1.00  0.00     0.006 A 
ENDBRANCH  50  71
BRANCH  62  79
ATOM     79  C   UNL A   1      44.598  24.698  33.606  1.00  0.00     0.057 A 
ATOM     80  C   UNL A   1      45.928  24.262  33.689  1.00  0.00     0.134 A 
ATOM     81  C   UNL A   1      43.680  23.978  34.404  1.00  0.00     0.134 A 
ATOM     82  F   UNL A   1      46.920  24.916  33.069  1.00  0.00    -0.206 F 
ATOM     83  C   UNL A   1      46.310  23.158  34.462  1.00  0.00     0.040 A 
ATOM     84  C   UNL A   1      44.059  22.910  35.222  1.00  0.00     0.040 A 
ATOM     85  F   UNL A   1      42.378  24.299  34.443  1.00  0.00    -0.206 F 
ATOM     86  C   UNL A   1      45.377  22.485  35.242  1.00  0.00     0.006 A 
ENDBRANCH  62  79
ENDBRANCH  36  37
ENDBRANCH  28  31
ENDBRANCH  26  27
ENDBRANCH  25  26
ENDBRANCH   1  25
TORSDOF 13
ENDMDL
MODEL 3
REMARK VINA RESULT:     -12.2      1.882      2.437
REMARK SMILES Cc1ccc(NC(=O)C[N@@H+]2CC[C@@H](C(=O)NCCCNC(=O)c3ccc(-c4c5nc(c(-c6c(F)cccc6F)c6ccc([nH]6)c(-c6c(F)cccc6F)c6nc(c(-c7c(F)cccc7F)c7ccc4[nH]7)C=C6)C=C5)cc3)[C@@H]2C)cc1
REMARK SMILES IDX 17 1 16 2 14 3 15 4 13 6 10 7 11 8 77 9 12 11 78 12 9 13
REMARK SMILES IDX 7 14 6 15 8 17 5 18 1 19 2 20 3 21 80 22 4 23 79 24 18 25
REMARK SMILES IDX 19 26 20 27 21 28 22 30 23 31 24 32 76 33 25 34 75 35 26 36
REMARK SMILES IDX 27 37 28 38 69 39 29 40 74 41 68 42 70 43 30 44 73 45 67 46
REMARK SMILES IDX 66 47 31 49 57 50 40 51 56 52 41 53 44 54 55 55 71 56 42 57
REMARK SMILES IDX 43 58 54 60 72 61 45 62 32 63 33 64 38 65 34 66 35 67 37 68
REMARK SMILES IDX 39 69 36 70 58 71 59 72 64 73 60 74 61 75 63 76 65 77 62 78
REMARK SMILES IDX 46 79 47 80 52 81 48 82 49 83 51 84 53 85 50 86
REMARK H PARENT 16 5 10 10 6 16 20 29 70 48 44 59
REMARK Flexibility Score: inf
ROOT
ATOM      1  C   UNL A   1      32.828  30.556  27.057  1.00  0.00     0.117 C 
ENDROOT
BRANCH   1   2
ATOM      2  N   UNL A   1      31.807  29.521  27.244  1.00  0.00    -0.356 N 
ATOM      3  C   UNL A   1      31.783  28.181  26.964  1.00  0.00     0.229 C 
ATOM      4  O   UNL A   1      31.091  27.493  27.728  1.00  0.00    -0.275 OA
ATOM      5  H   UNL A   1      30.975  29.855  27.651  1.00  0.00     0.163 HD
BRANCH   3   6
ATOM      6  C   UNL A   1      32.446  27.482  25.757  1.00  0.00     0.142 C 
ATOM      7  N   UNL A   1      31.275  25.693  25.053  1.00  0.00    -0.324 N 
ATOM      8  C   UNL A   1      31.312  26.444  23.817  1.00  0.00     0.263 C 
ATOM      9  C   UNL A   1      32.508  25.964  25.791  1.00  0.00     0.194 C 
ATOM     10  H   UNL A   1      30.486  26.047  25.595  1.00  0.00     0.348 HD
ATOM     11  C   UNL A   1      31.854  27.790  24.349  1.00  0.00     0.081 C 
ATOM     12  C   UNL A   1      33.828  25.499  25.153  1.00  0.00     0.076 C 
BRANCH   7  13
ATOM     13  C   UNL A   1      30.658  24.392  25.120  1.00  0.00     0.364 C 
BRANCH  13  14
ATOM     14  C   UNL A   1      30.855  23.517  26.394  1.00  0.00     0.279 C 
ATOM     15  N   UNL A   1      31.729  22.511  26.699  1.00  0.00    -0.321 N 
ATOM     16  H   UNL A   1      31.382  21.988  27.458  1.00  0.00     0.170 HD
ATOM     17  O   UNL A   1      29.952  23.630  27.251  1.00  0.00    -0.268 OA
BRANCH  15  18
ATOM     18  C   UNL A   1      32.968  21.975  26.280  1.00  0.00     0.041 A 
ATOM     19  C   UNL A   1      36.804  20.352  24.995  1.00  0.00     0.044 C 
ATOM     20  C   UNL A   1      35.515  20.967  25.444  1.00  0.00    -0.051 A 
ATOM     21  C   UNL A   1      34.347  20.574  24.818  1.00  0.00     0.005 A 
ATOM     22  C   UNL A   1      35.411  21.875  26.502  1.00  0.00     0.005 A 
ATOM     23  C   UNL A   1      33.124  21.092  25.240  1.00  0.00     0.026 A 
ATOM     24  C   UNL A   1      34.152  22.379  26.909  1.00  0.00     0.026 A 
ENDBRANCH  15  18
ENDBRANCH  13  14
ENDBRANCH   7  13
ENDBRANCH   3   6
ENDBRANCH   1   2
BRANCH   1  25
ATOM     25  C   UNL A   1      34.168  30.294  27.727  1.00  0.00     0.042 C 
BRANCH  25  26
ATOM     26  C   UNL A   1      35.138  31.462  27.626  1.00  0.00     0.118 C 
BRANCH  26  27
ATOM     27  N   UNL A   1      35.750  31.912  28.880  1.00  0.00    -0.352 N 
ATOM     28  C   UNL A   1      36.646  31.243  29.723  1.00  0.00     0.251 C 
ATOM     29  H   UNL A   1      35.496  32.817  29.172  1.00  0.00     0.163 HD
ATOM     30  O   UNL A   1      37.068  31.776  30.724  1.00  0.00    -0.269 OA
BRANCH  28  31
ATOM     31  C   UNL A   1      37.205  29.930  29.286  1.00  0.00     0.039 A 
ATOM     32  C   UNL A   1      37.388  28.952  30.270  1.00  0.00     0.014 A 
ATOM     33  C   UNL A   1      37.890  29.840  28.087  1.00  0.00     0.014 A 
ATOM     34  C   UNL A   1      38.509  28.131  30.198  1.00  0.00     0.010 A 
ATOM     35  C   UNL A   1      39.101  29.189  28.108  1.00  0.00     0.010 A 
ATOM     36  C   UNL A   1      39.444  28.381  29.198  1.00  0.00    -0.014 A 
BRANCH  36  37
ATOM     37  C   UNL A   1      40.834  27.943  29.264  1.00  0.00     0.031 A 
ATOM     38  C   UNL A   1      41.229  26.663  28.638  1.00  0.00     0.074 A 
ATOM     39  C   UNL A   1      41.775  28.754  29.803  1.00  0.00     0.049 A 
ATOM     40  N   UNL A   1      42.264  25.973  28.983  1.00  0.00    -0.248 NA
ATOM     41  C   UNL A   1      40.451  26.028  27.583  1.00  0.00     0.031 C 
ATOM     42  C   UNL A   1      43.225  28.615  29.696  1.00  0.00     0.029 A 
ATOM     43  N   UNL A   1      41.595  29.794  30.726  1.00  0.00    -0.354 N 
ATOM     44  C   UNL A   1      42.442  24.981  28.043  1.00  0.00     0.074 A 
ATOM     45  C   UNL A   1      41.255  25.026  27.226  1.00  0.00     0.031 C 
ATOM     46  C   UNL A   1      43.805  29.312  30.685  1.00  0.00     0.029 A 
ATOM     47  C   UNL A   1      42.746  29.811  31.544  1.00  0.00     0.049 A 
ATOM     48  H   UNL A   1      40.818  30.395  30.791  1.00  0.00     0.167 HD
ATOM     49  C   UNL A   1      43.636  24.323  27.987  1.00  0.00     0.037 A 
ATOM     50  C   UNL A   1      42.666  29.587  32.888  1.00  0.00     0.037 A 
ATOM     51  C   UNL A   1      44.527  24.777  29.054  1.00  0.00     0.049 A 
ATOM     52  C   UNL A   1      43.406  28.349  33.342  1.00  0.00     0.074 A 
ATOM     53  C   UNL A   1      45.554  25.707  29.071  1.00  0.00     0.029 A 
ATOM     54  N   UNL A   1      44.213  24.511  30.383  1.00  0.00    -0.354 N 
ATOM     55  N   UNL A   1      43.802  27.404  32.536  1.00  0.00    -0.248 NA
ATOM     56  C   UNL A   1      43.731  28.062  34.738  1.00  0.00     0.031 C 
ATOM     57  C   UNL A   1      45.815  26.048  30.421  1.00  0.00     0.029 A 
ATOM     58  C   UNL A   1      44.963  25.309  31.225  1.00  0.00     0.049 A 
ATOM     59  H   UNL A   1      43.549  23.847  30.681  1.00  0.00     0.167 HD
ATOM     60  C   UNL A   1      44.367  26.388  33.262  1.00  0.00     0.074 A 
ATOM     61  C   UNL A   1      44.323  26.858  34.633  1.00  0.00     0.031 C 
ATOM     62  C   UNL A   1      44.806  25.238  32.670  1.00  0.00     0.037 A 
BRANCH  49  63
ATOM     63  C   UNL A   1      44.108  23.515  26.792  1.00  0.00     0.057 A 
ATOM     64  C   UNL A   1      43.640  22.202  26.583  1.00  0.00     0.134 A 
ATOM     65  C   UNL A   1      45.062  23.933  25.848  1.00  0.00     0.134 A 
ATOM     66  F   UNL A   1      42.632  21.689  27.301  1.00  0.00    -0.206 F 
ATOM     67  C   UNL A   1      44.178  21.339  25.619  1.00  0.00     0.040 A 
ATOM     68  C   UNL A   1      45.650  23.066  24.914  1.00  0.00     0.040 A 
ATOM     69  F   UNL A   1      45.423  25.215  25.730  1.00  0.00    -0.206 F 
ATOM     70  C   UNL A   1      45.220  21.755  24.808  1.00  0.00     0.006 A 
ENDBRANCH  49  63
BRANCH  50  71
ATOM     71  C   UNL A   1      41.413  30.106  33.491  1.00  0.00     0.057 A 
ATOM     72  C   UNL A   1      41.327  31.482  33.765  1.00  0.00     0.134 A 
ATOM     73  C   UNL A   1      40.212  29.395  33.409  1.00  0.00     0.134 A 
ATOM     74  F   UNL A   1      42.444  32.219  33.865  1.00  0.00    -0.206 F 
ATOM     75  C   UNL A   1      40.100  32.146  33.827  1.00  0.00     0.040 A 
ATOM     76  C   UNL A   1      38.976  30.051  33.476  1.00  0.00     0.040 A 
ATOM     77  F   UNL A   1      40.213  28.085  33.129  1.00  0.00    -0.206 F 
ATOM     78  C   UNL A   1      38.919  31.434  33.642  1.00  0.00     0.006 A 
ENDBRANCH  50  71
BRANCH  62  79
ATOM     79  C   UNL A   1      45.209  23.977  33.392  1.00  0.00     0.057 A 
ATOM     80  C   UNL A   1      46.453  23.788  34.011  1.00  0.00     0.134 A 
ATOM     81  C   UNL A   1      44.266  22.949  33.615  1.00  0.00     0.134 A 
ATOM     82  F   UNL A   1      47.406  24.730  33.972  1.00  0.00    -0.206 F 
ATOM     83  C   UNL A   1      46.757  22.638  34.751  1.00  0.00     0.040 A 
ATOM     84  C   UNL A   1      44.540  21.823  34.396  1.00  0.00     0.040 A 
ATOM     85  F   UNL A   1      43.027  23.007  33.103  1.00  0.00    -0.206 F 
ATOM     86  C   UNL A   1      45.796  21.656  34.956  1.00  0.00     0.006 A 
ENDBRANCH  62  79
ENDBRANCH  36  37
ENDBRANCH  28  31
ENDBRANCH  26  27
ENDBRANCH  25  26
ENDBRANCH   1  25
TORSDOF 13
ENDMDL
