MODEL 1
REMARK VINA RESULT:     -13.7      0.000      0.000
REMARK SMILES Cc1ccc(-c2cc(Cl)cc3c2O[C@H](C(F)(F)F)C(C(=O)NCCCNC(=O)c2ccc(-c4c5nc(c(-c6c(F)cccc6F)c6ccc([nH]6)c(-c6c(F)cccc6F)c6nc(c(-c7c(F)cccc7F)c7ccc4[nH]7)C=C6)C=C5)cc2)=C3)cc1F
REMARK SMILES IDX 24 1 23 2 22 3 20 4 21 5 19 7 6 8 7 9 12 10 8 11 11 12 13 13
REMARK SMILES IDX 9 14 10 15 83 16 14 17 5 18 1 19 2 20 3 21 85 22 4 23 84 24
REMARK SMILES IDX 86 25 15 26 16 27 17 28 18 29 25 30 26 31 27 32 28 34 29 35
REMARK SMILES IDX 30 36 82 37 31 38 81 39 32 40 33 41 34 42 75 43 35 44 80 45
REMARK SMILES IDX 74 46 76 47 36 48 79 49 73 50 72 51 37 53 63 54 46 55 62 56
REMARK SMILES IDX 47 57 50 58 61 59 77 60 48 61 49 62 60 64 78 65 51 66 38 67
REMARK SMILES IDX 39 68 44 69 40 70 41 71 43 72 45 73 42 74 64 75 65 76 70 77
REMARK SMILES IDX 66 78 67 79 69 80 71 81 68 82 52 83 53 84 58 85 54 86 55 87
REMARK SMILES IDX 57 88 59 89 56 90
REMARK H PARENT 22 6 26 33 76 52 50 63
REMARK Flexibility Score: inf
ROOT
ATOM      1  C   UNL A   1      32.888  30.573  26.413  1.00  0.00     0.042 C 
ENDROOT
BRANCH   1   2
ATOM      2  C   UNL A   1      31.581  29.829  26.137  1.00  0.00     0.118 C 
BRANCH   2   3
ATOM      3  N   UNL A   1      31.358  29.564  24.732  1.00  0.00    -0.352 N 
ATOM      4  C   UNL A   1      31.392  28.484  23.917  1.00  0.00     0.251 C 
ATOM      5  O   UNL A   1      31.148  28.734  22.731  1.00  0.00    -0.270 OA
ATOM      6  H   UNL A   1      31.118  30.384  24.241  1.00  0.00     0.163 HD
BRANCH   4   7
ATOM      7  C   UNL A   1      31.675  27.070  24.322  1.00  0.00     0.067 C 
ATOM      8  C   UNL A   1      32.224  23.134  25.784  1.00  0.00     0.026 A 
ATOM      9  C   UNL A   1      31.195  22.561  26.552  1.00  0.00     0.033 A 
ATOM     10  C   UNL A   1      32.009  24.418  25.236  1.00  0.00     0.135 A 
ATOM     11  C   UNL A   1      29.998  23.246  26.757  1.00  0.00     0.042 A 
ATOM     12  C   UNL A   1      30.808  25.103  25.446  1.00  0.00     0.019 A 
ATOM     13  O   UNL A   1      32.986  24.946  24.434  1.00  0.00    -0.475 OA
ATOM     14  Cl  UNL A   1      28.754  22.523  27.701  1.00  0.00    -0.084 Cl
ATOM     15  C   UNL A   1      29.798  24.511  26.209  1.00  0.00     0.032 A 
ATOM     16  C   UNL A   1      30.623  26.428  24.865  1.00  0.00     0.025 C 
ATOM     17  C   UNL A   1      33.021  26.394  24.286  1.00  0.00     0.314 C 
BRANCH   8  18
ATOM     18  C   UNL A   1      33.486  22.404  25.582  1.00  0.00    -0.012 A 
ATOM     19  C   UNL A   1      37.229  20.342  24.882  1.00  0.00     0.047 C 
ATOM     20  C   UNL A   1      35.923  21.030  25.135  1.00  0.00    -0.015 A 
ATOM     21  C   UNL A   1      34.710  20.478  24.711  1.00  0.00     0.007 A 
ATOM     22  C   UNL A   1      35.899  22.258  25.797  1.00  0.00     0.126 A 
ATOM     23  C   UNL A   1      33.507  21.156  24.935  1.00  0.00     0.009 A 
ATOM     24  C   UNL A   1      34.705  22.939  26.024  1.00  0.00     0.048 A 
ATOM     25  F   UNL A   1      37.046  22.808  26.221  1.00  0.00    -0.207 F 
ENDBRANCH   8  18
BRANCH  17  26
ATOM     26  C   UNL A   1      34.017  26.972  25.304  1.00  0.00     0.429 C 
ATOM     27  F   UNL A   1      33.426  27.139  26.513  1.00  0.00    -0.167 F 
ATOM     28  F   UNL A   1      35.072  26.150  25.507  1.00  0.00    -0.167 F 
ATOM     29  F   UNL A   1      34.505  28.173  24.926  1.00  0.00    -0.167 F 
ENDBRANCH  17  26
ENDBRANCH   4   7
ENDBRANCH   2   3
ENDBRANCH   1   2
BRANCH   1  30
ATOM     30  C   UNL A   1      33.781  29.990  27.507  1.00  0.00     0.118 C 
BRANCH  30  31
ATOM     31  N   UNL A   1      34.438  30.950  28.366  1.00  0.00    -0.352 N 
ATOM     32  C   UNL A   1      35.680  31.112  28.937  1.00  0.00     0.251 C 
ATOM     33  H   UNL A   1      33.833  31.688  28.610  1.00  0.00     0.163 HD
ATOM     34  O   UNL A   1      35.856  32.169  29.531  1.00  0.00    -0.269 OA
BRANCH  32  35
ATOM     35  C   UNL A   1      36.764  30.090  28.969  1.00  0.00     0.039 A 
ATOM     36  C   UNL A   1      37.081  29.232  30.022  1.00  0.00     0.014 A 
ATOM     37  C   UNL A   1      37.528  30.008  27.792  1.00  0.00     0.014 A 
ATOM     38  C   UNL A   1      38.213  28.390  29.943  1.00  0.00     0.010 A 
ATOM     39  C   UNL A   1      38.640  29.173  27.707  1.00  0.00     0.010 A 
ATOM     40  C   UNL A   1      39.024  28.395  28.802  1.00  0.00    -0.014 A 
BRANCH  40  41
ATOM     41  C   UNL A   1      40.310  27.691  28.699  1.00  0.00     0.031 A 
ATOM     42  C   UNL A   1      40.437  26.241  28.400  1.00  0.00     0.074 A 
ATOM     43  C   UNL A   1      41.460  28.352  28.976  1.00  0.00     0.049 A 
ATOM     44  N   UNL A   1      41.377  25.490  28.882  1.00  0.00    -0.248 NA
ATOM     45  C   UNL A   1      39.510  25.517  27.537  1.00  0.00     0.031 C 
ATOM     46  C   UNL A   1      42.826  27.902  28.732  1.00  0.00     0.029 A 
ATOM     47  N   UNL A   1      41.615  29.503  29.745  1.00  0.00    -0.354 N 
ATOM     48  C   UNL A   1      41.362  24.302  28.191  1.00  0.00     0.074 A 
ATOM     49  C   UNL A   1      40.125  24.328  27.435  1.00  0.00     0.031 C 
ATOM     50  C   UNL A   1      43.664  28.593  29.520  1.00  0.00     0.029 A 
ATOM     51  C   UNL A   1      42.866  29.431  30.393  1.00  0.00     0.049 A 
ATOM     52  H   UNL A   1      40.965  30.238  29.822  1.00  0.00     0.167 HD
ATOM     53  C   UNL A   1      42.453  23.480  28.201  1.00  0.00     0.037 A 
ATOM     54  C   UNL A   1      42.991  29.520  31.753  1.00  0.00     0.037 A 
ATOM     55  C   UNL A   1      43.563  24.021  28.975  1.00  0.00     0.049 A 
ATOM     56  C   UNL A   1      43.612  28.327  32.423  1.00  0.00     0.074 A 
ATOM     57  C   UNL A   1      44.706  24.724  28.629  1.00  0.00     0.029 A 
ATOM     58  N   UNL A   1      43.482  24.074  30.351  1.00  0.00    -0.354 N 
ATOM     59  N   UNL A   1      43.993  27.261  31.788  1.00  0.00    -0.248 NA
ATOM     60  C   UNL A   1      43.727  28.188  33.877  1.00  0.00     0.031 C 
ATOM     61  C   UNL A   1      45.328  25.180  29.818  1.00  0.00     0.029 A 
ATOM     62  C   UNL A   1      44.551  24.769  30.885  1.00  0.00     0.049 A 
ATOM     63  H   UNL A   1      42.757  23.672  30.883  1.00  0.00     0.167 HD
ATOM     64  C   UNL A   1      44.299  26.289  32.697  1.00  0.00     0.074 A 
ATOM     65  C   UNL A   1      44.147  26.917  33.993  1.00  0.00     0.031 C 
ATOM     66  C   UNL A   1      44.601  25.020  32.312  1.00  0.00     0.037 A 
BRANCH  53  67
ATOM     67  C   UNL A   1      42.614  22.287  27.290  1.00  0.00     0.057 A 
ATOM     68  C   UNL A   1      41.827  21.127  27.453  1.00  0.00     0.134 A 
ATOM     69  C   UNL A   1      43.533  22.227  26.232  1.00  0.00     0.134 A 
ATOM     70  F   UNL A   1      40.840  21.059  28.356  1.00  0.00    -0.206 F 
ATOM     71  C   UNL A   1      42.016  19.964  26.699  1.00  0.00     0.040 A 
ATOM     72  C   UNL A   1      43.761  21.055  25.494  1.00  0.00     0.040 A 
ATOM     73  F   UNL A   1      44.225  23.310  25.852  1.00  0.00    -0.206 F 
ATOM     74  C   UNL A   1      43.011  19.911  25.737  1.00  0.00     0.006 A 
ENDBRANCH  53  67
BRANCH  54  75
ATOM     75  C   UNL A   1      41.893  30.305  32.368  1.00  0.00     0.057 A 
ATOM     76  C   UNL A   1      40.831  29.584  32.932  1.00  0.00     0.134 A 
ATOM     77  C   UNL A   1      42.211  31.556  32.901  1.00  0.00     0.134 A 
ATOM     78  F   UNL A   1      40.471  28.396  32.423  1.00  0.00    -0.206 F 
ATOM     79  C   UNL A   1      40.284  29.969  34.148  1.00  0.00     0.040 A 
ATOM     80  C   UNL A   1      41.682  31.938  34.122  1.00  0.00     0.040 A 
ATOM     81  F   UNL A   1      43.190  32.305  32.374  1.00  0.00    -0.206 F 
ATOM     82  C   UNL A   1      40.784  31.099  34.783  1.00  0.00     0.006 A 
ENDBRANCH  54  75
BRANCH  66  83
ATOM     83  C   UNL A   1      44.988  23.936  33.260  1.00  0.00     0.057 A 
ATOM     84  C   UNL A   1      44.072  22.971  33.699  1.00  0.00     0.134 A 
ATOM     85  C   UNL A   1      46.250  23.921  33.877  1.00  0.00     0.134 A 
ATOM     86  F   UNL A   1      42.827  22.925  33.201  1.00  0.00    -0.206 F 
ATOM     87  C   UNL A   1      44.398  22.036  34.685  1.00  0.00     0.040 A 
ATOM     88  C   UNL A   1      46.574  23.020  34.892  1.00  0.00     0.040 A 
ATOM     89  F   UNL A   1      47.219  24.773  33.507  1.00  0.00    -0.206 F 
ATOM     90  C   UNL A   1      45.648  22.069  35.297  1.00  0.00     0.006 A 
ENDBRANCH  66  83
ENDBRANCH  40  41
ENDBRANCH  32  35
ENDBRANCH  30  31
ENDBRANCH   1  30
TORSDOF 12
ENDMDL
MODEL 2
REMARK VINA RESULT:     -13.4      3.983      9.332
REMARK SMILES Cc1ccc(-c2cc(Cl)cc3c2O[C@H](C(F)(F)F)C(C(=O)NCCCNC(=O)c2ccc(-c4c5nc(c(-c6c(F)cccc6F)c6ccc([nH]6)c(-c6c(F)cccc6F)c6nc(c(-c7c(F)cccc7F)c7ccc4[nH]7)C=C6)C=C5)cc2)=C3)cc1F
REMARK SMILES IDX 24 1 23 2 22 3 20 4 21 5 19 7 6 8 7 9 12 10 8 11 11 12 13 13
REMARK SMILES IDX 9 14 10 15 83 16 14 17 5 18 1 19 2 20 3 21 85 22 4 23 84 24
REMARK SMILES IDX 86 25 15 26 16 27 17 28 18 29 25 30 26 31 27 32 28 34 29 35
REMARK SMILES IDX 30 36 82 37 31 38 81 39 32 40 33 41 34 42 75 43 35 44 80 45
REMARK SMILES IDX 74 46 76 47 36 48 79 49 73 50 72 51 37 53 63 54 46 55 62 56
REMARK SMILES IDX 47 57 50 58 61 59 77 60 48 61 49 62 60 64 78 65 51 66 38 67
REMARK SMILES IDX 39 68 44 69 40 70 41 71 43 72 45 73 42 74 64 75 65 76 70 77
REMARK SMILES IDX 66 78 67 79 69 80 71 81 68 82 52 83 53 84 58 85 54 86 55 87
REMARK SMILES IDX 57 88 59 89 56 90
REMARK H PARENT 22 6 26 33 76 52 50 63
REMARK Flexibility Score: inf
ROOT
ATOM      1  C   UNL A   1      37.092  22.910  24.399  1.00  0.00     0.042 C 
ENDROOT
BRANCH   1   2
ATOM      2  C   UNL A   1      35.746  23.590  24.140  1.00  0.00     0.118 C 
BRANCH   2   3
ATOM      3  N   UNL A   1      34.742  23.272  25.133  1.00  0.00    -0.352 N 
ATOM      4  C   UNL A   1      33.698  23.906  25.713  1.00  0.00     0.251 C 
ATOM      5  O   UNL A   1      33.104  23.233  26.564  1.00  0.00    -0.270 OA
ATOM      6  H   UNL A   1      34.847  22.353  25.473  1.00  0.00     0.163 HD
BRANCH   4   7
ATOM      7  C   UNL A   1      33.217  25.292  25.411  1.00  0.00     0.067 C 
ATOM      8  C   UNL A   1      31.914  29.294  24.952  1.00  0.00     0.026 A 
ATOM      9  C   UNL A   1      32.389  30.256  25.859  1.00  0.00     0.033 A 
ATOM     10  C   UNL A   1      32.406  27.976  25.061  1.00  0.00     0.135 A 
ATOM     11  C   UNL A   1      33.325  29.910  26.834  1.00  0.00     0.042 A 
ATOM     12  C   UNL A   1      33.343  27.631  26.041  1.00  0.00     0.019 A 
ATOM     13  O   UNL A   1      31.991  27.055  24.135  1.00  0.00    -0.475 OA
ATOM     14  Cl  UNL A   1      33.892  31.107  27.934  1.00  0.00    -0.084 Cl
ATOM     15  C   UNL A   1      33.804  28.606  26.929  1.00  0.00     0.032 A 
ATOM     16  C   UNL A   1      33.827  26.258  26.124  1.00  0.00     0.025 C 
ATOM     17  C   UNL A   1      32.068  25.650  24.505  1.00  0.00     0.314 C 
BRANCH   8  18
ATOM     18  C   UNL A   1      30.919  29.671  23.933  1.00  0.00    -0.012 A 
ATOM     19  C   UNL A   1      27.907  30.683  20.991  1.00  0.00     0.047 C 
ATOM     20  C   UNL A   1      28.970  30.342  21.990  1.00  0.00    -0.015 A 
ATOM     21  C   UNL A   1      30.085  29.574  21.640  1.00  0.00     0.007 A 
ATOM     22  C   UNL A   1      28.854  30.782  23.309  1.00  0.00     0.126 A 
ATOM     23  C   UNL A   1      31.048  29.246  22.600  1.00  0.00     0.009 A 
ATOM     24  C   UNL A   1      29.809  30.460  24.270  1.00  0.00     0.048 A 
ATOM     25  F   UNL A   1      27.799  31.526  23.672  1.00  0.00    -0.207 F 
ENDBRANCH   8  18
BRANCH  17  26
ATOM     26  C   UNL A   1      30.702  25.208  25.056  1.00  0.00     0.429 C 
ATOM     27  F   UNL A   1      29.701  25.930  24.495  1.00  0.00    -0.167 F 
ATOM     28  F   UNL A   1      30.436  23.911  24.779  1.00  0.00    -0.167 F 
ATOM     29  F   UNL A   1      30.608  25.365  26.394  1.00  0.00    -0.167 F 
ENDBRANCH  17  26
ENDBRANCH   4   7
ENDBRANCH   2   3
ENDBRANCH   1   2
BRANCH   1  30
ATOM     30  C   UNL A   1      37.640  23.013  25.821  1.00  0.00     0.118 C 
BRANCH  30  31
ATOM     31  N   UNL A   1      39.077  22.920  25.953  1.00  0.00    -0.352 N 
ATOM     32  C   UNL A   1      40.090  23.654  26.528  1.00  0.00     0.251 C 
ATOM     33  H   UNL A   1      39.427  22.112  25.511  1.00  0.00     0.163 HD
ATOM     34  O   UNL A   1      41.200  23.138  26.500  1.00  0.00    -0.269 OA
BRANCH  32  35
ATOM     35  C   UNL A   1      39.961  25.031  27.082  1.00  0.00     0.039 A 
ATOM     36  C   UNL A   1      40.433  26.215  26.514  1.00  0.00     0.014 A 
ATOM     37  C   UNL A   1      39.282  25.109  28.309  1.00  0.00     0.014 A 
ATOM     38  C   UNL A   1      40.331  27.437  27.215  1.00  0.00     0.010 A 
ATOM     39  C   UNL A   1      39.171  26.313  29.001  1.00  0.00     0.010 A 
ATOM     40  C   UNL A   1      39.742  27.479  28.485  1.00  0.00    -0.014 A 
BRANCH  40  41
ATOM     41  C   UNL A   1      39.748  28.661  29.359  1.00  0.00     0.031 A 
ATOM     42  C   UNL A   1      38.702  29.716  29.330  1.00  0.00     0.074 A 
ATOM     43  C   UNL A   1      40.799  28.876  30.187  1.00  0.00     0.049 A 
ATOM     44  N   UNL A   1      38.943  30.968  29.568  1.00  0.00    -0.248 NA
ATOM     45  C   UNL A   1      37.302  29.449  29.023  1.00  0.00     0.031 C 
ATOM     46  C   UNL A   1      40.897  29.855  31.265  1.00  0.00     0.029 A 
ATOM     47  N   UNL A   1      42.092  28.373  30.068  1.00  0.00    -0.354 N 
ATOM     48  C   UNL A   1      37.735  31.603  29.735  1.00  0.00     0.074 A 
ATOM     49  C   UNL A   1      36.746  30.641  29.291  1.00  0.00     0.031 C 
ATOM     50  C   UNL A   1      42.191  30.071  31.545  1.00  0.00     0.029 A 
ATOM     51  C   UNL A   1      42.985  29.337  30.580  1.00  0.00     0.049 A 
ATOM     52  H   UNL A   1      42.339  27.497  29.692  1.00  0.00     0.167 HD
ATOM     53  C   UNL A   1      37.669  32.811  30.368  1.00  0.00     0.037 A 
ATOM     54  C   UNL A   1      44.017  29.845  29.838  1.00  0.00     0.037 A 
ATOM     55  C   UNL A   1      38.969  33.282  30.828  1.00  0.00     0.049 A 
ATOM     56  C   UNL A   1      43.987  31.332  29.625  1.00  0.00     0.074 A 
ATOM     57  C   UNL A   1      39.618  33.229  32.050  1.00  0.00     0.029 A 
ATOM     58  N   UNL A   1      39.908  33.714  29.913  1.00  0.00    -0.354 N 
ATOM     59  N   UNL A   1      43.049  32.106  30.079  1.00  0.00    -0.248 NA
ATOM     60  C   UNL A   1      44.939  32.043  28.767  1.00  0.00     0.031 C 
ATOM     61  C   UNL A   1      40.956  33.659  31.867  1.00  0.00     0.029 A 
ATOM     62  C   UNL A   1      41.122  33.957  30.527  1.00  0.00     0.049 A 
ATOM     63  H   UNL A   1      39.737  33.832  28.951  1.00  0.00     0.167 HD
ATOM     64  C   UNL A   1      43.193  33.348  29.527  1.00  0.00     0.074 A 
ATOM     65  C   UNL A   1      44.403  33.275  28.735  1.00  0.00     0.031 C 
ATOM     66  C   UNL A   1      42.270  34.327  29.722  1.00  0.00     0.037 A 
BRANCH  53  67
ATOM     67  C   UNL A   1      36.378  33.462  30.804  1.00  0.00     0.057 A 
ATOM     68  C   UNL A   1      35.493  34.039  29.867  1.00  0.00     0.134 A 
ATOM     69  C   UNL A   1      35.955  33.548  32.139  1.00  0.00     0.134 A 
ATOM     70  F   UNL A   1      35.705  33.959  28.548  1.00  0.00    -0.206 F 
ATOM     71  C   UNL A   1      34.342  34.741  30.238  1.00  0.00     0.040 A 
ATOM     72  C   UNL A   1      34.824  34.282  32.528  1.00  0.00     0.040 A 
ATOM     73  F   UNL A   1      36.604  32.898  33.115  1.00  0.00    -0.206 F 
ATOM     74  C   UNL A   1      34.020  34.896  31.576  1.00  0.00     0.006 A 
ENDBRANCH  53  67
BRANCH  54  75
ATOM     75  C   UNL A   1      44.483  28.894  28.800  1.00  0.00     0.057 A 
ATOM     76  C   UNL A   1      44.033  29.108  27.489  1.00  0.00     0.134 A 
ATOM     77  C   UNL A   1      45.726  28.286  28.990  1.00  0.00     0.134 A 
ATOM     78  F   UNL A   1      42.829  29.654  27.266  1.00  0.00    -0.206 F 
ATOM     79  C   UNL A   1      44.901  28.972  26.414  1.00  0.00     0.040 A 
ATOM     80  C   UNL A   1      46.603  28.164  27.925  1.00  0.00     0.040 A 
ATOM     81  F   UNL A   1      46.188  28.021  30.221  1.00  0.00    -0.206 F 
ATOM     82  C   UNL A   1      46.214  28.589  26.654  1.00  0.00     0.006 A 
ENDBRANCH  54  75
BRANCH  66  83
ATOM     83  C   UNL A   1      42.403  35.710  29.182  1.00  0.00     0.057 A 
ATOM     84  C   UNL A   1      41.759  36.114  28.005  1.00  0.00     0.134 A 
ATOM     85  C   UNL A   1      43.304  36.631  29.745  1.00  0.00     0.134 A 
ATOM     86  F   UNL A   1      40.910  35.294  27.367  1.00  0.00    -0.206 F 
ATOM     87  C   UNL A   1      41.987  37.367  27.429  1.00  0.00     0.040 A 
ATOM     88  C   UNL A   1      43.572  37.868  29.158  1.00  0.00     0.040 A 
ATOM     89  F   UNL A   1      43.945  36.367  30.894  1.00  0.00    -0.206 F 
ATOM     90  C   UNL A   1      42.909  38.242  27.997  1.00  0.00     0.006 A 
ENDBRANCH  66  83
ENDBRANCH  40  41
ENDBRANCH  32  35
ENDBRANCH  30  31
ENDBRANCH   1  30
TORSDOF 12
ENDMDL
MODEL 3
REMARK VINA RESULT:     -13.4      2.233      3.257
REMARK SMILES Cc1ccc(-c2cc(Cl)cc3c2O[C@H](C(F)(F)F)C(C(=O)NCCCNC(=O)c2ccc(-c4c5nc(c(-c6c(F)cccc6F)c6ccc([nH]6)c(-c6c(F)cccc6F)c6nc(c(-c7c(F)cccc7F)c7ccc4[nH]7)C=C6)C=C5)cc2)=C3)cc1F
REMARK SMILES IDX 24 1 23 2 22 3 20 4 21 5 19 7 6 8 7 9 12 10 8 11 11 12 13 13
REMARK SMILES IDX 9 14 10 15 83 16 14 17 5 18 1 19 2 20 3 21 85 22 4 23 84 24
REMARK SMILES IDX 86 25 15 26 16 27 17 28 18 29 25 30 26 31 27 32 28 34 29 35
REMARK SMILES IDX 30 36 82 37 31 38 81 39 32 40 33 41 34 42 75 43 35 44 80 45
REMARK SMILES IDX 74 46 76 47 36 48 79 49 73 50 72 51 37 53 63 54 46 55 62 56
REMARK SMILES IDX 47 57 50 58 61 59 77 60 48 61 49 62 60 64 78 65 51 66 38 67
REMARK SMILES IDX 39 68 44 69 40 70 41 71 43 72 45 73 42 74 64 75 65 76 70 77
REMARK SMILES IDX 66 78 67 79 69 80 71 81 68 82 52 83 53 84 58 85 54 86 55 87
REMARK SMILES IDX 57 88 59 89 56 90
REMARK H PARENT 22 6 26 33 76 52 50 63
REMARK Flexibility Score: inf
ROOT
ATOM      1  C   UNL A   1      32.611  28.104  27.122  1.00  0.00     0.042 C 
ENDROOT
BRANCH   1   2
ATOM      2  C   UNL A   1      32.319  26.802  26.376  1.00  0.00     0.118 C 
BRANCH   2   3
ATOM      3  N   UNL A   1      32.732  26.830  24.989  1.00  0.00    -0.352 N 
ATOM      4  C   UNL A   1      33.357  25.990  24.133  1.00  0.00     0.251 C 
ATOM      5  O   UNL A   1      33.534  26.456  23.002  1.00  0.00    -0.270 OA
ATOM      6  H   UNL A   1      32.496  27.683  24.557  1.00  0.00     0.163 HD
BRANCH   4   7
ATOM      7  C   UNL A   1      33.820  24.596  24.429  1.00  0.00     0.067 C 
ATOM      8  C   UNL A   1      35.485  20.762  25.101  1.00  0.00     0.026 A 
ATOM      9  C   UNL A   1      36.881  20.657  25.230  1.00  0.00     0.033 A 
ATOM     10  C   UNL A   1      34.926  22.049  24.951  1.00  0.00     0.135 A 
ATOM     11  C   UNL A   1      37.682  21.798  25.215  1.00  0.00     0.042 A 
ATOM     12  C   UNL A   1      35.732  23.192  24.933  1.00  0.00     0.019 A 
ATOM     13  O   UNL A   1      33.561  22.155  24.890  1.00  0.00    -0.475 OA
ATOM     14  Cl  UNL A   1      39.389  21.642  25.375  1.00  0.00    -0.084 Cl
ATOM     15  C   UNL A   1      37.117  23.063  25.068  1.00  0.00     0.032 A 
ATOM     16  C   UNL A   1      35.119  24.505  24.774  1.00  0.00     0.025 C 
ATOM     17  C   UNL A   1      33.008  23.340  24.252  1.00  0.00     0.314 C 
BRANCH   8  18
ATOM     18  C   UNL A   1      34.652  19.548  25.110  1.00  0.00    -0.012 A 
ATOM     19  C   UNL A   1      32.181  15.992  24.998  1.00  0.00     0.047 C 
ATOM     20  C   UNL A   1      33.028  17.227  25.064  1.00  0.00    -0.015 A 
ATOM     21  C   UNL A   1      32.525  18.434  25.559  1.00  0.00     0.007 A 
ATOM     22  C   UNL A   1      34.349  17.191  24.615  1.00  0.00     0.126 A 
ATOM     23  C   UNL A   1      33.329  19.579  25.583  1.00  0.00     0.009 A 
ATOM     24  C   UNL A   1      35.155  18.327  24.637  1.00  0.00     0.048 A 
ATOM     25  F   UNL A   1      34.860  16.045  24.143  1.00  0.00    -0.207 F 
ENDBRANCH   8  18
BRANCH  17  26
ATOM     26  C   UNL A   1      32.709  23.015  22.779  1.00  0.00     0.429 C 
ATOM     27  F   UNL A   1      31.562  23.618  22.377  1.00  0.00    -0.167 F 
ATOM     28  F   UNL A   1      33.682  23.459  21.952  1.00  0.00    -0.167 F 
ATOM     29  F   UNL A   1      32.563  21.690  22.561  1.00  0.00    -0.167 F 
ENDBRANCH  17  26
ENDBRANCH   4   7
ENDBRANCH   2   3
ENDBRANCH   1   2
BRANCH   1  30
ATOM     30  C   UNL A   1      34.067  28.566  27.134  1.00  0.00     0.118 C 
BRANCH  30  31
ATOM     31  N   UNL A   1      34.382  29.643  28.046  1.00  0.00    -0.352 N 
ATOM     32  C   UNL A   1      35.513  30.252  28.539  1.00  0.00     0.251 C 
ATOM     33  H   UNL A   1      33.565  30.051  28.416  1.00  0.00     0.163 HD
ATOM     34  O   UNL A   1      35.322  31.242  29.235  1.00  0.00    -0.269 OA
BRANCH  32  35
ATOM     35  C   UNL A   1      36.910  29.759  28.376  1.00  0.00     0.039 A 
ATOM     36  C   UNL A   1      37.749  29.952  27.278  1.00  0.00     0.014 A 
ATOM     37  C   UNL A   1      37.404  29.027  29.468  1.00  0.00     0.014 A 
ATOM     38  C   UNL A   1      39.014  29.326  27.224  1.00  0.00     0.010 A 
ATOM     39  C   UNL A   1      38.655  28.414  29.423  1.00  0.00     0.010 A 
ATOM     40  C   UNL A   1      39.450  28.514  28.278  1.00  0.00    -0.014 A 
BRANCH  40  41
ATOM     41  C   UNL A   1      40.664  27.687  28.237  1.00  0.00     0.031 A 
ATOM     42  C   UNL A   1      40.654  26.211  28.067  1.00  0.00     0.074 A 
ATOM     43  C   UNL A   1      41.872  28.261  28.452  1.00  0.00     0.049 A 
ATOM     44  N   UNL A   1      41.525  25.422  28.613  1.00  0.00    -0.248 NA
ATOM     45  C   UNL A   1      39.656  25.502  27.274  1.00  0.00     0.031 C 
ATOM     46  C   UNL A   1      43.190  27.666  28.246  1.00  0.00     0.029 A 
ATOM     47  N   UNL A   1      42.141  29.456  29.115  1.00  0.00    -0.354 N 
ATOM     48  C   UNL A   1      41.394  24.184  28.030  1.00  0.00     0.074 A 
ATOM     49  C   UNL A   1      40.158  24.258  27.277  1.00  0.00     0.031 C 
ATOM     50  C   UNL A   1      44.095  28.344  28.968  1.00  0.00     0.029 A 
ATOM     51  C   UNL A   1      43.386  29.326  29.764  1.00  0.00     0.049 A 
ATOM     52  H   UNL A   1      41.563  30.252  29.127  1.00  0.00     0.167 HD
ATOM     53  C   UNL A   1      42.404  23.269  28.111  1.00  0.00     0.037 A 
ATOM     54  C   UNL A   1      43.532  29.523  31.111  1.00  0.00     0.037 A 
ATOM     55  C   UNL A   1      43.567  23.771  28.832  1.00  0.00     0.049 A 
ATOM     56  C   UNL A   1      44.048  28.341  31.883  1.00  0.00     0.074 A 
ATOM     57  C   UNL A   1      44.767  24.331  28.423  1.00  0.00     0.029 A 
ATOM     58  N   UNL A   1      43.505  23.953  30.198  1.00  0.00    -0.354 N 
ATOM     59  N   UNL A   1      44.322  27.192  31.345  1.00  0.00    -0.248 NA
ATOM     60  C   UNL A   1      44.164  28.321  33.343  1.00  0.00     0.031 C 
ATOM     61  C   UNL A   1      45.440  24.831  29.566  1.00  0.00     0.029 A 
ATOM     62  C   UNL A   1      44.639  24.589  30.666  1.00  0.00     0.049 A 
ATOM     63  H   UNL A   1      42.752  23.668  30.765  1.00  0.00     0.167 HD
ATOM     64  C   UNL A   1      44.547  26.280  32.337  1.00  0.00     0.074 A 
ATOM     65  C   UNL A   1      44.466  27.032  33.572  1.00  0.00     0.031 C 
ATOM     66  C   UNL A   1      44.726  24.960  32.065  1.00  0.00     0.037 A 
BRANCH  53  67
ATOM     67  C   UNL A   1      42.446  21.990  27.309  1.00  0.00     0.057 A 
ATOM     68  C   UNL A   1      41.666  20.870  27.671  1.00  0.00     0.134 A 
ATOM     69  C   UNL A   1      43.239  21.805  26.167  1.00  0.00     0.134 A 
ATOM     70  F   UNL A   1      40.787  20.914  28.680  1.00  0.00    -0.206 F 
ATOM     71  C   UNL A   1      41.753  19.637  27.019  1.00  0.00     0.040 A 
ATOM     72  C   UNL A   1      43.367  20.563  25.527  1.00  0.00     0.040 A 
ATOM     73  F   UNL A   1      43.899  22.831  25.609  1.00  0.00    -0.206 F 
ATOM     74  C   UNL A   1      42.633  19.467  25.963  1.00  0.00     0.006 A 
ENDBRANCH  53  67
BRANCH  54  75
ATOM     75  C   UNL A   1      42.517  30.457  31.655  1.00  0.00     0.057 A 
ATOM     76  C   UNL A   1      42.696  31.821  31.386  1.00  0.00     0.134 A 
ATOM     77  C   UNL A   1      41.219  29.973  31.830  1.00  0.00     0.134 A 
ATOM     78  F   UNL A   1      43.929  32.330  31.250  1.00  0.00    -0.206 F 
ATOM     79  C   UNL A   1      41.614  32.618  31.036  1.00  0.00     0.040 A 
ATOM     80  C   UNL A   1      40.137  30.756  31.466  1.00  0.00     0.040 A 
ATOM     81  F   UNL A   1      40.994  28.685  32.129  1.00  0.00    -0.206 F 
ATOM     82  C   UNL A   1      40.348  32.051  30.986  1.00  0.00     0.006 A 
ENDBRANCH  54  75
BRANCH  66  83
ATOM     83  C   UNL A   1      45.021  23.933  33.105  1.00  0.00     0.057 A 
ATOM     84  C   UNL A   1      44.047  23.032  33.557  1.00  0.00     0.134 A 
ATOM     85  C   UNL A   1      46.247  23.918  33.791  1.00  0.00     0.134 A 
ATOM     86  F   UNL A   1      42.829  22.994  32.995  1.00  0.00    -0.206 F 
ATOM     87  C   UNL A   1      44.285  22.158  34.622  1.00  0.00     0.040 A 
ATOM     88  C   UNL A   1      46.483  23.080  34.882  1.00  0.00     0.040 A 
ATOM     89  F   UNL A   1      47.266  24.709  33.418  1.00  0.00    -0.206 F 
ATOM     90  C   UNL A   1      45.500  22.193  35.299  1.00  0.00     0.006 A 
ENDBRANCH  66  83
ENDBRANCH  40  41
ENDBRANCH  32  35
ENDBRANCH  30  31
ENDBRANCH   1  30
TORSDOF 12
ENDMDL
