MODEL 1
REMARK VINA RESULT:     -12.8      0.000      0.000
REMARK SMILES O=C(COc1cccc(/C=C2/SC(=S)N(NC(=O)c3ccccc3F)C2=O)c1)NCCCNC(=O)c1ccc(-c2c3nc(c(-c4c(F)cccc4F)c4ccc([nH]4)c(-c4c(F)cccc4F)c4nc(c(-c5c(F)cccc5F)c5ccc2[nH]5)C=C4)C=C3)cc1
REMARK SMILES IDX 1 1 2 2 29 3 3 5 4 6 5 7 6 8 28 9 7 10 9 11 8 12 10 13 11 14
REMARK SMILES IDX 12 15 26 16 13 17 15 18 27 19 14 20 16 21 17 22 18 24 19 25
REMARK SMILES IDX 20 26 24 27 21 28 23 29 25 30 22 31 30 32 31 33 32 34 33 35
REMARK SMILES IDX 34 36 35 38 36 39 37 40 89 41 38 42 88 43 39 44 40 45 41 46
REMARK SMILES IDX 82 47 42 48 87 49 81 50 83 51 43 52 86 53 80 54 79 55 44 57
REMARK SMILES IDX 70 58 53 59 69 60 54 61 57 62 68 63 84 64 55 65 56 66 67 68
REMARK SMILES IDX 85 69 58 70 45 71 46 72 51 73 47 74 48 75 50 76 52 77 49 78
REMARK SMILES IDX 71 79 72 80 77 81 73 82 74 83 76 84 78 85 75 86 59 87 60 88
REMARK SMILES IDX 65 89 61 90 62 91 64 92 66 93 63 94
REMARK H PARENT 29 4 16 23 33 37 83 56 57 67
REMARK Flexibility Score: inf
ROOT
ATOM      1  O   UNL A   1      39.924  22.672  27.308  1.00  0.00    -0.271 OA
ATOM      2  C   UNL A   1      39.727  21.758  26.509  1.00  0.00     0.257 C 
ATOM      3  N   UNL A   1      40.619  20.720  26.335  1.00  0.00    -0.353 N 
ATOM      4  H   UNL A   1      40.356  19.942  25.793  1.00  0.00     0.163 HD
ENDROOT
BRANCH   2   5
ATOM      5  C   UNL A   1      38.441  21.711  25.659  1.00  0.00     0.329 C 
BRANCH   5   6
ATOM      6  O   UNL A   1      37.244  22.384  25.999  1.00  0.00    -0.484 OA
BRANCH   6   7
ATOM      7  C   UNL A   1      36.066  21.688  25.968  1.00  0.00     0.120 A 
ATOM      8  C   UNL A   1      36.019  20.604  25.088  1.00  0.00     0.046 A 
ATOM      9  C   UNL A   1      34.889  22.129  26.563  1.00  0.00     0.054 A 
ATOM     10  C   UNL A   1      34.801  19.998  24.772  1.00  0.00     0.004 A 
ATOM     11  C   UNL A   1      33.654  21.633  26.132  1.00  0.00    -0.021 A 
ATOM     12  C   UNL A   1      33.614  20.532  25.269  1.00  0.00     0.008 A 
BRANCH  11  13
ATOM     13  C   UNL A   1      32.410  22.348  26.445  1.00  0.00     0.029 C 
ATOM     14  C   UNL A   1      31.999  23.457  25.802  1.00  0.00     0.082 C 
ATOM     15  S   UNL A   1      30.422  24.135  26.021  1.00  0.00    -0.052 SA
ATOM     16  C   UNL A   1      32.723  24.252  24.759  1.00  0.00     0.285 C 
ATOM     17  C   UNL A   1      30.580  25.205  24.627  1.00  0.00     0.168 C 
ATOM     18  N   UNL A   1      31.833  25.048  24.065  1.00  0.00    -0.198 N 
ATOM     19  O   UNL A   1      33.943  24.281  24.628  1.00  0.00    -0.266 OA
ATOM     20  S   UNL A   1      29.377  26.259  24.156  1.00  0.00    -0.050 S 
BRANCH  18  21
ATOM     21  N   UNL A   1      32.245  25.876  22.992  1.00  0.00    -0.254 N 
ATOM     22  C   UNL A   1      32.806  27.138  23.047  1.00  0.00     0.273 C 
ATOM     23  H   UNL A   1      32.114  25.504  22.090  1.00  0.00     0.192 HD
ATOM     24  O   UNL A   1      33.234  27.672  22.023  1.00  0.00    -0.267 OA
BRANCH  22  25
ATOM     25  C   UNL A   1      32.802  27.964  24.258  1.00  0.00     0.077 A 
ATOM     26  C   UNL A   1      33.772  27.683  25.233  1.00  0.00     0.017 A 
ATOM     27  C   UNL A   1      31.888  28.992  24.463  1.00  0.00     0.136 A 
ATOM     28  C   UNL A   1      33.847  28.461  26.387  1.00  0.00     0.001 A 
ATOM     29  C   UNL A   1      31.955  29.763  25.621  1.00  0.00     0.040 A 
ATOM     30  F   UNL A   1      30.962  29.283  23.539  1.00  0.00    -0.206 F 
ATOM     31  C   UNL A   1      32.937  29.501  26.581  1.00  0.00     0.003 A 
ENDBRANCH  22  25
ENDBRANCH  18  21
ENDBRANCH  11  13
ENDBRANCH   6   7
ENDBRANCH   5   6
ENDBRANCH   2   5
BRANCH   3  32
ATOM     32  C   UNL A   1      41.941  20.753  26.940  1.00  0.00     0.117 C 
BRANCH  32  33
ATOM     33  C   UNL A   1      43.056  21.150  25.986  1.00  0.00     0.042 C 
BRANCH  33  34
ATOM     34  C   UNL A   1      42.850  22.485  25.274  1.00  0.00     0.118 C 
BRANCH  34  35
ATOM     35  N   UNL A   1      44.096  23.190  24.989  1.00  0.00    -0.352 N 
ATOM     36  C   UNL A   1      44.486  24.487  25.238  1.00  0.00     0.251 C 
ATOM     37  H   UNL A   1      44.778  22.640  24.540  1.00  0.00     0.163 HD
ATOM     38  O   UNL A   1      45.508  24.905  24.694  1.00  0.00    -0.269 OA
BRANCH  36  39
ATOM     39  C   UNL A   1      43.655  25.390  26.078  1.00  0.00     0.039 A 
ATOM     40  C   UNL A   1      42.783  24.827  27.017  1.00  0.00     0.014 A 
ATOM     41  C   UNL A   1      43.759  26.781  25.990  1.00  0.00     0.014 A 
ATOM     42  C   UNL A   1      42.153  25.641  27.964  1.00  0.00     0.010 A 
ATOM     43  C   UNL A   1      43.199  27.584  26.983  1.00  0.00     0.010 A 
ATOM     44  C   UNL A   1      42.430  27.017  28.010  1.00  0.00    -0.014 A 
BRANCH  44  45
ATOM     45  C   UNL A   1      42.034  27.857  29.173  1.00  0.00     0.031 A 
ATOM     46  C   UNL A   1      42.726  27.717  30.499  1.00  0.00     0.074 A 
ATOM     47  C   UNL A   1      40.951  28.655  29.066  1.00  0.00     0.049 A 
ATOM     48  N   UNL A   1      42.407  28.240  31.658  1.00  0.00    -0.248 NA
ATOM     49  C   UNL A   1      43.915  26.854  30.537  1.00  0.00     0.031 C 
ATOM     50  C   UNL A   1      40.150  28.838  27.852  1.00  0.00     0.029 A 
ATOM     51  N   UNL A   1      40.320  29.443  29.997  1.00  0.00    -0.354 N 
ATOM     52  C   UNL A   1      43.337  27.749  32.564  1.00  0.00     0.074 A 
ATOM     53  C   UNL A   1      44.215  26.863  31.828  1.00  0.00     0.031 C 
ATOM     54  C   UNL A   1      39.148  29.693  28.108  1.00  0.00     0.029 A 
ATOM     55  C   UNL A   1      39.205  30.084  29.513  1.00  0.00     0.049 A 
ATOM     56  H   UNL A   1      40.636  29.540  30.924  1.00  0.00     0.167 HD
ATOM     57  C   UNL A   1      43.455  28.020  33.886  1.00  0.00     0.037 A 
ATOM     58  C   UNL A   1      38.313  30.883  30.128  1.00  0.00     0.037 A 
ATOM     59  C   UNL A   1      42.601  28.925  34.613  1.00  0.00     0.049 A 
ATOM     60  C   UNL A   1      38.478  31.185  31.589  1.00  0.00     0.074 A 
ATOM     61  C   UNL A   1      42.680  29.305  35.942  1.00  0.00     0.029 A 
ATOM     62  N   UNL A   1      41.516  29.595  34.069  1.00  0.00    -0.354 N 
ATOM     63  N   UNL A   1      39.392  30.750  32.421  1.00  0.00    -0.248 NA
ATOM     64  C   UNL A   1      37.491  32.088  32.197  1.00  0.00     0.031 C 
ATOM     65  C   UNL A   1      41.627  30.186  36.209  1.00  0.00     0.029 A 
ATOM     66  C   UNL A   1      40.913  30.379  35.038  1.00  0.00     0.049 A 
ATOM     67  H   UNL A   1      41.220  29.524  33.133  1.00  0.00     0.167 HD
ATOM     68  C   UNL A   1      39.109  31.347  33.641  1.00  0.00     0.074 A 
ATOM     69  C   UNL A   1      37.940  32.178  33.441  1.00  0.00     0.031 C 
ATOM     70  C   UNL A   1      39.763  31.219  34.820  1.00  0.00     0.037 A 
BRANCH  57  71
ATOM     71  C   UNL A   1      44.553  27.329  34.637  1.00  0.00     0.057 A 
ATOM     72  C   UNL A   1      44.357  26.083  35.247  1.00  0.00     0.134 A 
ATOM     73  C   UNL A   1      45.830  27.897  34.723  1.00  0.00     0.134 A 
ATOM     74  F   UNL A   1      43.153  25.490  35.208  1.00  0.00    -0.206 F 
ATOM     75  C   UNL A   1      45.385  25.438  35.937  1.00  0.00     0.040 A 
ATOM     76  C   UNL A   1      46.872  27.252  35.391  1.00  0.00     0.040 A 
ATOM     77  F   UNL A   1      46.088  29.085  34.155  1.00  0.00    -0.206 F 
ATOM     78  C   UNL A   1      46.649  26.021  36.005  1.00  0.00     0.006 A 
ENDBRANCH  57  71
BRANCH  58  79
ATOM     79  C   UNL A   1      37.192  31.473  29.357  1.00  0.00     0.057 A 
ATOM     80  C   UNL A   1      36.011  30.753  29.143  1.00  0.00     0.134 A 
ATOM     81  C   UNL A   1      37.268  32.765  28.824  1.00  0.00     0.134 A 
ATOM     82  F   UNL A   1      35.888  29.505  29.614  1.00  0.00    -0.206 F 
ATOM     83  C   UNL A   1      34.949  31.292  28.414  1.00  0.00     0.040 A 
ATOM     84  C   UNL A   1      36.206  33.323  28.110  1.00  0.00     0.040 A 
ATOM     85  F   UNL A   1      38.371  33.508  29.001  1.00  0.00    -0.206 F 
ATOM     86  C   UNL A   1      35.044  32.583  27.900  1.00  0.00     0.006 A 
ENDBRANCH  58  79
BRANCH  70  87
ATOM     87  C   UNL A   1      39.261  32.029  35.975  1.00  0.00     0.057 A 
ATOM     88  C   UNL A   1      39.715  33.331  36.216  1.00  0.00     0.134 A 
ATOM     89  C   UNL A   1      38.274  31.516  36.826  1.00  0.00     0.134 A 
ATOM     90  F   UNL A   1      40.670  33.872  35.444  1.00  0.00    -0.206 F 
ATOM     91  C   UNL A   1      39.211  34.093  37.271  1.00  0.00     0.040 A 
ATOM     92  C   UNL A   1      37.750  32.274  37.873  1.00  0.00     0.040 A 
ATOM     93  F   UNL A   1      37.797  30.276  36.644  1.00  0.00    -0.206 F 
ATOM     94  C   UNL A   1      38.219  33.567  38.098  1.00  0.00     0.006 A 
ENDBRANCH  70  87
ENDBRANCH  44  45
ENDBRANCH  36  39
ENDBRANCH  34  35
ENDBRANCH  33  34
ENDBRANCH  32  33
ENDBRANCH   3  32
TORSDOF 15
ENDMDL
MODEL 2
REMARK VINA RESULT:     -12.8      3.352      8.813
REMARK SMILES O=C(COc1cccc(/C=C2/SC(=S)N(NC(=O)c3ccccc3F)C2=O)c1)NCCCNC(=O)c1ccc(-c2c3nc(c(-c4c(F)cccc4F)c4ccc([nH]4)c(-c4c(F)cccc4F)c4nc(c(-c5c(F)cccc5F)c5ccc2[nH]5)C=C4)C=C3)cc1
REMARK SMILES IDX 1 1 2 2 29 3 3 5 4 6 5 7 6 8 28 9 7 10 9 11 8 12 10 13 11 14
REMARK SMILES IDX 12 15 26 16 13 17 15 18 27 19 14 20 16 21 17 22 18 24 19 25
REMARK SMILES IDX 20 26 24 27 21 28 23 29 25 30 22 31 30 32 31 33 32 34 33 35
REMARK SMILES IDX 34 36 35 38 36 39 37 40 89 41 38 42 88 43 39 44 40 45 41 46
REMARK SMILES IDX 82 47 42 48 87 49 81 50 83 51 43 52 86 53 80 54 79 55 44 57
REMARK SMILES IDX 70 58 53 59 69 60 54 61 57 62 68 63 84 64 55 65 56 66 67 68
REMARK SMILES IDX 85 69 58 70 45 71 46 72 51 73 47 74 48 75 50 76 52 77 49 78
REMARK SMILES IDX 71 79 72 80 77 81 73 82 74 83 76 84 78 85 75 86 59 87 60 88
REMARK SMILES IDX 65 89 61 90 62 91 64 92 66 93 63 94
REMARK H PARENT 29 4 16 23 33 37 83 56 57 67
REMARK Flexibility Score: inf
ROOT
ATOM      1  O   UNL A   1      36.680  32.178  28.085  1.00  0.00    -0.271 OA
ATOM      2  C   UNL A   1      35.766  31.359  28.173  1.00  0.00     0.257 C 
ATOM      3  N   UNL A   1      34.574  31.644  28.809  1.00  0.00    -0.353 N 
ATOM      4  H   UNL A   1      33.823  31.014  28.731  1.00  0.00     0.163 HD
ENDROOT
BRANCH   2   5
ATOM      5  C   UNL A   1      35.895  29.955  27.549  1.00  0.00     0.329 C 
BRANCH   5   6
ATOM      6  O   UNL A   1      34.907  28.948  27.655  1.00  0.00    -0.484 OA
BRANCH   6   7
ATOM      7  C   UNL A   1      33.895  28.921  26.735  1.00  0.00     0.120 A 
ATOM      8  C   UNL A   1      32.632  29.296  27.201  1.00  0.00     0.046 A 
ATOM      9  C   UNL A   1      34.007  28.338  25.477  1.00  0.00     0.054 A 
ATOM     10  C   UNL A   1      31.490  29.047  26.435  1.00  0.00     0.004 A 
ATOM     11  C   UNL A   1      32.860  27.943  24.780  1.00  0.00    -0.021 A 
ATOM     12  C   UNL A   1      31.601  28.342  25.239  1.00  0.00     0.008 A 
BRANCH  11  13
ATOM     13  C   UNL A   1      32.952  26.988  23.667  1.00  0.00     0.029 C 
ATOM     14  C   UNL A   1      33.014  25.653  23.827  1.00  0.00     0.082 C 
ATOM     15  S   UNL A   1      32.874  24.546  22.505  1.00  0.00    -0.052 SA
ATOM     16  C   UNL A   1      33.120  24.870  25.099  1.00  0.00     0.285 C 
ATOM     17  C   UNL A   1      32.664  23.152  23.565  1.00  0.00     0.168 C 
ATOM     18  N   UNL A   1      32.747  23.559  24.884  1.00  0.00    -0.198 N 
ATOM     19  O   UNL A   1      33.587  25.305  26.147  1.00  0.00    -0.266 OA
ATOM     20  S   UNL A   1      32.457  21.601  22.988  1.00  0.00    -0.050 S 
BRANCH  18  21
ATOM     21  N   UNL A   1      32.716  22.604  25.930  1.00  0.00    -0.254 N 
ATOM     22  C   UNL A   1      33.776  21.948  26.527  1.00  0.00     0.273 C 
ATOM     23  H   UNL A   1      31.823  22.379  26.276  1.00  0.00     0.192 HD
ATOM     24  O   UNL A   1      33.590  21.244  27.520  1.00  0.00    -0.267 OA
BRANCH  22  25
ATOM     25  C   UNL A   1      35.127  21.926  25.957  1.00  0.00     0.077 A 
ATOM     26  C   UNL A   1      35.970  23.008  26.256  1.00  0.00     0.017 A 
ATOM     27  C   UNL A   1      35.584  20.890  25.151  1.00  0.00     0.136 A 
ATOM     28  C   UNL A   1      37.280  23.024  25.780  1.00  0.00     0.001 A 
ATOM     29  C   UNL A   1      36.890  20.910  24.665  1.00  0.00     0.040 A 
ATOM     30  F   UNL A   1      34.798  19.844  24.864  1.00  0.00    -0.206 F 
ATOM     31  C   UNL A   1      37.739  21.974  24.983  1.00  0.00     0.003 A 
ENDBRANCH  22  25
ENDBRANCH  18  21
ENDBRANCH  11  13
ENDBRANCH   6   7
ENDBRANCH   5   6
ENDBRANCH   2   5
BRANCH   3  32
ATOM     32  C   UNL A   1      34.409  32.859  29.589  1.00  0.00     0.117 C 
BRANCH  32  33
ATOM     33  C   UNL A   1      33.662  33.969  28.868  1.00  0.00     0.042 C 
BRANCH  33  34
ATOM     34  C   UNL A   1      33.941  35.378  29.387  1.00  0.00     0.118 C 
BRANCH  34  35
ATOM     35  N   UNL A   1      32.920  35.873  30.303  1.00  0.00    -0.352 N 
ATOM     36  C   UNL A   1      32.765  35.722  31.663  1.00  0.00     0.251 C 
ATOM     37  H   UNL A   1      32.217  36.412  29.872  1.00  0.00     0.163 HD
ATOM     38  O   UNL A   1      31.692  36.048  32.170  1.00  0.00    -0.269 OA
BRANCH  36  39
ATOM     39  C   UNL A   1      33.834  35.104  32.493  1.00  0.00     0.039 A 
ATOM     40  C   UNL A   1      33.617  33.835  33.039  1.00  0.00     0.014 A 
ATOM     41  C   UNL A   1      35.065  35.734  32.697  1.00  0.00     0.014 A 
ATOM     42  C   UNL A   1      34.673  33.138  33.637  1.00  0.00     0.010 A 
ATOM     43  C   UNL A   1      36.138  35.011  33.216  1.00  0.00     0.010 A 
ATOM     44  C   UNL A   1      35.965  33.687  33.646  1.00  0.00    -0.014 A 
BRANCH  44  45
ATOM     45  C   UNL A   1      37.161  32.868  33.985  1.00  0.00     0.031 A 
ATOM     46  C   UNL A   1      37.967  33.152  35.220  1.00  0.00     0.074 A 
ATOM     47  C   UNL A   1      37.598  31.950  33.098  1.00  0.00     0.049 A 
ATOM     48  N   UNL A   1      39.124  32.655  35.585  1.00  0.00    -0.248 NA
ATOM     49  C   UNL A   1      37.417  34.143  36.156  1.00  0.00     0.031 C 
ATOM     50  C   UNL A   1      36.943  31.618  31.830  1.00  0.00     0.029 A 
ATOM     51  N   UNL A   1      38.710  31.145  33.113  1.00  0.00    -0.354 N 
ATOM     52  C   UNL A   1      39.452  33.292  36.774  1.00  0.00     0.074 A 
ATOM     53  C   UNL A   1      38.387  34.232  37.055  1.00  0.00     0.031 C 
ATOM     54  C   UNL A   1      37.655  30.670  31.199  1.00  0.00     0.029 A 
ATOM     55  C   UNL A   1      38.839  30.360  31.992  1.00  0.00     0.049 A 
ATOM     56  H   UNL A   1      39.356  31.131  33.857  1.00  0.00     0.167 HD
ATOM     57  C   UNL A   1      40.536  33.104  37.564  1.00  0.00     0.037 A 
ATOM     58  C   UNL A   1      39.808  29.499  31.628  1.00  0.00     0.037 A 
ATOM     59  C   UNL A   1      41.581  32.147  37.301  1.00  0.00     0.049 A 
ATOM     60  C   UNL A   1      40.988  29.291  32.532  1.00  0.00     0.074 A 
ATOM     61  C   UNL A   1      42.690  31.847  38.073  1.00  0.00     0.029 A 
ATOM     62  N   UNL A   1      41.642  31.334  36.180  1.00  0.00    -0.354 N 
ATOM     63  N   UNL A   1      41.259  29.868  33.677  1.00  0.00    -0.248 NA
ATOM     64  C   UNL A   1      41.997  28.316  32.095  1.00  0.00     0.031 C 
ATOM     65  C   UNL A   1      43.436  30.868  37.408  1.00  0.00     0.029 A 
ATOM     66  C   UNL A   1      42.774  30.537  36.238  1.00  0.00     0.049 A 
ATOM     67  H   UNL A   1      40.980  31.324  35.452  1.00  0.00     0.167 HD
ATOM     68  C   UNL A   1      42.451  29.305  34.112  1.00  0.00     0.074 A 
ATOM     69  C   UNL A   1      42.851  28.340  33.109  1.00  0.00     0.031 C 
ATOM     70  C   UNL A   1      43.148  29.565  35.243  1.00  0.00     0.037 A 
BRANCH  57  71
ATOM     71  C   UNL A   1      40.648  33.951  38.796  1.00  0.00     0.057 A 
ATOM     72  C   UNL A   1      41.331  35.173  38.789  1.00  0.00     0.134 A 
ATOM     73  C   UNL A   1      40.037  33.557  39.994  1.00  0.00     0.134 A 
ATOM     74  F   UNL A   1      41.946  35.601  37.676  1.00  0.00    -0.206 F 
ATOM     75  C   UNL A   1      41.425  35.963  39.937  1.00  0.00     0.040 A 
ATOM     76  C   UNL A   1      40.104  34.349  41.141  1.00  0.00     0.040 A 
ATOM     77  F   UNL A   1      39.360  32.401  40.066  1.00  0.00    -0.206 F 
ATOM     78  C   UNL A   1      40.805  35.554  41.115  1.00  0.00     0.006 A 
ENDBRANCH  57  71
BRANCH  58  79
ATOM     79  C   UNL A   1      39.691  28.749  30.354  1.00  0.00     0.057 A 
ATOM     80  C   UNL A   1      39.061  27.501  30.312  1.00  0.00     0.134 A 
ATOM     81  C   UNL A   1      40.196  29.260  29.152  1.00  0.00     0.134 A 
ATOM     82  F   UNL A   1      38.575  26.953  31.434  1.00  0.00    -0.206 F 
ATOM     83  C   UNL A   1      38.948  26.779  29.122  1.00  0.00     0.040 A 
ATOM     84  C   UNL A   1      40.072  28.558  27.952  1.00  0.00     0.040 A 
ATOM     85  F   UNL A   1      40.804  30.456  29.126  1.00  0.00    -0.206 F 
ATOM     86  C   UNL A   1      39.450  27.311  27.937  1.00  0.00     0.006 A 
ENDBRANCH  58  79
BRANCH  70  87
ATOM     87  C   UNL A   1      44.391  28.763  35.483  1.00  0.00     0.057 A 
ATOM     88  C   UNL A   1      44.360  27.541  36.165  1.00  0.00     0.134 A 
ATOM     89  C   UNL A   1      45.624  29.198  34.981  1.00  0.00     0.134 A 
ATOM     90  F   UNL A   1      43.211  27.080  36.682  1.00  0.00    -0.206 F 
ATOM     91  C   UNL A   1      45.517  26.782  36.348  1.00  0.00     0.040 A 
ATOM     92  C   UNL A   1      46.783  28.440  35.142  1.00  0.00     0.040 A 
ATOM     93  F   UNL A   1      45.716  30.359  34.316  1.00  0.00    -0.206 F 
ATOM     94  C   UNL A   1      46.731  27.228  35.828  1.00  0.00     0.006 A 
ENDBRANCH  70  87
ENDBRANCH  44  45
ENDBRANCH  36  39
ENDBRANCH  34  35
ENDBRANCH  33  34
ENDBRANCH  32  33
ENDBRANCH   3  32
TORSDOF 15
ENDMDL
MODEL 3
REMARK VINA RESULT:     -12.8      4.273      9.842
REMARK SMILES O=C(COc1cccc(/C=C2/SC(=S)N(NC(=O)c3ccccc3F)C2=O)c1)NCCCNC(=O)c1ccc(-c2c3nc(c(-c4c(F)cccc4F)c4ccc([nH]4)c(-c4c(F)cccc4F)c4nc(c(-c5c(F)cccc5F)c5ccc2[nH]5)C=C4)C=C3)cc1
REMARK SMILES IDX 1 1 2 2 29 3 3 5 4 6 5 7 6 8 28 9 7 10 9 11 8 12 10 13 11 14
REMARK SMILES IDX 12 15 26 16 13 17 15 18 27 19 14 20 16 21 17 22 18 24 19 25
REMARK SMILES IDX 20 26 24 27 21 28 23 29 25 30 22 31 30 32 31 33 32 34 33 35
REMARK SMILES IDX 34 36 35 38 36 39 37 40 89 41 38 42 88 43 39 44 40 45 41 46
REMARK SMILES IDX 82 47 42 48 87 49 81 50 83 51 43 52 86 53 80 54 79 55 44 57
REMARK SMILES IDX 70 58 53 59 69 60 54 61 57 62 68 63 84 64 55 65 56 66 67 68
REMARK SMILES IDX 85 69 58 70 45 71 46 72 51 73 47 74 48 75 50 76 52 77 49 78
REMARK SMILES IDX 71 79 72 80 77 81 73 82 74 83 76 84 78 85 75 86 59 87 60 88
REMARK SMILES IDX 65 89 61 90 62 91 64 92 66 93 63 94
REMARK H PARENT 29 4 16 23 33 37 83 56 57 67
REMARK Flexibility Score: inf
ROOT
ATOM      1  O   UNL A   1      35.812  31.606  27.855  1.00  0.00    -0.271 OA
ATOM      2  C   UNL A   1      34.594  31.777  27.877  1.00  0.00     0.257 C 
ATOM      3  N   UNL A   1      34.015  32.919  28.393  1.00  0.00    -0.353 N 
ATOM      4  H   UNL A   1      33.052  33.075  28.260  1.00  0.00     0.163 HD
ENDROOT
BRANCH   2   5
ATOM      5  C   UNL A   1      33.633  30.718  27.298  1.00  0.00     0.329 C 
BRANCH   5   6
ATOM      6  O   UNL A   1      33.981  29.816  26.266  1.00  0.00    -0.484 OA
BRANCH   6   7
ATOM      7  C   UNL A   1      33.099  29.625  25.237  1.00  0.00     0.120 A 
ATOM      8  C   UNL A   1      31.792  30.064  25.460  1.00  0.00     0.046 A 
ATOM      9  C   UNL A   1      33.367  28.836  24.123  1.00  0.00     0.054 A 
ATOM     10  C   UNL A   1      30.757  29.679  24.603  1.00  0.00     0.004 A 
ATOM     11  C   UNL A   1      32.317  28.319  23.357  1.00  0.00    -0.021 A 
ATOM     12  C   UNL A   1      31.014  28.781  23.570  1.00  0.00     0.008 A 
BRANCH  11  13
ATOM     13  C   UNL A   1      32.541  27.189  22.445  1.00  0.00     0.029 C 
ATOM     14  C   UNL A   1      32.618  25.906  22.845  1.00  0.00     0.082 C 
ATOM     15  S   UNL A   1      32.636  24.580  21.733  1.00  0.00    -0.052 SA
ATOM     16  C   UNL A   1      32.616  25.363  24.240  1.00  0.00     0.285 C 
ATOM     17  C   UNL A   1      32.355  23.385  23.000  1.00  0.00     0.168 C 
ATOM     18  N   UNL A   1      32.297  24.019  24.227  1.00  0.00    -0.198 N 
ATOM     19  O   UNL A   1      32.967  25.992  25.233  1.00  0.00    -0.266 OA
ATOM     20  S   UNL A   1      32.242  21.750  22.692  1.00  0.00    -0.050 S 
BRANCH  18  21
ATOM     21  N   UNL A   1      32.185  23.262  25.419  1.00  0.00    -0.254 N 
ATOM     22  C   UNL A   1      33.192  22.680  26.166  1.00  0.00     0.273 C 
ATOM     23  H   UNL A   1      31.271  23.133  25.759  1.00  0.00     0.192 HD
ATOM     24  O   UNL A   1      32.939  22.165  27.256  1.00  0.00    -0.267 OA
BRANCH  22  25
ATOM     25  C   UNL A   1      34.561  22.510  25.669  1.00  0.00     0.077 A 
ATOM     26  C   UNL A   1      35.416  23.622  25.743  1.00  0.00     0.017 A 
ATOM     27  C   UNL A   1      35.024  21.311  25.142  1.00  0.00     0.136 A 
ATOM     28  C   UNL A   1      36.741  23.511  25.326  1.00  0.00     0.001 A 
ATOM     29  C   UNL A   1      36.346  21.201  24.715  1.00  0.00     0.040 A 
ATOM     30  F   UNL A   1      34.227  20.236  25.074  1.00  0.00    -0.206 F 
ATOM     31  C   UNL A   1      37.205  22.299  24.811  1.00  0.00     0.003 A 
ENDBRANCH  22  25
ENDBRANCH  18  21
ENDBRANCH  11  13
ENDBRANCH   6   7
ENDBRANCH   5   6
ENDBRANCH   2   5
BRANCH   3  32
ATOM     32  C   UNL A   1      34.801  33.896  29.126  1.00  0.00     0.117 C 
BRANCH  32  33
ATOM     33  C   UNL A   1      34.459  33.993  30.604  1.00  0.00     0.042 C 
BRANCH  33  34
ATOM     34  C   UNL A   1      34.593  32.687  31.384  1.00  0.00     0.118 C 
BRANCH  34  35
ATOM     35  N   UNL A   1      35.251  32.847  32.677  1.00  0.00    -0.352 N 
ATOM     36  C   UNL A   1      36.391  32.274  33.196  1.00  0.00     0.251 C 
ATOM     37  H   UNL A   1      34.800  33.476  33.285  1.00  0.00     0.163 HD
ATOM     38  O   UNL A   1      36.612  32.400  34.401  1.00  0.00    -0.269 OA
BRANCH  36  39
ATOM     39  C   UNL A   1      37.294  31.454  32.344  1.00  0.00     0.039 A 
ATOM     40  C   UNL A   1      37.465  31.812  31.002  1.00  0.00     0.014 A 
ATOM     41  C   UNL A   1      38.013  30.373  32.859  1.00  0.00     0.014 A 
ATOM     42  C   UNL A   1      38.463  31.202  30.235  1.00  0.00     0.010 A 
ATOM     43  C   UNL A   1      39.062  29.823  32.125  1.00  0.00     0.010 A 
ATOM     44  C   UNL A   1      39.331  30.266  30.822  1.00  0.00    -0.014 A 
BRANCH  44  45
ATOM     45  C   UNL A   1      40.582  29.828  30.146  1.00  0.00     0.031 A 
ATOM     46  C   UNL A   1      41.674  30.810  29.828  1.00  0.00     0.074 A 
ATOM     47  C   UNL A   1      40.673  28.559  29.694  1.00  0.00     0.049 A 
ATOM     48  N   UNL A   1      42.751  30.642  29.102  1.00  0.00    -0.248 NA
ATOM     49  C   UNL A   1      41.523  32.165  30.376  1.00  0.00     0.031 C 
ATOM     50  C   UNL A   1      39.658  27.519  29.881  1.00  0.00     0.029 A 
ATOM     51  N   UNL A   1      41.653  27.934  28.964  1.00  0.00    -0.354 N 
ATOM     52  C   UNL A   1      43.390  31.875  29.082  1.00  0.00     0.074 A 
ATOM     53  C   UNL A   1      42.565  32.788  29.845  1.00  0.00     0.031 C 
ATOM     54  C   UNL A   1      40.075  26.384  29.296  1.00  0.00     0.029 A 
ATOM     55  C   UNL A   1      41.362  26.627  28.653  1.00  0.00     0.049 A 
ATOM     56  H   UNL A   1      42.487  28.379  28.687  1.00  0.00     0.167 HD
ATOM     57  C   UNL A   1      44.561  32.211  28.490  1.00  0.00     0.037 A 
ATOM     58  C   UNL A   1      42.040  25.724  27.920  1.00  0.00     0.037 A 
ATOM     59  C   UNL A   1      45.398  31.295  27.756  1.00  0.00     0.049 A 
ATOM     60  C   UNL A   1      43.346  26.116  27.294  1.00  0.00     0.074 A 
ATOM     61  C   UNL A   1      46.629  31.533  27.170  1.00  0.00     0.029 A 
ATOM     62  N   UNL A   1      45.089  29.966  27.514  1.00  0.00    -0.354 N 
ATOM     63  N   UNL A   1      43.960  27.273  27.325  1.00  0.00    -0.248 NA
ATOM     64  C   UNL A   1      44.055  25.079  26.530  1.00  0.00     0.031 C 
ATOM     65  C   UNL A   1      47.055  30.353  26.551  1.00  0.00     0.029 A 
ATOM     66  C   UNL A   1      46.103  29.373  26.780  1.00  0.00     0.049 A 
ATOM     67  H   UNL A   1      44.271  29.511  27.819  1.00  0.00     0.167 HD
ATOM     68  C   UNL A   1      45.139  27.096  26.613  1.00  0.00     0.074 A 
ATOM     69  C   UNL A   1      45.156  25.720  26.164  1.00  0.00     0.031 C 
ATOM     70  C   UNL A   1      46.118  27.996  26.359  1.00  0.00     0.037 A 
BRANCH  57  71
ATOM     71  C   UNL A   1      45.013  33.635  28.614  1.00  0.00     0.057 A 
ATOM     72  C   UNL A   1      44.552  34.632  27.744  1.00  0.00     0.134 A 
ATOM     73  C   UNL A   1      45.891  34.022  29.634  1.00  0.00     0.134 A 
ATOM     74  F   UNL A   1      43.717  34.324  26.740  1.00  0.00    -0.206 F 
ATOM     75  C   UNL A   1      44.968  35.959  27.869  1.00  0.00     0.040 A 
ATOM     76  C   UNL A   1      46.295  35.350  29.784  1.00  0.00     0.040 A 
ATOM     77  F   UNL A   1      46.363  33.119  30.507  1.00  0.00    -0.206 F 
ATOM     78  C   UNL A   1      45.838  36.321  28.895  1.00  0.00     0.006 A 
ENDBRANCH  57  71
BRANCH  58  79
ATOM     79  C   UNL A   1      41.505  24.351  27.756  1.00  0.00     0.057 A 
ATOM     80  C   UNL A   1      40.487  24.083  26.834  1.00  0.00     0.134 A 
ATOM     81  C   UNL A   1      41.999  23.277  28.504  1.00  0.00     0.134 A 
ATOM     82  F   UNL A   1      39.962  25.076  26.102  1.00  0.00    -0.206 F 
ATOM     83  C   UNL A   1      39.968  22.798  26.672  1.00  0.00     0.040 A 
ATOM     84  C   UNL A   1      41.503  21.982  28.338  1.00  0.00     0.040 A 
ATOM     85  F   UNL A   1      42.980  23.468  29.399  1.00  0.00    -0.206 F 
ATOM     86  C   UNL A   1      40.480  21.742  27.422  1.00  0.00     0.006 A 
ENDBRANCH  58  79
BRANCH  70  87
ATOM     87  C   UNL A   1      47.315  27.512  25.599  1.00  0.00     0.057 A 
ATOM     88  C   UNL A   1      47.410  27.645  24.209  1.00  0.00     0.134 A 
ATOM     89  C   UNL A   1      48.405  26.952  26.276  1.00  0.00     0.134 A 
ATOM     90  F   UNL A   1      46.392  28.160  23.504  1.00  0.00    -0.206 F 
ATOM     91  C   UNL A   1      48.548  27.227  23.516  1.00  0.00     0.040 A 
ATOM     92  C   UNL A   1      49.554  26.547  25.597  1.00  0.00     0.040 A 
ATOM     93  F   UNL A   1      48.375  26.802  27.608  1.00  0.00    -0.206 F 
ATOM     94  C   UNL A   1      49.627  26.684  24.211  1.00  0.00     0.006 A 
ENDBRANCH  70  87
ENDBRANCH  44  45
ENDBRANCH  36  39
ENDBRANCH  34  35
ENDBRANCH  33  34
ENDBRANCH  32  33
ENDBRANCH   3  32
TORSDOF 15
ENDMDL
