MODEL 1
REMARK VINA RESULT:     -12.9      0.000      0.000
REMARK SMILES O=C(NCCCNC(=O)c1ccc2c(=O)n(CCC[NH+]3CCOCC3)c(=O)[nH]c2c1)c1ccc(-c2c3nc(c(-c4c(F)cccc4F)c4ccc([nH]4)c(-c4c(F)cccc4F)c4nc(c(-c5c(F)cccc5F)c5ccc2[nH]5)C=C4)C=C3)cc1
REMARK SMILES IDX 6 1 5 2 4 3 3 4 1 5 2 6 31 8 32 9 84 10 33 11 83 12 34 13
REMARK SMILES IDX 35 14 36 15 77 16 37 17 82 18 76 19 78 20 38 21 81 22 75 23
REMARK SMILES IDX 74 24 39 26 65 27 48 28 64 29 49 30 52 31 63 32 79 33 50 34
REMARK SMILES IDX 51 35 62 37 80 38 53 39 40 40 41 41 46 42 42 43 43 44 45 45
REMARK SMILES IDX 47 46 44 47 66 48 67 49 72 50 68 51 69 52 71 53 73 54 70 55
REMARK SMILES IDX 54 56 55 57 60 58 56 59 57 60 59 61 61 62 58 63 7 64 8 65
REMARK SMILES IDX 9 67 10 68 11 69 30 70 12 71 29 72 13 73 28 74 14 75 26 76
REMARK SMILES IDX 15 78 16 79 27 80 17 81 18 82 19 83 20 84 21 85 25 86 22 88
REMARK SMILES IDX 24 89 23 90
REMARK H PARENT 3 7 78 25 52 36 7 66 28 77 20 87
REMARK Flexibility Score: inf
ROOT
ATOM      1  C   UNL A   1      36.618  20.658  25.001  1.00  0.00     0.118 C 
ENDROOT
BRANCH   1   2
ATOM      2  C   UNL A   1      37.782  19.684  25.001  1.00  0.00     0.042 C 
BRANCH   2   3
ATOM      3  C   UNL A   1      38.999  20.188  25.752  1.00  0.00     0.118 C 
BRANCH   3   4
ATOM      4  N   UNL A   1      40.025  19.165  25.902  1.00  0.00    -0.352 N 
ATOM      5  O   UNL A   1      42.078  18.269  25.990  1.00  0.00    -0.269 OA
ATOM      6  C   UNL A   1      41.379  19.275  26.082  1.00  0.00     0.251 C 
ATOM      7  H   UNL A   1      39.690  18.241  25.867  1.00  0.00     0.163 HD
BRANCH   6   8
ATOM      8  C   UNL A   1      42.008  20.579  26.383  1.00  0.00     0.039 A 
ATOM      9  C   UNL A   1      42.172  20.953  27.721  1.00  0.00     0.014 A 
ATOM     10  C   UNL A   1      42.368  21.467  25.367  1.00  0.00     0.014 A 
ATOM     11  C   UNL A   1      42.715  22.200  28.036  1.00  0.00     0.010 A 
ATOM     12  C   UNL A   1      42.998  22.667  25.678  1.00  0.00     0.010 A 
ATOM     13  C   UNL A   1      43.141  23.062  27.015  1.00  0.00    -0.014 A 
BRANCH  13  14
ATOM     14  C   UNL A   1      43.643  24.425  27.313  1.00  0.00     0.031 A 
ATOM     15  C   UNL A   1      42.679  25.476  27.796  1.00  0.00     0.074 A 
ATOM     16  C   UNL A   1      44.938  24.733  27.115  1.00  0.00     0.049 A 
ATOM     17  N   UNL A   1      42.883  26.749  28.022  1.00  0.00    -0.248 NA
ATOM     18  C   UNL A   1      41.290  25.043  28.025  1.00  0.00     0.031 C 
ATOM     19  C   UNL A   1      45.965  23.812  26.627  1.00  0.00     0.029 A 
ATOM     20  N   UNL A   1      45.608  25.915  27.295  1.00  0.00    -0.354 N 
ATOM     21  C   UNL A   1      41.648  27.268  28.392  1.00  0.00     0.074 A 
ATOM     22  C   UNL A   1      40.690  26.189  28.306  1.00  0.00     0.031 C 
ATOM     23  C   UNL A   1      47.142  24.457  26.574  1.00  0.00     0.029 A 
ATOM     24  C   UNL A   1      46.944  25.843  26.988  1.00  0.00     0.049 A 
ATOM     25  H   UNL A   1      45.172  26.739  27.616  1.00  0.00     0.167 HD
ATOM     26  C   UNL A   1      41.342  28.523  28.796  1.00  0.00     0.037 A 
ATOM     27  C   UNL A   1      47.896  26.793  27.034  1.00  0.00     0.037 A 
ATOM     28  C   UNL A   1      42.302  29.585  28.926  1.00  0.00     0.049 A 
ATOM     29  C   UNL A   1      47.531  28.181  27.480  1.00  0.00     0.074 A 
ATOM     30  C   UNL A   1      42.106  30.878  29.376  1.00  0.00     0.029 A 
ATOM     31  N   UNL A   1      43.648  29.468  28.614  1.00  0.00    -0.354 N 
ATOM     32  N   UNL A   1      46.368  28.648  27.863  1.00  0.00    -0.248 NA
ATOM     33  C   UNL A   1      48.615  29.173  27.503  1.00  0.00     0.031 C 
ATOM     34  C   UNL A   1      43.329  31.553  29.310  1.00  0.00     0.029 A 
ATOM     35  C   UNL A   1      44.293  30.670  28.851  1.00  0.00     0.049 A 
ATOM     36  H   UNL A   1      44.080  28.652  28.274  1.00  0.00     0.167 HD
ATOM     37  C   UNL A   1      46.584  29.979  28.196  1.00  0.00     0.074 A 
ATOM     38  C   UNL A   1      47.992  30.241  27.982  1.00  0.00     0.031 C 
ATOM     39  C   UNL A   1      45.698  30.904  28.639  1.00  0.00     0.037 A 
BRANCH  26  40
ATOM     40  C   UNL A   1      39.907  28.803  29.133  1.00  0.00     0.057 A 
ATOM     41  C   UNL A   1      39.001  29.194  28.138  1.00  0.00     0.134 A 
ATOM     42  C   UNL A   1      39.420  28.687  30.442  1.00  0.00     0.134 A 
ATOM     43  F   UNL A   1      39.402  29.327  26.866  1.00  0.00    -0.206 F 
ATOM     44  C   UNL A   1      37.661  29.452  28.434  1.00  0.00     0.040 A 
ATOM     45  C   UNL A   1      38.077  28.918  30.744  1.00  0.00     0.040 A 
ATOM     46  F   UNL A   1      40.233  28.299  31.437  1.00  0.00    -0.206 F 
ATOM     47  C   UNL A   1      37.194  29.306  29.739  1.00  0.00     0.006 A 
ENDBRANCH  26  40
BRANCH  27  48
ATOM     48  C   UNL A   1      49.296  26.462  26.671  1.00  0.00     0.057 A 
ATOM     49  C   UNL A   1      50.185  25.908  27.600  1.00  0.00     0.134 A 
ATOM     50  C   UNL A   1      49.769  26.673  25.371  1.00  0.00     0.134 A 
ATOM     51  F   UNL A   1      49.792  25.686  28.864  1.00  0.00    -0.206 F 
ATOM     52  C   UNL A   1      51.494  25.578  27.250  1.00  0.00     0.040 A 
ATOM     53  C   UNL A   1      51.070  26.328  25.001  1.00  0.00     0.040 A 
ATOM     54  F   UNL A   1      48.958  27.182  24.432  1.00  0.00    -0.206 F 
ATOM     55  C   UNL A   1      51.937  25.781  25.943  1.00  0.00     0.006 A 
ENDBRANCH  27  48
BRANCH  39  56
ATOM     56  C   UNL A   1      46.235  32.268  28.952  1.00  0.00     0.057 A 
ATOM     57  C   UNL A   1      46.700  32.572  30.237  1.00  0.00     0.134 A 
ATOM     58  C   UNL A   1      46.266  33.285  27.992  1.00  0.00     0.134 A 
ATOM     59  F   UNL A   1      46.690  31.642  31.204  1.00  0.00    -0.206 F 
ATOM     60  C   UNL A   1      47.176  33.844  30.557  1.00  0.00     0.040 A 
ATOM     61  C   UNL A   1      46.761  34.555  28.293  1.00  0.00     0.040 A 
ATOM     62  F   UNL A   1      45.848  33.050  26.738  1.00  0.00    -0.206 F 
ATOM     63  C   UNL A   1      47.212  34.838  29.581  1.00  0.00     0.006 A 
ENDBRANCH  39  56
ENDBRANCH  13  14
ENDBRANCH   6   8
ENDBRANCH   3   4
ENDBRANCH   2   3
ENDBRANCH   1   2
BRANCH   1  64
ATOM     64  N   UNL A   1      35.323  20.013  25.211  1.00  0.00    -0.352 N 
ATOM     65  C   UNL A   1      34.061  20.567  25.256  1.00  0.00     0.251 C 
ATOM     66  H   UNL A   1      35.356  19.037  25.338  1.00  0.00     0.163 HD
ATOM     67  O   UNL A   1      33.088  19.902  25.585  1.00  0.00    -0.269 OA
BRANCH  65  68
ATOM     68  C   UNL A   1      33.911  22.004  24.955  1.00  0.00     0.041 A 
ATOM     69  C   UNL A   1      33.786  22.912  26.014  1.00  0.00     0.015 A 
ATOM     70  C   UNL A   1      33.760  22.415  23.624  1.00  0.00     0.040 A 
ATOM     71  C   UNL A   1      33.219  24.151  25.767  1.00  0.00     0.017 A 
ATOM     72  C   UNL A   1      33.300  23.705  23.384  1.00  0.00     0.056 A 
ATOM     73  C   UNL A   1      32.932  24.508  24.451  1.00  0.00     0.064 A 
ATOM     74  N   UNL A   1      33.187  24.227  22.097  1.00  0.00    -0.307 N 
ATOM     75  C   UNL A   1      32.129  25.691  24.145  1.00  0.00     0.264 A 
ATOM     76  C   UNL A   1      32.839  25.533  21.845  1.00  0.00     0.328 A 
ATOM     77  H   UNL A   1      33.366  23.632  21.333  1.00  0.00     0.171 HD
ATOM     78  O   UNL A   1      31.245  25.981  24.942  1.00  0.00    -0.268 OA
ATOM     79  N   UNL A   1      32.369  26.281  22.922  1.00  0.00    -0.260 N 
ATOM     80  O   UNL A   1      32.946  25.963  20.696  1.00  0.00    -0.248 OA
BRANCH  79  81
ATOM     81  C   UNL A   1      32.116  27.707  22.693  1.00  0.00     0.137 C 
BRANCH  81  82
ATOM     82  C   UNL A   1      30.685  28.256  22.521  1.00  0.00     0.083 C 
BRANCH  82  83
ATOM     83  C   UNL A   1      30.174  29.337  23.499  1.00  0.00     0.264 C 
BRANCH  83  84
ATOM     84  N   UNL A   1      29.640  30.498  22.800  1.00  0.00    -0.331 N 
ATOM     85  C   UNL A   1      28.669  30.167  21.747  1.00  0.00     0.291 C 
ATOM     86  C   UNL A   1      29.031  31.497  23.692  1.00  0.00     0.291 C 
ATOM     87  H   UNL A   1      30.471  30.899  22.366  1.00  0.00     0.348 HD
ATOM     88  C   UNL A   1      28.342  31.444  20.953  1.00  0.00     0.221 C 
ATOM     89  C   UNL A   1      28.774  32.764  22.864  1.00  0.00     0.221 C 
ATOM     90  O   UNL A   1      27.847  32.495  21.802  1.00  0.00    -0.370 OA
ENDBRANCH  83  84
ENDBRANCH  82  83
ENDBRANCH  81  82
ENDBRANCH  79  81
ENDBRANCH  65  68
ENDBRANCH   1  64
TORSDOF 14
ENDMDL
MODEL 2
REMARK VINA RESULT:     -12.8      5.240     11.185
REMARK SMILES O=C(NCCCNC(=O)c1ccc2c(=O)n(CCC[NH+]3CCOCC3)c(=O)[nH]c2c1)c1ccc(-c2c3nc(c(-c4c(F)cccc4F)c4ccc([nH]4)c(-c4c(F)cccc4F)c4nc(c(-c5c(F)cccc5F)c5ccc2[nH]5)C=C4)C=C3)cc1
REMARK SMILES IDX 6 1 5 2 4 3 3 4 1 5 2 6 31 8 32 9 84 10 33 11 83 12 34 13
REMARK SMILES IDX 35 14 36 15 77 16 37 17 82 18 76 19 78 20 38 21 81 22 75 23
REMARK SMILES IDX 74 24 39 26 65 27 48 28 64 29 49 30 52 31 63 32 79 33 50 34
REMARK SMILES IDX 51 35 62 37 80 38 53 39 40 40 41 41 46 42 42 43 43 44 45 45
REMARK SMILES IDX 47 46 44 47 66 48 67 49 72 50 68 51 69 52 71 53 73 54 70 55
REMARK SMILES IDX 54 56 55 57 60 58 56 59 57 60 59 61 61 62 58 63 7 64 8 65
REMARK SMILES IDX 9 67 10 68 11 69 30 70 12 71 29 72 13 73 28 74 14 75 26 76
REMARK SMILES IDX 15 78 16 79 27 80 17 81 18 82 19 83 20 84 21 85 25 86 22 88
REMARK SMILES IDX 24 89 23 90
REMARK H PARENT 3 7 78 25 52 36 7 66 28 77 20 87
REMARK Flexibility Score: inf
ROOT
ATOM      1  C   UNL A   1      31.713  30.635  26.306  1.00  0.00     0.118 C 
ENDROOT
BRANCH   1   2
ATOM      2  C   UNL A   1      31.488  32.040  26.836  1.00  0.00     0.042 C 
BRANCH   2   3
ATOM      3  C   UNL A   1      32.772  32.784  27.154  1.00  0.00     0.118 C 
BRANCH   3   4
ATOM      4  N   UNL A   1      32.530  34.156  27.576  1.00  0.00    -0.352 N 
ATOM      5  O   UNL A   1      32.566  35.969  28.895  1.00  0.00    -0.269 OA
ATOM      6  C   UNL A   1      33.062  34.882  28.610  1.00  0.00     0.251 C 
ATOM      7  H   UNL A   1      31.876  34.645  27.027  1.00  0.00     0.163 HD
BRANCH   6   8
ATOM      8  C   UNL A   1      34.217  34.378  29.384  1.00  0.00     0.039 A 
ATOM      9  C   UNL A   1      35.506  34.598  28.887  1.00  0.00     0.014 A 
ATOM     10  C   UNL A   1      34.043  33.628  30.550  1.00  0.00     0.014 A 
ATOM     11  C   UNL A   1      36.613  34.090  29.568  1.00  0.00     0.010 A 
ATOM     12  C   UNL A   1      35.148  33.206  31.280  1.00  0.00     0.010 A 
ATOM     13  C   UNL A   1      36.442  33.397  30.777  1.00  0.00    -0.014 A 
BRANCH  13  14
ATOM     14  C   UNL A   1      37.588  32.773  31.479  1.00  0.00     0.031 A 
ATOM     15  C   UNL A   1      38.285  31.595  30.852  1.00  0.00     0.074 A 
ATOM     16  C   UNL A   1      37.976  33.226  32.686  1.00  0.00     0.049 A 
ATOM     17  N   UNL A   1      39.240  30.842  31.334  1.00  0.00    -0.248 NA
ATOM     18  C   UNL A   1      37.823  31.191  29.513  1.00  0.00     0.031 C 
ATOM     19  C   UNL A   1      37.367  34.342  33.410  1.00  0.00     0.029 A 
ATOM     20  N   UNL A   1      38.977  32.794  33.518  1.00  0.00    -0.354 N 
ATOM     21  C   UNL A   1      39.471  29.866  30.372  1.00  0.00     0.074 A 
ATOM     22  C   UNL A   1      38.520  30.086  29.306  1.00  0.00     0.031 C 
ATOM     23  C   UNL A   1      38.026  34.525  34.567  1.00  0.00     0.029 A 
ATOM     24  C   UNL A   1      39.077  33.518  34.680  1.00  0.00     0.049 A 
ATOM     25  H   UNL A   1      39.569  32.037  33.301  1.00  0.00     0.167 HD
ATOM     26  C   UNL A   1      40.409  28.889  30.362  1.00  0.00     0.037 A 
ATOM     27  C   UNL A   1      39.921  33.377  35.718  1.00  0.00     0.037 A 
ATOM     28  C   UNL A   1      41.384  28.697  31.400  1.00  0.00     0.049 A 
ATOM     29  C   UNL A   1      40.951  32.282  35.687  1.00  0.00     0.074 A 
ATOM     30  C   UNL A   1      42.410  27.772  31.463  1.00  0.00     0.029 A 
ATOM     31  N   UNL A   1      41.458  29.458  32.558  1.00  0.00    -0.354 N 
ATOM     32  N   UNL A   1      41.183  31.390  34.755  1.00  0.00    -0.248 NA
ATOM     33  C   UNL A   1      41.839  32.178  36.854  1.00  0.00     0.031 C 
ATOM     34  C   UNL A   1      43.089  27.955  32.673  1.00  0.00     0.029 A 
ATOM     35  C   UNL A   1      42.506  29.016  33.347  1.00  0.00     0.049 A 
ATOM     36  H   UNL A   1      40.854  30.202  32.785  1.00  0.00     0.167 HD
ATOM     37  C   UNL A   1      42.257  30.636  35.209  1.00  0.00     0.074 A 
ATOM     38  C   UNL A   1      42.639  31.184  36.494  1.00  0.00     0.031 C 
ATOM     39  C   UNL A   1      42.873  29.583  34.619  1.00  0.00     0.037 A 
BRANCH  26  40
ATOM     40  C   UNL A   1      40.421  27.964  29.181  1.00  0.00     0.057 A 
ATOM     41  C   UNL A   1      39.638  26.803  29.173  1.00  0.00     0.134 A 
ATOM     42  C   UNL A   1      41.209  28.221  28.051  1.00  0.00     0.134 A 
ATOM     43  F   UNL A   1      38.863  26.496  30.224  1.00  0.00    -0.206 F 
ATOM     44  C   UNL A   1      39.634  25.934  28.080  1.00  0.00     0.040 A 
ATOM     45  C   UNL A   1      41.193  27.374  26.942  1.00  0.00     0.040 A 
ATOM     46  F   UNL A   1      41.968  29.327  27.989  1.00  0.00    -0.206 F 
ATOM     47  C   UNL A   1      40.407  26.224  26.956  1.00  0.00     0.006 A 
ENDBRANCH  26  40
BRANCH  27  48
ATOM     48  C   UNL A   1      39.850  34.311  36.869  1.00  0.00     0.057 A 
ATOM     49  C   UNL A   1      39.114  34.004  38.020  1.00  0.00     0.134 A 
ATOM     50  C   UNL A   1      40.542  35.527  36.848  1.00  0.00     0.134 A 
ATOM     51  F   UNL A   1      38.426  32.855  38.097  1.00  0.00    -0.206 F 
ATOM     52  C   UNL A   1      39.068  34.876  39.108  1.00  0.00     0.040 A 
ATOM     53  C   UNL A   1      40.521  36.398  37.939  1.00  0.00     0.040 A 
ATOM     54  F   UNL A   1      41.280  35.866  35.781  1.00  0.00    -0.206 F 
ATOM     55  C   UNL A   1      39.780  36.073  39.072  1.00  0.00     0.006 A 
ENDBRANCH  27  48
BRANCH  39  56
ATOM     56  C   UNL A   1      44.041  28.984  35.341  1.00  0.00     0.057 A 
ATOM     57  C   UNL A   1      45.346  29.411  35.062  1.00  0.00     0.134 A 
ATOM     58  C   UNL A   1      43.878  27.968  36.289  1.00  0.00     0.134 A 
ATOM     59  F   UNL A   1      45.569  30.376  34.159  1.00  0.00    -0.206 F 
ATOM     60  C   UNL A   1      46.448  28.844  35.702  1.00  0.00     0.040 A 
ATOM     61  C   UNL A   1      44.972  27.409  36.952  1.00  0.00     0.040 A 
ATOM     62  F   UNL A   1      42.652  27.527  36.609  1.00  0.00    -0.206 F 
ATOM     63  C   UNL A   1      46.262  27.844  36.655  1.00  0.00     0.006 A 
ENDBRANCH  39  56
ENDBRANCH  13  14
ENDBRANCH   6   8
ENDBRANCH   3   4
ENDBRANCH   2   3
ENDBRANCH   1   2
BRANCH   1  64
ATOM     64  N   UNL A   1      31.057  30.388  25.023  1.00  0.00    -0.352 N 
ATOM     65  C   UNL A   1      31.082  29.265  24.224  1.00  0.00     0.251 C 
ATOM     66  H   UNL A   1      30.516  31.135  24.678  1.00  0.00     0.163 HD
ATOM     67  O   UNL A   1      30.591  29.273  23.103  1.00  0.00    -0.269 OA
BRANCH  65  68
ATOM     68  C   UNL A   1      31.771  28.060  24.725  1.00  0.00     0.041 A 
ATOM     69  C   UNL A   1      33.079  27.796  24.300  1.00  0.00     0.015 A 
ATOM     70  C   UNL A   1      31.059  27.135  25.501  1.00  0.00     0.040 A 
ATOM     71  C   UNL A   1      33.564  26.503  24.392  1.00  0.00     0.017 A 
ATOM     72  C   UNL A   1      31.610  25.872  25.686  1.00  0.00     0.056 A 
ATOM     73  C   UNL A   1      32.791  25.542  25.040  1.00  0.00     0.064 A 
ATOM     74  N   UNL A   1      31.014  24.912  26.500  1.00  0.00    -0.307 N 
ATOM     75  C   UNL A   1      33.133  24.121  24.971  1.00  0.00     0.264 A 
ATOM     76  C   UNL A   1      31.597  23.699  26.782  1.00  0.00     0.328 A 
ATOM     77  H   UNL A   1      30.133  25.112  26.892  1.00  0.00     0.171 HD
ATOM     78  O   UNL A   1      33.647  23.726  23.931  1.00  0.00    -0.268 OA
ATOM     79  N   UNL A   1      32.721  23.350  26.036  1.00  0.00    -0.260 N 
ATOM     80  O   UNL A   1      31.097  22.990  27.656  1.00  0.00    -0.248 OA
BRANCH  79  81
ATOM     81  C   UNL A   1      33.424  22.120  26.414  1.00  0.00     0.137 C 
BRANCH  81  82
ATOM     82  C   UNL A   1      33.026  20.750  25.831  1.00  0.00     0.083 C 
BRANCH  82  83
ATOM     83  C   UNL A   1      34.050  19.971  24.977  1.00  0.00     0.264 C 
BRANCH  83  84
ATOM     84  N   UNL A   1      33.956  18.532  25.188  1.00  0.00    -0.331 N 
ATOM     85  C   UNL A   1      32.594  17.997  25.062  1.00  0.00     0.291 C 
ATOM     86  C   UNL A   1      34.843  17.748  24.315  1.00  0.00     0.291 C 
ATOM     87  H   UNL A   1      34.262  18.429  26.155  1.00  0.00     0.348 HD
ATOM     88  C   UNL A   1      32.594  16.524  25.508  1.00  0.00     0.221 C 
ATOM     89  C   UNL A   1      34.848  16.303  24.834  1.00  0.00     0.221 C 
ATOM     90  O   UNL A   1      33.532  15.734  24.757  1.00  0.00    -0.370 OA
ENDBRANCH  83  84
ENDBRANCH  82  83
ENDBRANCH  81  82
ENDBRANCH  79  81
ENDBRANCH  65  68
ENDBRANCH   1  64
TORSDOF 14
ENDMDL
MODEL 3
REMARK VINA RESULT:     -12.8      4.336      9.817
REMARK SMILES O=C(NCCCNC(=O)c1ccc2c(=O)n(CCC[NH+]3CCOCC3)c(=O)[nH]c2c1)c1ccc(-c2c3nc(c(-c4c(F)cccc4F)c4ccc([nH]4)c(-c4c(F)cccc4F)c4nc(c(-c5c(F)cccc5F)c5ccc2[nH]5)C=C4)C=C3)cc1
REMARK SMILES IDX 6 1 5 2 4 3 3 4 1 5 2 6 31 8 32 9 84 10 33 11 83 12 34 13
REMARK SMILES IDX 35 14 36 15 77 16 37 17 82 18 76 19 78 20 38 21 81 22 75 23
REMARK SMILES IDX 74 24 39 26 65 27 48 28 64 29 49 30 52 31 63 32 79 33 50 34
REMARK SMILES IDX 51 35 62 37 80 38 53 39 40 40 41 41 46 42 42 43 43 44 45 45
REMARK SMILES IDX 47 46 44 47 66 48 67 49 72 50 68 51 69 52 71 53 73 54 70 55
REMARK SMILES IDX 54 56 55 57 60 58 56 59 57 60 59 61 61 62 58 63 7 64 8 65
REMARK SMILES IDX 9 67 10 68 11 69 30 70 12 71 29 72 13 73 28 74 14 75 26 76
REMARK SMILES IDX 15 78 16 79 27 80 17 81 18 82 19 83 20 84 21 85 25 86 22 88
REMARK SMILES IDX 24 89 23 90
REMARK H PARENT 3 7 78 25 52 36 7 66 28 77 20 87
REMARK Flexibility Score: inf
ROOT
ATOM      1  C   UNL A   1      31.477  30.750  26.262  1.00  0.00     0.118 C 
ENDROOT
BRANCH   1   2
ATOM      2  C   UNL A   1      31.393  32.231  26.588  1.00  0.00     0.042 C 
BRANCH   2   3
ATOM      3  C   UNL A   1      32.690  32.813  27.119  1.00  0.00     0.118 C 
BRANCH   3   4
ATOM      4  N   UNL A   1      32.484  34.050  27.857  1.00  0.00    -0.352 N 
ATOM      5  O   UNL A   1      32.692  35.552  29.509  1.00  0.00    -0.269 OA
ATOM      6  C   UNL A   1      33.164  34.582  28.923  1.00  0.00     0.251 C 
ATOM      7  H   UNL A   1      31.730  34.597  27.539  1.00  0.00     0.163 HD
BRANCH   6   8
ATOM      8  C   UNL A   1      34.449  34.006  29.374  1.00  0.00     0.039 A 
ATOM      9  C   UNL A   1      35.607  34.294  28.643  1.00  0.00     0.014 A 
ATOM     10  C   UNL A   1      34.515  33.129  30.458  1.00  0.00     0.014 A 
ATOM     11  C   UNL A   1      36.826  33.724  29.014  1.00  0.00     0.010 A 
ATOM     12  C   UNL A   1      35.743  32.638  30.887  1.00  0.00     0.010 A 
ATOM     13  C   UNL A   1      36.904  32.899  30.146  1.00  0.00    -0.014 A 
BRANCH  13  14
ATOM     14  C   UNL A   1      38.165  32.212  30.516  1.00  0.00     0.031 A 
ATOM     15  C   UNL A   1      39.079  32.845  31.531  1.00  0.00     0.074 A 
ATOM     16  C   UNL A   1      38.510  31.055  29.921  1.00  0.00     0.049 A 
ATOM     17  N   UNL A   1      40.268  32.467  31.927  1.00  0.00    -0.248 NA
ATOM     18  C   UNL A   1      38.605  34.088  32.163  1.00  0.00     0.031 C 
ATOM     19  C   UNL A   1      37.723  30.354  28.905  1.00  0.00     0.029 A 
ATOM     20  N   UNL A   1      39.621  30.269  30.084  1.00  0.00    -0.354 N 
ATOM     21  C   UNL A   1      40.689  33.437  32.830  1.00  0.00     0.074 A 
ATOM     22  C   UNL A   1      39.657  34.447  32.880  1.00  0.00     0.031 C 
ATOM     23  C   UNL A   1      38.365  29.226  28.556  1.00  0.00     0.029 A 
ATOM     24  C   UNL A   1      39.620  29.145  29.296  1.00  0.00     0.049 A 
ATOM     25  H   UNL A   1      40.350  30.489  30.709  1.00  0.00     0.167 HD
ATOM     26  C   UNL A   1      41.820  33.471  33.573  1.00  0.00     0.037 A 
ATOM     27  C   UNL A   1      40.536  28.165  29.183  1.00  0.00     0.037 A 
ATOM     28  C   UNL A   1      42.826  32.443  33.557  1.00  0.00     0.049 A 
ATOM     29  C   UNL A   1      41.787  28.226  30.015  1.00  0.00     0.074 A 
ATOM     30  C   UNL A   1      43.983  32.355  34.308  1.00  0.00     0.029 A 
ATOM     31  N   UNL A   1      42.783  31.316  32.751  1.00  0.00    -0.354 N 
ATOM     32  N   UNL A   1      42.155  29.130  30.891  1.00  0.00    -0.248 NA
ATOM     33  C   UNL A   1      42.749  27.128  29.842  1.00  0.00     0.031 C 
ATOM     34  C   UNL A   1      44.656  31.186  33.937  1.00  0.00     0.029 A 
ATOM     35  C   UNL A   1      43.900  30.531  32.979  1.00  0.00     0.049 A 
ATOM     36  H   UNL A   1      42.065  31.105  32.111  1.00  0.00     0.167 HD
ATOM     37  C   UNL A   1      43.376  28.697  31.392  1.00  0.00     0.074 A 
ATOM     38  C   UNL A   1      43.680  27.445  30.731  1.00  0.00     0.031 C 
ATOM     39  C   UNL A   1      44.177  29.283  32.315  1.00  0.00     0.037 A 
BRANCH  26  40
ATOM     40  C   UNL A   1      42.016  34.658  34.467  1.00  0.00     0.057 A 
ATOM     41  C   UNL A   1      41.558  34.642  35.791  1.00  0.00     0.134 A 
ATOM     42  C   UNL A   1      42.658  35.821  34.019  1.00  0.00     0.134 A 
ATOM     43  F   UNL A   1      40.933  33.561  36.282  1.00  0.00    -0.206 F 
ATOM     44  C   UNL A   1      41.738  35.737  36.638  1.00  0.00     0.040 A 
ATOM     45  C   UNL A   1      42.866  36.912  34.865  1.00  0.00     0.040 A 
ATOM     46  F   UNL A   1      43.136  35.894  32.768  1.00  0.00    -0.206 F 
ATOM     47  C   UNL A   1      42.401  36.873  36.178  1.00  0.00     0.006 A 
ENDBRANCH  26  40
BRANCH  27  48
ATOM     48  C   UNL A   1      40.296  27.023  28.267  1.00  0.00     0.057 A 
ATOM     49  C   UNL A   1      39.476  25.948  28.630  1.00  0.00     0.134 A 
ATOM     50  C   UNL A   1      40.869  26.997  26.990  1.00  0.00     0.134 A 
ATOM     51  F   UNL A   1      38.902  25.914  29.842  1.00  0.00    -0.206 F 
ATOM     52  C   UNL A   1      39.236  24.887  27.757  1.00  0.00     0.040 A 
ATOM     53  C   UNL A   1      40.619  25.952  26.099  1.00  0.00     0.040 A 
ATOM     54  F   UNL A   1      41.647  28.008  26.578  1.00  0.00    -0.206 F 
ATOM     55  C   UNL A   1      39.802  24.892  26.483  1.00  0.00     0.006 A 
ENDBRANCH  27  48
BRANCH  39  56
ATOM     56  C   UNL A   1      45.434  28.557  32.685  1.00  0.00     0.057 A 
ATOM     57  C   UNL A   1      46.626  28.796  31.988  1.00  0.00     0.134 A 
ATOM     58  C   UNL A   1      45.461  27.604  33.710  1.00  0.00     0.134 A 
ATOM     59  F   UNL A   1      46.664  29.693  30.992  1.00  0.00    -0.206 F 
ATOM     60  C   UNL A   1      47.800  28.109  32.297  1.00  0.00     0.040 A 
ATOM     61  C   UNL A   1      46.634  26.927  34.043  1.00  0.00     0.040 A 
ATOM     62  F   UNL A   1      44.354  27.342  34.423  1.00  0.00    -0.206 F 
ATOM     63  C   UNL A   1      47.807  27.175  33.332  1.00  0.00     0.006 A 
ENDBRANCH  39  56
ENDBRANCH  13  14
ENDBRANCH   6   8
ENDBRANCH   3   4
ENDBRANCH   2   3
ENDBRANCH   1   2
BRANCH   1  64
ATOM     64  N   UNL A   1      31.049  30.432  24.901  1.00  0.00    -0.352 N 
ATOM     65  C   UNL A   1      31.214  29.272  24.175  1.00  0.00     0.251 C 
ATOM     66  H   UNL A   1      30.570  31.154  24.433  1.00  0.00     0.163 HD
ATOM     67  O   UNL A   1      30.919  29.218  22.989  1.00  0.00    -0.269 OA
BRANCH  65  68
ATOM     68  C   UNL A   1      31.814  28.102  24.845  1.00  0.00     0.041 A 
ATOM     69  C   UNL A   1      33.196  27.898  24.751  1.00  0.00     0.015 A 
ATOM     70  C   UNL A   1      30.978  27.148  25.442  1.00  0.00     0.040 A 
ATOM     71  C   UNL A   1      33.701  26.628  24.976  1.00  0.00     0.017 A 
ATOM     72  C   UNL A   1      31.524  25.913  25.774  1.00  0.00     0.056 A 
ATOM     73  C   UNL A   1      32.838  25.635  25.435  1.00  0.00     0.064 A 
ATOM     74  N   UNL A   1      30.792  24.930  26.436  1.00  0.00    -0.307 N 
ATOM     75  C   UNL A   1      33.249  24.232  25.471  1.00  0.00     0.264 A 
ATOM     76  C   UNL A   1      31.343  23.746  26.868  1.00  0.00     0.328 A 
ATOM     77  H   UNL A   1      29.835  25.090  26.602  1.00  0.00     0.171 HD
ATOM     78  O   UNL A   1      34.015  23.857  24.591  1.00  0.00    -0.268 OA
ATOM     79  N   UNL A   1      32.628  23.447  26.419  1.00  0.00    -0.260 N 
ATOM     80  O   UNL A   1      30.679  23.019  27.607  1.00  0.00    -0.248 OA
BRANCH  79  81
ATOM     81  C   UNL A   1      33.273  22.253  26.973  1.00  0.00     0.137 C 
BRANCH  81  82
ATOM     82  C   UNL A   1      33.463  20.974  26.133  1.00  0.00     0.083 C 
BRANCH  82  83
ATOM     83  C   UNL A   1      32.412  20.617  25.060  1.00  0.00     0.264 C 
BRANCH  83  84
ATOM     84  N   UNL A   1      32.672  19.321  24.448  1.00  0.00    -0.331 N 
ATOM     85  C   UNL A   1      32.295  19.242  23.030  1.00  0.00     0.291 C 
ATOM     86  C   UNL A   1      34.068  18.875  24.580  1.00  0.00     0.291 C 
ATOM     87  H   UNL A   1      32.070  18.697  24.984  1.00  0.00     0.348 HD
ATOM     88  C   UNL A   1      32.422  17.782  22.562  1.00  0.00     0.221 C 
ATOM     89  C   UNL A   1      34.128  17.402  24.150  1.00  0.00     0.221 C 
ATOM     90  O   UNL A   1      33.745  17.261  22.775  1.00  0.00    -0.370 OA
ENDBRANCH  83  84
ENDBRANCH  82  83
ENDBRANCH  81  82
ENDBRANCH  79  81
ENDBRANCH  65  68
ENDBRANCH   1  64
TORSDOF 14
ENDMDL
