MODEL 1
REMARK VINA RESULT:     -10.5      0.000      0.000
REMARK SMILES CC[N@@H+](Cc1cccc(C)n1)Cc1csc(C(=O)NCCCNC(=O)c2ccc(-c3c4nc(c(-c5c(F)cccc5F)c5ccc([nH]5)c(-c5c(F)cccc5F)c5nc(c(-c6c(F)cccc6F)c6ccc3[nH]6)C=C5)C=C4)cc2)n1
REMARK SMILES IDX 20 1 19 2 17 3 18 4 16 6 13 7 14 8 80 9 15 10 12 11 3 12
REMARK SMILES IDX 2 14 1 15 4 16 5 17 6 18 11 19 7 20 9 21 8 22 10 23 21 24
REMARK SMILES IDX 22 25 23 26 24 27 25 29 26 30 27 31 79 32 28 33 78 34 29 35
REMARK SMILES IDX 30 36 31 37 72 38 32 39 77 40 71 41 73 42 33 43 76 44 70 45
REMARK SMILES IDX 69 46 34 48 60 49 43 50 59 51 44 52 47 53 58 54 74 55 45 56
REMARK SMILES IDX 46 57 57 59 75 60 48 61 35 62 36 63 41 64 37 65 38 66 40 67
REMARK SMILES IDX 42 68 39 69 61 70 62 71 67 72 63 73 64 74 66 75 68 76 65 77
REMARK SMILES IDX 49 78 50 79 55 80 51 81 52 82 54 83 56 84 53 85
REMARK H PARENT 19 5 3 13 23 28 73 47 47 58
REMARK Flexibility Score: inf
ROOT
ATOM      1  C   UNL A   1      36.464  19.818  24.998  1.00  0.00     0.118 C 
ENDROOT
BRANCH   1   2
ATOM      2  N   UNL A   1      35.783  18.543  24.878  1.00  0.00    -0.350 N 
ATOM      3  C   UNL A   1      34.446  18.263  24.662  1.00  0.00     0.280 C 
ATOM      4  O   UNL A   1      34.174  17.062  24.531  1.00  0.00    -0.267 OA
ATOM      5  H   UNL A   1      36.364  17.751  24.964  1.00  0.00     0.163 HD
BRANCH   3   6
ATOM      6  C   UNL A   1      33.448  19.334  24.587  1.00  0.00     0.181 A 
ATOM      7  C   UNL A   1      32.194  21.095  25.167  1.00  0.00     0.106 A 
ATOM      8  C   UNL A   1      31.797  20.950  23.849  1.00  0.00     0.097 A 
ATOM      9  N   UNL A   1      33.117  20.137  25.578  1.00  0.00    -0.230 NA
ATOM     10  S   UNL A   1      32.602  19.625  23.120  1.00  0.00    -0.117 S 
BRANCH   7  11
ATOM     11  C   UNL A   1      31.731  22.198  26.098  1.00  0.00     0.320 C 
BRANCH  11  12
ATOM     12  N   UNL A   1      32.143  23.569  25.745  1.00  0.00    -0.325 N 
ATOM     13  H   UNL A   1      32.235  23.548  24.729  1.00  0.00     0.348 HD
BRANCH  12  14
ATOM     14  C   UNL A   1      31.143  24.612  26.002  1.00  0.00     0.259 C 
ATOM     15  C   UNL A   1      31.716  26.020  26.101  1.00  0.00     0.071 C 
ENDBRANCH  12  14
BRANCH  12  16
ATOM     16  C   UNL A   1      33.456  23.919  26.331  1.00  0.00     0.319 C 
BRANCH  16  17
ATOM     17  C   UNL A   1      34.670  23.612  25.471  1.00  0.00     0.095 A 
ATOM     18  C   UNL A   1      34.578  23.406  24.098  1.00  0.00     0.030 A 
ATOM     19  N   UNL A   1      35.869  23.658  26.112  1.00  0.00    -0.252 NA
ATOM     20  C   UNL A   1      35.748  23.228  23.366  1.00  0.00     0.004 A 
ATOM     21  C   UNL A   1      37.000  23.494  25.386  1.00  0.00     0.038 A 
ATOM     22  C   UNL A   1      36.977  23.276  24.015  1.00  0.00     0.023 A 
ATOM     23  C   UNL A   1      38.294  23.591  26.134  1.00  0.00     0.067 C 
ENDBRANCH  16  17
ENDBRANCH  12  16
ENDBRANCH  11  12
ENDBRANCH   7  11
ENDBRANCH   3   6
ENDBRANCH   1   2
BRANCH   1  24
ATOM     24  C   UNL A   1      37.939  19.728  24.615  1.00  0.00     0.042 C 
BRANCH  24  25
ATOM     25  C   UNL A   1      38.887  20.037  25.772  1.00  0.00     0.118 C 
BRANCH  25  26
ATOM     26  N   UNL A   1      39.992  19.088  25.855  1.00  0.00    -0.352 N 
ATOM     27  C   UNL A   1      41.326  19.283  26.101  1.00  0.00     0.251 C 
ATOM     28  H   UNL A   1      39.736  18.148  25.708  1.00  0.00     0.163 HD
ATOM     29  O   UNL A   1      42.108  18.343  25.955  1.00  0.00    -0.269 OA
BRANCH  27  30
ATOM     30  C   UNL A   1      41.845  20.600  26.527  1.00  0.00     0.039 A 
ATOM     31  C   UNL A   1      42.175  21.537  25.540  1.00  0.00     0.014 A 
ATOM     32  C   UNL A   1      42.062  20.903  27.873  1.00  0.00     0.014 A 
ATOM     33  C   UNL A   1      42.666  22.793  25.905  1.00  0.00     0.010 A 
ATOM     34  C   UNL A   1      42.487  22.178  28.239  1.00  0.00     0.010 A 
ATOM     35  C   UNL A   1      42.796  23.135  27.260  1.00  0.00    -0.014 A 
BRANCH  35  36
ATOM     36  C   UNL A   1      43.246  24.489  27.671  1.00  0.00     0.031 A 
ATOM     37  C   UNL A   1      42.244  25.534  28.072  1.00  0.00     0.074 A 
ATOM     38  C   UNL A   1      44.556  24.797  27.615  1.00  0.00     0.049 A 
ATOM     39  N   UNL A   1      42.438  26.793  28.375  1.00  0.00    -0.248 NA
ATOM     40  C   UNL A   1      40.833  25.118  28.112  1.00  0.00     0.031 C 
ATOM     41  C   UNL A   1      45.624  23.884  27.202  1.00  0.00     0.029 A 
ATOM     42  N   UNL A   1      45.212  25.970  27.894  1.00  0.00    -0.354 N 
ATOM     43  C   UNL A   1      41.178  27.322  28.621  1.00  0.00     0.074 A 
ATOM     44  C   UNL A   1      40.223  26.261  28.391  1.00  0.00     0.031 C 
ATOM     45  C   UNL A   1      46.801  24.526  27.269  1.00  0.00     0.029 A 
ATOM     46  C   UNL A   1      46.569  25.903  27.694  1.00  0.00     0.049 A 
ATOM     47  H   UNL A   1      44.752  26.783  28.208  1.00  0.00     0.167 HD
ATOM     48  C   UNL A   1      40.848  28.574  29.021  1.00  0.00     0.037 A 
ATOM     49  C   UNL A   1      47.519  26.848  27.827  1.00  0.00     0.037 A 
ATOM     50  C   UNL A   1      41.803  29.621  29.279  1.00  0.00     0.049 A 
ATOM     51  C   UNL A   1      47.128  28.227  28.275  1.00  0.00     0.074 A 
ATOM     52  C   UNL A   1      41.572  30.902  29.749  1.00  0.00     0.029 A 
ATOM     53  N   UNL A   1      43.171  29.506  29.088  1.00  0.00    -0.354 N 
ATOM     54  N   UNL A   1      45.939  28.696  28.564  1.00  0.00    -0.248 NA
ATOM     55  C   UNL A   1      48.213  29.208  28.422  1.00  0.00     0.031 C 
ATOM     56  C   UNL A   1      42.797  31.576  29.806  1.00  0.00     0.029 A 
ATOM     57  C   UNL A   1      43.795  30.700  29.412  1.00  0.00     0.049 A 
ATOM     58  H   UNL A   1      43.632  28.697  28.768  1.00  0.00     0.167 HD
ATOM     59  C   UNL A   1      46.133  30.016  28.949  1.00  0.00     0.074 A 
ATOM     60  C   UNL A   1      47.557  30.270  28.871  1.00  0.00     0.031 C 
ATOM     61  C   UNL A   1      45.214  30.935  29.335  1.00  0.00     0.037 A 
BRANCH  48  62
ATOM     62  C   UNL A   1      39.391  28.880  29.207  1.00  0.00     0.057 A 
ATOM     63  C   UNL A   1      38.756  28.725  30.446  1.00  0.00     0.134 A 
ATOM     64  C   UNL A   1      38.621  29.369  28.144  1.00  0.00     0.134 A 
ATOM     65  F   UNL A   1      39.434  28.251  31.503  1.00  0.00    -0.206 F 
ATOM     66  C   UNL A   1      37.403  29.021  30.615  1.00  0.00     0.040 A 
ATOM     67  C   UNL A   1      37.274  29.694  28.307  1.00  0.00     0.040 A 
ATOM     68  F   UNL A   1      39.169  29.549  26.932  1.00  0.00    -0.206 F 
ATOM     69  C   UNL A   1      36.658  29.513  29.545  1.00  0.00     0.006 A 
ENDBRANCH  48  62
BRANCH  49  70
ATOM     70  C   UNL A   1      48.938  26.515  27.550  1.00  0.00     0.057 A 
ATOM     71  C   UNL A   1      49.785  26.069  28.572  1.00  0.00     0.134 A 
ATOM     72  C   UNL A   1      49.481  26.631  26.265  1.00  0.00     0.134 A 
ATOM     73  F   UNL A   1      49.326  25.954  29.826  1.00  0.00    -0.206 F 
ATOM     74  C   UNL A   1      51.126  25.767  28.330  1.00  0.00     0.040 A 
ATOM     75  C   UNL A   1      50.815  26.312  26.004  1.00  0.00     0.040 A 
ATOM     76  F   UNL A   1      48.719  27.045  25.243  1.00  0.00    -0.206 F 
ATOM     77  C   UNL A   1      51.642  25.884  27.041  1.00  0.00     0.006 A 
ENDBRANCH  49  70
BRANCH  61  78
ATOM     78  C   UNL A   1      45.724  32.288  29.732  1.00  0.00     0.057 A 
ATOM     79  C   UNL A   1      45.776  33.353  28.825  1.00  0.00     0.134 A 
ATOM     80  C   UNL A   1      46.133  32.537  31.048  1.00  0.00     0.134 A 
ATOM     81  F   UNL A   1      45.412  33.175  27.546  1.00  0.00    -0.206 F 
ATOM     82  C   UNL A   1      46.236  34.615  29.208  1.00  0.00     0.040 A 
ATOM     83  C   UNL A   1      46.571  33.800  31.449  1.00  0.00     0.040 A 
ATOM     84  F   UNL A   1      46.100  31.561  31.968  1.00  0.00    -0.206 F 
ATOM     85  C   UNL A   1      46.629  34.841  30.526  1.00  0.00     0.006 A 
ENDBRANCH  61  78
ENDBRANCH  35  36
ENDBRANCH  27  30
ENDBRANCH  25  26
ENDBRANCH  24  25
ENDBRANCH   1  24
TORSDOF 15
ENDMDL
MODEL 2
REMARK VINA RESULT:     -10.5      1.751      2.829
REMARK SMILES CC[N@@H+](Cc1cccc(C)n1)Cc1csc(C(=O)NCCCNC(=O)c2ccc(-c3c4nc(c(-c5c(F)cccc5F)c5ccc([nH]5)c(-c5c(F)cccc5F)c5nc(c(-c6c(F)cccc6F)c6ccc3[nH]6)C=C5)C=C4)cc2)n1
REMARK SMILES IDX 20 1 19 2 17 3 18 4 16 6 13 7 14 8 80 9 15 10 12 11 3 12
REMARK SMILES IDX 2 14 1 15 4 16 5 17 6 18 11 19 7 20 9 21 8 22 10 23 21 24
REMARK SMILES IDX 22 25 23 26 24 27 25 29 26 30 27 31 79 32 28 33 78 34 29 35
REMARK SMILES IDX 30 36 31 37 72 38 32 39 77 40 71 41 73 42 33 43 76 44 70 45
REMARK SMILES IDX 69 46 34 48 60 49 43 50 59 51 44 52 47 53 58 54 74 55 45 56
REMARK SMILES IDX 46 57 57 59 75 60 48 61 35 62 36 63 41 64 37 65 38 66 40 67
REMARK SMILES IDX 42 68 39 69 61 70 62 71 67 72 63 73 64 74 66 75 68 76 65 77
REMARK SMILES IDX 49 78 50 79 55 80 51 81 52 82 54 83 56 84 53 85
REMARK H PARENT 19 5 3 13 23 28 73 47 47 58
REMARK Flexibility Score: inf
ROOT
ATOM      1  C   UNL A   1      36.450  20.556  24.975  1.00  0.00     0.118 C 
ENDROOT
BRANCH   1   2
ATOM      2  N   UNL A   1      35.168  19.879  25.043  1.00  0.00    -0.350 N 
ATOM      3  C   UNL A   1      33.886  20.398  25.074  1.00  0.00     0.280 C 
ATOM      4  O   UNL A   1      32.978  19.556  25.058  1.00  0.00    -0.267 OA
ATOM      5  H   UNL A   1      35.218  18.895  25.073  1.00  0.00     0.163 HD
BRANCH   3   6
ATOM      6  C   UNL A   1      33.653  21.844  25.110  1.00  0.00     0.181 A 
ATOM      7  C   UNL A   1      33.041  23.900  24.470  1.00  0.00     0.106 A 
ATOM      8  C   UNL A   1      33.381  24.157  25.786  1.00  0.00     0.097 A 
ATOM      9  N   UNL A   1      33.237  22.574  24.094  1.00  0.00    -0.230 NA
ATOM     10  S   UNL A   1      33.921  22.728  26.560  1.00  0.00    -0.117 S 
BRANCH   7  11
ATOM     11  C   UNL A   1      32.469  24.918  23.504  1.00  0.00     0.320 C 
BRANCH  11  12
ATOM     12  N   UNL A   1      33.019  26.284  23.591  1.00  0.00    -0.325 N 
ATOM     13  H   UNL A   1      33.785  26.201  24.260  1.00  0.00     0.348 HD
BRANCH  12  14
ATOM     14  C   UNL A   1      33.652  26.785  22.366  1.00  0.00     0.259 C 
ATOM     15  C   UNL A   1      33.946  28.280  22.378  1.00  0.00     0.071 C 
ENDBRANCH  12  14
BRANCH  12  16
ATOM     16  C   UNL A   1      32.029  27.246  24.123  1.00  0.00     0.319 C 
BRANCH  16  17
ATOM     17  C   UNL A   1      32.504  28.121  25.270  1.00  0.00     0.095 A 
ATOM     18  C   UNL A   1      33.628  27.812  26.027  1.00  0.00     0.030 A 
ATOM     19  N   UNL A   1      31.820  29.285  25.440  1.00  0.00    -0.252 NA
ATOM     20  C   UNL A   1      34.055  28.717  26.995  1.00  0.00     0.004 A 
ATOM     21  C   UNL A   1      32.253  30.161  26.378  1.00  0.00     0.038 A 
ATOM     22  C   UNL A   1      33.363  29.909  27.172  1.00  0.00     0.023 A 
ATOM     23  C   UNL A   1      31.487  31.443  26.499  1.00  0.00     0.067 C 
ENDBRANCH  16  17
ENDBRANCH  12  16
ENDBRANCH  11  12
ENDBRANCH   7  11
ENDBRANCH   3   6
ENDBRANCH   1   2
BRANCH   1  24
ATOM     24  C   UNL A   1      37.624  19.581  24.994  1.00  0.00     0.042 C 
BRANCH  24  25
ATOM     25  C   UNL A   1      38.843  20.112  25.746  1.00  0.00     0.118 C 
BRANCH  25  26
ATOM     26  N   UNL A   1      39.929  19.140  25.803  1.00  0.00    -0.352 N 
ATOM     27  C   UNL A   1      41.274  19.307  26.001  1.00  0.00     0.251 C 
ATOM     28  H   UNL A   1      39.647  18.204  25.680  1.00  0.00     0.163 HD
ATOM     29  O   UNL A   1      42.029  18.348  25.841  1.00  0.00    -0.269 OA
BRANCH  27  30
ATOM     30  C   UNL A   1      41.837  20.619  26.388  1.00  0.00     0.039 A 
ATOM     31  C   UNL A   1      42.174  21.524  25.376  1.00  0.00     0.014 A 
ATOM     32  C   UNL A   1      42.087  20.943  27.723  1.00  0.00     0.014 A 
ATOM     33  C   UNL A   1      42.706  22.773  25.704  1.00  0.00     0.010 A 
ATOM     34  C   UNL A   1      42.554  22.214  28.054  1.00  0.00     0.010 A 
ATOM     35  C   UNL A   1      42.871  23.140  27.049  1.00  0.00    -0.014 A 
BRANCH  35  36
ATOM     36  C   UNL A   1      43.366  24.490  27.422  1.00  0.00     0.031 A 
ATOM     37  C   UNL A   1      42.404  25.559  27.858  1.00  0.00     0.074 A 
ATOM     38  C   UNL A   1      44.678  24.772  27.301  1.00  0.00     0.049 A 
ATOM     39  N   UNL A   1      42.637  26.817  28.137  1.00  0.00    -0.248 NA
ATOM     40  C   UNL A   1      40.990  25.171  27.970  1.00  0.00     0.031 C 
ATOM     41  C   UNL A   1      45.707  23.833  26.848  1.00  0.00     0.029 A 
ATOM     42  N   UNL A   1      45.368  25.935  27.535  1.00  0.00    -0.354 N 
ATOM     43  C   UNL A   1      41.400  27.373  28.436  1.00  0.00     0.074 A 
ATOM     44  C   UNL A   1      40.415  26.328  28.264  1.00  0.00     0.031 C 
ATOM     45  C   UNL A   1      46.898  24.453  26.852  1.00  0.00     0.029 A 
ATOM     46  C   UNL A   1      46.712  25.839  27.272  1.00  0.00     0.049 A 
ATOM     47  H   UNL A   1      44.940  26.759  27.861  1.00  0.00     0.167 HD
ATOM     48  C   UNL A   1      41.114  28.636  28.836  1.00  0.00     0.037 A 
ATOM     49  C   UNL A   1      47.686  26.766  27.348  1.00  0.00     0.037 A 
ATOM     50  C   UNL A   1      42.100  29.666  29.037  1.00  0.00     0.049 A 
ATOM     51  C   UNL A   1      47.343  28.158  27.798  1.00  0.00     0.074 A 
ATOM     52  C   UNL A   1      41.915  30.956  29.502  1.00  0.00     0.029 A 
ATOM     53  N   UNL A   1      43.455  29.522  28.782  1.00  0.00    -0.354 N 
ATOM     54  N   UNL A   1      46.178  28.653  28.138  1.00  0.00    -0.248 NA
ATOM     55  C   UNL A   1      48.452  29.119  27.882  1.00  0.00     0.031 C 
ATOM     56  C   UNL A   1      43.154  31.606  29.493  1.00  0.00     0.029 A 
ATOM     57  C   UNL A   1      44.116  30.707  29.063  1.00  0.00     0.049 A 
ATOM     58  H   UNL A   1      43.884  28.701  28.451  1.00  0.00     0.167 HD
ATOM     59  C   UNL A   1      46.415  29.972  28.498  1.00  0.00     0.074 A 
ATOM     60  C   UNL A   1      47.839  30.198  28.349  1.00  0.00     0.031 C 
ATOM     61  C   UNL A   1      45.534  30.914  28.916  1.00  0.00     0.037 A 
BRANCH  48  62
ATOM     62  C   UNL A   1      39.673  28.972  29.088  1.00  0.00     0.057 A 
ATOM     63  C   UNL A   1      38.816  29.371  28.054  1.00  0.00     0.134 A 
ATOM     64  C   UNL A   1      39.126  28.861  30.372  1.00  0.00     0.134 A 
ATOM     65  F   UNL A   1      39.279  29.508  26.802  1.00  0.00    -0.206 F 
ATOM     66  C   UNL A   1      37.474  29.672  28.293  1.00  0.00     0.040 A 
ATOM     67  C   UNL A   1      37.781  29.134  30.620  1.00  0.00     0.040 A 
ATOM     68  F   UNL A   1      39.890  28.476  31.407  1.00  0.00    -0.206 F 
ATOM     69  C   UNL A   1      36.951  29.548  29.579  1.00  0.00     0.006 A 
ENDBRANCH  48  62
BRANCH  49  70
ATOM     70  C   UNL A   1      49.084  26.402  27.008  1.00  0.00     0.057 A 
ATOM     71  C   UNL A   1      49.962  25.925  27.989  1.00  0.00     0.134 A 
ATOM     72  C   UNL A   1      49.575  26.520  25.703  1.00  0.00     0.134 A 
ATOM     73  F   UNL A   1      49.553  25.808  29.261  1.00  0.00    -0.206 F 
ATOM     74  C   UNL A   1      51.283  25.594  27.688  1.00  0.00     0.040 A 
ATOM     75  C   UNL A   1      50.888  26.172  25.383  1.00  0.00     0.040 A 
ATOM     76  F   UNL A   1      48.781  26.963  24.718  1.00  0.00    -0.206 F 
ATOM     77  C   UNL A   1      51.748  25.713  26.380  1.00  0.00     0.006 A 
ENDBRANCH  49  70
BRANCH  61  78
ATOM     78  C   UNL A   1      46.087  32.260  29.272  1.00  0.00     0.057 A 
ATOM     79  C   UNL A   1      46.249  33.270  28.315  1.00  0.00     0.134 A 
ATOM     80  C   UNL A   1      46.428  32.563  30.597  1.00  0.00     0.134 A 
ATOM     81  F   UNL A   1      45.955  33.038  27.027  1.00  0.00    -0.206 F 
ATOM     82  C   UNL A   1      46.749  34.527  28.660  1.00  0.00     0.040 A 
ATOM     83  C   UNL A   1      46.905  33.823  30.958  1.00  0.00     0.040 A 
ATOM     84  F   UNL A   1      46.289  31.642  31.563  1.00  0.00    -0.206 F 
ATOM     85  C   UNL A   1      47.073  34.808  29.986  1.00  0.00     0.006 A 
ENDBRANCH  61  78
ENDBRANCH  35  36
ENDBRANCH  27  30
ENDBRANCH  25  26
ENDBRANCH  24  25
ENDBRANCH   1  24
TORSDOF 15
ENDMDL
MODEL 3
REMARK VINA RESULT:     -10.4      3.295      7.431
REMARK SMILES CC[N@@H+](Cc1cccc(C)n1)Cc1csc(C(=O)NCCCNC(=O)c2ccc(-c3c4nc(c(-c5c(F)cccc5F)c5ccc([nH]5)c(-c5c(F)cccc5F)c5nc(c(-c6c(F)cccc6F)c6ccc3[nH]6)C=C5)C=C4)cc2)n1
REMARK SMILES IDX 20 1 19 2 17 3 18 4 16 6 13 7 14 8 80 9 15 10 12 11 3 12
REMARK SMILES IDX 2 14 1 15 4 16 5 17 6 18 11 19 7 20 9 21 8 22 10 23 21 24
REMARK SMILES IDX 22 25 23 26 24 27 25 29 26 30 27 31 79 32 28 33 78 34 29 35
REMARK SMILES IDX 30 36 31 37 72 38 32 39 77 40 71 41 73 42 33 43 76 44 70 45
REMARK SMILES IDX 69 46 34 48 60 49 43 50 59 51 44 52 47 53 58 54 74 55 45 56
REMARK SMILES IDX 46 57 57 59 75 60 48 61 35 62 36 63 41 64 37 65 38 66 40 67
REMARK SMILES IDX 42 68 39 69 61 70 62 71 67 72 63 73 64 74 66 75 68 76 65 77
REMARK SMILES IDX 49 78 50 79 55 80 51 81 52 82 54 83 56 84 53 85
REMARK H PARENT 19 5 3 13 23 28 73 47 47 58
REMARK Flexibility Score: inf
ROOT
ATOM      1  C   UNL A   1      31.839  28.918  25.626  1.00  0.00     0.118 C 
ENDROOT
BRANCH   1   2
ATOM      2  N   UNL A   1      31.452  29.309  24.283  1.00  0.00    -0.350 N 
ATOM      3  C   UNL A   1      31.073  28.532  23.203  1.00  0.00     0.280 C 
ATOM      4  O   UNL A   1      30.725  29.165  22.197  1.00  0.00    -0.267 OA
ATOM      5  H   UNL A   1      31.463  30.279  24.113  1.00  0.00     0.163 HD
BRANCH   3   6
ATOM      6  C   UNL A   1      31.079  27.069  23.280  1.00  0.00     0.181 A 
ATOM      7  C   UNL A   1      31.756  24.947  23.059  1.00  0.00     0.106 A 
ATOM      8  C   UNL A   1      30.603  24.748  23.798  1.00  0.00     0.097 A 
ATOM      9  N   UNL A   1      31.991  26.282  22.744  1.00  0.00    -0.230 NA
ATOM     10  S   UNL A   1      29.829  26.241  24.121  1.00  0.00    -0.117 S 
BRANCH   7  11
ATOM     11  C   UNL A   1      32.721  23.855  22.643  1.00  0.00     0.320 C 
BRANCH  11  12
ATOM     12  N   UNL A   1      33.689  23.412  23.664  1.00  0.00    -0.325 N 
ATOM     13  H   UNL A   1      33.752  24.203  24.306  1.00  0.00     0.348 HD
BRANCH  12  14
ATOM     14  C   UNL A   1      33.249  22.292  24.503  1.00  0.00     0.259 C 
ATOM     15  C   UNL A   1      32.450  21.228  23.761  1.00  0.00     0.071 C 
ENDBRANCH  12  14
BRANCH  12  16
ATOM     16  C   UNL A   1      35.028  23.165  23.086  1.00  0.00     0.319 C 
BRANCH  16  17
ATOM     17  C   UNL A   1      36.154  22.955  24.084  1.00  0.00     0.095 A 
ATOM     18  C   UNL A   1      36.516  23.924  25.013  1.00  0.00     0.030 A 
ATOM     19  N   UNL A   1      36.714  21.715  24.082  1.00  0.00    -0.252 NA
ATOM     20  C   UNL A   1      37.491  23.617  25.958  1.00  0.00     0.004 A 
ATOM     21  C   UNL A   1      37.653  21.426  25.013  1.00  0.00     0.038 A 
ATOM     22  C   UNL A   1      38.066  22.351  25.964  1.00  0.00     0.023 A 
ATOM     23  C   UNL A   1      38.211  20.036  24.990  1.00  0.00     0.067 C 
ENDBRANCH  16  17
ENDBRANCH  12  16
ENDBRANCH  11  12
ENDBRANCH   7  11
ENDBRANCH   3   6
ENDBRANCH   1   2
BRANCH   1  24
ATOM     24  C   UNL A   1      33.332  28.622  25.738  1.00  0.00     0.042 C 
BRANCH  24  25
ATOM     25  C   UNL A   1      33.859  28.687  27.170  1.00  0.00     0.118 C 
BRANCH  25  26
ATOM     26  N   UNL A   1      33.831  30.040  27.713  1.00  0.00    -0.352 N 
ATOM     27  C   UNL A   1      34.768  30.741  28.426  1.00  0.00     0.251 C 
ATOM     28  H   UNL A   1      32.997  30.534  27.537  1.00  0.00     0.163 HD
ATOM     29  O   UNL A   1      34.456  31.820  28.930  1.00  0.00    -0.269 OA
BRANCH  27  30
ATOM     30  C   UNL A   1      36.139  30.221  28.613  1.00  0.00     0.039 A 
ATOM     31  C   UNL A   1      37.028  30.281  27.534  1.00  0.00     0.014 A 
ATOM     32  C   UNL A   1      36.541  29.630  29.813  1.00  0.00     0.014 A 
ATOM     33  C   UNL A   1      38.332  29.802  27.675  1.00  0.00     0.010 A 
ATOM     34  C   UNL A   1      37.861  29.214  29.975  1.00  0.00     0.010 A 
ATOM     35  C   UNL A   1      38.769  29.293  28.908  1.00  0.00    -0.014 A 
BRANCH  35  36
ATOM     36  C   UNL A   1      40.172  28.846  29.102  1.00  0.00     0.031 A 
ATOM     37  C   UNL A   1      41.196  29.783  29.678  1.00  0.00     0.074 A 
ATOM     38  C   UNL A   1      40.539  27.617  28.692  1.00  0.00     0.049 A 
ATOM     39  N   UNL A   1      42.483  29.604  29.839  1.00  0.00    -0.248 NA
ATOM     40  C   UNL A   1      40.716  31.106  30.106  1.00  0.00     0.031 C 
ATOM     41  C   UNL A   1      39.649  26.628  28.078  1.00  0.00     0.029 A 
ATOM     42  N   UNL A   1      41.761  26.992  28.716  1.00  0.00    -0.354 N 
ATOM     43  C   UNL A   1      42.968  30.794  30.366  1.00  0.00     0.074 A 
ATOM     44  C   UNL A   1      41.846  31.703  30.458  1.00  0.00     0.031 C 
ATOM     45  C   UNL A   1      40.351  25.518  27.799  1.00  0.00     0.029 A 
ATOM     46  C   UNL A   1      41.744  25.729  28.180  1.00  0.00     0.049 A 
ATOM     47  H   UNL A   1      42.572  27.412  29.085  1.00  0.00     0.167 HD
ATOM     48  C   UNL A   1      44.230  31.096  30.755  1.00  0.00     0.037 A 
ATOM     49  C   UNL A   1      42.742  24.842  28.003  1.00  0.00     0.037 A 
ATOM     50  C   UNL A   1      45.339  30.179  30.691  1.00  0.00     0.049 A 
ATOM     51  C   UNL A   1      44.132  25.199  28.447  1.00  0.00     0.074 A 
ATOM     52  C   UNL A   1      46.640  30.371  31.122  1.00  0.00     0.029 A 
ATOM     53  N   UNL A   1      45.276  28.899  30.163  1.00  0.00    -0.354 N 
ATOM     54  N   UNL A   1      44.563  26.306  29.000  1.00  0.00    -0.248 NA
ATOM     55  C   UNL A   1      45.173  24.181  28.247  1.00  0.00     0.031 C 
ATOM     56  C   UNL A   1      47.376  29.219  30.818  1.00  0.00     0.029 A 
ATOM     57  C   UNL A   1      46.522  28.296  30.239  1.00  0.00     0.049 A 
ATOM     58  H   UNL A   1      44.468  28.481  29.789  1.00  0.00     0.167 HD
ATOM     59  C   UNL A   1      45.917  26.110  29.237  1.00  0.00     0.074 A 
ATOM     60  C   UNL A   1      46.234  24.772  28.780  1.00  0.00     0.031 C 
ATOM     61  C   UNL A   1      46.818  26.961  29.785  1.00  0.00     0.037 A 
BRANCH  48  62
ATOM     62  C   UNL A   1      44.478  32.476  31.289  1.00  0.00     0.057 A 
ATOM     63  C   UNL A   1      44.359  32.773  32.653  1.00  0.00     0.134 A 
ATOM     64  C   UNL A   1      44.876  33.513  30.435  1.00  0.00     0.134 A 
ATOM     65  F   UNL A   1      43.972  31.828  33.523  1.00  0.00    -0.206 F 
ATOM     66  C   UNL A   1      44.602  34.057  33.145  1.00  0.00     0.040 A 
ATOM     67  C   UNL A   1      45.146  34.794  30.918  1.00  0.00     0.040 A 
ATOM     68  F   UNL A   1      45.016  33.295  29.119  1.00  0.00    -0.206 F 
ATOM     69  C   UNL A   1      45.003  35.071  32.277  1.00  0.00     0.006 A 
ENDBRANCH  48  62
BRANCH  49  70
ATOM     70  C   UNL A   1      42.457  23.519  27.393  1.00  0.00     0.057 A 
ATOM     71  C   UNL A   1      42.052  22.436  28.182  1.00  0.00     0.134 A 
ATOM     72  C   UNL A   1      42.582  23.305  26.015  1.00  0.00     0.134 A 
ATOM     73  F   UNL A   1      41.932  22.576  29.510  1.00  0.00    -0.206 F 
ATOM     74  C   UNL A   1      41.796  21.182  27.625  1.00  0.00     0.040 A 
ATOM     75  C   UNL A   1      42.308  22.063  25.442  1.00  0.00     0.040 A 
ATOM     76  F   UNL A   1      42.958  24.306  25.206  1.00  0.00    -0.206 F 
ATOM     77  C   UNL A   1      41.920  20.995  26.249  1.00  0.00     0.006 A 
ENDBRANCH  49  70
BRANCH  61  78
ATOM     78  C   UNL A   1      48.222  26.461  29.950  1.00  0.00     0.057 A 
ATOM     79  C   UNL A   1      49.195  26.650  28.961  1.00  0.00     0.134 A 
ATOM     80  C   UNL A   1      48.614  25.814  31.129  1.00  0.00     0.134 A 
ATOM     81  F   UNL A   1      48.879  27.250  27.803  1.00  0.00    -0.206 F 
ATOM     82  C   UNL A   1      50.504  26.196  29.131  1.00  0.00     0.040 A 
ATOM     83  C   UNL A   1      49.925  25.377  31.320  1.00  0.00     0.040 A 
ATOM     84  F   UNL A   1      47.731  25.608  32.118  1.00  0.00    -0.206 F 
ATOM     85  C   UNL A   1      50.873  25.563  30.316  1.00  0.00     0.006 A 
ENDBRANCH  61  78
ENDBRANCH  35  36
ENDBRANCH  27  30
ENDBRANCH  25  26
ENDBRANCH  24  25
ENDBRANCH   1  24
TORSDOF 15
ENDMDL
