MODEL 1
REMARK VINA RESULT:     -12.7      0.000      0.000
REMARK SMILES O=C(CCCc1nc(-c2ccc(Cl)c(Cl)c2)c(-c2ccccc2)o1)NCCCNC(=O)c1ccc(-c2c3nc(c(-c4c(F)cccc4F)c4ccc([nH]4)c(-c4c(F)cccc4F)c4nc(c(-c5c(F)cccc5F)c5ccc2[nH]5)C=C4)C=C3)cc1
REMARK SMILES IDX 26 1 25 2 1 3 2 4 3 6 4 7 5 8 6 9 7 10 24 11 8 12 17 13 9 14
REMARK SMILES IDX 10 15 16 16 11 17 14 18 12 19 15 20 13 21 18 22 19 23 23 24
REMARK SMILES IDX 20 25 22 26 21 27 27 28 28 29 29 30 30 31 31 33 32 34 33 35
REMARK SMILES IDX 85 36 34 37 84 38 35 39 36 40 37 41 78 42 38 43 83 44 77 45
REMARK SMILES IDX 79 46 39 47 82 48 76 49 75 50 40 52 66 53 49 54 65 55 50 56
REMARK SMILES IDX 53 57 64 58 80 59 51 60 52 61 63 63 81 64 54 65 41 66 42 67
REMARK SMILES IDX 47 68 43 69 44 70 46 71 48 72 45 73 67 74 68 75 73 76 69 77
REMARK SMILES IDX 70 78 72 79 74 80 71 81 55 82 56 83 61 84 57 85 58 86 60 87
REMARK SMILES IDX 62 88 59 89
REMARK H PARENT 25 5 29 32 79 51 53 62
REMARK Flexibility Score: inf
ROOT
ATOM      1  C   UNL A   1      30.328  32.680  25.024  1.00  0.00     0.117 C 
ENDROOT
BRANCH   1   2
ATOM      2  N   UNL A   1      29.464  32.076  24.028  1.00  0.00    -0.356 N 
ATOM      3  O   UNL A   1      28.752  34.054  23.101  1.00  0.00    -0.275 OA
ATOM      4  C   UNL A   1      28.756  32.829  23.121  1.00  0.00     0.220 C 
ATOM      5  H   UNL A   1      29.382  31.096  24.001  1.00  0.00     0.163 HD
BRANCH   4   6
ATOM      6  C   UNL A   1      27.979  32.006  22.116  1.00  0.00     0.100 C 
BRANCH   6   7
ATOM      7  C   UNL A   1      28.244  30.504  22.252  1.00  0.00     0.020 C 
BRANCH   7   8
ATOM      8  C   UNL A   1      29.495  29.976  21.540  1.00  0.00     0.098 C 
BRANCH   8   9
ATOM      9  C   UNL A   1      30.240  28.944  22.313  1.00  0.00     0.195 A 
ATOM     10  N   UNL A   1      30.467  27.685  21.984  1.00  0.00    -0.213 NA
ATOM     11  O   UNL A   1      30.807  29.341  23.496  1.00  0.00    -0.440 OA
ATOM     12  C   UNL A   1      31.161  27.198  23.065  1.00  0.00     0.117 A 
ATOM     13  C   UNL A   1      31.436  28.216  23.953  1.00  0.00     0.162 A 
BRANCH  12  14
ATOM     14  C   UNL A   1      31.528  25.816  23.270  1.00  0.00     0.006 A 
ATOM     15  C   UNL A   1      30.549  24.834  23.435  1.00  0.00     0.012 A 
ATOM     16  C   UNL A   1      32.882  25.446  23.234  1.00  0.00     0.032 A 
ATOM     17  C   UNL A   1      30.923  23.491  23.551  1.00  0.00     0.023 A 
ATOM     18  C   UNL A   1      33.254  24.105  23.359  1.00  0.00     0.060 A 
ATOM     19  C   UNL A   1      32.272  23.124  23.522  1.00  0.00     0.059 A 
ATOM     20  Cl  UNL A   1      34.939  23.729  23.286  1.00  0.00    -0.083 Cl
ATOM     21  Cl  UNL A   1      32.652  21.447  23.692  1.00  0.00    -0.083 Cl
ENDBRANCH  12  14
BRANCH  13  22
ATOM     22  C   UNL A   1      32.218  28.323  25.168  1.00  0.00     0.020 A 
ATOM     23  C   UNL A   1      33.548  28.748  25.137  1.00  0.00     0.012 A 
ATOM     24  C   UNL A   1      31.609  28.064  26.406  1.00  0.00     0.012 A 
ATOM     25  C   UNL A   1      34.251  28.937  26.330  1.00  0.00     0.001 A 
ATOM     26  C   UNL A   1      32.313  28.245  27.595  1.00  0.00     0.001 A 
ATOM     27  C   UNL A   1      33.633  28.689  27.557  1.00  0.00     0.000 A 
ENDBRANCH  13  22
ENDBRANCH   8   9
ENDBRANCH   7   8
ENDBRANCH   6   7
ENDBRANCH   4   6
ENDBRANCH   1   2
BRANCH   1  28
ATOM     28  C   UNL A   1      30.836  31.665  26.038  1.00  0.00     0.042 C 
BRANCH  28  29
ATOM     29  C   UNL A   1      32.127  32.064  26.746  1.00  0.00     0.118 C 
BRANCH  29  30
ATOM     30  N   UNL A   1      32.123  33.436  27.233  1.00  0.00    -0.352 N 
ATOM     31  C   UNL A   1      33.015  34.075  28.061  1.00  0.00     0.251 C 
ATOM     32  H   UNL A   1      31.368  33.988  26.924  1.00  0.00     0.163 HD
ATOM     33  O   UNL A   1      32.782  35.212  28.463  1.00  0.00    -0.269 OA
BRANCH  31  34
ATOM     34  C   UNL A   1      34.245  33.380  28.500  1.00  0.00     0.039 A 
ATOM     35  C   UNL A   1      35.468  34.052  28.435  1.00  0.00     0.014 A 
ATOM     36  C   UNL A   1      34.190  32.075  28.993  1.00  0.00     0.014 A 
ATOM     37  C   UNL A   1      36.619  33.450  28.954  1.00  0.00     0.010 A 
ATOM     38  C   UNL A   1      35.320  31.508  29.577  1.00  0.00     0.010 A 
ATOM     39  C   UNL A   1      36.543  32.194  29.576  1.00  0.00    -0.014 A 
BRANCH  39  40
ATOM     40  C   UNL A   1      37.710  31.597  30.277  1.00  0.00     0.031 A 
ATOM     41  C   UNL A   1      38.565  30.564  29.595  1.00  0.00     0.074 A 
ATOM     42  C   UNL A   1      37.938  31.910  31.568  1.00  0.00     0.049 A 
ATOM     43  N   UNL A   1      39.557  29.863  30.083  1.00  0.00    -0.248 NA
ATOM     44  C   UNL A   1      38.245  30.258  28.192  1.00  0.00     0.031 C 
ATOM     45  C   UNL A   1      37.147  32.852  32.363  1.00  0.00     0.029 A 
ATOM     46  N   UNL A   1      38.890  31.454  32.445  1.00  0.00    -0.354 N 
ATOM     47  C   UNL A   1      39.974  29.030  29.053  1.00  0.00     0.074 A 
ATOM     48  C   UNL A   1      39.092  29.272  27.932  1.00  0.00     0.031 C 
ATOM     49  C   UNL A   1      37.656  32.916  33.604  1.00  0.00     0.029 A 
ATOM     50  C   UNL A   1      38.781  31.992  33.706  1.00  0.00     0.049 A 
ATOM     51  H   UNL A   1      39.586  30.803  32.196  1.00  0.00     0.167 HD
ATOM     52  C   UNL A   1      41.011  28.158  29.034  1.00  0.00     0.037 A 
ATOM     53  C   UNL A   1      39.497  31.759  34.823  1.00  0.00     0.037 A 
ATOM     54  C   UNL A   1      41.900  27.928  30.144  1.00  0.00     0.049 A 
ATOM     55  C   UNL A   1      40.628  30.770  34.783  1.00  0.00     0.074 A 
ATOM     56  C   UNL A   1      43.020  27.116  30.196  1.00  0.00     0.029 A 
ATOM     57  N   UNL A   1      41.765  28.504  31.398  1.00  0.00    -0.354 N 
ATOM     58  N   UNL A   1      41.060  30.049  33.778  1.00  0.00    -0.248 NA
ATOM     59  C   UNL A   1      41.372  30.563  36.034  1.00  0.00     0.031 C 
ATOM     60  C   UNL A   1      43.536  27.164  31.496  1.00  0.00     0.029 A 
ATOM     61  C   UNL A   1      42.764  28.041  32.240  1.00  0.00     0.049 A 
ATOM     62  H   UNL A   1      41.063  29.146  31.653  1.00  0.00     0.167 HD
ATOM     63  C   UNL A   1      42.139  29.323  34.265  1.00  0.00     0.074 A 
ATOM     64  C   UNL A   1      42.304  29.700  35.654  1.00  0.00     0.031 C 
ATOM     65  C   UNL A   1      42.922  28.425  33.620  1.00  0.00     0.037 A 
BRANCH  52  66
ATOM     66  C   UNL A   1      41.247  27.389  27.767  1.00  0.00     0.057 A 
ATOM     67  C   UNL A   1      42.048  27.898  26.736  1.00  0.00     0.134 A 
ATOM     68  C   UNL A   1      40.706  26.109  27.593  1.00  0.00     0.134 A 
ATOM     69  F   UNL A   1      42.591  29.122  26.837  1.00  0.00    -0.206 F 
ATOM     70  C   UNL A   1      42.283  27.172  25.568  1.00  0.00     0.040 A 
ATOM     71  C   UNL A   1      40.954  25.364  26.441  1.00  0.00     0.040 A 
ATOM     72  F   UNL A   1      39.939  25.559  28.547  1.00  0.00    -0.206 F 
ATOM     73  C   UNL A   1      41.740  25.897  25.420  1.00  0.00     0.006 A 
ENDBRANCH  52  66
BRANCH  53  74
ATOM     74  C   UNL A   1      39.171  32.485  36.077  1.00  0.00     0.057 A 
ATOM     75  C   UNL A   1      38.298  31.933  37.022  1.00  0.00     0.134 A 
ATOM     76  C   UNL A   1      39.713  33.744  36.357  1.00  0.00     0.134 A 
ATOM     77  F   UNL A   1      37.731  30.739  36.799  1.00  0.00    -0.206 F 
ATOM     78  C   UNL A   1      37.962  32.615  38.192  1.00  0.00     0.040 A 
ATOM     79  C   UNL A   1      39.406  34.427  37.534  1.00  0.00     0.040 A 
ATOM     80  F   UNL A   1      40.562  34.324  35.494  1.00  0.00    -0.206 F 
ATOM     81  C   UNL A   1      38.520  33.865  38.453  1.00  0.00     0.006 A 
ENDBRANCH  53  74
BRANCH  65  82
ATOM     82  C   UNL A   1      44.045  27.807  34.398  1.00  0.00     0.057 A 
ATOM     83  C   UNL A   1      43.890  26.595  35.082  1.00  0.00     0.134 A 
ATOM     84  C   UNL A   1      45.310  28.409  34.426  1.00  0.00     0.134 A 
ATOM     85  F   UNL A   1      42.701  25.975  35.106  1.00  0.00    -0.206 F 
ATOM     86  C   UNL A   1      44.949  26.012  35.781  1.00  0.00     0.040 A 
ATOM     87  C   UNL A   1      46.382  27.823  35.099  1.00  0.00     0.040 A 
ATOM     88  F   UNL A   1      45.527  29.567  33.786  1.00  0.00    -0.206 F 
ATOM     89  C   UNL A   1      46.201  26.622  35.783  1.00  0.00     0.006 A 
ENDBRANCH  65  82
ENDBRANCH  39  40
ENDBRANCH  31  34
ENDBRANCH  29  30
ENDBRANCH  28  29
ENDBRANCH   1  28
TORSDOF 15
ENDMDL
MODEL 2
REMARK VINA RESULT:     -12.4      0.550      6.151
REMARK SMILES O=C(CCCc1nc(-c2ccc(Cl)c(Cl)c2)c(-c2ccccc2)o1)NCCCNC(=O)c1ccc(-c2c3nc(c(-c4c(F)cccc4F)c4ccc([nH]4)c(-c4c(F)cccc4F)c4nc(c(-c5c(F)cccc5F)c5ccc2[nH]5)C=C4)C=C3)cc1
REMARK SMILES IDX 26 1 25 2 1 3 2 4 3 6 4 7 5 8 6 9 7 10 24 11 8 12 17 13 9 14
REMARK SMILES IDX 10 15 16 16 11 17 14 18 12 19 15 20 13 21 18 22 19 23 23 24
REMARK SMILES IDX 20 25 22 26 21 27 27 28 28 29 29 30 30 31 31 33 32 34 33 35
REMARK SMILES IDX 85 36 34 37 84 38 35 39 36 40 37 41 78 42 38 43 83 44 77 45
REMARK SMILES IDX 79 46 39 47 82 48 76 49 75 50 40 52 66 53 49 54 65 55 50 56
REMARK SMILES IDX 53 57 64 58 80 59 51 60 52 61 63 63 81 64 54 65 41 66 42 67
REMARK SMILES IDX 47 68 43 69 44 70 46 71 48 72 45 73 67 74 68 75 73 76 69 77
REMARK SMILES IDX 70 78 72 79 74 80 71 81 55 82 56 83 61 84 57 85 58 86 60 87
REMARK SMILES IDX 62 88 59 89
REMARK H PARENT 25 5 29 32 79 51 53 62
REMARK Flexibility Score: inf
ROOT
ATOM      1  C   UNL A   1      30.339  32.813  25.018  1.00  0.00     0.117 C 
ENDROOT
BRANCH   1   2
ATOM      2  N   UNL A   1      29.588  32.241  23.917  1.00  0.00    -0.356 N 
ATOM      3  O   UNL A   1      28.750  34.235  23.142  1.00  0.00    -0.275 OA
ATOM      4  C   UNL A   1      28.863  33.019  23.044  1.00  0.00     0.220 C 
ATOM      5  H   UNL A   1      29.597  31.265  23.790  1.00  0.00     0.163 HD
BRANCH   4   6
ATOM      6  C   UNL A   1      28.219  32.240  21.918  1.00  0.00     0.100 C 
BRANCH   6   7
ATOM      7  C   UNL A   1      29.006  30.980  21.547  1.00  0.00     0.020 C 
BRANCH   7   8
ATOM      8  C   UNL A   1      28.419  29.652  22.040  1.00  0.00     0.098 C 
BRANCH   8   9
ATOM      9  C   UNL A   1      29.421  28.741  22.659  1.00  0.00     0.195 A 
ATOM     10  N   UNL A   1      29.803  27.546  22.244  1.00  0.00    -0.213 NA
ATOM     11  O   UNL A   1      30.072  29.198  23.776  1.00  0.00    -0.440 OA
ATOM     12  C   UNL A   1      30.708  27.155  23.200  1.00  0.00     0.117 A 
ATOM     13  C   UNL A   1      30.933  28.183  24.092  1.00  0.00     0.162 A 
BRANCH  12  14
ATOM     14  C   UNL A   1      31.320  25.850  23.290  1.00  0.00     0.006 A 
ATOM     15  C   UNL A   1      32.420  25.520  22.496  1.00  0.00     0.012 A 
ATOM     16  C   UNL A   1      30.847  24.927  24.237  1.00  0.00     0.032 A 
ATOM     17  C   UNL A   1      33.048  24.280  22.657  1.00  0.00     0.023 A 
ATOM     18  C   UNL A   1      31.470  23.686  24.390  1.00  0.00     0.060 A 
ATOM     19  C   UNL A   1      32.572  23.359  23.595  1.00  0.00     0.059 A 
ATOM     20  Cl  UNL A   1      30.840  22.613  25.589  1.00  0.00    -0.083 Cl
ATOM     21  Cl  UNL A   1      33.391  21.842  23.717  1.00  0.00    -0.083 Cl
ENDBRANCH  12  14
BRANCH  13  22
ATOM     22  C   UNL A   1      31.845  28.388  25.198  1.00  0.00     0.020 A 
ATOM     23  C   UNL A   1      31.464  28.105  26.512  1.00  0.00     0.012 A 
ATOM     24  C   UNL A   1      33.159  28.811  24.942  1.00  0.00     0.012 A 
ATOM     25  C   UNL A   1      32.391  28.217  27.551  1.00  0.00     0.001 A 
ATOM     26  C   UNL A   1      34.081  28.932  25.980  1.00  0.00     0.001 A 
ATOM     27  C   UNL A   1      33.699  28.626  27.284  1.00  0.00     0.000 A 
ENDBRANCH  13  22
ENDBRANCH   8   9
ENDBRANCH   7   8
ENDBRANCH   6   7
ENDBRANCH   4   6
ENDBRANCH   1   2
BRANCH   1  28
ATOM     28  C   UNL A   1      30.787  31.756  26.018  1.00  0.00     0.042 C 
BRANCH  28  29
ATOM     29  C   UNL A   1      32.097  32.073  26.733  1.00  0.00     0.118 C 
BRANCH  29  30
ATOM     30  N   UNL A   1      32.179  33.442  27.219  1.00  0.00    -0.352 N 
ATOM     31  C   UNL A   1      33.118  34.030  28.033  1.00  0.00     0.251 C 
ATOM     32  H   UNL A   1      31.453  34.037  26.919  1.00  0.00     0.163 HD
ATOM     33  O   UNL A   1      32.957  35.178  28.436  1.00  0.00    -0.269 OA
BRANCH  31  34
ATOM     34  C   UNL A   1      34.312  33.264  28.456  1.00  0.00     0.039 A 
ATOM     35  C   UNL A   1      35.531  33.930  28.602  1.00  0.00     0.014 A 
ATOM     36  C   UNL A   1      34.225  31.898  28.726  1.00  0.00     0.014 A 
ATOM     37  C   UNL A   1      36.639  33.245  29.113  1.00  0.00     0.010 A 
ATOM     38  C   UNL A   1      35.305  31.237  29.304  1.00  0.00     0.010 A 
ATOM     39  C   UNL A   1      36.519  31.906  29.516  1.00  0.00    -0.014 A 
BRANCH  39  40
ATOM     40  C   UNL A   1      37.628  31.196  30.207  1.00  0.00     0.031 A 
ATOM     41  C   UNL A   1      37.948  31.494  31.646  1.00  0.00     0.074 A 
ATOM     42  C   UNL A   1      38.415  30.356  29.505  1.00  0.00     0.049 A 
ATOM     43  N   UNL A   1      38.937  31.049  32.380  1.00  0.00    -0.248 NA
ATOM     44  C   UNL A   1      37.057  32.435  32.342  1.00  0.00     0.031 C 
ATOM     45  C   UNL A   1      38.250  30.026  28.087  1.00  0.00     0.029 A 
ATOM     46  N   UNL A   1      39.525  29.642  29.884  1.00  0.00    -0.354 N 
ATOM     47  C   UNL A   1      38.793  31.661  33.619  1.00  0.00     0.074 A 
ATOM     48  C   UNL A   1      37.656  32.550  33.520  1.00  0.00     0.031 C 
ATOM     49  C   UNL A   1      39.212  29.163  27.722  1.00  0.00     0.029 A 
ATOM     50  C   UNL A   1      40.085  28.910  28.863  1.00  0.00     0.049 A 
ATOM     51  H   UNL A   1      39.886  29.652  30.800  1.00  0.00     0.167 HD
ATOM     52  C   UNL A   1      39.528  31.483  34.742  1.00  0.00     0.037 A 
ATOM     53  C   UNL A   1      41.185  28.132  28.843  1.00  0.00     0.037 A 
ATOM     54  C   UNL A   1      40.650  30.586  34.846  1.00  0.00     0.049 A 
ATOM     55  C   UNL A   1      41.996  27.969  30.097  1.00  0.00     0.074 A 
ATOM     56  C   UNL A   1      41.413  30.286  35.963  1.00  0.00     0.029 A 
ATOM     57  N   UNL A   1      41.176  29.852  33.794  1.00  0.00    -0.354 N 
ATOM     58  N   UNL A   1      41.800  28.492  31.282  1.00  0.00    -0.248 NA
ATOM     59  C   UNL A   1      43.183  27.105  30.011  1.00  0.00     0.031 C 
ATOM     60  C   UNL A   1      42.429  29.406  35.576  1.00  0.00     0.029 A 
ATOM     61  C   UNL A   1      42.272  29.122  34.229  1.00  0.00     0.049 A 
ATOM     62  H   UNL A   1      40.824  29.848  32.875  1.00  0.00     0.167 HD
ATOM     63  C   UNL A   1      42.820  28.003  32.088  1.00  0.00     0.074 A 
ATOM     64  C   UNL A   1      43.627  27.131  31.260  1.00  0.00     0.031 C 
ATOM     65  C   UNL A   1      43.066  28.254  33.397  1.00  0.00     0.037 A 
BRANCH  52  66
ATOM     66  C   UNL A   1      39.136  32.270  35.959  1.00  0.00     0.057 A 
ATOM     67  C   UNL A   1      39.612  33.569  36.180  1.00  0.00     0.134 A 
ATOM     68  C   UNL A   1      38.237  31.742  36.895  1.00  0.00     0.134 A 
ATOM     69  F   UNL A   1      40.481  34.130  35.325  1.00  0.00    -0.206 F 
ATOM     70  C   UNL A   1      39.229  34.305  37.302  1.00  0.00     0.040 A 
ATOM     71  C   UNL A   1      37.828  32.479  38.006  1.00  0.00     0.040 A 
ATOM     72  F   UNL A   1      37.734  30.509  36.736  1.00  0.00    -0.206 F 
ATOM     73  C   UNL A   1      38.329  33.763  38.216  1.00  0.00     0.006 A 
ENDBRANCH  52  66
BRANCH  53  74
ATOM     74  C   UNL A   1      41.579  27.438  27.591  1.00  0.00     0.057 A 
ATOM     75  C   UNL A   1      42.353  28.087  26.622  1.00  0.00     0.134 A 
ATOM     76  C   UNL A   1      41.187  26.121  27.328  1.00  0.00     0.134 A 
ATOM     77  F   UNL A   1      42.741  29.357  26.808  1.00  0.00    -0.206 F 
ATOM     78  C   UNL A   1      42.709  27.457  25.429  1.00  0.00     0.040 A 
ATOM     79  C   UNL A   1      41.556  25.470  26.151  1.00  0.00     0.040 A 
ATOM     80  F   UNL A   1      40.448  25.443  28.220  1.00  0.00    -0.206 F 
ATOM     81  C   UNL A   1      42.314  26.142  25.193  1.00  0.00     0.006 A 
ENDBRANCH  53  74
BRANCH  65  82
ATOM     82  C   UNL A   1      44.238  27.559  34.023  1.00  0.00     0.057 A 
ATOM     83  C   UNL A   1      45.503  28.155  34.086  1.00  0.00     0.134 A 
ATOM     84  C   UNL A   1      44.087  26.296  34.611  1.00  0.00     0.134 A 
ATOM     85  F   UNL A   1      45.717  29.357  33.530  1.00  0.00    -0.206 F 
ATOM     86  C   UNL A   1      46.583  27.512  34.696  1.00  0.00     0.040 A 
ATOM     87  C   UNL A   1      45.151  25.654  35.245  1.00  0.00     0.040 A 
ATOM     88  F   UNL A   1      42.900  25.672  34.591  1.00  0.00    -0.206 F 
ATOM     89  C   UNL A   1      46.405  26.262  35.285  1.00  0.00     0.006 A 
ENDBRANCH  65  82
ENDBRANCH  39  40
ENDBRANCH  31  34
ENDBRANCH  29  30
ENDBRANCH  28  29
ENDBRANCH   1  28
TORSDOF 15
ENDMDL
MODEL 3
REMARK VINA RESULT:     -12.3      0.664      6.141
REMARK SMILES O=C(CCCc1nc(-c2ccc(Cl)c(Cl)c2)c(-c2ccccc2)o1)NCCCNC(=O)c1ccc(-c2c3nc(c(-c4c(F)cccc4F)c4ccc([nH]4)c(-c4c(F)cccc4F)c4nc(c(-c5c(F)cccc5F)c5ccc2[nH]5)C=C4)C=C3)cc1
REMARK SMILES IDX 26 1 25 2 1 3 2 4 3 6 4 7 5 8 6 9 7 10 24 11 8 12 17 13 9 14
REMARK SMILES IDX 10 15 16 16 11 17 14 18 12 19 15 20 13 21 18 22 19 23 23 24
REMARK SMILES IDX 20 25 22 26 21 27 27 28 28 29 29 30 30 31 31 33 32 34 33 35
REMARK SMILES IDX 85 36 34 37 84 38 35 39 36 40 37 41 78 42 38 43 83 44 77 45
REMARK SMILES IDX 79 46 39 47 82 48 76 49 75 50 40 52 66 53 49 54 65 55 50 56
REMARK SMILES IDX 53 57 64 58 80 59 51 60 52 61 63 63 81 64 54 65 41 66 42 67
REMARK SMILES IDX 47 68 43 69 44 70 46 71 48 72 45 73 67 74 68 75 73 76 69 77
REMARK SMILES IDX 70 78 72 79 74 80 71 81 55 82 56 83 61 84 57 85 58 86 60 87
REMARK SMILES IDX 62 88 59 89
REMARK H PARENT 25 5 29 32 79 51 53 62
REMARK Flexibility Score: inf
ROOT
ATOM      1  C   UNL A   1      30.269  32.844  25.002  1.00  0.00     0.117 C 
ENDROOT
BRANCH   1   2
ATOM      2  N   UNL A   1      29.565  32.162  23.934  1.00  0.00    -0.356 N 
ATOM      3  O   UNL A   1      28.638  34.054  23.018  1.00  0.00    -0.275 OA
ATOM      4  C   UNL A   1      28.815  32.842  23.002  1.00  0.00     0.220 C 
ATOM      5  H   UNL A   1      29.625  31.182  23.873  1.00  0.00     0.163 HD
BRANCH   4   6
ATOM      6  C   UNL A   1      28.228  31.957  21.924  1.00  0.00     0.100 C 
BRANCH   6   7
ATOM      7  C   UNL A   1      29.002  30.648  21.749  1.00  0.00     0.020 C 
BRANCH   7   8
ATOM      8  C   UNL A   1      28.331  29.391  22.315  1.00  0.00     0.098 C 
BRANCH   8   9
ATOM      9  C   UNL A   1      29.257  28.495  23.061  1.00  0.00     0.195 A 
ATOM     10  N   UNL A   1      29.412  27.189  22.930  1.00  0.00    -0.213 NA
ATOM     11  O   UNL A   1      30.094  29.085  23.973  1.00  0.00    -0.440 OA
ATOM     12  C   UNL A   1      30.357  26.888  23.880  1.00  0.00     0.117 A 
ATOM     13  C   UNL A   1      30.831  28.043  24.465  1.00  0.00     0.162 A 
BRANCH  12  14
ATOM     14  C   UNL A   1      30.781  25.556  24.246  1.00  0.00     0.006 A 
ATOM     15  C   UNL A   1      30.419  25.004  25.476  1.00  0.00     0.012 A 
ATOM     16  C   UNL A   1      31.506  24.783  23.326  1.00  0.00     0.032 A 
ATOM     17  C   UNL A   1      30.770  23.684  25.778  1.00  0.00     0.023 A 
ATOM     18  C   UNL A   1      31.865  23.467  23.632  1.00  0.00     0.060 A 
ATOM     19  C   UNL A   1      31.499  22.916  24.864  1.00  0.00     0.059 A 
ATOM     20  Cl  UNL A   1      32.740  22.575  22.440  1.00  0.00    -0.083 Cl
ATOM     21  Cl  UNL A   1      31.911  21.302  25.320  1.00  0.00    -0.083 Cl
ENDBRANCH  12  14
BRANCH  13  22
ATOM     22  C   UNL A   1      31.886  28.347  25.409  1.00  0.00     0.020 A 
ATOM     23  C   UNL A   1      31.647  28.346  26.786  1.00  0.00     0.012 A 
ATOM     24  C   UNL A   1      33.189  28.574  24.940  1.00  0.00     0.012 A 
ATOM     25  C   UNL A   1      32.702  28.544  27.680  1.00  0.00     0.001 A 
ATOM     26  C   UNL A   1      34.240  28.781  25.833  1.00  0.00     0.001 A 
ATOM     27  C   UNL A   1      33.997  28.758  27.204  1.00  0.00     0.000 A 
ENDBRANCH  13  22
ENDBRANCH   8   9
ENDBRANCH   7   8
ENDBRANCH   6   7
ENDBRANCH   4   6
ENDBRANCH   1   2
BRANCH   1  28
ATOM     28  C   UNL A   1      30.796  31.876  26.053  1.00  0.00     0.042 C 
BRANCH  28  29
ATOM     29  C   UNL A   1      32.162  32.241  26.626  1.00  0.00     0.118 C 
BRANCH  29  30
ATOM     30  N   UNL A   1      32.209  33.571  27.217  1.00  0.00    -0.352 N 
ATOM     31  C   UNL A   1      33.108  34.102  28.111  1.00  0.00     0.251 C 
ATOM     32  H   UNL A   1      31.489  34.181  26.933  1.00  0.00     0.163 HD
ATOM     33  O   UNL A   1      32.917  35.215  28.593  1.00  0.00    -0.269 OA
BRANCH  31  34
ATOM     34  C   UNL A   1      34.292  33.317  28.523  1.00  0.00     0.039 A 
ATOM     35  C   UNL A   1      35.546  33.932  28.539  1.00  0.00     0.014 A 
ATOM     36  C   UNL A   1      34.164  31.982  28.911  1.00  0.00     0.014 A 
ATOM     37  C   UNL A   1      36.654  33.239  29.037  1.00  0.00     0.010 A 
ATOM     38  C   UNL A   1      35.250  31.319  29.475  1.00  0.00     0.010 A 
ATOM     39  C   UNL A   1      36.503  31.943  29.556  1.00  0.00    -0.014 A 
BRANCH  39  40
ATOM     40  C   UNL A   1      37.622  31.238  30.236  1.00  0.00     0.031 A 
ATOM     41  C   UNL A   1      37.967  31.550  31.666  1.00  0.00     0.074 A 
ATOM     42  C   UNL A   1      38.396  30.391  29.529  1.00  0.00     0.049 A 
ATOM     43  N   UNL A   1      38.967  31.111  32.388  1.00  0.00    -0.248 NA
ATOM     44  C   UNL A   1      37.089  32.499  32.368  1.00  0.00     0.031 C 
ATOM     45  C   UNL A   1      38.208  30.047  28.118  1.00  0.00     0.029 A 
ATOM     46  N   UNL A   1      39.512  29.679  29.896  1.00  0.00    -0.354 N 
ATOM     47  C   UNL A   1      38.845  31.735  33.623  1.00  0.00     0.074 A 
ATOM     48  C   UNL A   1      37.707  32.625  33.535  1.00  0.00     0.031 C 
ATOM     49  C   UNL A   1      39.161  29.179  27.745  1.00  0.00     0.029 A 
ATOM     50  C   UNL A   1      40.053  28.936  28.874  1.00  0.00     0.049 A 
ATOM     51  H   UNL A   1      39.888  29.698  30.806  1.00  0.00     0.167 HD
ATOM     52  C   UNL A   1      39.598  31.567  34.736  1.00  0.00     0.037 A 
ATOM     53  C   UNL A   1      41.152  28.157  28.843  1.00  0.00     0.037 A 
ATOM     54  C   UNL A   1      40.721  30.670  34.830  1.00  0.00     0.049 A 
ATOM     55  C   UNL A   1      41.984  28.004  30.085  1.00  0.00     0.074 A 
ATOM     56  C   UNL A   1      41.502  30.380  35.936  1.00  0.00     0.029 A 
ATOM     57  N   UNL A   1      41.228  29.924  33.777  1.00  0.00    -0.354 N 
ATOM     58  N   UNL A   1      41.808  28.539  31.268  1.00  0.00    -0.248 NA
ATOM     59  C   UNL A   1      43.168  27.138  29.987  1.00  0.00     0.031 C 
ATOM     60  C   UNL A   1      42.510  29.494  35.541  1.00  0.00     0.029 A 
ATOM     61  C   UNL A   1      42.330  29.198  34.200  1.00  0.00     0.049 A 
ATOM     62  H   UNL A   1      40.861  29.912  32.863  1.00  0.00     0.167 HD
ATOM     63  C   UNL A   1      42.841  28.057  32.061  1.00  0.00     0.074 A 
ATOM     64  C   UNL A   1      43.633  27.175  31.228  1.00  0.00     0.031 C 
ATOM     65  C   UNL A   1      43.109  28.321  33.363  1.00  0.00     0.037 A 
BRANCH  52  66
ATOM     66  C   UNL A   1      39.228  32.367  35.951  1.00  0.00     0.057 A 
ATOM     67  C   UNL A   1      38.329  31.878  36.908  1.00  0.00     0.134 A 
ATOM     68  C   UNL A   1      39.809  33.618  36.190  1.00  0.00     0.134 A 
ATOM     69  F   UNL A   1      37.731  30.689  36.734  1.00  0.00    -0.206 F 
ATOM     70  C   UNL A   1      38.002  32.616  38.046  1.00  0.00     0.040 A 
ATOM     71  C   UNL A   1      39.510  34.354  37.337  1.00  0.00     0.040 A 
ATOM     72  F   UNL A   1      40.687  34.139  35.319  1.00  0.00    -0.206 F 
ATOM     73  C   UNL A   1      38.598  33.855  38.267  1.00  0.00     0.006 A 
ENDBRANCH  52  66
BRANCH  53  74
ATOM     74  C   UNL A   1      41.524  27.450  27.591  1.00  0.00     0.057 A 
ATOM     75  C   UNL A   1      41.124  26.127  27.366  1.00  0.00     0.134 A 
ATOM     76  C   UNL A   1      42.291  28.070  26.599  1.00  0.00     0.134 A 
ATOM     77  F   UNL A   1      40.405  25.473  28.290  1.00  0.00    -0.206 F 
ATOM     78  C   UNL A   1      41.489  25.441  26.207  1.00  0.00     0.040 A 
ATOM     79  C   UNL A   1      42.642  27.405  25.424  1.00  0.00     0.040 A 
ATOM     80  F   UNL A   1      42.700  29.339  26.753  1.00  0.00    -0.206 F 
ATOM     81  C   UNL A   1      42.246  26.082  25.229  1.00  0.00     0.006 A 
ENDBRANCH  53  74
BRANCH  65  82
ATOM     82  C   UNL A   1      44.291  27.630  33.977  1.00  0.00     0.057 A 
ATOM     83  C   UNL A   1      45.560  28.221  34.005  1.00  0.00     0.134 A 
ATOM     84  C   UNL A   1      44.147  26.376  34.586  1.00  0.00     0.134 A 
ATOM     85  F   UNL A   1      45.767  29.414  33.426  1.00  0.00    -0.206 F 
ATOM     86  C   UNL A   1      46.648  27.583  34.603  1.00  0.00     0.040 A 
ATOM     87  C   UNL A   1      45.221  25.740  35.209  1.00  0.00     0.040 A 
ATOM     88  F   UNL A   1      42.957  25.757  34.599  1.00  0.00    -0.206 F 
ATOM     89  C   UNL A   1      46.477  26.343  35.215  1.00  0.00     0.006 A 
ENDBRANCH  65  82
ENDBRANCH  39  40
ENDBRANCH  31  34
ENDBRANCH  29  30
ENDBRANCH  28  29
ENDBRANCH   1  28
TORSDOF 15
ENDMDL
