MODEL 1
REMARK VINA RESULT:     -11.1      0.000      0.000
REMARK SMILES CCN(C(=O)N[C@@H]1CCOC1)[C@H]1COC[C@H]1C(=O)NCCCNC(=O)c1ccc(-c2c3nc(c(-c4c(F)cccc4F)c4ccc([nH]4)c(-c4c(F)cccc4F)c4nc(c(-c5c(F)cccc5F)c5ccc2[nH]5)C=C4)C=C3)cc1
REMARK SMILES IDX 20 1 19 2 17 3 18 4 16 6 12 7 13 8 14 9 15 10 3 11 2 12 1 13
REMARK SMILES IDX 4 14 5 15 6 16 7 18 8 19 11 20 9 21 10 22 21 23 22 24 23 25
REMARK SMILES IDX 24 26 25 28 26 29 27 30 79 31 28 32 78 33 29 34 30 35 31 36
REMARK SMILES IDX 72 37 32 38 77 39 71 40 73 41 33 42 76 43 70 44 69 45 34 47
REMARK SMILES IDX 60 48 43 49 59 50 44 51 47 52 58 53 74 54 45 55 46 56 57 58
REMARK SMILES IDX 75 59 48 60 35 61 36 62 41 63 37 64 38 65 40 66 42 67 39 68
REMARK SMILES IDX 61 69 62 70 67 71 63 72 64 73 66 74 68 75 65 76 49 77 50 78
REMARK SMILES IDX 55 79 51 80 52 81 54 82 56 83 53 84
REMARK H PARENT 19 5 6 17 23 27 73 46 47 57
REMARK Flexibility Score: inf
ROOT
ATOM      1  C   UNL A   1      33.459  26.982  25.041  1.00  0.00     0.117 C 
ENDROOT
BRANCH   1   2
ATOM      2  N   UNL A   1      33.425  25.729  25.782  1.00  0.00    -0.356 N 
ATOM      3  C   UNL A   1      33.306  24.430  25.411  1.00  0.00     0.227 C 
ATOM      4  O   UNL A   1      33.227  23.618  26.344  1.00  0.00    -0.275 OA
ATOM      5  H   UNL A   1      33.504  25.850  26.755  1.00  0.00     0.163 HD
BRANCH   3   6
ATOM      6  C   UNL A   1      33.262  23.908  23.985  1.00  0.00     0.129 C 
ATOM      7  C   UNL A   1      33.551  22.441  23.624  1.00  0.00     0.127 C 
ATOM      8  C   UNL A   1      32.351  22.085  22.718  1.00  0.00     0.186 C 
ATOM      9  O   UNL A   1      31.307  23.028  22.994  1.00  0.00    -0.378 OA
ATOM     10  C   UNL A   1      31.954  24.262  23.301  1.00  0.00     0.176 C 
BRANCH   7  11
ATOM     11  N   UNL A   1      33.798  21.473  24.710  1.00  0.00    -0.319 N 
BRANCH  11  12
ATOM     12  C   UNL A   1      35.173  20.986  24.948  1.00  0.00     0.118 C 
ATOM     13  C   UNL A   1      36.252  21.891  24.373  1.00  0.00     0.027 C 
ENDBRANCH  11  12
BRANCH  11  14
ATOM     14  C   UNL A   1      32.812  20.507  24.967  1.00  0.00     0.318 C 
ATOM     15  O   UNL A   1      31.699  20.744  25.410  1.00  0.00    -0.249 OA
ATOM     16  N   UNL A   1      33.268  19.259  24.646  1.00  0.00    -0.333 N 
ATOM     17  H   UNL A   1      34.244  19.132  24.631  1.00  0.00     0.165 HD
BRANCH  16  18
ATOM     18  C   UNL A   1      32.451  18.105  24.326  1.00  0.00     0.112 C 
ATOM     19  C   UNL A   1      33.251  16.858  24.639  1.00  0.00     0.056 C 
ATOM     20  C   UNL A   1      32.258  17.923  22.823  1.00  0.00     0.185 C 
ATOM     21  C   UNL A   1      34.169  16.746  23.436  1.00  0.00     0.162 C 
ATOM     22  O   UNL A   1      33.479  17.337  22.326  1.00  0.00    -0.379 OA
ENDBRANCH  16  18
ENDBRANCH  11  14
ENDBRANCH   7  11
ENDBRANCH   3   6
ENDBRANCH   1   2
BRANCH   1  23
ATOM     23  C   UNL A   1      34.031  28.136  25.866  1.00  0.00     0.042 C 
BRANCH  23  24
ATOM     24  C   UNL A   1      33.389  28.392  27.229  1.00  0.00     0.118 C 
BRANCH  24  25
ATOM     25  N   UNL A   1      33.479  29.780  27.645  1.00  0.00    -0.352 N 
ATOM     26  C   UNL A   1      34.501  30.524  28.182  1.00  0.00     0.251 C 
ATOM     27  H   UNL A   1      32.645  30.287  27.517  1.00  0.00     0.163 HD
ATOM     28  O   UNL A   1      34.236  31.658  28.581  1.00  0.00    -0.269 OA
BRANCH  26  29
ATOM     29  C   UNL A   1      35.899  30.033  28.329  1.00  0.00     0.039 A 
ATOM     30  C   UNL A   1      36.293  29.568  29.594  1.00  0.00     0.014 A 
ATOM     31  C   UNL A   1      36.869  30.142  27.331  1.00  0.00     0.014 A 
ATOM     32  C   UNL A   1      37.618  29.185  29.846  1.00  0.00     0.010 A 
ATOM     33  C   UNL A   1      38.186  29.711  27.570  1.00  0.00     0.010 A 
ATOM     34  C   UNL A   1      38.582  29.227  28.830  1.00  0.00    -0.014 A 
BRANCH  34  35
ATOM     35  C   UNL A   1      39.995  28.802  29.074  1.00  0.00     0.031 A 
ATOM     36  C   UNL A   1      40.999  29.765  29.662  1.00  0.00     0.074 A 
ATOM     37  C   UNL A   1      40.416  27.565  28.741  1.00  0.00     0.049 A 
ATOM     38  N   UNL A   1      42.294  29.623  29.813  1.00  0.00    -0.248 NA
ATOM     39  C   UNL A   1      40.478  31.053  30.143  1.00  0.00     0.031 C 
ATOM     40  C   UNL A   1      39.579  26.499  28.192  1.00  0.00     0.029 A 
ATOM     41  N   UNL A   1      41.671  27.001  28.793  1.00  0.00    -0.354 N 
ATOM     42  C   UNL A   1      42.745  30.807  30.381  1.00  0.00     0.074 A 
ATOM     43  C   UNL A   1      41.588  31.667  30.528  1.00  0.00     0.031 C 
ATOM     44  C   UNL A   1      40.345  25.429  27.921  1.00  0.00     0.029 A 
ATOM     45  C   UNL A   1      41.727  25.730  28.274  1.00  0.00     0.049 A 
ATOM     46  H   UNL A   1      42.454  27.465  29.168  1.00  0.00     0.167 HD
ATOM     47  C   UNL A   1      43.998  31.150  30.765  1.00  0.00     0.037 A 
ATOM     48  C   UNL A   1      42.770  24.897  28.087  1.00  0.00     0.037 A 
ATOM     49  C   UNL A   1      45.156  30.299  30.684  1.00  0.00     0.049 A 
ATOM     50  C   UNL A   1      44.152  25.299  28.513  1.00  0.00     0.074 A 
ATOM     51  C   UNL A   1      46.453  30.568  31.089  1.00  0.00     0.029 A 
ATOM     52  N   UNL A   1      45.156  29.010  30.179  1.00  0.00    -0.354 N 
ATOM     53  N   UNL A   1      44.553  26.424  29.048  1.00  0.00    -0.248 NA
ATOM     54  C   UNL A   1      45.223  24.308  28.321  1.00  0.00     0.031 C 
ATOM     55  C   UNL A   1      47.242  29.443  30.821  1.00  0.00     0.029 A 
ATOM     56  C   UNL A   1      46.430  28.472  30.263  1.00  0.00     0.049 A 
ATOM     57  H   UNL A   1      44.369  28.546  29.813  1.00  0.00     0.167 HD
ATOM     58  C   UNL A   1      45.913  26.266  29.283  1.00  0.00     0.074 A 
ATOM     59  C   UNL A   1      46.272  24.939  28.830  1.00  0.00     0.031 C 
ATOM     60  C   UNL A   1      46.782  27.146  29.832  1.00  0.00     0.037 A 
BRANCH  47  61
ATOM     61  C   UNL A   1      44.189  32.523  31.331  1.00  0.00     0.057 A 
ATOM     62  C   UNL A   1      44.462  33.620  30.506  1.00  0.00     0.134 A 
ATOM     63  C   UNL A   1      44.049  32.755  32.704  1.00  0.00     0.134 A 
ATOM     64  F   UNL A   1      44.616  33.455  29.184  1.00  0.00    -0.206 F 
ATOM     65  C   UNL A   1      44.601  34.905  31.033  1.00  0.00     0.040 A 
ATOM     66  C   UNL A   1      44.172  34.038  33.239  1.00  0.00     0.040 A 
ATOM     67  F   UNL A   1      43.782  31.742  33.541  1.00  0.00    -0.206 F 
ATOM     68  C   UNL A   1      44.452  35.117  32.402  1.00  0.00     0.006 A 
ENDBRANCH  47  61
BRANCH  48  69
ATOM     69  C   UNL A   1      42.549  23.571  27.464  1.00  0.00     0.057 A 
ATOM     70  C   UNL A   1      42.624  23.406  26.079  1.00  0.00     0.134 A 
ATOM     71  C   UNL A   1      42.238  22.450  28.241  1.00  0.00     0.134 A 
ATOM     72  F   UNL A   1      42.900  24.452  25.288  1.00  0.00    -0.206 F 
ATOM     73  C   UNL A   1      42.382  22.169  25.480  1.00  0.00     0.040 A 
ATOM     74  C   UNL A   1      42.005  21.205  27.657  1.00  0.00     0.040 A 
ATOM     75  F   UNL A   1      42.155  22.553  29.575  1.00  0.00    -0.206 F 
ATOM     76  C   UNL A   1      42.072  21.063  26.271  1.00  0.00     0.006 A 
ENDBRANCH  48  69
BRANCH  60  77
ATOM     77  C   UNL A   1      48.197  26.694  30.014  1.00  0.00     0.057 A 
ATOM     78  C   UNL A   1      48.600  25.985  31.150  1.00  0.00     0.134 A 
ATOM     79  C   UNL A   1      49.157  26.946  29.027  1.00  0.00     0.134 A 
ATOM     80  F   UNL A   1      47.728  25.727  32.136  1.00  0.00    -0.206 F 
ATOM     81  C   UNL A   1      49.917  25.544  31.303  1.00  0.00     0.040 A 
ATOM     82  C   UNL A   1      50.473  26.501  29.162  1.00  0.00     0.040 A 
ATOM     83  F   UNL A   1      48.830  27.622  27.916  1.00  0.00    -0.206 F 
ATOM     84  C   UNL A   1      50.856  25.799  30.304  1.00  0.00     0.006 A 
ENDBRANCH  60  77
ENDBRANCH  34  35
ENDBRANCH  26  29
ENDBRANCH  24  25
ENDBRANCH  23  24
ENDBRANCH   1  23
TORSDOF 14
ENDMDL
MODEL 2
REMARK VINA RESULT:     -11.0      1.569      2.193
REMARK SMILES CCN(C(=O)N[C@@H]1CCOC1)[C@H]1COC[C@H]1C(=O)NCCCNC(=O)c1ccc(-c2c3nc(c(-c4c(F)cccc4F)c4ccc([nH]4)c(-c4c(F)cccc4F)c4nc(c(-c5c(F)cccc5F)c5ccc2[nH]5)C=C4)C=C3)cc1
REMARK SMILES IDX 20 1 19 2 17 3 18 4 16 6 12 7 13 8 14 9 15 10 3 11 2 12 1 13
REMARK SMILES IDX 4 14 5 15 6 16 7 18 8 19 11 20 9 21 10 22 21 23 22 24 23 25
REMARK SMILES IDX 24 26 25 28 26 29 27 30 79 31 28 32 78 33 29 34 30 35 31 36
REMARK SMILES IDX 72 37 32 38 77 39 71 40 73 41 33 42 76 43 70 44 69 45 34 47
REMARK SMILES IDX 60 48 43 49 59 50 44 51 47 52 58 53 74 54 45 55 46 56 57 58
REMARK SMILES IDX 75 59 48 60 35 61 36 62 41 63 37 64 38 65 40 66 42 67 39 68
REMARK SMILES IDX 61 69 62 70 67 71 63 72 64 73 66 74 68 75 65 76 49 77 50 78
REMARK SMILES IDX 55 79 51 80 52 81 54 82 56 83 53 84
REMARK H PARENT 19 5 6 17 23 27 73 46 47 57
REMARK Flexibility Score: inf
ROOT
ATOM      1  C   UNL A   1      33.565  26.684  25.265  1.00  0.00     0.117 C 
ENDROOT
BRANCH   1   2
ATOM      2  N   UNL A   1      32.830  26.633  24.009  1.00  0.00    -0.356 N 
ATOM      3  C   UNL A   1      31.675  26.032  23.628  1.00  0.00     0.227 C 
ATOM      4  O   UNL A   1      31.393  26.139  22.427  1.00  0.00    -0.275 OA
ATOM      5  H   UNL A   1      33.261  27.142  23.285  1.00  0.00     0.163 HD
BRANCH   3   6
ATOM      6  C   UNL A   1      30.729  25.260  24.533  1.00  0.00     0.129 C 
ATOM      7  C   UNL A   1      30.977  23.799  24.947  1.00  0.00     0.127 C 
ATOM      8  C   UNL A   1      30.777  23.856  26.478  1.00  0.00     0.186 C 
ATOM      9  O   UNL A   1      30.940  25.221  26.884  1.00  0.00    -0.378 OA
ATOM     10  C   UNL A   1      30.438  26.019  25.814  1.00  0.00     0.176 C 
BRANCH   7  11
ATOM     11  N   UNL A   1      32.226  23.138  24.523  1.00  0.00    -0.319 N 
BRANCH  11  12
ATOM     12  C   UNL A   1      32.265  22.422  23.231  1.00  0.00     0.118 C 
ATOM     13  C   UNL A   1      33.222  23.035  22.219  1.00  0.00     0.027 C 
ENDBRANCH  11  12
BRANCH  11  14
ATOM     14  C   UNL A   1      33.025  22.545  25.514  1.00  0.00     0.318 C 
ATOM     15  O   UNL A   1      32.726  21.546  26.147  1.00  0.00    -0.249 OA
ATOM     16  N   UNL A   1      34.192  23.240  25.669  1.00  0.00    -0.333 N 
ATOM     17  H   UNL A   1      34.190  24.182  25.382  1.00  0.00     0.165 HD
BRANCH  16  18
ATOM     18  C   UNL A   1      35.431  22.723  26.215  1.00  0.00     0.112 C 
ATOM     19  C   UNL A   1      36.539  23.701  25.884  1.00  0.00     0.056 C 
ATOM     20  C   UNL A   1      35.932  21.492  25.465  1.00  0.00     0.185 C 
ATOM     21  C   UNL A   1      36.848  23.367  24.436  1.00  0.00     0.162 C 
ATOM     22  O   UNL A   1      36.541  21.978  24.250  1.00  0.00    -0.379 OA
ENDBRANCH  16  18
ENDBRANCH  11  14
ENDBRANCH   7  11
ENDBRANCH   3   6
ENDBRANCH   1   2
BRANCH   1  23
ATOM     23  C   UNL A   1      33.743  28.113  25.782  1.00  0.00     0.042 C 
BRANCH  23  24
ATOM     24  C   UNL A   1      33.418  28.359  27.254  1.00  0.00     0.118 C 
BRANCH  24  25
ATOM     25  N   UNL A   1      33.513  29.758  27.629  1.00  0.00    -0.352 N 
ATOM     26  C   UNL A   1      34.537  30.515  28.144  1.00  0.00     0.251 C 
ATOM     27  H   UNL A   1      32.680  30.264  27.486  1.00  0.00     0.163 HD
ATOM     28  O   UNL A   1      34.275  31.661  28.509  1.00  0.00    -0.269 OA
BRANCH  26  29
ATOM     29  C   UNL A   1      35.934  30.024  28.305  1.00  0.00     0.039 A 
ATOM     30  C   UNL A   1      36.314  29.559  29.574  1.00  0.00     0.014 A 
ATOM     31  C   UNL A   1      36.914  30.133  27.318  1.00  0.00     0.014 A 
ATOM     32  C   UNL A   1      37.637  29.176  29.840  1.00  0.00     0.010 A 
ATOM     33  C   UNL A   1      38.229  29.703  27.570  1.00  0.00     0.010 A 
ATOM     34  C   UNL A   1      38.612  29.218  28.834  1.00  0.00    -0.014 A 
BRANCH  34  35
ATOM     35  C   UNL A   1      40.022  28.794  29.093  1.00  0.00     0.031 A 
ATOM     36  C   UNL A   1      41.016  29.752  29.703  1.00  0.00     0.074 A 
ATOM     37  C   UNL A   1      40.450  27.560  28.753  1.00  0.00     0.049 A 
ATOM     38  N   UNL A   1      42.309  29.611  29.870  1.00  0.00    -0.248 NA
ATOM     39  C   UNL A   1      40.486  31.035  30.190  1.00  0.00     0.031 C 
ATOM     40  C   UNL A   1      39.622  26.498  28.183  1.00  0.00     0.029 A 
ATOM     41  N   UNL A   1      41.705  26.998  28.816  1.00  0.00    -0.354 N 
ATOM     42  C   UNL A   1      42.750  30.791  30.456  1.00  0.00     0.074 A 
ATOM     43  C   UNL A   1      41.589  31.647  30.596  1.00  0.00     0.031 C 
ATOM     44  C   UNL A   1      40.394  25.433  27.911  1.00  0.00     0.029 A 
ATOM     45  C   UNL A   1      41.771  25.732  28.286  1.00  0.00     0.049 A 
ATOM     46  H   UNL A   1      42.482  27.460  29.206  1.00  0.00     0.167 HD
ATOM     47  C   UNL A   1      43.997  31.131  30.860  1.00  0.00     0.037 A 
ATOM     48  C   UNL A   1      42.817  24.904  28.104  1.00  0.00     0.037 A 
ATOM     49  C   UNL A   1      45.158  30.284  30.786  1.00  0.00     0.049 A 
ATOM     50  C   UNL A   1      44.193  25.304  28.552  1.00  0.00     0.074 A 
ATOM     51  C   UNL A   1      46.449  30.551  31.212  1.00  0.00     0.029 A 
ATOM     52  N   UNL A   1      45.167  29.000  30.268  1.00  0.00    -0.354 N 
ATOM     53  N   UNL A   1      44.584  26.424  29.104  1.00  0.00    -0.248 NA
ATOM     54  C   UNL A   1      45.268  24.317  28.364  1.00  0.00     0.031 C 
ATOM     55  C   UNL A   1      47.244  29.430  30.943  1.00  0.00     0.029 A 
ATOM     56  C   UNL A   1      46.441  28.463  30.364  1.00  0.00     0.049 A 
ATOM     57  H   UNL A   1      44.386  28.538  29.888  1.00  0.00     0.167 HD
ATOM     58  C   UNL A   1      45.941  26.266  29.355  1.00  0.00     0.074 A 
ATOM     59  C   UNL A   1      46.309  24.945  28.894  1.00  0.00     0.031 C 
ATOM     60  C   UNL A   1      46.801  27.143  29.925  1.00  0.00     0.037 A 
BRANCH  47  61
ATOM     61  C   UNL A   1      44.178  32.499  31.442  1.00  0.00     0.057 A 
ATOM     62  C   UNL A   1      44.499  33.598  30.637  1.00  0.00     0.134 A 
ATOM     63  C   UNL A   1      43.981  32.725  32.809  1.00  0.00     0.134 A 
ATOM     64  F   UNL A   1      44.708  33.439  29.322  1.00  0.00    -0.206 F 
ATOM     65  C   UNL A   1      44.628  34.879  31.177  1.00  0.00     0.040 A 
ATOM     66  C   UNL A   1      44.094  34.003  33.357  1.00  0.00     0.040 A 
ATOM     67  F   UNL A   1      43.667  31.711  33.628  1.00  0.00    -0.206 F 
ATOM     68  C   UNL A   1      44.421  35.084  32.540  1.00  0.00     0.006 A 
ENDBRANCH  47  61
BRANCH  48  69
ATOM     69  C   UNL A   1      42.608  23.584  27.465  1.00  0.00     0.057 A 
ATOM     70  C   UNL A   1      42.674  23.437  26.077  1.00  0.00     0.134 A 
ATOM     71  C   UNL A   1      42.315  22.449  28.229  1.00  0.00     0.134 A 
ATOM     72  F   UNL A   1      42.931  24.498  25.298  1.00  0.00    -0.206 F 
ATOM     73  C   UNL A   1      42.442  22.206  25.464  1.00  0.00     0.040 A 
ATOM     74  C   UNL A   1      42.092  21.209  27.630  1.00  0.00     0.040 A 
ATOM     75  F   UNL A   1      42.241  22.533  29.565  1.00  0.00    -0.206 F 
ATOM     76  C   UNL A   1      42.151  21.086  26.242  1.00  0.00     0.006 A 
ENDBRANCH  48  69
BRANCH  60  77
ATOM     77  C   UNL A   1      48.215  26.692  30.121  1.00  0.00     0.057 A 
ATOM     78  C   UNL A   1      48.601  25.961  31.250  1.00  0.00     0.134 A 
ATOM     79  C   UNL A   1      49.190  26.965  29.155  1.00  0.00     0.134 A 
ATOM     80  F   UNL A   1      47.714  25.682  32.216  1.00  0.00    -0.206 F 
ATOM     81  C   UNL A   1      49.917  25.522  31.415  1.00  0.00     0.040 A 
ATOM     82  C   UNL A   1      50.505  26.522  29.303  1.00  0.00     0.040 A 
ATOM     83  F   UNL A   1      48.879  27.662  28.052  1.00  0.00    -0.206 F 
ATOM     84  C   UNL A   1      50.872  25.799  30.437  1.00  0.00     0.006 A 
ENDBRANCH  60  77
ENDBRANCH  34  35
ENDBRANCH  26  29
ENDBRANCH  24  25
ENDBRANCH  23  24
ENDBRANCH   1  23
TORSDOF 14
ENDMDL
MODEL 3
REMARK VINA RESULT:     -10.9      2.114      7.320
REMARK SMILES CCN(C(=O)N[C@@H]1CCOC1)[C@H]1COC[C@H]1C(=O)NCCCNC(=O)c1ccc(-c2c3nc(c(-c4c(F)cccc4F)c4ccc([nH]4)c(-c4c(F)cccc4F)c4nc(c(-c5c(F)cccc5F)c5ccc2[nH]5)C=C4)C=C3)cc1
REMARK SMILES IDX 20 1 19 2 17 3 18 4 16 6 12 7 13 8 14 9 15 10 3 11 2 12 1 13
REMARK SMILES IDX 4 14 5 15 6 16 7 18 8 19 11 20 9 21 10 22 21 23 22 24 23 25
REMARK SMILES IDX 24 26 25 28 26 29 27 30 79 31 28 32 78 33 29 34 30 35 31 36
REMARK SMILES IDX 72 37 32 38 77 39 71 40 73 41 33 42 76 43 70 44 69 45 34 47
REMARK SMILES IDX 60 48 43 49 59 50 44 51 47 52 58 53 74 54 45 55 46 56 57 58
REMARK SMILES IDX 75 59 48 60 35 61 36 62 41 63 37 64 38 65 40 66 42 67 39 68
REMARK SMILES IDX 61 69 62 70 67 71 63 72 64 73 66 74 68 75 65 76 49 77 50 78
REMARK SMILES IDX 55 79 51 80 52 81 54 82 56 83 53 84
REMARK H PARENT 19 5 6 17 23 27 73 46 47 57
REMARK Flexibility Score: inf
ROOT
ATOM      1  C   UNL A   1      35.812  20.602  24.856  1.00  0.00     0.117 C 
ENDROOT
BRANCH   1   2
ATOM      2  N   UNL A   1      35.234  20.913  26.156  1.00  0.00    -0.356 N 
ATOM      3  C   UNL A   1      34.009  21.339  26.554  1.00  0.00     0.227 C 
ATOM      4  O   UNL A   1      33.901  21.586  27.763  1.00  0.00    -0.275 OA
ATOM      5  H   UNL A   1      35.864  20.789  26.902  1.00  0.00     0.163 HD
BRANCH   3   6
ATOM      6  C   UNL A   1      32.795  21.529  25.659  1.00  0.00     0.129 C 
ATOM      7  C   UNL A   1      32.699  22.651  24.611  1.00  0.00     0.127 C 
ATOM      8  C   UNL A   1      32.246  21.881  23.350  1.00  0.00     0.186 C 
ATOM      9  O   UNL A   1      32.578  20.501  23.545  1.00  0.00    -0.378 OA
ATOM     10  C   UNL A   1      32.424  20.245  24.940  1.00  0.00     0.176 C 
BRANCH   7  11
ATOM     11  N   UNL A   1      33.864  23.531  24.398  1.00  0.00    -0.319 N 
BRANCH  11  12
ATOM     12  C   UNL A   1      34.311  24.420  25.491  1.00  0.00     0.118 C 
ATOM     13  C   UNL A   1      35.807  24.354  25.761  1.00  0.00     0.027 C 
ENDBRANCH  11  12
BRANCH  11  14
ATOM     14  C   UNL A   1      34.044  24.085  23.120  1.00  0.00     0.318 C 
ATOM     15  O   UNL A   1      34.420  23.467  22.138  1.00  0.00    -0.249 OA
ATOM     16  N   UNL A   1      33.734  25.416  23.126  1.00  0.00    -0.333 N 
ATOM     17  H   UNL A   1      33.778  25.880  23.994  1.00  0.00     0.165 HD
BRANCH  16  18
ATOM     18  C   UNL A   1      33.347  26.210  21.978  1.00  0.00     0.112 C 
ATOM     19  C   UNL A   1      33.366  27.670  22.383  1.00  0.00     0.056 C 
ATOM     20  C   UNL A   1      31.869  26.054  21.629  1.00  0.00     0.185 C 
ATOM     21  C   UNL A   1      32.055  27.819  23.133  1.00  0.00     0.162 C 
ATOM     22  O   UNL A   1      31.141  26.864  22.575  1.00  0.00    -0.379 OA
ENDBRANCH  16  18
ENDBRANCH  11  14
ENDBRANCH   7  11
ENDBRANCH   3   6
ENDBRANCH   1   2
BRANCH   1  23
ATOM     23  C   UNL A   1      37.048  19.707  24.964  1.00  0.00     0.042 C 
BRANCH  23  24
ATOM     24  C   UNL A   1      38.387  20.408  25.188  1.00  0.00     0.118 C 
BRANCH  24  25
ATOM     25  N   UNL A   1      39.481  19.480  25.416  1.00  0.00    -0.352 N 
ATOM     26  C   UNL A   1      40.756  19.647  25.899  1.00  0.00     0.251 C 
ATOM     27  H   UNL A   1      39.266  18.549  25.178  1.00  0.00     0.163 HD
ATOM     28  O   UNL A   1      41.522  18.686  25.838  1.00  0.00    -0.269 OA
BRANCH  26  29
ATOM     29  C   UNL A   1      41.268  20.924  26.469  1.00  0.00     0.039 A 
ATOM     30  C   UNL A   1      41.062  21.151  27.839  1.00  0.00     0.014 A 
ATOM     31  C   UNL A   1      41.805  21.957  25.699  1.00  0.00     0.014 A 
ATOM     32  C   UNL A   1      41.420  22.369  28.435  1.00  0.00     0.010 A 
ATOM     33  C   UNL A   1      42.209  23.160  26.305  1.00  0.00     0.010 A 
ATOM     34  C   UNL A   1      42.023  23.386  27.681  1.00  0.00    -0.014 A 
BRANCH  34  35
ATOM     35  C   UNL A   1      42.430  24.683  28.304  1.00  0.00     0.031 A 
ATOM     36  C   UNL A   1      41.428  25.796  28.492  1.00  0.00     0.074 A 
ATOM     37  C   UNL A   1      43.708  24.904  28.675  1.00  0.00     0.049 A 
ATOM     38  N   UNL A   1      41.626  27.033  28.880  1.00  0.00    -0.248 NA
ATOM     39  C   UNL A   1      40.021  25.475  28.209  1.00  0.00     0.031 C 
ATOM     40  C   UNL A   1      44.799  23.934  28.594  1.00  0.00     0.029 A 
ATOM     41  N   UNL A   1      44.313  26.035  29.176  1.00  0.00    -0.354 N 
ATOM     42  C   UNL A   1      40.378  27.643  28.865  1.00  0.00     0.074 A 
ATOM     43  C   UNL A   1      39.432  26.646  28.407  1.00  0.00     0.031 C 
ATOM     44  C   UNL A   1      45.942  24.519  28.989  1.00  0.00     0.029 A 
ATOM     45  C   UNL A   1      45.670  25.905  29.350  1.00  0.00     0.049 A 
ATOM     46  H   UNL A   1      43.819  26.859  29.389  1.00  0.00     0.167 HD
ATOM     47  C   UNL A   1      40.039  28.907  29.214  1.00  0.00     0.037 A 
ATOM     48  C   UNL A   1      46.600  26.797  29.742  1.00  0.00     0.037 A 
ATOM     49  C   UNL A   1      40.945  29.902  29.723  1.00  0.00     0.049 A 
ATOM     50  C   UNL A   1      46.203  28.195  30.118  1.00  0.00     0.074 A 
ATOM     51  C   UNL A   1      40.663  31.196  30.133  1.00  0.00     0.029 A 
ATOM     52  N   UNL A   1      42.304  29.713  29.910  1.00  0.00    -0.354 N 
ATOM     53  N   UNL A   1      45.018  28.748  30.095  1.00  0.00    -0.248 NA
ATOM     54  C   UNL A   1      47.276  29.088  30.587  1.00  0.00     0.031 C 
ATOM     55  C   UNL A   1      41.855  31.794  30.560  1.00  0.00     0.029 A 
ATOM     56  C   UNL A   1      42.873  30.865  30.428  1.00  0.00     0.049 A 
ATOM     57  H   UNL A   1      42.793  28.884  29.704  1.00  0.00     0.167 HD
ATOM     58  C   UNL A   1      45.195  30.041  30.572  1.00  0.00     0.074 A 
ATOM     59  C   UNL A   1      46.602  30.194  30.875  1.00  0.00     0.031 C 
ATOM     60  C   UNL A   1      44.267  31.010  30.748  1.00  0.00     0.037 A 
BRANCH  47  61
ATOM     61  C   UNL A   1      38.601  29.295  29.067  1.00  0.00     0.057 A 
ATOM     62  C   UNL A   1      37.733  29.311  30.164  1.00  0.00     0.134 A 
ATOM     63  C   UNL A   1      38.095  29.704  27.827  1.00  0.00     0.134 A 
ATOM     64  F   UNL A   1      38.161  28.921  31.374  1.00  0.00    -0.206 F 
ATOM     65  C   UNL A   1      36.402  29.711  30.031  1.00  0.00     0.040 A 
ATOM     66  C   UNL A   1      36.770  30.119  27.685  1.00  0.00     0.040 A 
ATOM     67  F   UNL A   1      38.881  29.715  26.741  1.00  0.00    -0.206 F 
ATOM     68  C   UNL A   1      35.920  30.121  28.789  1.00  0.00     0.006 A 
ENDBRANCH  47  61
BRANCH  48  69
ATOM     69  C   UNL A   1      48.023  26.393  29.813  1.00  0.00     0.057 A 
ATOM     70  C   UNL A   1      48.882  26.591  28.729  1.00  0.00     0.134 A 
ATOM     71  C   UNL A   1      48.545  25.780  30.957  1.00  0.00     0.134 A 
ATOM     72  F   UNL A   1      48.427  27.155  27.601  1.00  0.00    -0.206 F 
ATOM     73  C   UNL A   1      50.215  26.181  28.773  1.00  0.00     0.040 A 
ATOM     74  C   UNL A   1      49.878  25.375  31.020  1.00  0.00     0.040 A 
ATOM     75  F   UNL A   1      47.764  25.567  32.027  1.00  0.00    -0.206 F 
ATOM     76  C   UNL A   1      50.716  25.570  29.922  1.00  0.00     0.006 A 
ENDBRANCH  48  69
BRANCH  60  77
ATOM     77  C   UNL A   1      44.729  32.309  31.330  1.00  0.00     0.057 A 
ATOM     78  C   UNL A   1      45.126  33.376  30.517  1.00  0.00     0.134 A 
ATOM     79  C   UNL A   1      44.747  32.502  32.716  1.00  0.00     0.134 A 
ATOM     80  F   UNL A   1      45.143  33.245  29.182  1.00  0.00    -0.206 F 
ATOM     81  C   UNL A   1      45.532  34.595  31.065  1.00  0.00     0.040 A 
ATOM     82  C   UNL A   1      45.141  33.719  33.276  1.00  0.00     0.040 A 
ATOM     83  F   UNL A   1      44.379  31.515  33.546  1.00  0.00    -0.206 F 
ATOM     84  C   UNL A   1      45.536  34.769  32.449  1.00  0.00     0.006 A 
ENDBRANCH  60  77
ENDBRANCH  34  35
ENDBRANCH  26  29
ENDBRANCH  24  25
ENDBRANCH  23  24
ENDBRANCH   1  23
TORSDOF 14
ENDMDL
