MODEL 1
REMARK VINA RESULT:     -11.1      0.000      0.000
REMARK SMILES O=C(Cc1ccc(S(=O)(=O)CC(=O)NCC2CC2)cc1)NCCCNC(=O)c1ccc(-c2c3nc(c(-c4c(F)cccc4F)c4ccc([nH]4)c(-c4c(F)cccc4F)c4nc(c(-c5c(F)cccc5F)c5ccc2[nH]5)C=C4)C=C3)cc1
REMARK SMILES IDX 1 1 2 2 21 3 3 5 4 6 5 7 20 8 6 9 19 10 7 11 8 12 9 13 10 14
REMARK SMILES IDX 11 15 12 16 13 17 14 18 15 20 16 21 17 22 18 23 22 24 23 25
REMARK SMILES IDX 24 26 25 27 26 28 27 30 28 31 29 32 81 33 30 34 80 35 31 36
REMARK SMILES IDX 32 37 33 38 74 39 34 40 79 41 73 42 75 43 35 44 78 45 72 46
REMARK SMILES IDX 71 47 36 49 62 50 45 51 61 52 46 53 49 54 60 55 76 56 47 57
REMARK SMILES IDX 48 58 59 60 77 61 50 62 37 63 38 64 43 65 39 66 40 67 42 68
REMARK SMILES IDX 44 69 41 70 63 71 64 72 69 73 65 74 66 75 68 76 70 77 67 78
REMARK SMILES IDX 51 79 52 80 57 81 53 82 54 83 56 84 58 85 55 86
REMARK H PARENT 21 4 14 19 25 29 75 48 49 59
REMARK Flexibility Score: inf
ROOT
ATOM      1  O   UNL A   1      33.699  20.977  25.253  1.00  0.00    -0.275 OA
ATOM      2  C   UNL A   1      34.670  21.444  25.839  1.00  0.00     0.224 C 
ATOM      3  N   UNL A   1      35.956  20.960  25.698  1.00  0.00    -0.356 N 
ATOM      4  H   UNL A   1      36.699  21.453  26.114  1.00  0.00     0.163 HD
ENDROOT
BRANCH   2   5
ATOM      5  C   UNL A   1      34.562  22.604  26.816  1.00  0.00     0.135 C 
BRANCH   5   6
ATOM      6  C   UNL A   1      33.699  23.725  26.284  1.00  0.00    -0.039 A 
ATOM      7  C   UNL A   1      34.238  24.670  25.401  1.00  0.00     0.005 A 
ATOM      8  C   UNL A   1      32.349  23.837  26.653  1.00  0.00     0.005 A 
ATOM      9  C   UNL A   1      33.439  25.691  24.885  1.00  0.00     0.020 A 
ATOM     10  C   UNL A   1      31.548  24.865  26.149  1.00  0.00     0.020 A 
ATOM     11  C   UNL A   1      32.092  25.778  25.251  1.00  0.00     0.067 A 
BRANCH  11  12
ATOM     12  S   UNL A   1      31.117  27.098  24.580  1.00  0.00     0.187 S 
ATOM     13  O   UNL A   1      29.753  26.608  24.571  1.00  0.00    -0.223 OA
ATOM     14  O   UNL A   1      31.442  28.289  25.352  1.00  0.00    -0.223 OA
BRANCH  12  15
ATOM     15  C   UNL A   1      31.568  27.417  22.913  1.00  0.00     0.241 C 
BRANCH  15  16
ATOM     16  C   UNL A   1      32.046  28.808  22.654  1.00  0.00     0.235 C 
ATOM     17  O   UNL A   1      33.233  29.101  22.820  1.00  0.00    -0.274 OA
ATOM     18  N   UNL A   1      31.225  29.758  22.140  1.00  0.00    -0.355 N 
ATOM     19  H   UNL A   1      31.674  30.583  21.843  1.00  0.00     0.163 HD
BRANCH  18  20
ATOM     20  C   UNL A   1      29.789  29.744  21.962  1.00  0.00     0.119 C 
BRANCH  20  21
ATOM     21  C   UNL A   1      29.267  31.096  22.329  1.00  0.00     0.008 C 
ATOM     22  C   UNL A   1      27.807  31.428  22.154  1.00  0.00     0.006 C 
ATOM     23  C   UNL A   1      28.383  31.276  23.535  1.00  0.00     0.006 C 
ENDBRANCH  20  21
ENDBRANCH  18  20
ENDBRANCH  15  16
ENDBRANCH  12  15
ENDBRANCH  11  12
ENDBRANCH   5   6
ENDBRANCH   2   5
BRANCH   3  24
ATOM     24  C   UNL A   1      36.247  19.751  24.956  1.00  0.00     0.117 C 
BRANCH  24  25
ATOM     25  C   UNL A   1      37.724  19.616  24.609  1.00  0.00     0.042 C 
BRANCH  25  26
ATOM     26  C   UNL A   1      38.693  19.958  25.738  1.00  0.00     0.118 C 
BRANCH  26  27
ATOM     27  N   UNL A   1      39.908  19.161  25.728  1.00  0.00    -0.352 N 
ATOM     28  C   UNL A   1      41.197  19.521  26.036  1.00  0.00     0.251 C 
ATOM     29  H   UNL A   1      39.789  18.221  25.459  1.00  0.00     0.163 HD
ATOM     30  O   UNL A   1      42.110  18.720  25.845  1.00  0.00    -0.269 OA
BRANCH  28  31
ATOM     31  C   UNL A   1      41.513  20.869  26.568  1.00  0.00     0.039 A 
ATOM     32  C   UNL A   1      41.347  21.096  27.938  1.00  0.00     0.014 A 
ATOM     33  C   UNL A   1      41.920  21.918  25.739  1.00  0.00     0.014 A 
ATOM     34  C   UNL A   1      41.629  22.353  28.480  1.00  0.00     0.010 A 
ATOM     35  C   UNL A   1      42.274  23.151  26.290  1.00  0.00     0.010 A 
ATOM     36  C   UNL A   1      42.117  23.388  27.665  1.00  0.00    -0.014 A 
BRANCH  36  37
ATOM     37  C   UNL A   1      42.433  24.723  28.240  1.00  0.00     0.031 A 
ATOM     38  C   UNL A   1      43.838  25.056  28.667  1.00  0.00     0.074 A 
ATOM     39  C   UNL A   1      41.452  25.632  28.402  1.00  0.00     0.049 A 
ATOM     40  N   UNL A   1      44.305  26.166  29.182  1.00  0.00    -0.248 NA
ATOM     41  C   UNL A   1      44.846  23.994  28.521  1.00  0.00     0.031 C 
ATOM     42  C   UNL A   1      40.040  25.421  28.080  1.00  0.00     0.029 A 
ATOM     43  N   UNL A   1      41.496  26.918  28.878  1.00  0.00    -0.354 N 
ATOM     44  C   UNL A   1      45.652  25.933  29.429  1.00  0.00     0.074 A 
ATOM     45  C   UNL A   1      45.915  24.558  29.062  1.00  0.00     0.031 C 
ATOM     46  C   UNL A   1      39.358  26.549  28.339  1.00  0.00     0.029 A 
ATOM     47  C   UNL A   1      40.277  27.553  28.866  1.00  0.00     0.049 A 
ATOM     48  H   UNL A   1      42.323  27.346  29.199  1.00  0.00     0.167 HD
ATOM     49  C   UNL A   1      46.593  26.789  29.895  1.00  0.00     0.037 A 
ATOM     50  C   UNL A   1      39.940  28.805  29.228  1.00  0.00     0.037 A 
ATOM     51  C   UNL A   1      46.341  28.166  30.235  1.00  0.00     0.049 A 
ATOM     52  C   UNL A   1      41.007  29.747  29.714  1.00  0.00     0.074 A 
ATOM     53  C   UNL A   1      47.240  29.126  30.669  1.00  0.00     0.029 A 
ATOM     54  N   UNL A   1      45.100  28.779  30.174  1.00  0.00    -0.354 N 
ATOM     55  N   UNL A   1      42.290  29.531  29.878  1.00  0.00    -0.248 NA
ATOM     56  C   UNL A   1      40.581  31.113  30.048  1.00  0.00     0.031 C 
ATOM     57  C   UNL A   1      46.534  30.312  30.903  1.00  0.00     0.029 A 
ATOM     58  C   UNL A   1      45.206  30.103  30.571  1.00  0.00     0.049 A 
ATOM     59  H   UNL A   1      44.266  28.339  29.892  1.00  0.00     0.167 HD
ATOM     60  C   UNL A   1      42.828  30.740  30.298  1.00  0.00     0.074 A 
ATOM     61  C   UNL A   1      41.735  31.689  30.354  1.00  0.00     0.031 C 
ATOM     62  C   UNL A   1      44.113  31.039  30.608  1.00  0.00     0.037 A 
BRANCH  49  63
ATOM     63  C   UNL A   1      47.989  26.260  30.052  1.00  0.00     0.057 A 
ATOM     64  C   UNL A   1      48.477  25.821  31.290  1.00  0.00     0.134 A 
ATOM     65  C   UNL A   1      48.848  26.165  28.949  1.00  0.00     0.134 A 
ATOM     66  F   UNL A   1      47.711  25.898  32.389  1.00  0.00    -0.206 F 
ATOM     67  C   UNL A   1      49.777  25.332  31.432  1.00  0.00     0.040 A 
ATOM     68  C   UNL A   1      50.140  25.652  29.074  1.00  0.00     0.040 A 
ATOM     69  F   UNL A   1      48.443  26.561  27.733  1.00  0.00    -0.206 F 
ATOM     70  C   UNL A   1      50.611  25.242  30.319  1.00  0.00     0.006 A 
ENDBRANCH  49  63
BRANCH  50  71
ATOM     71  C   UNL A   1      38.534  29.262  29.100  1.00  0.00     0.057 A 
ATOM     72  C   UNL A   1      38.034  29.722  27.875  1.00  0.00     0.134 A 
ATOM     73  C   UNL A   1      37.664  29.267  30.195  1.00  0.00     0.134 A 
ATOM     74  F   UNL A   1      38.827  29.758  26.794  1.00  0.00    -0.206 F 
ATOM     75  C   UNL A   1      36.726  30.190  27.748  1.00  0.00     0.040 A 
ATOM     76  C   UNL A   1      36.345  29.710  30.077  1.00  0.00     0.040 A 
ATOM     77  F   UNL A   1      38.079  28.832  31.393  1.00  0.00    -0.206 F 
ATOM     78  C   UNL A   1      35.876  30.182  28.852  1.00  0.00     0.006 A 
ENDBRANCH  50  71
BRANCH  62  79
ATOM     79  C   UNL A   1      44.414  32.461  30.982  1.00  0.00     0.057 A 
ATOM     80  C   UNL A   1      44.395  32.901  32.313  1.00  0.00     0.134 A 
ATOM     81  C   UNL A   1      44.745  33.401  29.997  1.00  0.00     0.134 A 
ATOM     82  F   UNL A   1      44.074  32.055  33.304  1.00  0.00    -0.206 F 
ATOM     83  C   UNL A   1      44.662  34.230  32.646  1.00  0.00     0.040 A 
ATOM     84  C   UNL A   1      45.040  34.725  30.319  1.00  0.00     0.040 A 
ATOM     85  F   UNL A   1      44.791  33.043  28.704  1.00  0.00    -0.206 F 
ATOM     86  C   UNL A   1      44.991  35.145  31.647  1.00  0.00     0.006 A 
ENDBRANCH  62  79
ENDBRANCH  36  37
ENDBRANCH  28  31
ENDBRANCH  26  27
ENDBRANCH  25  26
ENDBRANCH  24  25
ENDBRANCH   3  24
TORSDOF 16
ENDMDL
MODEL 2
REMARK VINA RESULT:     -11.1      0.506      6.327
REMARK SMILES O=C(Cc1ccc(S(=O)(=O)CC(=O)NCC2CC2)cc1)NCCCNC(=O)c1ccc(-c2c3nc(c(-c4c(F)cccc4F)c4ccc([nH]4)c(-c4c(F)cccc4F)c4nc(c(-c5c(F)cccc5F)c5ccc2[nH]5)C=C4)C=C3)cc1
REMARK SMILES IDX 1 1 2 2 21 3 3 5 4 6 5 7 20 8 6 9 19 10 7 11 8 12 9 13 10 14
REMARK SMILES IDX 11 15 12 16 13 17 14 18 15 20 16 21 17 22 18 23 22 24 23 25
REMARK SMILES IDX 24 26 25 27 26 28 27 30 28 31 29 32 81 33 30 34 80 35 31 36
REMARK SMILES IDX 32 37 33 38 74 39 34 40 79 41 73 42 75 43 35 44 78 45 72 46
REMARK SMILES IDX 71 47 36 49 62 50 45 51 61 52 46 53 49 54 60 55 76 56 47 57
REMARK SMILES IDX 48 58 59 60 77 61 50 62 37 63 38 64 43 65 39 66 40 67 42 68
REMARK SMILES IDX 44 69 41 70 63 71 64 72 69 73 65 74 66 75 68 76 70 77 67 78
REMARK SMILES IDX 51 79 52 80 57 81 53 82 54 83 56 84 58 85 55 86
REMARK H PARENT 21 4 14 19 25 29 75 48 49 59
REMARK Flexibility Score: inf
ROOT
ATOM      1  O   UNL A   1      33.717  21.091  25.203  1.00  0.00    -0.275 OA
ATOM      2  C   UNL A   1      34.649  21.575  25.837  1.00  0.00     0.224 C 
ATOM      3  N   UNL A   1      35.953  21.133  25.738  1.00  0.00    -0.356 N 
ATOM      4  H   UNL A   1      36.664  21.639  26.194  1.00  0.00     0.163 HD
ENDROOT
BRANCH   2   5
ATOM      5  C   UNL A   1      34.466  22.710  26.832  1.00  0.00     0.135 C 
BRANCH   5   6
ATOM      6  C   UNL A   1      33.592  23.817  26.287  1.00  0.00    -0.039 A 
ATOM      7  C   UNL A   1      34.125  24.763  25.401  1.00  0.00     0.005 A 
ATOM      8  C   UNL A   1      32.238  23.913  26.646  1.00  0.00     0.005 A 
ATOM      9  C   UNL A   1      33.316  25.770  24.873  1.00  0.00     0.020 A 
ATOM     10  C   UNL A   1      31.427  24.926  26.130  1.00  0.00     0.020 A 
ATOM     11  C   UNL A   1      31.965  25.841  25.230  1.00  0.00     0.067 A 
BRANCH  11  12
ATOM     12  S   UNL A   1      30.977  27.145  24.545  1.00  0.00     0.187 S 
ATOM     13  O   UNL A   1      29.615  26.648  24.558  1.00  0.00    -0.223 OA
ATOM     14  O   UNL A   1      31.304  28.351  25.291  1.00  0.00    -0.223 OA
BRANCH  12  15
ATOM     15  C   UNL A   1      31.410  27.434  22.867  1.00  0.00     0.241 C 
BRANCH  15  16
ATOM     16  C   UNL A   1      31.954  28.798  22.594  1.00  0.00     0.235 C 
ATOM     17  O   UNL A   1      33.146  29.047  22.796  1.00  0.00    -0.274 OA
ATOM     18  N   UNL A   1      31.192  29.767  22.028  1.00  0.00    -0.355 N 
ATOM     19  H   UNL A   1      31.686  30.566  21.727  1.00  0.00     0.163 HD
BRANCH  18  20
ATOM     20  C   UNL A   1      29.764  29.807  21.796  1.00  0.00     0.119 C 
BRANCH  20  21
ATOM     21  C   UNL A   1      29.248  31.102  22.337  1.00  0.00     0.008 C 
ATOM     22  C   UNL A   1      27.843  31.201  22.877  1.00  0.00     0.006 C 
ATOM     23  C   UNL A   1      29.017  31.280  23.814  1.00  0.00     0.006 C 
ENDBRANCH  20  21
ENDBRANCH  18  20
ENDBRANCH  15  16
ENDBRANCH  12  15
ENDBRANCH  11  12
ENDBRANCH   5   6
ENDBRANCH   2   5
BRANCH   3  24
ATOM     24  C   UNL A   1      36.311  19.948  24.986  1.00  0.00     0.117 C 
BRANCH  24  25
ATOM     25  C   UNL A   1      37.792  19.903  24.630  1.00  0.00     0.042 C 
BRANCH  25  26
ATOM     26  C   UNL A   1      38.750  20.102  25.802  1.00  0.00     0.118 C 
BRANCH  26  27
ATOM     27  N   UNL A   1      39.925  19.249  25.748  1.00  0.00    -0.352 N 
ATOM     28  C   UNL A   1      41.235  19.540  26.042  1.00  0.00     0.251 C 
ATOM     29  H   UNL A   1      39.757  18.324  25.457  1.00  0.00     0.163 HD
ATOM     30  O   UNL A   1      42.106  18.703  25.813  1.00  0.00    -0.269 OA
BRANCH  28  31
ATOM     31  C   UNL A   1      41.624  20.856  26.604  1.00  0.00     0.039 A 
ATOM     32  C   UNL A   1      42.087  21.841  25.727  1.00  0.00     0.014 A 
ATOM     33  C   UNL A   1      41.585  21.118  27.977  1.00  0.00     0.014 A 
ATOM     34  C   UNL A   1      42.467  23.094  26.216  1.00  0.00     0.010 A 
ATOM     35  C   UNL A   1      41.892  22.393  28.456  1.00  0.00     0.010 A 
ATOM     36  C   UNL A   1      42.353  23.390  27.584  1.00  0.00    -0.014 A 
BRANCH  36  37
ATOM     37  C   UNL A   1      42.742  24.728  28.106  1.00  0.00     0.031 A 
ATOM     38  C   UNL A   1      41.700  25.792  28.328  1.00  0.00     0.074 A 
ATOM     39  C   UNL A   1      44.037  24.997  28.360  1.00  0.00     0.049 A 
ATOM     40  N   UNL A   1      41.847  27.012  28.782  1.00  0.00    -0.248 NA
ATOM     41  C   UNL A   1      40.315  25.450  27.970  1.00  0.00     0.031 C 
ATOM     42  C   UNL A   1      45.153  24.077  28.139  1.00  0.00     0.029 A 
ATOM     43  N   UNL A   1      44.633  26.127  28.861  1.00  0.00    -0.354 N 
ATOM     44  C   UNL A   1      40.581  27.583  28.754  1.00  0.00     0.074 A 
ATOM     45  C   UNL A   1      39.688  26.597  28.185  1.00  0.00     0.031 C 
ATOM     46  C   UNL A   1      46.294  24.667  28.532  1.00  0.00     0.029 A 
ATOM     47  C   UNL A   1      45.994  26.013  29.009  1.00  0.00     0.049 A 
ATOM     48  H   UNL A   1      44.132  26.943  29.093  1.00  0.00     0.167 HD
ATOM     49  C   UNL A   1      40.189  28.806  29.185  1.00  0.00     0.037 A 
ATOM     50  C   UNL A   1      46.898  26.890  29.486  1.00  0.00     0.037 A 
ATOM     51  C   UNL A   1      41.070  29.779  29.777  1.00  0.00     0.049 A 
ATOM     52  C   UNL A   1      46.435  28.231  29.986  1.00  0.00     0.074 A 
ATOM     53  C   UNL A   1      40.758  31.028  30.289  1.00  0.00     0.029 A 
ATOM     54  N   UNL A   1      42.436  29.611  29.941  1.00  0.00    -0.354 N 
ATOM     55  N   UNL A   1      45.223  28.731  30.014  1.00  0.00    -0.248 NA
ATOM     56  C   UNL A   1      47.465  29.123  30.537  1.00  0.00     0.031 C 
ATOM     57  C   UNL A   1      41.942  31.628  30.733  1.00  0.00     0.029 A 
ATOM     58  C   UNL A   1      42.983  30.735  30.539  1.00  0.00     0.049 A 
ATOM     59  H   UNL A   1      42.943  28.811  29.673  1.00  0.00     0.167 HD
ATOM     60  C   UNL A   1      45.340  29.976  30.618  1.00  0.00     0.074 A 
ATOM     61  C   UNL A   1      46.738  30.152  30.949  1.00  0.00     0.031 C 
ATOM     62  C   UNL A   1      44.374  30.892  30.876  1.00  0.00     0.037 A 
BRANCH  49  63
ATOM     63  C   UNL A   1      38.736  29.155  29.040  1.00  0.00     0.057 A 
ATOM     64  C   UNL A   1      38.192  29.556  27.813  1.00  0.00     0.134 A 
ATOM     65  C   UNL A   1      37.865  29.065  30.134  1.00  0.00     0.134 A 
ATOM     66  F   UNL A   1      38.974  29.676  26.729  1.00  0.00    -0.206 F 
ATOM     67  C   UNL A   1      36.841  29.882  27.683  1.00  0.00     0.040 A 
ATOM     68  C   UNL A   1      36.507  29.362  30.010  1.00  0.00     0.040 A 
ATOM     69  F   UNL A   1      38.318  28.681  31.336  1.00  0.00    -0.206 F 
ATOM     70  C   UNL A   1      35.992  29.780  28.784  1.00  0.00     0.006 A 
ENDBRANCH  49  63
BRANCH  50  71
ATOM     71  C   UNL A   1      48.332  26.513  29.561  1.00  0.00     0.057 A 
ATOM     72  C   UNL A   1      48.839  25.825  30.670  1.00  0.00     0.134 A 
ATOM     73  C   UNL A   1      49.229  26.843  28.539  1.00  0.00     0.134 A 
ATOM     74  F   UNL A   1      48.030  25.498  31.688  1.00  0.00    -0.206 F 
ATOM     75  C   UNL A   1      50.191  25.497  30.771  1.00  0.00     0.040 A 
ATOM     76  C   UNL A   1      50.580  26.501  28.616  1.00  0.00     0.040 A 
ATOM     77  F   UNL A   1      48.804  27.495  27.448  1.00  0.00    -0.206 F 
ATOM     78  C   UNL A   1      51.066  25.833  29.739  1.00  0.00     0.006 A 
ENDBRANCH  50  71
BRANCH  62  79
ATOM     79  C   UNL A   1      44.790  32.140  31.597  1.00  0.00     0.057 A 
ATOM     80  C   UNL A   1      45.197  33.294  30.914  1.00  0.00     0.134 A 
ATOM     81  C   UNL A   1      44.765  32.194  32.997  1.00  0.00     0.134 A 
ATOM     82  F   UNL A   1      45.255  33.306  29.574  1.00  0.00    -0.206 F 
ATOM     83  C   UNL A   1      45.596  34.444  31.598  1.00  0.00     0.040 A 
ATOM     84  C   UNL A   1      45.135  33.345  33.692  1.00  0.00     0.040 A 
ATOM     85  F   UNL A   1      44.376  31.127  33.712  1.00  0.00    -0.206 F 
ATOM     86  C   UNL A   1      45.561  34.472  32.991  1.00  0.00     0.006 A 
ENDBRANCH  62  79
ENDBRANCH  36  37
ENDBRANCH  28  31
ENDBRANCH  26  27
ENDBRANCH  25  26
ENDBRANCH  24  25
ENDBRANCH   3  24
TORSDOF 16
ENDMDL
MODEL 3
REMARK VINA RESULT:     -11.0      4.043      9.707
REMARK SMILES O=C(Cc1ccc(S(=O)(=O)CC(=O)NCC2CC2)cc1)NCCCNC(=O)c1ccc(-c2c3nc(c(-c4c(F)cccc4F)c4ccc([nH]4)c(-c4c(F)cccc4F)c4nc(c(-c5c(F)cccc5F)c5ccc2[nH]5)C=C4)C=C3)cc1
REMARK SMILES IDX 1 1 2 2 21 3 3 5 4 6 5 7 20 8 6 9 19 10 7 11 8 12 9 13 10 14
REMARK SMILES IDX 11 15 12 16 13 17 14 18 15 20 16 21 17 22 18 23 22 24 23 25
REMARK SMILES IDX 24 26 25 27 26 28 27 30 28 31 29 32 81 33 30 34 80 35 31 36
REMARK SMILES IDX 32 37 33 38 74 39 34 40 79 41 73 42 75 43 35 44 78 45 72 46
REMARK SMILES IDX 71 47 36 49 62 50 45 51 61 52 46 53 49 54 60 55 76 56 47 57
REMARK SMILES IDX 48 58 59 60 77 61 50 62 37 63 38 64 43 65 39 66 40 67 42 68
REMARK SMILES IDX 44 69 41 70 63 71 64 72 69 73 65 74 66 75 68 76 70 77 67 78
REMARK SMILES IDX 51 79 52 80 57 81 53 82 54 83 56 84 58 85 55 86
REMARK H PARENT 21 4 14 19 25 29 75 48 49 59
REMARK Flexibility Score: inf
ROOT
ATOM      1  O   UNL A   1      31.914  28.788  27.489  1.00  0.00    -0.275 OA
ATOM      2  C   UNL A   1      32.609  29.047  26.512  1.00  0.00     0.224 C 
ATOM      3  N   UNL A   1      32.356  30.093  25.647  1.00  0.00    -0.356 N 
ATOM      4  H   UNL A   1      33.017  30.305  24.949  1.00  0.00     0.163 HD
ENDROOT
BRANCH   2   5
ATOM      5  C   UNL A   1      33.827  28.221  26.126  1.00  0.00     0.135 C 
BRANCH   5   6
ATOM      6  C   UNL A   1      33.457  26.823  25.685  1.00  0.00    -0.039 A 
ATOM      7  C   UNL A   1      34.398  25.788  25.765  1.00  0.00     0.005 A 
ATOM      8  C   UNL A   1      32.172  26.533  25.201  1.00  0.00     0.005 A 
ATOM      9  C   UNL A   1      34.054  24.490  25.386  1.00  0.00     0.020 A 
ATOM     10  C   UNL A   1      31.826  25.238  24.808  1.00  0.00     0.020 A 
ATOM     11  C   UNL A   1      32.764  24.216  24.920  1.00  0.00     0.067 A 
BRANCH  11  12
ATOM     12  S   UNL A   1      32.374  22.555  24.438  1.00  0.00     0.187 S 
ATOM     13  O   UNL A   1      31.266  22.155  25.283  1.00  0.00    -0.223 OA
ATOM     14  O   UNL A   1      32.201  22.571  22.993  1.00  0.00    -0.223 OA
BRANCH  12  15
ATOM     15  C   UNL A   1      33.714  21.476  24.792  1.00  0.00     0.241 C 
BRANCH  15  16
ATOM     16  C   UNL A   1      33.575  20.714  26.069  1.00  0.00     0.235 C 
ATOM     17  O   UNL A   1      33.941  21.213  27.138  1.00  0.00    -0.274 OA
ATOM     18  N   UNL A   1      32.959  19.506  26.114  1.00  0.00    -0.355 N 
ATOM     19  H   UNL A   1      32.762  19.170  27.019  1.00  0.00     0.163 HD
BRANCH  18  20
ATOM     20  C   UNL A   1      32.546  18.636  25.033  1.00  0.00     0.119 C 
BRANCH  20  21
ATOM     21  C   UNL A   1      33.469  17.460  25.013  1.00  0.00     0.008 C 
ATOM     22  C   UNL A   1      33.474  16.509  23.843  1.00  0.00     0.006 C 
ATOM     23  C   UNL A   1      34.646  17.423  24.074  1.00  0.00     0.006 C 
ENDBRANCH  20  21
ENDBRANCH  18  20
ENDBRANCH  15  16
ENDBRANCH  12  15
ENDBRANCH  11  12
ENDBRANCH   5   6
ENDBRANCH   2   5
BRANCH   3  24
ATOM     24  C   UNL A   1      31.149  30.888  25.731  1.00  0.00     0.117 C 
BRANCH  24  25
ATOM     25  C   UNL A   1      31.228  31.966  26.805  1.00  0.00     0.042 C 
BRANCH  25  26
ATOM     26  C   UNL A   1      32.521  32.777  26.819  1.00  0.00     0.118 C 
BRANCH  26  27
ATOM     27  N   UNL A   1      32.395  34.065  27.478  1.00  0.00    -0.352 N 
ATOM     28  C   UNL A   1      33.110  34.587  28.530  1.00  0.00     0.251 C 
ATOM     29  H   UNL A   1      31.693  34.653  27.118  1.00  0.00     0.163 HD
ATOM     30  O   UNL A   1      32.763  35.659  29.023  1.00  0.00    -0.269 OA
BRANCH  28  31
ATOM     31  C   UNL A   1      34.275  33.869  29.099  1.00  0.00     0.039 A 
ATOM     32  C   UNL A   1      35.558  34.281  28.723  1.00  0.00     0.014 A 
ATOM     33  C   UNL A   1      34.127  32.773  29.955  1.00  0.00     0.014 A 
ATOM     34  C   UNL A   1      36.683  33.628  29.234  1.00  0.00     0.010 A 
ATOM     35  C   UNL A   1      35.249  32.169  30.523  1.00  0.00     0.010 A 
ATOM     36  C   UNL A   1      36.541  32.579  30.157  1.00  0.00    -0.014 A 
BRANCH  36  37
ATOM     37  C   UNL A   1      37.736  31.892  30.714  1.00  0.00     0.031 A 
ATOM     38  C   UNL A   1      38.231  32.223  32.097  1.00  0.00     0.074 A 
ATOM     39  C   UNL A   1      38.395  30.982  29.969  1.00  0.00     0.049 A 
ATOM     40  N   UNL A   1      39.249  31.725  32.753  1.00  0.00    -0.248 NA
ATOM     41  C   UNL A   1      37.502  33.270  32.830  1.00  0.00     0.031 C 
ATOM     42  C   UNL A   1      38.055  30.606  28.596  1.00  0.00     0.029 A 
ATOM     43  N   UNL A   1      39.489  30.209  30.265  1.00  0.00    -0.354 N 
ATOM     44  C   UNL A   1      39.288  32.403  33.966  1.00  0.00     0.074 A 
ATOM     45  C   UNL A   1      38.228  33.387  33.931  1.00  0.00     0.031 C 
ATOM     46  C   UNL A   1      38.904  29.652  28.180  1.00  0.00     0.029 A 
ATOM     47  C   UNL A   1      39.861  29.367  29.245  1.00  0.00     0.049 A 
ATOM     48  H   UNL A   1      39.964  30.254  31.126  1.00  0.00     0.167 HD
ATOM     49  C   UNL A   1      40.113  32.209  35.023  1.00  0.00     0.037 A 
ATOM     50  C   UNL A   1      40.853  28.458  29.179  1.00  0.00     0.037 A 
ATOM     51  C   UNL A   1      41.151  31.212  35.072  1.00  0.00     0.049 A 
ATOM     52  C   UNL A   1      41.737  28.241  30.376  1.00  0.00     0.074 A 
ATOM     53  C   UNL A   1      42.007  30.908  36.117  1.00  0.00     0.029 A 
ATOM     54  N   UNL A   1      41.471  30.355  34.031  1.00  0.00    -0.354 N 
ATOM     55  N   UNL A   1      41.718  28.844  31.540  1.00  0.00    -0.248 NA
ATOM     56  C   UNL A   1      42.770  27.203  30.255  1.00  0.00     0.031 C 
ATOM     57  C   UNL A   1      42.867  29.887  35.695  1.00  0.00     0.029 A 
ATOM     58  C   UNL A   1      42.517  29.527  34.405  1.00  0.00     0.049 A 
ATOM     59  H   UNL A   1      41.023  30.338  33.155  1.00  0.00     0.167 HD
ATOM     60  C   UNL A   1      42.707  28.234  32.300  1.00  0.00     0.074 A 
ATOM     61  C   UNL A   1      43.302  27.208  31.469  1.00  0.00     0.031 C 
ATOM     62  C   UNL A   1      43.089  28.500  33.574  1.00  0.00     0.037 A 
BRANCH  49  63
ATOM     63  C   UNL A   1      39.915  33.091  36.222  1.00  0.00     0.057 A 
ATOM     64  C   UNL A   1      40.577  34.319  36.353  1.00  0.00     0.134 A 
ATOM     65  C   UNL A   1      39.033  32.721  37.246  1.00  0.00     0.134 A 
ATOM     66  F   UNL A   1      41.446  34.726  35.414  1.00  0.00    -0.206 F 
ATOM     67  C   UNL A   1      40.392  35.134  37.471  1.00  0.00     0.040 A 
ATOM     68  C   UNL A   1      38.819  33.541  38.355  1.00  0.00     0.040 A 
ATOM     69  F   UNL A   1      38.361  31.562  37.181  1.00  0.00    -0.206 F 
ATOM     70  C   UNL A   1      39.505  34.748  38.474  1.00  0.00     0.006 A 
ENDBRANCH  49  63
BRANCH  50  71
ATOM     71  C   UNL A   1      41.037  27.647  27.950  1.00  0.00     0.057 A 
ATOM     72  C   UNL A   1      41.884  28.079  26.922  1.00  0.00     0.134 A 
ATOM     73  C   UNL A   1      40.361  26.436  27.765  1.00  0.00     0.134 A 
ATOM     74  F   UNL A   1      42.544  29.241  27.035  1.00  0.00    -0.206 F 
ATOM     75  C   UNL A   1      42.038  27.346  25.744  1.00  0.00     0.040 A 
ATOM     76  C   UNL A   1      40.524  25.681  26.602  1.00  0.00     0.040 A 
ATOM     77  F   UNL A   1      39.541  25.965  28.714  1.00  0.00    -0.206 F 
ATOM     78  C   UNL A   1      41.358  26.140  25.584  1.00  0.00     0.006 A 
ENDBRANCH  50  71
BRANCH  62  79
ATOM     79  C   UNL A   1      44.163  27.632  34.161  1.00  0.00     0.057 A 
ATOM     80  C   UNL A   1      45.519  27.977  34.093  1.00  0.00     0.134 A 
ATOM     81  C   UNL A   1      43.832  26.440  34.819  1.00  0.00     0.134 A 
ATOM     82  F   UNL A   1      45.905  29.099  33.467  1.00  0.00    -0.206 F 
ATOM     83  C   UNL A   1      46.510  27.153  34.631  1.00  0.00     0.040 A 
ATOM     84  C   UNL A   1      44.810  25.621  35.385  1.00  0.00     0.040 A 
ATOM     85  F   UNL A   1      42.551  26.056  34.928  1.00  0.00    -0.206 F 
ATOM     86  C   UNL A   1      46.155  25.974  35.284  1.00  0.00     0.006 A 
ENDBRANCH  62  79
ENDBRANCH  36  37
ENDBRANCH  28  31
ENDBRANCH  26  27
ENDBRANCH  25  26
ENDBRANCH  24  25
ENDBRANCH   3  24
TORSDOF 16
ENDMDL
