MODEL 1
REMARK VINA RESULT:     -10.7      0.000      0.000
REMARK SMILES CCOCCC(=O)Nc1cc(C(=O)NCCCNC(=O)c2ccc(-c3c4nc(c(-c5c(F)cccc5F)c5ccc([nH]5)c(-c5c(F)cccc5F)c5nc(c(-c6c(F)cccc6F)c6ccc3[nH]6)C=C5)C=C4)cc2)ccc1Cl
REMARK SMILES IDX 12 1 13 2 14 3 11 5 9 6 10 7 77 8 76 9 78 10 75 11 8 12 6 13
REMARK SMILES IDX 7 14 5 16 4 17 3 18 2 19 1 20 15 21 16 22 17 23 18 24 19 25
REMARK SMILES IDX 20 27 21 28 22 29 74 30 23 31 73 32 24 33 25 34 26 35 67 36
REMARK SMILES IDX 27 37 72 38 66 39 68 40 28 41 71 42 65 43 64 44 29 46 55 47
REMARK SMILES IDX 38 48 54 49 39 50 42 51 53 52 69 53 40 54 41 55 52 57 70 58
REMARK SMILES IDX 43 59 30 60 31 61 36 62 32 63 33 64 35 65 37 66 34 67 56 68
REMARK SMILES IDX 57 69 62 70 58 71 59 72 61 73 63 74 60 75 44 76 45 77 50 78
REMARK SMILES IDX 46 79 47 80 49 81 51 82 48 83
REMARK H PARENT 14 4 8 15 18 26 68 45 42 56
REMARK Flexibility Score: inf
ROOT
ATOM      1  C   UNL A   1      33.750  29.094  27.209  1.00  0.00     0.251 C 
ATOM      2  O   UNL A   1      34.843  28.977  27.753  1.00  0.00    -0.269 OA
ATOM      3  N   UNL A   1      33.043  30.265  27.329  1.00  0.00    -0.352 N 
ATOM      4  H   UNL A   1      33.516  30.989  27.799  1.00  0.00     0.163 HD
ENDROOT
BRANCH   1   5
ATOM      5  C   UNL A   1      33.152  27.947  26.501  1.00  0.00     0.041 A 
ATOM      6  C   UNL A   1      33.410  26.191  24.898  1.00  0.00     0.060 A 
ATOM      7  C   UNL A   1      33.849  27.398  25.424  1.00  0.00     0.041 A 
ATOM      8  C   UNL A   1      32.537  25.435  25.684  1.00  0.00     0.064 A 
ATOM      9  C   UNL A   1      31.690  26.060  26.586  1.00  0.00     0.023 A 
ATOM     10  Cl  UNL A   1      32.891  23.787  26.075  1.00  0.00    -0.082 Cl
ATOM     11  C   UNL A   1      31.945  27.377  26.917  1.00  0.00     0.015 A 
BRANCH   6  12
ATOM     12  N   UNL A   1      33.745  25.948  23.551  1.00  0.00    -0.325 N 
ATOM     13  C   UNL A   1      32.993  26.090  22.414  1.00  0.00     0.226 C 
ATOM     14  O   UNL A   1      33.565  25.969  21.325  1.00  0.00    -0.275 OA
ATOM     15  H   UNL A   1      34.663  25.625  23.403  1.00  0.00     0.169 HD
BRANCH  13  16
ATOM     16  C   UNL A   1      31.525  26.426  22.454  1.00  0.00     0.129 C 
BRANCH  16  17
ATOM     17  C   UNL A   1      31.247  27.924  22.425  1.00  0.00     0.170 C 
BRANCH  17  18
ATOM     18  O   UNL A   1      30.002  28.349  21.889  1.00  0.00    -0.381 OA
BRANCH  18  19
ATOM     19  C   UNL A   1      29.566  29.647  22.285  1.00  0.00     0.156 C 
ATOM     20  C   UNL A   1      30.019  29.889  23.706  1.00  0.00     0.035 C 
ENDBRANCH  18  19
ENDBRANCH  17  18
ENDBRANCH  16  17
ENDBRANCH  13  16
ENDBRANCH   6  12
ENDBRANCH   1   5
BRANCH   3  21
ATOM     21  C   UNL A   1      31.701  30.606  26.867  1.00  0.00     0.118 C 
BRANCH  21  22
ATOM     22  C   UNL A   1      31.409  32.090  26.878  1.00  0.00     0.042 C 
BRANCH  22  23
ATOM     23  C   UNL A   1      32.651  32.952  26.839  1.00  0.00     0.118 C 
BRANCH  23  24
ATOM     24  N   UNL A   1      32.498  34.188  27.598  1.00  0.00    -0.352 N 
ATOM     25  C   UNL A   1      33.142  34.613  28.733  1.00  0.00     0.251 C 
ATOM     26  H   UNL A   1      31.829  34.816  27.241  1.00  0.00     0.163 HD
ATOM     27  O   UNL A   1      32.707  35.579  29.360  1.00  0.00    -0.269 OA
BRANCH  25  28
ATOM     28  C   UNL A   1      34.341  33.898  29.210  1.00  0.00     0.039 A 
ATOM     29  C   UNL A   1      35.608  34.416  28.935  1.00  0.00     0.014 A 
ATOM     30  C   UNL A   1      34.212  32.716  29.939  1.00  0.00     0.014 A 
ATOM     31  C   UNL A   1      36.737  33.788  29.463  1.00  0.00     0.010 A 
ATOM     32  C   UNL A   1      35.317  32.173  30.573  1.00  0.00     0.010 A 
ATOM     33  C   UNL A   1      36.595  32.687  30.325  1.00  0.00    -0.014 A 
BRANCH  33  34
ATOM     34  C   UNL A   1      37.765  32.032  30.958  1.00  0.00     0.031 A 
ATOM     35  C   UNL A   1      38.500  30.944  30.221  1.00  0.00     0.074 A 
ATOM     36  C   UNL A   1      38.112  32.358  32.217  1.00  0.00     0.049 A 
ATOM     37  N   UNL A   1      39.483  30.186  30.631  1.00  0.00    -0.248 NA
ATOM     38  C   UNL A   1      38.041  30.640  28.853  1.00  0.00     0.031 C 
ATOM     39  C   UNL A   1      37.437  33.352  33.055  1.00  0.00     0.029 A 
ATOM     40  N   UNL A   1      39.116  31.878  33.019  1.00  0.00    -0.354 N 
ATOM     41  C   UNL A   1      39.742  29.309  29.585  1.00  0.00     0.074 A 
ATOM     42  C   UNL A   1      38.768  29.577  28.552  1.00  0.00     0.031 C 
ATOM     43  C   UNL A   1      38.066  33.432  34.237  1.00  0.00     0.029 A 
ATOM     44  C   UNL A   1      39.157  32.464  34.261  1.00  0.00     0.049 A 
ATOM     45  H   UNL A   1      39.748  31.180  32.733  1.00  0.00     0.167 HD
ATOM     46  C   UNL A   1      40.724  28.383  29.481  1.00  0.00     0.037 A 
ATOM     47  C   UNL A   1      39.979  32.239  35.303  1.00  0.00     0.037 A 
ATOM     48  C   UNL A   1      41.709  28.145  30.502  1.00  0.00     0.049 A 
ATOM     49  C   UNL A   1      41.061  31.205  35.164  1.00  0.00     0.074 A 
ATOM     50  C   UNL A   1      42.787  27.278  30.474  1.00  0.00     0.029 A 
ATOM     51  N   UNL A   1      41.732  28.776  31.736  1.00  0.00    -0.354 N 
ATOM     52  N   UNL A   1      41.344  30.435  34.140  1.00  0.00    -0.248 NA
ATOM     53  C   UNL A   1      41.946  31.013  36.321  1.00  0.00     0.031 C 
ATOM     54  C   UNL A   1      43.432  27.346  31.712  1.00  0.00     0.029 A 
ATOM     55  C   UNL A   1      42.792  28.300  32.490  1.00  0.00     0.049 A 
ATOM     56  H   UNL A   1      41.091  29.462  32.033  1.00  0.00     0.167 HD
ATOM     57  C   UNL A   1      42.454  29.691  34.518  1.00  0.00     0.074 A 
ATOM     58  C   UNL A   1      42.802  30.114  35.859  1.00  0.00     0.031 C 
ATOM     59  C   UNL A   1      43.125  28.742  33.820  1.00  0.00     0.037 A 
BRANCH  46  60
ATOM     60  C   UNL A   1      40.783  27.570  28.219  1.00  0.00     0.057 A 
ATOM     61  C   UNL A   1      41.528  27.981  27.104  1.00  0.00     0.134 A 
ATOM     62  C   UNL A   1      40.104  26.349  28.123  1.00  0.00     0.134 A 
ATOM     63  F   UNL A   1      42.190  29.148  27.122  1.00  0.00    -0.206 F 
ATOM     64  C   UNL A   1      41.572  27.223  25.933  1.00  0.00     0.040 A 
ATOM     65  C   UNL A   1      40.167  25.566  26.968  1.00  0.00     0.040 A 
ATOM     66  F   UNL A   1      39.374  25.891  29.152  1.00  0.00    -0.206 F 
ATOM     67  C   UNL A   1      40.895  26.007  25.866  1.00  0.00     0.006 A 
ENDBRANCH  46  60
BRANCH  47  68
ATOM     68  C   UNL A   1      39.826  33.022  36.557  1.00  0.00     0.057 A 
ATOM     69  C   UNL A   1      38.916  32.629  37.546  1.00  0.00     0.134 A 
ATOM     70  C   UNL A   1      40.576  34.179  36.795  1.00  0.00     0.134 A 
ATOM     71  F   UNL A   1      38.157  31.538  37.370  1.00  0.00    -0.206 F 
ATOM     72  C   UNL A   1      38.739  33.372  38.714  1.00  0.00     0.040 A 
ATOM     73  C   UNL A   1      40.431  34.916  37.972  1.00  0.00     0.040 A 
ATOM     74  F   UNL A   1      41.474  34.602  35.893  1.00  0.00    -0.206 F 
ATOM     75  C   UNL A   1      39.503  34.518  38.932  1.00  0.00     0.006 A 
ENDBRANCH  47  68
BRANCH  59  76
ATOM     76  C   UNL A   1      44.327  28.128  34.476  1.00  0.00     0.057 A 
ATOM     77  C   UNL A   1      45.603  28.697  34.369  1.00  0.00     0.134 A 
ATOM     78  C   UNL A   1      44.197  26.974  35.260  1.00  0.00     0.134 A 
ATOM     79  F   UNL A   1      45.797  29.796  33.624  1.00  0.00    -0.206 F 
ATOM     80  C   UNL A   1      46.709  28.125  34.998  1.00  0.00     0.040 A 
ATOM     81  C   UNL A   1      45.290  26.412  35.919  1.00  0.00     0.040 A 
ATOM     82  F   UNL A   1      43.001  26.386  35.414  1.00  0.00    -0.206 F 
ATOM     83  C   UNL A   1      46.552  26.984  35.782  1.00  0.00     0.006 A 
ENDBRANCH  59  76
ENDBRANCH  33  34
ENDBRANCH  25  28
ENDBRANCH  23  24
ENDBRANCH  22  23
ENDBRANCH  21  22
ENDBRANCH   3  21
TORSDOF 15
ENDMDL
MODEL 2
REMARK VINA RESULT:     -10.7      1.771      2.754
REMARK SMILES CCOCCC(=O)Nc1cc(C(=O)NCCCNC(=O)c2ccc(-c3c4nc(c(-c5c(F)cccc5F)c5ccc([nH]5)c(-c5c(F)cccc5F)c5nc(c(-c6c(F)cccc6F)c6ccc3[nH]6)C=C5)C=C4)cc2)ccc1Cl
REMARK SMILES IDX 12 1 13 2 14 3 11 5 9 6 10 7 77 8 76 9 78 10 75 11 8 12 6 13
REMARK SMILES IDX 7 14 5 16 4 17 3 18 2 19 1 20 15 21 16 22 17 23 18 24 19 25
REMARK SMILES IDX 20 27 21 28 22 29 74 30 23 31 73 32 24 33 25 34 26 35 67 36
REMARK SMILES IDX 27 37 72 38 66 39 68 40 28 41 71 42 65 43 64 44 29 46 55 47
REMARK SMILES IDX 38 48 54 49 39 50 42 51 53 52 69 53 40 54 41 55 52 57 70 58
REMARK SMILES IDX 43 59 30 60 31 61 36 62 32 63 33 64 35 65 37 66 34 67 56 68
REMARK SMILES IDX 57 69 62 70 58 71 59 72 61 73 63 74 60 75 44 76 45 77 50 78
REMARK SMILES IDX 46 79 47 80 49 81 51 82 48 83
REMARK H PARENT 14 4 8 15 18 26 68 45 42 56
REMARK Flexibility Score: inf
ROOT
ATOM      1  C   UNL A   1      33.350  28.530  26.249  1.00  0.00     0.251 C 
ATOM      2  O   UNL A   1      34.411  28.184  26.761  1.00  0.00    -0.269 OA
ATOM      3  N   UNL A   1      32.951  29.842  26.312  1.00  0.00    -0.352 N 
ATOM      4  H   UNL A   1      33.606  30.457  26.713  1.00  0.00     0.163 HD
ENDROOT
BRANCH   1   5
ATOM      5  C   UNL A   1      32.461  27.521  25.646  1.00  0.00     0.041 A 
ATOM      6  C   UNL A   1      30.554  26.096  25.876  1.00  0.00     0.060 A 
ATOM      7  C   UNL A   1      31.538  26.875  26.469  1.00  0.00     0.041 A 
ATOM      8  C   UNL A   1      30.329  26.286  24.510  1.00  0.00     0.064 A 
ATOM      9  C   UNL A   1      31.359  26.714  23.686  1.00  0.00     0.023 A 
ATOM     10  Cl  UNL A   1      28.747  26.650  23.910  1.00  0.00    -0.082 Cl
ATOM     11  C   UNL A   1      32.491  27.244  24.275  1.00  0.00     0.015 A 
BRANCH   6  12
ATOM     12  N   UNL A   1      30.018  25.066  26.676  1.00  0.00    -0.325 N 
ATOM     13  C   UNL A   1      30.192  23.709  26.602  1.00  0.00     0.226 C 
ATOM     14  O   UNL A   1      29.743  23.019  27.523  1.00  0.00    -0.275 OA
ATOM     15  H   UNL A   1      29.426  25.370  27.401  1.00  0.00     0.169 HD
BRANCH  13  16
ATOM     16  C   UNL A   1      30.937  23.051  25.469  1.00  0.00     0.129 C 
BRANCH  16  17
ATOM     17  C   UNL A   1      32.238  22.388  25.908  1.00  0.00     0.170 C 
BRANCH  17  18
ATOM     18  O   UNL A   1      33.446  22.884  25.349  1.00  0.00    -0.381 OA
BRANCH  18  19
ATOM     19  C   UNL A   1      34.248  23.685  26.213  1.00  0.00     0.156 C 
ATOM     20  C   UNL A   1      34.973  24.713  25.376  1.00  0.00     0.035 C 
ENDBRANCH  18  19
ENDBRANCH  17  18
ENDBRANCH  16  17
ENDBRANCH  13  16
ENDBRANCH   6  12
ENDBRANCH   1   5
BRANCH   3  21
ATOM     21  C   UNL A   1      31.707  30.468  25.876  1.00  0.00     0.118 C 
BRANCH  21  22
ATOM     22  C   UNL A   1      31.396  31.768  26.583  1.00  0.00     0.042 C 
BRANCH  22  23
ATOM     23  C   UNL A   1      32.600  32.401  27.243  1.00  0.00     0.118 C 
BRANCH  23  24
ATOM     24  N   UNL A   1      32.408  33.822  27.512  1.00  0.00    -0.352 N 
ATOM     25  C   UNL A   1      33.030  34.641  28.420  1.00  0.00     0.251 C 
ATOM     26  H   UNL A   1      31.726  34.262  26.955  1.00  0.00     0.163 HD
ATOM     27  O   UNL A   1      32.564  35.755  28.663  1.00  0.00    -0.269 OA
BRANCH  25  28
ATOM     28  C   UNL A   1      34.243  34.177  29.119  1.00  0.00     0.039 A 
ATOM     29  C   UNL A   1      34.121  33.444  30.301  1.00  0.00     0.014 A 
ATOM     30  C   UNL A   1      35.506  34.460  28.599  1.00  0.00     0.014 A 
ATOM     31  C   UNL A   1      35.265  32.929  30.912  1.00  0.00     0.010 A 
ATOM     32  C   UNL A   1      36.625  33.837  29.128  1.00  0.00     0.010 A 
ATOM     33  C   UNL A   1      36.522  33.084  30.303  1.00  0.00    -0.014 A 
BRANCH  33  34
ATOM     34  C   UNL A   1      37.752  32.497  30.887  1.00  0.00     0.031 A 
ATOM     35  C   UNL A   1      38.363  31.271  30.261  1.00  0.00     0.074 A 
ATOM     36  C   UNL A   1      38.268  33.014  32.018  1.00  0.00     0.049 A 
ATOM     37  N   UNL A   1      39.377  30.552  30.667  1.00  0.00    -0.248 NA
ATOM     38  C   UNL A   1      37.723  30.761  29.035  1.00  0.00     0.031 C 
ATOM     39  C   UNL A   1      37.727  34.162  32.751  1.00  0.00     0.029 A 
ATOM     40  N   UNL A   1      39.358  32.635  32.757  1.00  0.00    -0.354 N 
ATOM     41  C   UNL A   1      39.480  29.502  29.764  1.00  0.00     0.074 A 
ATOM     42  C   UNL A   1      38.385  29.634  28.831  1.00  0.00     0.031 C 
ATOM     43  C   UNL A   1      38.507  34.412  33.813  1.00  0.00     0.029 A 
ATOM     44  C   UNL A   1      39.573  33.419  33.865  1.00  0.00     0.049 A 
ATOM     45  H   UNL A   1      39.934  31.873  32.517  1.00  0.00     0.167 HD
ATOM     46  C   UNL A   1      40.422  28.533  29.697  1.00  0.00     0.037 A 
ATOM     47  C   UNL A   1      40.520  33.337  34.819  1.00  0.00     0.037 A 
ATOM     48  C   UNL A   1      41.528  28.429  30.612  1.00  0.00     0.049 A 
ATOM     49  C   UNL A   1      41.555  32.251  34.724  1.00  0.00     0.074 A 
ATOM     50  C   UNL A   1      42.576  27.526  30.597  1.00  0.00     0.029 A 
ATOM     51  N   UNL A   1      41.724  29.256  31.706  1.00  0.00    -0.354 N 
ATOM     52  N   UNL A   1      41.686  31.309  33.819  1.00  0.00    -0.248 NA
ATOM     53  C   UNL A   1      42.580  32.220  35.775  1.00  0.00     0.031 C 
ATOM     54  C   UNL A   1      43.378  27.774  31.715  1.00  0.00     0.029 A 
ATOM     55  C   UNL A   1      42.865  28.870  32.391  1.00  0.00     0.049 A 
ATOM     56  H   UNL A   1      41.141  30.008  31.959  1.00  0.00     0.167 HD
ATOM     57  C   UNL A   1      42.822  30.594  34.177  1.00  0.00     0.074 A 
ATOM     58  C   UNL A   1      43.350  31.221  35.371  1.00  0.00     0.031 C 
ATOM     59  C   UNL A   1      43.377  29.515  33.573  1.00  0.00     0.037 A 
BRANCH  46  60
ATOM     60  C   UNL A   1      40.299  27.517  28.597  1.00  0.00     0.057 A 
ATOM     61  C   UNL A   1      40.945  27.679  27.362  1.00  0.00     0.134 A 
ATOM     62  C   UNL A   1      39.545  26.352  28.779  1.00  0.00     0.134 A 
ATOM     63  F   UNL A   1      41.671  28.780  27.113  1.00  0.00    -0.206 F 
ATOM     64  C   UNL A   1      40.820  26.735  26.342  1.00  0.00     0.040 A 
ATOM     65  C   UNL A   1      39.439  25.385  27.778  1.00  0.00     0.040 A 
ATOM     66  F   UNL A   1      38.903  26.130  29.936  1.00  0.00    -0.206 F 
ATOM     67  C   UNL A   1      40.071  25.579  26.552  1.00  0.00     0.006 A 
ENDBRANCH  46  60
BRANCH  47  68
ATOM     68  C   UNL A   1      40.548  34.325  35.928  1.00  0.00     0.057 A 
ATOM     69  C   UNL A   1      39.880  34.075  37.133  1.00  0.00     0.134 A 
ATOM     70  C   UNL A   1      41.233  35.540  35.812  1.00  0.00     0.134 A 
ATOM     71  F   UNL A   1      39.193  32.936  37.301  1.00  0.00    -0.206 F 
ATOM     72  C   UNL A   1      39.871  35.007  38.172  1.00  0.00     0.040 A 
ATOM     73  C   UNL A   1      41.257  36.469  36.854  1.00  0.00     0.040 A 
ATOM     74  F   UNL A   1      41.903  35.835  34.689  1.00  0.00    -0.206 F 
ATOM     75  C   UNL A   1      40.566  36.207  38.036  1.00  0.00     0.006 A 
ENDBRANCH  47  68
BRANCH  59  76
ATOM     76  C   UNL A   1      44.643  28.971  34.168  1.00  0.00     0.057 A 
ATOM     77  C   UNL A   1      44.634  27.941  35.118  1.00  0.00     0.134 A 
ATOM     78  C   UNL A   1      45.889  29.458  33.754  1.00  0.00     0.134 A 
ATOM     79  F   UNL A   1      43.473  27.439  35.566  1.00  0.00    -0.206 F 
ATOM     80  C   UNL A   1      45.820  27.433  35.651  1.00  0.00     0.040 A 
ATOM     81  C   UNL A   1      47.081  28.936  34.256  1.00  0.00     0.040 A 
ATOM     82  F   UNL A   1      45.969  30.436  32.839  1.00  0.00    -0.206 F 
ATOM     83  C   UNL A   1      47.047  27.926  35.214  1.00  0.00     0.006 A 
ENDBRANCH  59  76
ENDBRANCH  33  34
ENDBRANCH  25  28
ENDBRANCH  23  24
ENDBRANCH  22  23
ENDBRANCH  21  22
ENDBRANCH   3  21
TORSDOF 15
ENDMDL
MODEL 3
REMARK VINA RESULT:     -10.7      1.641      6.814
REMARK SMILES CCOCCC(=O)Nc1cc(C(=O)NCCCNC(=O)c2ccc(-c3c4nc(c(-c5c(F)cccc5F)c5ccc([nH]5)c(-c5c(F)cccc5F)c5nc(c(-c6c(F)cccc6F)c6ccc3[nH]6)C=C5)C=C4)cc2)ccc1Cl
REMARK SMILES IDX 12 1 13 2 14 3 11 5 9 6 10 7 77 8 76 9 78 10 75 11 8 12 6 13
REMARK SMILES IDX 7 14 5 16 4 17 3 18 2 19 1 20 15 21 16 22 17 23 18 24 19 25
REMARK SMILES IDX 20 27 21 28 22 29 74 30 23 31 73 32 24 33 25 34 26 35 67 36
REMARK SMILES IDX 27 37 72 38 66 39 68 40 28 41 71 42 65 43 64 44 29 46 55 47
REMARK SMILES IDX 38 48 54 49 39 50 42 51 53 52 69 53 40 54 41 55 52 57 70 58
REMARK SMILES IDX 43 59 30 60 31 61 36 62 32 63 33 64 35 65 37 66 34 67 56 68
REMARK SMILES IDX 57 69 62 70 58 71 59 72 61 73 63 74 60 75 44 76 45 77 50 78
REMARK SMILES IDX 46 79 47 80 49 81 51 82 48 83
REMARK H PARENT 14 4 8 15 18 26 68 45 42 56
REMARK Flexibility Score: inf
ROOT
ATOM      1  C   UNL A   1      33.196  28.763  25.648  1.00  0.00     0.251 C 
ATOM      2  O   UNL A   1      34.357  28.457  25.900  1.00  0.00    -0.269 OA
ATOM      3  N   UNL A   1      32.750  30.037  25.896  1.00  0.00    -0.352 N 
ATOM      4  H   UNL A   1      33.442  30.668  26.200  1.00  0.00     0.163 HD
ENDROOT
BRANCH   1   5
ATOM      5  C   UNL A   1      32.253  27.737  25.164  1.00  0.00     0.041 A 
ATOM      6  C   UNL A   1      30.408  26.291  25.634  1.00  0.00     0.060 A 
ATOM      7  C   UNL A   1      31.445  27.088  26.097  1.00  0.00     0.041 A 
ATOM      8  C   UNL A   1      30.016  26.467  24.304  1.00  0.00     0.064 A 
ATOM      9  C   UNL A   1      30.933  26.899  23.358  1.00  0.00     0.023 A 
ATOM     10  Cl  UNL A   1      28.369  26.806  23.897  1.00  0.00    -0.082 Cl
ATOM     11  C   UNL A   1      32.121  27.449  23.802  1.00  0.00     0.015 A 
BRANCH   6  12
ATOM     12  N   UNL A   1      29.986  25.262  26.500  1.00  0.00    -0.325 N 
ATOM     13  C   UNL A   1      30.278  23.924  26.489  1.00  0.00     0.226 C 
ATOM     14  O   UNL A   1      29.916  23.246  27.457  1.00  0.00    -0.275 OA
ATOM     15  H   UNL A   1      29.388  25.551  27.227  1.00  0.00     0.169 HD
BRANCH  13  16
ATOM     16  C   UNL A   1      31.049  23.274  25.369  1.00  0.00     0.129 C 
BRANCH  16  17
ATOM     17  C   UNL A   1      32.106  22.291  25.855  1.00  0.00     0.170 C 
BRANCH  17  18
ATOM     18  O   UNL A   1      33.464  22.703  25.786  1.00  0.00    -0.381 OA
BRANCH  18  19
ATOM     19  C   UNL A   1      33.779  23.635  24.754  1.00  0.00     0.156 C 
ATOM     20  C   UNL A   1      34.433  24.842  25.385  1.00  0.00     0.035 C 
ENDBRANCH  18  19
ENDBRANCH  17  18
ENDBRANCH  16  17
ENDBRANCH  13  16
ENDBRANCH   6  12
ENDBRANCH   1   5
BRANCH   3  21
ATOM     21  C   UNL A   1      31.411  30.604  25.778  1.00  0.00     0.118 C 
BRANCH  21  22
ATOM     22  C   UNL A   1      31.260  31.959  26.434  1.00  0.00     0.042 C 
BRANCH  22  23
ATOM     23  C   UNL A   1      32.505  32.424  27.155  1.00  0.00     0.118 C 
BRANCH  23  24
ATOM     24  N   UNL A   1      32.459  33.842  27.494  1.00  0.00    -0.352 N 
ATOM     25  C   UNL A   1      33.135  34.541  28.462  1.00  0.00     0.251 C 
ATOM     26  H   UNL A   1      31.847  34.382  26.943  1.00  0.00     0.163 HD
ATOM     27  O   UNL A   1      32.784  35.686  28.750  1.00  0.00    -0.269 OA
BRANCH  25  28
ATOM     28  C   UNL A   1      34.267  33.913  29.168  1.00  0.00     0.039 A 
ATOM     29  C   UNL A   1      34.019  33.044  30.233  1.00  0.00     0.014 A 
ATOM     30  C   UNL A   1      35.578  34.175  28.770  1.00  0.00     0.014 A 
ATOM     31  C   UNL A   1      35.086  32.382  30.842  1.00  0.00     0.010 A 
ATOM     32  C   UNL A   1      36.618  33.417  29.281  1.00  0.00     0.010 A 
ATOM     33  C   UNL A   1      36.390  32.529  30.339  1.00  0.00    -0.014 A 
BRANCH  33  34
ATOM     34  C   UNL A   1      37.540  31.792  30.916  1.00  0.00     0.031 A 
ATOM     35  C   UNL A   1      38.032  32.141  32.296  1.00  0.00     0.074 A 
ATOM     36  C   UNL A   1      38.185  30.874  30.173  1.00  0.00     0.049 A 
ATOM     37  N   UNL A   1      39.073  31.684  32.942  1.00  0.00    -0.248 NA
ATOM     38  C   UNL A   1      37.276  33.170  33.032  1.00  0.00     0.031 C 
ATOM     39  C   UNL A   1      37.840  30.496  28.800  1.00  0.00     0.029 A 
ATOM     40  N   UNL A   1      39.277  30.097  30.463  1.00  0.00    -0.354 N 
ATOM     41  C   UNL A   1      39.106  32.382  34.142  1.00  0.00     0.074 A 
ATOM     42  C   UNL A   1      38.027  33.343  34.107  1.00  0.00     0.031 C 
ATOM     43  C   UNL A   1      38.680  29.538  28.382  1.00  0.00     0.029 A 
ATOM     44  C   UNL A   1      39.652  29.266  29.435  1.00  0.00     0.049 A 
ATOM     45  H   UNL A   1      39.749  30.132  31.326  1.00  0.00     0.167 HD
ATOM     46  C   UNL A   1      39.940  32.217  35.195  1.00  0.00     0.037 A 
ATOM     47  C   UNL A   1      40.670  28.390  29.352  1.00  0.00     0.037 A 
ATOM     48  C   UNL A   1      40.991  31.235  35.235  1.00  0.00     0.049 A 
ATOM     49  C   UNL A   1      41.584  28.223  30.534  1.00  0.00     0.074 A 
ATOM     50  C   UNL A   1      41.852  30.937  36.276  1.00  0.00     0.029 A 
ATOM     51  N   UNL A   1      41.323  30.395  34.184  1.00  0.00    -0.354 N 
ATOM     52  N   UNL A   1      41.557  28.836  31.694  1.00  0.00    -0.248 NA
ATOM     53  C   UNL A   1      42.665  27.238  30.401  1.00  0.00     0.031 C 
ATOM     54  C   UNL A   1      42.741  29.951  35.835  1.00  0.00     0.029 A 
ATOM     55  C   UNL A   1      42.395  29.593  34.541  1.00  0.00     0.049 A 
ATOM     56  H   UNL A   1      40.865  30.370  33.313  1.00  0.00     0.167 HD
ATOM     57  C   UNL A   1      42.596  28.291  32.437  1.00  0.00     0.074 A 
ATOM     58  C   UNL A   1      43.223  27.287  31.602  1.00  0.00     0.031 C 
ATOM     59  C   UNL A   1      42.997  28.593  33.696  1.00  0.00     0.037 A 
BRANCH  46  60
ATOM     60  C   UNL A   1      39.742  33.109  36.387  1.00  0.00     0.057 A 
ATOM     61  C   UNL A   1      38.854  32.780  37.422  1.00  0.00     0.134 A 
ATOM     62  C   UNL A   1      40.464  34.302  36.515  1.00  0.00     0.134 A 
ATOM     63  F   UNL A   1      38.119  31.660  37.357  1.00  0.00    -0.206 F 
ATOM     64  C   UNL A   1      38.671  33.618  38.523  1.00  0.00     0.040 A 
ATOM     65  C   UNL A   1      40.313  35.133  37.628  1.00  0.00     0.040 A 
ATOM     66  F   UNL A   1      41.334  34.678  35.565  1.00  0.00    -0.206 F 
ATOM     67  C   UNL A   1      39.408  34.796  38.631  1.00  0.00     0.006 A 
ENDBRANCH  46  60
BRANCH  47  68
ATOM     68  C   UNL A   1      40.864  27.587  28.117  1.00  0.00     0.057 A 
ATOM     69  C   UNL A   1      41.619  28.080  27.046  1.00  0.00     0.134 A 
ATOM     70  C   UNL A   1      40.298  26.314  27.973  1.00  0.00     0.134 A 
ATOM     71  F   UNL A   1      42.175  29.299  27.117  1.00  0.00    -0.206 F 
ATOM     72  C   UNL A   1      41.783  27.350  25.868  1.00  0.00     0.040 A 
ATOM     73  C   UNL A   1      40.478  25.561  26.812  1.00  0.00     0.040 A 
ATOM     74  F   UNL A   1      39.574  25.779  28.966  1.00  0.00    -0.206 F 
ATOM     75  C   UNL A   1      41.215  26.083  25.750  1.00  0.00     0.006 A 
ENDBRANCH  47  68
BRANCH  59  76
ATOM     76  C   UNL A   1      44.139  27.801  34.262  1.00  0.00     0.057 A 
ATOM     77  C   UNL A   1      45.462  28.256  34.197  1.00  0.00     0.134 A 
ATOM     78  C   UNL A   1      43.904  26.585  34.918  1.00  0.00     0.134 A 
ATOM     79  F   UNL A   1      45.756  29.407  33.573  1.00  0.00    -0.206 F 
ATOM     80  C   UNL A   1      46.513  27.517  34.743  1.00  0.00     0.040 A 
ATOM     81  C   UNL A   1      44.942  25.854  35.494  1.00  0.00     0.040 A 
ATOM     82  F   UNL A   1      42.658  26.098  35.025  1.00  0.00    -0.206 F 
ATOM     83  C   UNL A   1      46.253  26.316  35.400  1.00  0.00     0.006 A 
ENDBRANCH  59  76
ENDBRANCH  33  34
ENDBRANCH  25  28
ENDBRANCH  23  24
ENDBRANCH  22  23
ENDBRANCH  21  22
ENDBRANCH   3  21
TORSDOF 15
ENDMDL
