MODEL 1
REMARK VINA RESULT:     -11.2      0.000      0.000
REMARK SMILES C[C@](Nc1ccc(S(N)(=O)=O)cc1)(C(=O)NCCCNC(=O)c1ccc(-c2c3nc(c(-c4c(F)cccc4F)c4ccc([nH]4)c(-c4c(F)cccc4F)c4nc(c(-c5c(F)cccc5F)c5ccc2[nH]5)C=C4)C=C3)cc1)C(F)(F)F
REMARK SMILES IDX 17 1 16 2 14 3 15 4 2 6 1 7 77 8 78 9 79 10 80 11 3 12 4 14
REMARK SMILES IDX 5 15 13 16 6 17 12 18 7 19 8 20 10 21 11 22 9 23 18 26 19 27
REMARK SMILES IDX 20 28 21 29 22 31 23 32 24 33 76 34 25 35 75 36 26 37 27 38
REMARK SMILES IDX 28 39 69 40 29 41 74 42 68 43 70 44 30 45 73 46 67 47 66 48
REMARK SMILES IDX 31 50 57 51 40 52 56 53 41 54 44 55 55 56 71 57 42 58 43 59
REMARK SMILES IDX 54 61 72 62 45 63 32 64 33 65 38 66 34 67 35 68 37 69 39 70
REMARK SMILES IDX 36 71 58 72 59 73 64 74 60 75 61 76 63 77 65 78 62 79 46 80
REMARK SMILES IDX 47 81 52 82 48 83 49 84 51 85 53 86 50 87
REMARK H PARENT 16 5 3 13 9 24 9 25 20 30 70 49 44 60
REMARK Flexibility Score: inf
ROOT
ATOM      1  C   UNL A   1      36.398  21.052  25.375  1.00  0.00     0.117 C 
ENDROOT
BRANCH   1   2
ATOM      2  N   UNL A   1      35.191  20.313  25.051  1.00  0.00    -0.354 N 
ATOM      3  C   UNL A   1      33.867  20.616  25.177  1.00  0.00     0.254 C 
ATOM      4  O   UNL A   1      33.106  19.673  24.940  1.00  0.00    -0.272 OA
ATOM      5  H   UNL A   1      35.361  19.424  24.665  1.00  0.00     0.163 HD
BRANCH   3   6
ATOM      6  C   UNL A   1      33.374  22.030  25.601  1.00  0.00     0.210 C 
ATOM      7  C   UNL A   1      31.886  22.165  25.231  1.00  0.00     0.055 C 
BRANCH   6   8
ATOM      8  C   UNL A   1      33.518  22.031  27.149  1.00  0.00     0.420 C 
ATOM      9  F   UNL A   1      33.639  20.784  27.663  1.00  0.00    -0.168 F 
ATOM     10  F   UNL A   1      34.608  22.722  27.565  1.00  0.00    -0.168 F 
ATOM     11  F   UNL A   1      32.469  22.641  27.758  1.00  0.00    -0.168 F 
ENDBRANCH   6   8
BRANCH   6  12
ATOM     12  N   UNL A   1      34.210  23.043  24.868  1.00  0.00    -0.364 N 
ATOM     13  H   UNL A   1      35.032  22.695  24.452  1.00  0.00     0.161 HD
BRANCH  12  14
ATOM     14  C   UNL A   1      33.984  24.392  24.697  1.00  0.00     0.035 A 
ATOM     15  C   UNL A   1      33.744  24.876  23.399  1.00  0.00     0.027 A 
ATOM     16  C   UNL A   1      33.903  25.313  25.743  1.00  0.00     0.027 A 
ATOM     17  C   UNL A   1      33.440  26.224  23.158  1.00  0.00     0.024 A 
ATOM     18  C   UNL A   1      33.631  26.666  25.520  1.00  0.00     0.024 A 
ATOM     19  C   UNL A   1      33.397  27.117  24.226  1.00  0.00     0.082 A 
BRANCH  19  20
ATOM     20  S   UNL A   1      33.014  28.820  23.954  1.00  0.00     0.238 S 
ATOM     21  O   UNL A   1      33.745  29.278  22.793  1.00  0.00    -0.207 OA
ATOM     22  O   UNL A   1      31.596  29.025  24.111  1.00  0.00    -0.207 OA
BRANCH  20  23
ATOM     23  N   UNL A   1      33.721  29.567  25.281  1.00  0.00    -0.225 NA
ATOM     24  H   UNL A   1      34.735  29.491  25.214  1.00  0.00     0.137 HD
ATOM     25  H   UNL A   1      33.402  29.112  26.137  1.00  0.00     0.137 HD
ENDBRANCH  20  23
ENDBRANCH  19  20
ENDBRANCH  12  14
ENDBRANCH   6  12
ENDBRANCH   3   6
ENDBRANCH   1   2
BRANCH   1  26
ATOM     26  C   UNL A   1      37.648  20.287  24.956  1.00  0.00     0.042 C 
BRANCH  26  27
ATOM     27  C   UNL A   1      38.906  20.664  25.734  1.00  0.00     0.118 C 
BRANCH  27  28
ATOM     28  N   UNL A   1      39.892  19.593  25.776  1.00  0.00    -0.352 N 
ATOM     29  C   UNL A   1      41.233  19.636  26.076  1.00  0.00     0.251 C 
ATOM     30  H   UNL A   1      39.544  18.698  25.556  1.00  0.00     0.163 HD
ATOM     31  O   UNL A   1      41.933  18.647  25.885  1.00  0.00    -0.269 OA
BRANCH  29  32
ATOM     32  C   UNL A   1      41.840  20.878  26.596  1.00  0.00     0.039 A 
ATOM     33  C   UNL A   1      42.285  21.843  25.689  1.00  0.00     0.014 A 
ATOM     34  C   UNL A   1      41.962  21.098  27.970  1.00  0.00     0.014 A 
ATOM     35  C   UNL A   1      42.766  23.067  26.160  1.00  0.00     0.010 A 
ATOM     36  C   UNL A   1      42.362  22.347  28.436  1.00  0.00     0.010 A 
ATOM     37  C   UNL A   1      42.757  23.349  27.536  1.00  0.00    -0.014 A 
BRANCH  37  38
ATOM     38  C   UNL A   1      43.124  24.692  28.054  1.00  0.00     0.031 A 
ATOM     39  C   UNL A   1      42.062  25.726  28.303  1.00  0.00     0.074 A 
ATOM     40  C   UNL A   1      44.424  25.006  28.221  1.00  0.00     0.049 A 
ATOM     41  N   UNL A   1      42.197  26.979  28.659  1.00  0.00    -0.248 NA
ATOM     42  C   UNL A   1      40.667  25.305  28.102  1.00  0.00     0.031 C 
ATOM     43  C   UNL A   1      45.552  24.105  27.975  1.00  0.00     0.029 A 
ATOM     44  N   UNL A   1      45.019  26.177  28.623  1.00  0.00    -0.354 N 
ATOM     45  C   UNL A   1      40.910  27.498  28.713  1.00  0.00     0.074 A 
ATOM     46  C   UNL A   1      40.012  26.440  28.301  1.00  0.00     0.031 C 
ATOM     47  C   UNL A   1      46.697  24.748  28.250  1.00  0.00     0.029 A 
ATOM     48  C   UNL A   1      46.392  26.119  28.643  1.00  0.00     0.049 A 
ATOM     49  H   UNL A   1      44.510  26.982  28.874  1.00  0.00     0.167 HD
ATOM     50  C   UNL A   1      40.510  28.735  29.090  1.00  0.00     0.037 A 
ATOM     51  C   UNL A   1      47.303  27.068  28.928  1.00  0.00     0.037 A 
ATOM     52  C   UNL A   1      41.405  29.781  29.513  1.00  0.00     0.049 A 
ATOM     53  C   UNL A   1      46.835  28.445  29.310  1.00  0.00     0.074 A 
ATOM     54  C   UNL A   1      41.093  31.050  29.969  1.00  0.00     0.029 A 
ATOM     55  N   UNL A   1      42.789  29.683  29.520  1.00  0.00    -0.354 N 
ATOM     56  N   UNL A   1      45.611  28.901  29.423  1.00  0.00    -0.248 NA
ATOM     57  C   UNL A   1      47.875  29.442  29.602  1.00  0.00     0.031 C 
ATOM     58  C   UNL A   1      42.289  31.739  30.199  1.00  0.00     0.029 A 
ATOM     59  C   UNL A   1      43.344  30.880  29.941  1.00  0.00     0.049 A 
ATOM     60  H   UNL A   1      43.300  28.882  29.264  1.00  0.00     0.167 HD
ATOM     61  C   UNL A   1      45.732  30.225  29.825  1.00  0.00     0.074 A 
ATOM     62  C   UNL A   1      47.149  30.494  29.953  1.00  0.00     0.031 C 
ATOM     63  C   UNL A   1      44.758  31.136  30.066  1.00  0.00     0.037 A 
BRANCH  50  64
ATOM     64  C   UNL A   1      39.037  29.029  29.061  1.00  0.00     0.057 A 
ATOM     65  C   UNL A   1      38.238  28.922  30.207  1.00  0.00     0.134 A 
ATOM     66  C   UNL A   1      38.417  29.460  27.882  1.00  0.00     0.134 A 
ATOM     67  F   UNL A   1      38.766  28.505  31.368  1.00  0.00    -0.206 F 
ATOM     68  C   UNL A   1      36.872  29.208  30.175  1.00  0.00     0.040 A 
ATOM     69  C   UNL A   1      37.058  29.777  27.843  1.00  0.00     0.040 A 
ATOM     70  F   UNL A   1      39.124  29.591  26.748  1.00  0.00    -0.206 F 
ATOM     71  C   UNL A   1      36.280  29.644  28.991  1.00  0.00     0.006 A 
ENDBRANCH  50  64
BRANCH  51  72
ATOM     72  C   UNL A   1      48.754  26.751  28.869  1.00  0.00     0.057 A 
ATOM     73  C   UNL A   1      49.494  26.975  27.703  1.00  0.00     0.134 A 
ATOM     74  C   UNL A   1      49.430  26.205  29.966  1.00  0.00     0.134 A 
ATOM     75  F   UNL A   1      48.900  27.478  26.611  1.00  0.00    -0.206 F 
ATOM     76  C   UNL A   1      50.849  26.647  27.622  1.00  0.00     0.040 A 
ATOM     77  C   UNL A   1      50.791  25.898  29.909  1.00  0.00     0.040 A 
ATOM     78  F   UNL A   1      48.780  25.973  31.117  1.00  0.00    -0.206 F 
ATOM     79  C   UNL A   1      51.502  26.112  28.730  1.00  0.00     0.006 A 
ENDBRANCH  51  72
BRANCH  63  80
ATOM     80  C   UNL A   1      45.187  32.501  30.521  1.00  0.00     0.057 A 
ATOM     81  C   UNL A   1      45.399  32.798  31.873  1.00  0.00     0.134 A 
ATOM     82  C   UNL A   1      45.432  33.518  29.589  1.00  0.00     0.134 A 
ATOM     83  F   UNL A   1      45.169  31.873  32.817  1.00  0.00    -0.206 F 
ATOM     84  C   UNL A   1      45.821  34.065  32.284  1.00  0.00     0.040 A 
ATOM     85  C   UNL A   1      45.883  34.778  29.985  1.00  0.00     0.040 A 
ATOM     86  F   UNL A   1      45.257  33.299  28.278  1.00  0.00    -0.206 F 
ATOM     87  C   UNL A   1      46.072  35.056  31.338  1.00  0.00     0.006 A 
ENDBRANCH  63  80
ENDBRANCH  37  38
ENDBRANCH  29  32
ENDBRANCH  27  28
ENDBRANCH  26  27
ENDBRANCH   1  26
TORSDOF 15
ENDMDL
MODEL 2
REMARK VINA RESULT:     -11.2      0.627      6.237
REMARK SMILES C[C@](Nc1ccc(S(N)(=O)=O)cc1)(C(=O)NCCCNC(=O)c1ccc(-c2c3nc(c(-c4c(F)cccc4F)c4ccc([nH]4)c(-c4c(F)cccc4F)c4nc(c(-c5c(F)cccc5F)c5ccc2[nH]5)C=C4)C=C3)cc1)C(F)(F)F
REMARK SMILES IDX 17 1 16 2 14 3 15 4 2 6 1 7 77 8 78 9 79 10 80 11 3 12 4 14
REMARK SMILES IDX 5 15 13 16 6 17 12 18 7 19 8 20 10 21 11 22 9 23 18 26 19 27
REMARK SMILES IDX 20 28 21 29 22 31 23 32 24 33 76 34 25 35 75 36 26 37 27 38
REMARK SMILES IDX 28 39 69 40 29 41 74 42 68 43 70 44 30 45 73 46 67 47 66 48
REMARK SMILES IDX 31 50 57 51 40 52 56 53 41 54 44 55 55 56 71 57 42 58 43 59
REMARK SMILES IDX 54 61 72 62 45 63 32 64 33 65 38 66 34 67 35 68 37 69 39 70
REMARK SMILES IDX 36 71 58 72 59 73 64 74 60 75 61 76 63 77 65 78 62 79 46 80
REMARK SMILES IDX 47 81 52 82 48 83 49 84 51 85 53 86 50 87
REMARK H PARENT 16 5 3 13 9 24 9 25 20 30 70 49 44 60
REMARK Flexibility Score: inf
ROOT
ATOM      1  C   UNL A   1      36.457  20.826  25.191  1.00  0.00     0.117 C 
ENDROOT
BRANCH   1   2
ATOM      2  N   UNL A   1      35.243  20.048  25.025  1.00  0.00    -0.354 N 
ATOM      3  C   UNL A   1      33.924  20.356  25.189  1.00  0.00     0.254 C 
ATOM      4  O   UNL A   1      33.163  19.389  25.110  1.00  0.00    -0.272 OA
ATOM      5  H   UNL A   1      35.401  19.119  24.739  1.00  0.00     0.163 HD
BRANCH   3   6
ATOM      6  C   UNL A   1      33.439  21.809  25.470  1.00  0.00     0.210 C 
ATOM      7  C   UNL A   1      31.942  21.903  25.125  1.00  0.00     0.055 C 
BRANCH   6   8
ATOM      8  C   UNL A   1      33.621  21.977  27.005  1.00  0.00     0.420 C 
ATOM      9  F   UNL A   1      32.615  22.679  27.577  1.00  0.00    -0.168 F 
ATOM     10  F   UNL A   1      33.669  20.785  27.651  1.00  0.00    -0.168 F 
ATOM     11  F   UNL A   1      34.794  22.585  27.315  1.00  0.00    -0.168 F 
ENDBRANCH   6   8
BRANCH   6  12
ATOM     12  N   UNL A   1      34.254  22.736  24.611  1.00  0.00    -0.364 N 
ATOM     13  H   UNL A   1      35.017  22.322  24.145  1.00  0.00     0.161 HD
BRANCH  12  14
ATOM     14  C   UNL A   1      34.081  24.084  24.385  1.00  0.00     0.035 A 
ATOM     15  C   UNL A   1      33.731  24.511  23.092  1.00  0.00     0.027 A 
ATOM     16  C   UNL A   1      34.157  25.062  25.378  1.00  0.00     0.027 A 
ATOM     17  C   UNL A   1      33.473  25.859  22.804  1.00  0.00     0.024 A 
ATOM     18  C   UNL A   1      33.933  26.415  25.104  1.00  0.00     0.024 A 
ATOM     19  C   UNL A   1      33.587  26.809  23.816  1.00  0.00     0.082 A 
BRANCH  19  20
ATOM     20  S   UNL A   1      33.265  28.514  23.485  1.00  0.00     0.238 S 
ATOM     21  O   UNL A   1      34.235  28.989  22.524  1.00  0.00    -0.207 OA
ATOM     22  O   UNL A   1      31.847  28.713  23.321  1.00  0.00    -0.207 OA
BRANCH  20  23
ATOM     23  N   UNL A   1      33.651  29.246  24.946  1.00  0.00    -0.225 NA
ATOM     24  H   UNL A   1      34.013  30.183  24.772  1.00  0.00     0.137 HD
ATOM     25  H   UNL A   1      34.359  28.692  25.428  1.00  0.00     0.137 HD
ENDBRANCH  20  23
ENDBRANCH  19  20
ENDBRANCH  12  14
ENDBRANCH   6  12
ENDBRANCH   3   6
ENDBRANCH   1   2
BRANCH   1  26
ATOM     26  C   UNL A   1      37.700  19.972  24.966  1.00  0.00     0.042 C 
BRANCH  26  27
ATOM     27  C   UNL A   1      38.933  20.443  25.731  1.00  0.00     0.118 C 
BRANCH  27  28
ATOM     28  N   UNL A   1      39.987  19.441  25.787  1.00  0.00    -0.352 N 
ATOM     29  C   UNL A   1      41.320  19.573  26.096  1.00  0.00     0.251 C 
ATOM     30  H   UNL A   1      39.701  18.524  25.569  1.00  0.00     0.163 HD
ATOM     31  O   UNL A   1      42.085  18.632  25.916  1.00  0.00    -0.269 OA
BRANCH  29  32
ATOM     32  C   UNL A   1      41.840  20.856  26.613  1.00  0.00     0.039 A 
ATOM     33  C   UNL A   1      42.394  21.771  25.716  1.00  0.00     0.014 A 
ATOM     34  C   UNL A   1      41.773  21.162  27.975  1.00  0.00     0.014 A 
ATOM     35  C   UNL A   1      42.796  23.029  26.169  1.00  0.00     0.010 A 
ATOM     36  C   UNL A   1      42.095  22.443  28.411  1.00  0.00     0.010 A 
ATOM     37  C   UNL A   1      42.599  23.395  27.511  1.00  0.00    -0.014 A 
BRANCH  37  38
ATOM     38  C   UNL A   1      42.881  24.773  27.987  1.00  0.00     0.031 A 
ATOM     39  C   UNL A   1      44.272  25.165  28.401  1.00  0.00     0.074 A 
ATOM     40  C   UNL A   1      41.865  25.649  28.125  1.00  0.00     0.049 A 
ATOM     41  N   UNL A   1      44.691  26.286  28.933  1.00  0.00    -0.248 NA
ATOM     42  C   UNL A   1      45.327  24.156  28.217  1.00  0.00     0.031 C 
ATOM     43  C   UNL A   1      40.463  25.378  27.798  1.00  0.00     0.029 A 
ATOM     44  N   UNL A   1      41.852  26.940  28.593  1.00  0.00    -0.354 N 
ATOM     45  C   UNL A   1      46.050  26.113  29.156  1.00  0.00     0.074 A 
ATOM     46  C   UNL A   1      46.376  24.762  28.753  1.00  0.00     0.031 C 
ATOM     47  C   UNL A   1      39.732  26.473  28.054  1.00  0.00     0.029 A 
ATOM     48  C   UNL A   1      40.599  27.506  28.611  1.00  0.00     0.049 A 
ATOM     49  H   UNL A   1      42.662  27.415  28.886  1.00  0.00     0.167 HD
ATOM     50  C   UNL A   1      46.950  27.005  29.635  1.00  0.00     0.037 A 
ATOM     51  C   UNL A   1      40.192  28.715  29.043  1.00  0.00     0.037 A 
ATOM     52  C   UNL A   1      46.626  28.353  30.022  1.00  0.00     0.049 A 
ATOM     53  C   UNL A   1      41.205  29.674  29.603  1.00  0.00     0.074 A 
ATOM     54  C   UNL A   1      47.477  29.351  30.463  1.00  0.00     0.029 A 
ATOM     55  N   UNL A   1      45.347  28.890  30.024  1.00  0.00    -0.354 N 
ATOM     56  N   UNL A   1      42.499  29.521  29.744  1.00  0.00    -0.248 NA
ATOM     57  C   UNL A   1      40.701  30.975  30.066  1.00  0.00     0.031 C 
ATOM     58  C   UNL A   1      46.707  30.473  30.787  1.00  0.00     0.029 A 
ATOM     59  C   UNL A   1      45.383  30.194  30.491  1.00  0.00     0.049 A 
ATOM     60  H   UNL A   1      44.534  28.415  29.736  1.00  0.00     0.167 HD
ATOM     61  C   UNL A   1      42.967  30.712  30.284  1.00  0.00     0.074 A 
ATOM     62  C   UNL A   1      41.820  31.584  30.430  1.00  0.00     0.031 C 
ATOM     63  C   UNL A   1      44.233  31.053  30.630  1.00  0.00     0.037 A 
BRANCH  50  64
ATOM     64  C   UNL A   1      48.376  26.550  29.770  1.00  0.00     0.057 A 
ATOM     65  C   UNL A   1      48.831  25.866  30.906  1.00  0.00     0.134 A 
ATOM     66  C   UNL A   1      49.295  26.764  28.736  1.00  0.00     0.134 A 
ATOM     67  F   UNL A   1      48.005  25.637  31.938  1.00  0.00    -0.206 F 
ATOM     68  C   UNL A   1      50.155  25.437  31.019  1.00  0.00     0.040 A 
ATOM     69  C   UNL A   1      50.614  26.314  28.824  1.00  0.00     0.040 A 
ATOM     70  F   UNL A   1      48.926  27.406  27.616  1.00  0.00    -0.206 F 
ATOM     71  C   UNL A   1      51.048  25.654  29.972  1.00  0.00     0.006 A 
ENDBRANCH  50  64
BRANCH  51  72
ATOM     72  C   UNL A   1      38.757  29.092  28.960  1.00  0.00     0.057 A 
ATOM     73  C   UNL A   1      37.917  28.982  30.073  1.00  0.00     0.134 A 
ATOM     74  C   UNL A   1      38.188  29.554  27.767  1.00  0.00     0.134 A 
ATOM     75  F   UNL A   1      38.397  28.526  31.240  1.00  0.00    -0.206 F 
ATOM     76  C   UNL A   1      36.559  29.297  30.000  1.00  0.00     0.040 A 
ATOM     77  C   UNL A   1      36.838  29.901  27.686  1.00  0.00     0.040 A 
ATOM     78  F   UNL A   1      38.940  29.691  26.665  1.00  0.00    -0.206 F 
ATOM     79  C   UNL A   1      36.017  29.764  28.804  1.00  0.00     0.006 A 
ENDBRANCH  51  72
BRANCH  63  80
ATOM     80  C   UNL A   1      44.452  32.435  31.173  1.00  0.00     0.057 A 
ATOM     81  C   UNL A   1      44.440  32.702  32.548  1.00  0.00     0.134 A 
ATOM     82  C   UNL A   1      44.722  33.505  30.310  1.00  0.00     0.134 A 
ATOM     83  F   UNL A   1      44.173  31.724  33.428  1.00  0.00    -0.206 F 
ATOM     84  C   UNL A   1      44.668  33.987  33.044  1.00  0.00     0.040 A 
ATOM     85  C   UNL A   1      44.982  34.788  30.796  1.00  0.00     0.040 A 
ATOM     86  F   UNL A   1      44.757  33.319  28.982  1.00  0.00    -0.206 F 
ATOM     87  C   UNL A   1      44.949  35.032  32.167  1.00  0.00     0.006 A 
ENDBRANCH  63  80
ENDBRANCH  37  38
ENDBRANCH  29  32
ENDBRANCH  27  28
ENDBRANCH  26  27
ENDBRANCH   1  26
TORSDOF 15
ENDMDL
MODEL 3
REMARK VINA RESULT:     -11.2      4.901      9.935
REMARK SMILES C[C@](Nc1ccc(S(N)(=O)=O)cc1)(C(=O)NCCCNC(=O)c1ccc(-c2c3nc(c(-c4c(F)cccc4F)c4ccc([nH]4)c(-c4c(F)cccc4F)c4nc(c(-c5c(F)cccc5F)c5ccc2[nH]5)C=C4)C=C3)cc1)C(F)(F)F
REMARK SMILES IDX 17 1 16 2 14 3 15 4 2 6 1 7 77 8 78 9 79 10 80 11 3 12 4 14
REMARK SMILES IDX 5 15 13 16 6 17 12 18 7 19 8 20 10 21 11 22 9 23 18 26 19 27
REMARK SMILES IDX 20 28 21 29 22 31 23 32 24 33 76 34 25 35 75 36 26 37 27 38
REMARK SMILES IDX 28 39 69 40 29 41 74 42 68 43 70 44 30 45 73 46 67 47 66 48
REMARK SMILES IDX 31 50 57 51 40 52 56 53 41 54 44 55 55 56 71 57 42 58 43 59
REMARK SMILES IDX 54 61 72 62 45 63 32 64 33 65 38 66 34 67 35 68 37 69 39 70
REMARK SMILES IDX 36 71 58 72 59 73 64 74 60 75 61 76 63 77 65 78 62 79 46 80
REMARK SMILES IDX 47 81 52 82 48 83 49 84 51 85 53 86 50 87
REMARK H PARENT 16 5 3 13 9 24 9 25 20 30 70 49 44 60
REMARK Flexibility Score: inf
ROOT
ATOM      1  C   UNL A   1      31.832  30.630  26.100  1.00  0.00     0.117 C 
ENDROOT
BRANCH   1   2
ATOM      2  N   UNL A   1      31.761  29.536  27.052  1.00  0.00    -0.354 N 
ATOM      3  C   UNL A   1      31.627  28.188  26.894  1.00  0.00     0.254 C 
ATOM      4  O   UNL A   1      31.444  27.569  27.946  1.00  0.00    -0.272 OA
ATOM      5  H   UNL A   1      31.822  29.822  27.992  1.00  0.00     0.163 HD
BRANCH   3   6
ATOM      6  C   UNL A   1      31.685  27.505  25.496  1.00  0.00     0.210 C 
ATOM      7  C   UNL A   1      31.077  28.461  24.455  1.00  0.00     0.055 C 
BRANCH   6   8
ATOM      8  C   UNL A   1      33.206  27.347  25.217  1.00  0.00     0.420 C 
ATOM      9  F   UNL A   1      33.822  28.532  24.993  1.00  0.00    -0.168 F 
ATOM     10  F   UNL A   1      33.862  26.767  26.253  1.00  0.00    -0.168 F 
ATOM     11  F   UNL A   1      33.449  26.535  24.157  1.00  0.00    -0.168 F 
ENDBRANCH   6   8
BRANCH   6  12
ATOM     12  N   UNL A   1      30.901  26.224  25.581  1.00  0.00    -0.364 N 
ATOM     13  H   UNL A   1      29.923  26.328  25.645  1.00  0.00     0.161 HD
BRANCH  12  14
ATOM     14  C   UNL A   1      31.361  24.925  25.581  1.00  0.00     0.035 A 
ATOM     15  C   UNL A   1      31.364  24.211  24.370  1.00  0.00     0.027 A 
ATOM     16  C   UNL A   1      31.901  24.284  26.697  1.00  0.00     0.027 A 
ATOM     17  C   UNL A   1      31.880  22.911  24.280  1.00  0.00     0.024 A 
ATOM     18  C   UNL A   1      32.393  22.976  26.635  1.00  0.00     0.024 A 
ATOM     19  C   UNL A   1      32.383  22.294  25.423  1.00  0.00     0.082 A 
BRANCH  19  20
ATOM     20  S   UNL A   1      33.043  20.658  25.341  1.00  0.00     0.238 S 
ATOM     21  O   UNL A   1      31.973  19.745  25.006  1.00  0.00    -0.207 OA
ATOM     22  O   UNL A   1      34.298  20.679  24.632  1.00  0.00    -0.207 OA
BRANCH  20  23
ATOM     23  N   UNL A   1      33.443  20.348  26.943  1.00  0.00    -0.225 NA
ATOM     24  H   UNL A   1      32.677  20.642  27.548  1.00  0.00     0.137 HD
ATOM     25  H   UNL A   1      34.288  20.863  27.188  1.00  0.00     0.137 HD
ENDBRANCH  20  23
ENDBRANCH  19  20
ENDBRANCH  12  14
ENDBRANCH   6  12
ENDBRANCH   3   6
ENDBRANCH   1   2
BRANCH   1  26
ATOM     26  C   UNL A   1      31.490  31.962  26.758  1.00  0.00     0.042 C 
BRANCH  26  27
ATOM     27  C   UNL A   1      32.696  32.720  27.308  1.00  0.00     0.118 C 
BRANCH  27  28
ATOM     28  N   UNL A   1      32.407  34.116  27.599  1.00  0.00    -0.352 N 
ATOM     29  C   UNL A   1      32.975  34.965  28.519  1.00  0.00     0.251 C 
ATOM     30  H   UNL A   1      31.692  34.516  27.052  1.00  0.00     0.163 HD
ATOM     31  O   UNL A   1      32.470  36.062  28.731  1.00  0.00    -0.269 OA
BRANCH  29  32
ATOM     32  C   UNL A   1      34.174  34.547  29.275  1.00  0.00     0.039 A 
ATOM     33  C   UNL A   1      34.016  34.061  30.575  1.00  0.00     0.014 A 
ATOM     34  C   UNL A   1      35.447  34.624  28.705  1.00  0.00     0.014 A 
ATOM     35  C   UNL A   1      35.123  33.565  31.268  1.00  0.00     0.010 A 
ATOM     36  C   UNL A   1      36.533  34.053  29.361  1.00  0.00     0.010 A 
ATOM     37  C   UNL A   1      36.381  33.507  30.646  1.00  0.00    -0.014 A 
BRANCH  37  38
ATOM     38  C   UNL A   1      37.540  32.852  31.303  1.00  0.00     0.031 A 
ATOM     39  C   UNL A   1      38.185  31.645  30.679  1.00  0.00     0.074 A 
ATOM     40  C   UNL A   1      37.961  33.295  32.504  1.00  0.00     0.049 A 
ATOM     41  N   UNL A   1      39.140  30.883  31.150  1.00  0.00    -0.248 NA
ATOM     42  C   UNL A   1      37.672  31.225  29.366  1.00  0.00     0.031 C 
ATOM     43  C   UNL A   1      37.393  34.431  33.234  1.00  0.00     0.029 A 
ATOM     44  N   UNL A   1      38.955  32.835  33.332  1.00  0.00    -0.354 N 
ATOM     45  C   UNL A   1      39.333  29.889  30.200  1.00  0.00     0.074 A 
ATOM     46  C   UNL A   1      38.362  30.113  29.150  1.00  0.00     0.031 C 
ATOM     47  C   UNL A   1      38.059  34.591  34.387  1.00  0.00     0.029 A 
ATOM     48  C   UNL A   1      39.066  33.542  34.506  1.00  0.00     0.049 A 
ATOM     49  H   UNL A   1      39.533  32.071  33.107  1.00  0.00     0.167 HD
ATOM     50  C   UNL A   1      40.250  28.893  30.191  1.00  0.00     0.037 A 
ATOM     51  C   UNL A   1      39.875  33.356  35.565  1.00  0.00     0.037 A 
ATOM     52  C   UNL A   1      41.225  28.681  31.229  1.00  0.00     0.049 A 
ATOM     53  C   UNL A   1      40.860  32.220  35.547  1.00  0.00     0.074 A 
ATOM     54  C   UNL A   1      42.234  27.735  31.283  1.00  0.00     0.029 A 
ATOM     55  N   UNL A   1      41.306  29.419  32.401  1.00  0.00    -0.354 N 
ATOM     56  N   UNL A   1      41.079  31.330  34.610  1.00  0.00    -0.248 NA
ATOM     57  C   UNL A   1      41.712  32.062  36.734  1.00  0.00     0.031 C 
ATOM     58  C   UNL A   1      42.889  27.863  32.513  1.00  0.00     0.029 A 
ATOM     59  C   UNL A   1      42.327  28.927  33.199  1.00  0.00     0.049 A 
ATOM     60  H   UNL A   1      40.725  30.179  32.631  1.00  0.00     0.167 HD
ATOM     61  C   UNL A   1      42.108  30.525  35.081  1.00  0.00     0.074 A 
ATOM     62  C   UNL A   1      42.482  31.043  36.380  1.00  0.00     0.031 C 
ATOM     63  C   UNL A   1      42.691  29.453  34.491  1.00  0.00     0.037 A 
BRANCH  50  64
ATOM     64  C   UNL A   1      40.242  27.951  29.020  1.00  0.00     0.057 A 
ATOM     65  C   UNL A   1      40.981  28.209  27.857  1.00  0.00     0.134 A 
ATOM     66  C   UNL A   1      39.518  26.754  29.071  1.00  0.00     0.134 A 
ATOM     67  F   UNL A   1      41.689  29.342  27.738  1.00  0.00    -0.206 F 
ATOM     68  C   UNL A   1      40.977  27.323  26.778  1.00  0.00     0.040 A 
ATOM     69  C   UNL A   1      39.530  25.846  28.010  1.00  0.00     0.040 A 
ATOM     70  F   UNL A   1      38.794  26.439  30.156  1.00  0.00    -0.206 F 
ATOM     71  C   UNL A   1      40.255  26.134  26.856  1.00  0.00     0.006 A 
ENDBRANCH  50  64
BRANCH  51  72
ATOM     72  C   UNL A   1      39.794  34.269  36.735  1.00  0.00     0.057 A 
ATOM     73  C   UNL A   1      38.999  33.953  37.842  1.00  0.00     0.134 A 
ATOM     74  C   UNL A   1      40.493  35.481  36.769  1.00  0.00     0.134 A 
ATOM     75  F   UNL A   1      38.288  32.815  37.862  1.00  0.00    -0.206 F 
ATOM     76  C   UNL A   1      38.884  34.819  38.932  1.00  0.00     0.040 A 
ATOM     77  C   UNL A   1      40.411  36.344  37.864  1.00  0.00     0.040 A 
ATOM     78  F   UNL A   1      41.279  35.839  35.743  1.00  0.00    -0.206 F 
ATOM     79  C   UNL A   1      39.596  36.016  38.946  1.00  0.00     0.006 A 
ENDBRANCH  51  72
BRANCH  63  80
ATOM     80  C   UNL A   1      43.813  28.784  35.230  1.00  0.00     0.057 A 
ATOM     81  C   UNL A   1      43.586  27.738  36.133  1.00  0.00     0.134 A 
ATOM     82  C   UNL A   1      45.143  29.161  35.000  1.00  0.00     0.134 A 
ATOM     83  F   UNL A   1      42.335  27.337  36.408  1.00  0.00    -0.206 F 
ATOM     84  C   UNL A   1      44.638  27.105  36.798  1.00  0.00     0.040 A 
ATOM     85  C   UNL A   1      46.205  28.517  35.636  1.00  0.00     0.040 A 
ATOM     86  F   UNL A   1      45.433  30.150  34.142  1.00  0.00    -0.206 F 
ATOM     87  C   UNL A   1      45.953  27.489  36.543  1.00  0.00     0.006 A 
ENDBRANCH  63  80
ENDBRANCH  37  38
ENDBRANCH  29  32
ENDBRANCH  27  28
ENDBRANCH  26  27
ENDBRANCH   1  26
TORSDOF 15
ENDMDL
