MODEL 1
REMARK VINA RESULT:     -11.9      0.000      0.000
REMARK SMILES CCOC(=O)[C@H](c1ccccc1)N1C(=O)/C(=C/c2ccc(C(=O)NCCCNC(=O)c3ccc(-c4c5nc(c(-c6c(F)cccc6F)c6ccc([nH]6)c(-c6c(F)cccc6F)c6nc(c(-c7c(F)cccc7F)c7ccc4[nH]7)C=C6)C=C5)cc3)cc2)SC1=S
REMARK SMILES IDX 22 1 23 2 24 3 21 5 18 6 19 7 86 8 20 9 85 10 17 11 13 12
REMARK SMILES IDX 14 13 88 14 15 15 16 16 87 17 89 18 6 19 4 20 5 21 3 22 2 23
REMARK SMILES IDX 1 24 7 25 8 26 12 27 9 28 11 29 10 30 25 31 26 32 27 33
REMARK SMILES IDX 28 34 29 35 30 37 31 38 32 39 84 40 33 41 83 42 34 43 35 44
REMARK SMILES IDX 36 45 77 46 37 47 82 48 76 49 78 50 38 51 81 52 75 53 74 54
REMARK SMILES IDX 39 56 65 57 48 58 64 59 49 60 52 61 63 62 79 63 50 64 51 65
REMARK SMILES IDX 62 67 80 68 53 69 40 70 41 71 46 72 42 73 43 74 45 75 47 76
REMARK SMILES IDX 44 77 66 78 67 79 72 80 68 81 69 82 71 83 73 84 70 85 54 86
REMARK SMILES IDX 55 87 60 88 56 89 57 90 59 91 61 92 58 93
REMARK H PARENT 24 4 28 36 78 55 52 66
REMARK Flexibility Score: inf
ROOT
ATOM      1  C   UNL A   1      42.191  21.780  28.029  1.00  0.00     0.251 C 
ATOM      2  O   UNL A   1      42.981  22.544  28.583  1.00  0.00    -0.269 OA
ATOM      3  N   UNL A   1      42.489  20.441  28.027  1.00  0.00    -0.352 N 
ATOM      4  H   UNL A   1      43.357  20.223  28.438  1.00  0.00     0.163 HD
ENDROOT
BRANCH   1   5
ATOM      5  C   UNL A   1      40.941  22.332  27.438  1.00  0.00     0.039 A 
ATOM      6  C   UNL A   1      38.532  23.438  26.485  1.00  0.00    -0.024 A 
ATOM      7  C   UNL A   1      39.224  24.062  27.525  1.00  0.00     0.009 A 
ATOM      8  C   UNL A   1      39.080  22.302  25.884  1.00  0.00     0.009 A 
ATOM      9  C   UNL A   1      40.420  23.506  28.001  1.00  0.00     0.014 A 
ATOM     10  C   UNL A   1      40.287  21.770  26.340  1.00  0.00     0.014 A 
BRANCH   6  11
ATOM     11  C   UNL A   1      37.266  23.969  25.976  1.00  0.00     0.029 C 
ATOM     12  N   UNL A   1      34.183  22.871  24.406  1.00  0.00    -0.274 N 
ATOM     13  C   UNL A   1      35.043  23.840  24.893  1.00  0.00     0.267 C 
ATOM     14  C   UNL A   1      34.380  21.649  25.029  1.00  0.00     0.149 C 
ATOM     15  O   UNL A   1      34.872  25.055  24.931  1.00  0.00    -0.268 OA
ATOM     16  C   UNL A   1      36.240  23.229  25.531  1.00  0.00     0.081 C 
ATOM     17  S   UNL A   1      36.050  21.533  25.591  1.00  0.00    -0.054 SA
ATOM     18  S   UNL A   1      33.293  20.427  25.361  1.00  0.00    -0.052 S 
BRANCH  12  19
ATOM     19  C   UNL A   1      32.992  23.190  23.553  1.00  0.00     0.232 C 
BRANCH  19  20
ATOM     20  C   UNL A   1      33.337  23.930  22.201  1.00  0.00     0.333 C 
ATOM     21  O   UNL A   1      33.278  23.430  21.082  1.00  0.00    -0.249 OA
BRANCH  20  22
ATOM     22  O   UNL A   1      33.880  25.158  22.410  1.00  0.00    -0.464 OA
BRANCH  22  23
ATOM     23  C   UNL A   1      33.278  26.240  21.678  1.00  0.00     0.229 C 
ATOM     24  C   UNL A   1      32.967  27.404  22.608  1.00  0.00     0.049 C 
ENDBRANCH  22  23
ENDBRANCH  20  22
ENDBRANCH  19  20
BRANCH  19  25
ATOM     25  C   UNL A   1      31.857  24.012  24.185  1.00  0.00    -0.014 A 
ATOM     26  C   UNL A   1      31.960  24.498  25.504  1.00  0.00     0.006 A 
ATOM     27  C   UNL A   1      30.803  24.477  23.382  1.00  0.00     0.006 A 
ATOM     28  C   UNL A   1      31.050  25.433  25.997  1.00  0.00     0.000 A 
ATOM     29  C   UNL A   1      29.903  25.423  23.876  1.00  0.00     0.000 A 
ATOM     30  C   UNL A   1      30.031  25.906  25.177  1.00  0.00     0.000 A 
ENDBRANCH  19  25
ENDBRANCH  12  19
ENDBRANCH   6  11
ENDBRANCH   1   5
BRANCH   3  31
ATOM     31  C   UNL A   1      41.762  19.285  27.533  1.00  0.00     0.118 C 
BRANCH  31  32
ATOM     32  C   UNL A   1      42.621  18.466  26.571  1.00  0.00     0.042 C 
BRANCH  32  33
ATOM     33  C   UNL A   1      42.819  19.139  25.217  1.00  0.00     0.118 C 
BRANCH  33  34
ATOM     34  N   UNL A   1      44.092  18.775  24.610  1.00  0.00    -0.352 N 
ATOM     35  C   UNL A   1      45.147  19.566  24.232  1.00  0.00     0.251 C 
ATOM     36  H   UNL A   1      44.213  17.813  24.445  1.00  0.00     0.163 HD
ATOM     37  O   UNL A   1      46.029  19.096  23.519  1.00  0.00    -0.269 OA
BRANCH  35  38
ATOM     38  C   UNL A   1      45.226  20.976  24.666  1.00  0.00     0.039 A 
ATOM     39  C   UNL A   1      45.580  21.253  25.991  1.00  0.00     0.014 A 
ATOM     40  C   UNL A   1      44.909  22.021  23.794  1.00  0.00     0.014 A 
ATOM     41  C   UNL A   1      45.663  22.578  26.424  1.00  0.00     0.010 A 
ATOM     42  C   UNL A   1      45.068  23.342  24.205  1.00  0.00     0.010 A 
ATOM     43  C   UNL A   1      45.437  23.634  25.526  1.00  0.00    -0.014 A 
BRANCH  43  44
ATOM     44  C   UNL A   1      45.583  25.048  25.952  1.00  0.00     0.031 A 
ATOM     45  C   UNL A   1      46.926  25.721  25.904  1.00  0.00     0.074 A 
ATOM     46  C   UNL A   1      44.515  25.705  26.443  1.00  0.00     0.049 A 
ATOM     47  N   UNL A   1      47.262  26.928  26.285  1.00  0.00    -0.248 NA
ATOM     48  C   UNL A   1      48.048  24.923  25.385  1.00  0.00     0.031 C 
ATOM     49  C   UNL A   1      43.168  25.147  26.578  1.00  0.00     0.029 A 
ATOM     50  N   UNL A   1      44.394  26.983  26.925  1.00  0.00    -0.354 N 
ATOM     51  C   UNL A   1      48.630  27.025  26.069  1.00  0.00     0.074 A 
ATOM     52  C   UNL A   1      49.073  25.741  25.574  1.00  0.00     0.031 C 
ATOM     53  C   UNL A   1      42.351  26.086  27.079  1.00  0.00     0.029 A 
ATOM     54  C   UNL A   1      43.123  27.297  27.339  1.00  0.00     0.049 A 
ATOM     55  H   UNL A   1      45.148  27.616  26.970  1.00  0.00     0.167 HD
ATOM     56  C   UNL A   1      49.441  28.095  26.252  1.00  0.00     0.037 A 
ATOM     57  C   UNL A   1      42.636  28.432  27.874  1.00  0.00     0.037 A 
ATOM     58  C   UNL A   1      48.990  29.378  26.726  1.00  0.00     0.049 A 
ATOM     59  C   UNL A   1      43.559  29.599  28.082  1.00  0.00     0.074 A 
ATOM     60  C   UNL A   1      49.716  30.546  26.876  1.00  0.00     0.029 A 
ATOM     61  N   UNL A   1      47.695  29.657  27.137  1.00  0.00    -0.354 N 
ATOM     62  N   UNL A   1      44.835  29.705  27.802  1.00  0.00    -0.248 NA
ATOM     63  C   UNL A   1      42.972  30.808  28.678  1.00  0.00     0.031 C 
ATOM     64  C   UNL A   1      48.875  31.515  27.433  1.00  0.00     0.029 A 
ATOM     65  C   UNL A   1      47.609  30.970  27.573  1.00  0.00     0.049 A 
ATOM     66  H   UNL A   1      46.947  29.017  27.121  1.00  0.00     0.167 HD
ATOM     67  C   UNL A   1      45.198  30.998  28.157  1.00  0.00     0.074 A 
ATOM     68  C   UNL A   1      44.002  31.642  28.662  1.00  0.00     0.031 C 
ATOM     69  C   UNL A   1      46.410  31.598  28.070  1.00  0.00     0.037 A 
BRANCH  56  70
ATOM     70  C   UNL A   1      50.902  27.917  25.948  1.00  0.00     0.057 A 
ATOM     71  C   UNL A   1      51.425  28.108  24.661  1.00  0.00     0.134 A 
ATOM     72  C   UNL A   1      51.804  27.572  26.962  1.00  0.00     0.134 A 
ATOM     73  F   UNL A   1      50.616  28.430  23.640  1.00  0.00    -0.206 F 
ATOM     74  C   UNL A   1      52.781  27.924  24.386  1.00  0.00     0.040 A 
ATOM     75  C   UNL A   1      53.169  27.417  26.707  1.00  0.00     0.040 A 
ATOM     76  F   UNL A   1      51.377  27.383  28.220  1.00  0.00    -0.206 F 
ATOM     77  C   UNL A   1      53.659  27.583  25.414  1.00  0.00     0.006 A 
ENDBRANCH  56  70
BRANCH  57  78
ATOM     78  C   UNL A   1      41.195  28.530  28.220  1.00  0.00     0.057 A 
ATOM     79  C   UNL A   1      40.737  28.186  29.497  1.00  0.00     0.134 A 
ATOM     80  C   UNL A   1      40.244  28.973  27.293  1.00  0.00     0.134 A 
ATOM     81  F   UNL A   1      41.599  27.739  30.423  1.00  0.00    -0.206 F 
ATOM     82  C   UNL A   1      39.385  28.260  29.835  1.00  0.00     0.040 A 
ATOM     83  C   UNL A   1      38.892  29.078  27.626  1.00  0.00     0.040 A 
ATOM     84  F   UNL A   1      40.618  29.328  26.055  1.00  0.00    -0.206 F 
ATOM     85  C   UNL A   1      38.459  28.713  28.899  1.00  0.00     0.006 A 
ENDBRANCH  57  78
BRANCH  69  86
ATOM     86  C   UNL A   1      46.497  33.036  28.495  1.00  0.00     0.057 A 
ATOM     87  C   UNL A   1      46.253  34.090  27.606  1.00  0.00     0.134 A 
ATOM     88  C   UNL A   1      46.792  33.367  29.825  1.00  0.00     0.134 A 
ATOM     89  F   UNL A   1      45.978  33.843  26.316  1.00  0.00    -0.206 F 
ATOM     90  C   UNL A   1      46.325  35.422  28.018  1.00  0.00     0.040 A 
ATOM     91  C   UNL A   1      46.837  34.694  30.254  1.00  0.00     0.040 A 
ATOM     92  F   UNL A   1      47.028  32.406  30.730  1.00  0.00    -0.206 F 
ATOM     93  C   UNL A   1      46.610  35.727  29.347  1.00  0.00     0.006 A 
ENDBRANCH  69  86
ENDBRANCH  43  44
ENDBRANCH  35  38
ENDBRANCH  33  34
ENDBRANCH  32  33
ENDBRANCH  31  32
ENDBRANCH   3  31
TORSDOF 16
ENDMDL
MODEL 2
REMARK VINA RESULT:     -11.8      5.249     11.308
REMARK SMILES CCOC(=O)[C@H](c1ccccc1)N1C(=O)/C(=C/c2ccc(C(=O)NCCCNC(=O)c3ccc(-c4c5nc(c(-c6c(F)cccc6F)c6ccc([nH]6)c(-c6c(F)cccc6F)c6nc(c(-c7c(F)cccc7F)c7ccc4[nH]7)C=C6)C=C5)cc3)cc2)SC1=S
REMARK SMILES IDX 22 1 23 2 24 3 21 5 18 6 19 7 86 8 20 9 85 10 17 11 13 12
REMARK SMILES IDX 14 13 88 14 15 15 16 16 87 17 89 18 6 19 4 20 5 21 3 22 2 23
REMARK SMILES IDX 1 24 7 25 8 26 12 27 9 28 11 29 10 30 25 31 26 32 27 33
REMARK SMILES IDX 28 34 29 35 30 37 31 38 32 39 84 40 33 41 83 42 34 43 35 44
REMARK SMILES IDX 36 45 77 46 37 47 82 48 76 49 78 50 38 51 81 52 75 53 74 54
REMARK SMILES IDX 39 56 65 57 48 58 64 59 49 60 52 61 63 62 79 63 50 64 51 65
REMARK SMILES IDX 62 67 80 68 53 69 40 70 41 71 46 72 42 73 43 74 45 75 47 76
REMARK SMILES IDX 44 77 66 78 67 79 72 80 68 81 69 82 71 83 73 84 70 85 54 86
REMARK SMILES IDX 55 87 60 88 56 89 57 90 59 91 61 92 58 93
REMARK H PARENT 24 4 28 36 78 55 52 66
REMARK Flexibility Score: inf
ROOT
ATOM      1  C   UNL A   1      35.438  34.809  32.186  1.00  0.00     0.251 C 
ATOM      2  O   UNL A   1      35.575  35.816  32.881  1.00  0.00    -0.269 OA
ATOM      3  N   UNL A   1      34.539  34.862  31.151  1.00  0.00    -0.352 N 
ATOM      4  H   UNL A   1      34.040  35.710  31.097  1.00  0.00     0.163 HD
ENDROOT
BRANCH   1   5
ATOM      5  C   UNL A   1      36.281  33.614  32.466  1.00  0.00     0.039 A 
ATOM      6  C   UNL A   1      37.910  31.344  32.816  1.00  0.00    -0.024 A 
ATOM      7  C   UNL A   1      38.204  32.266  31.809  1.00  0.00     0.009 A 
ATOM      8  C   UNL A   1      36.844  31.594  33.683  1.00  0.00     0.009 A 
ATOM      9  C   UNL A   1      37.389  33.392  31.633  1.00  0.00     0.014 A 
ATOM     10  C   UNL A   1      36.053  32.733  33.524  1.00  0.00     0.014 A 
BRANCH   6  11
ATOM     11  C   UNL A   1      38.720  30.141  33.017  1.00  0.00     0.029 C 
ATOM     12  N   UNL A   1      41.905  29.091  34.407  1.00  0.00    -0.274 N 
ATOM     13  C   UNL A   1      40.713  28.862  33.742  1.00  0.00     0.267 C 
ATOM     14  C   UNL A   1      41.818  30.184  35.254  1.00  0.00     0.149 C 
ATOM     15  O   UNL A   1      40.282  27.799  33.304  1.00  0.00    -0.268 OA
ATOM     16  C   UNL A   1      39.871  30.088  33.703  1.00  0.00     0.081 C 
ATOM     17  S   UNL A   1      40.600  31.309  34.648  1.00  0.00    -0.054 SA
ATOM     18  S   UNL A   1      42.596  30.483  36.700  1.00  0.00    -0.052 S 
BRANCH  12  19
ATOM     19  C   UNL A   1      43.026  28.096  34.440  1.00  0.00     0.232 C 
BRANCH  19  20
ATOM     20  C   UNL A   1      43.722  27.851  33.043  1.00  0.00     0.333 C 
ATOM     21  O   UNL A   1      43.139  27.606  31.992  1.00  0.00    -0.249 OA
BRANCH  20  22
ATOM     22  O   UNL A   1      45.075  27.771  33.149  1.00  0.00    -0.464 OA
BRANCH  22  23
ATOM     23  C   UNL A   1      45.674  28.615  34.147  1.00  0.00     0.229 C 
ATOM     24  C   UNL A   1      47.067  28.116  34.501  1.00  0.00     0.049 C 
ENDBRANCH  22  23
ENDBRANCH  20  22
ENDBRANCH  19  20
BRANCH  19  25
ATOM     25  C   UNL A   1      42.725  26.695  34.993  1.00  0.00    -0.014 A 
ATOM     26  C   UNL A   1      41.705  26.493  35.945  1.00  0.00     0.006 A 
ATOM     27  C   UNL A   1      43.311  25.568  34.394  1.00  0.00     0.006 A 
ATOM     28  C   UNL A   1      41.272  25.208  36.271  1.00  0.00     0.000 A 
ATOM     29  C   UNL A   1      42.864  24.284  34.714  1.00  0.00     0.000 A 
ATOM     30  C   UNL A   1      41.842  24.106  35.644  1.00  0.00     0.000 A 
ENDBRANCH  19  25
ENDBRANCH  12  19
ENDBRANCH   6  11
ENDBRANCH   1   5
BRANCH   3  31
ATOM     31  C   UNL A   1      34.187  33.901  30.121  1.00  0.00     0.118 C 
BRANCH  31  32
ATOM     32  C   UNL A   1      34.869  34.244  28.796  1.00  0.00     0.042 C 
BRANCH  32  33
ATOM     33  C   UNL A   1      35.524  33.040  28.126  1.00  0.00     0.118 C 
BRANCH  33  34
ATOM     34  N   UNL A   1      34.640  31.884  28.101  1.00  0.00    -0.352 N 
ATOM     35  C   UNL A   1      34.938  30.547  28.035  1.00  0.00     0.251 C 
ATOM     36  H   UNL A   1      33.679  32.095  28.137  1.00  0.00     0.163 HD
ATOM     37  O   UNL A   1      34.047  29.741  27.783  1.00  0.00    -0.269 OA
BRANCH  35  38
ATOM     38  C   UNL A   1      36.320  30.070  28.257  1.00  0.00     0.039 A 
ATOM     39  C   UNL A   1      37.223  30.108  27.190  1.00  0.00     0.014 A 
ATOM     40  C   UNL A   1      36.715  29.544  29.489  1.00  0.00     0.014 A 
ATOM     41  C   UNL A   1      38.534  29.664  27.375  1.00  0.00     0.010 A 
ATOM     42  C   UNL A   1      38.042  29.176  29.695  1.00  0.00     0.010 A 
ATOM     43  C   UNL A   1      38.962  29.223  28.638  1.00  0.00    -0.014 A 
BRANCH  43  44
ATOM     44  C   UNL A   1      40.368  28.807  28.870  1.00  0.00     0.031 A 
ATOM     45  C   UNL A   1      41.352  29.766  29.479  1.00  0.00     0.074 A 
ATOM     46  C   UNL A   1      40.771  27.586  28.471  1.00  0.00     0.049 A 
ATOM     47  N   UNL A   1      42.631  29.606  29.708  1.00  0.00    -0.248 NA
ATOM     48  C   UNL A   1      40.838  31.092  29.857  1.00  0.00     0.031 C 
ATOM     49  C   UNL A   1      39.920  26.582  27.830  1.00  0.00     0.029 A 
ATOM     50  N   UNL A   1      42.001  26.984  28.539  1.00  0.00    -0.354 N 
ATOM     51  C   UNL A   1      43.075  30.811  30.236  1.00  0.00     0.074 A 
ATOM     52  C   UNL A   1      41.943  31.710  30.247  1.00  0.00     0.031 C 
ATOM     53  C   UNL A   1      40.646  25.478  27.593  1.00  0.00     0.029 A 
ATOM     54  C   UNL A   1      42.020  25.711  28.025  1.00  0.00     0.049 A 
ATOM     55  H   UNL A   1      42.796  27.422  28.922  1.00  0.00     0.167 HD
ATOM     56  C   UNL A   1      44.311  31.133  30.688  1.00  0.00     0.037 A 
ATOM     57  C   UNL A   1      43.032  24.832  27.908  1.00  0.00     0.037 A 
ATOM     58  C   UNL A   1      45.429  30.225  30.694  1.00  0.00     0.049 A 
ATOM     59  C   UNL A   1      44.398  25.218  28.401  1.00  0.00     0.074 A 
ATOM     60  C   UNL A   1      46.702  30.429  31.196  1.00  0.00     0.029 A 
ATOM     61  N   UNL A   1      45.409  28.944  30.162  1.00  0.00    -0.354 N 
ATOM     62  N   UNL A   1      44.788  26.333  28.970  1.00  0.00    -0.248 NA
ATOM     63  C   UNL A   1      45.467  24.221  28.239  1.00  0.00     0.031 C 
ATOM     64  C   UNL A   1      47.469  29.293  30.915  1.00  0.00     0.029 A 
ATOM     65  C   UNL A   1      46.658  28.358  30.293  1.00  0.00     0.049 A 
ATOM     66  H   UNL A   1      44.624  28.515  29.751  1.00  0.00     0.167 HD
ATOM     67  C   UNL A   1      46.135  26.162  29.263  1.00  0.00     0.074 A 
ATOM     68  C   UNL A   1      46.491  24.831  28.818  1.00  0.00     0.031 C 
ATOM     69  C   UNL A   1      46.998  27.028  29.849  1.00  0.00     0.037 A 
BRANCH  56  70
ATOM     70  C   UNL A   1      44.519  32.529  31.203  1.00  0.00     0.057 A 
ATOM     71  C   UNL A   1      44.313  32.867  32.547  1.00  0.00     0.134 A 
ATOM     72  C   UNL A   1      44.953  33.548  30.344  1.00  0.00     0.134 A 
ATOM     73  F   UNL A   1      43.888  31.943  33.423  1.00  0.00    -0.206 F 
ATOM     74  C   UNL A   1      44.495  34.171  33.011  1.00  0.00     0.040 A 
ATOM     75  C   UNL A   1      45.169  34.849  30.803  1.00  0.00     0.040 A 
ATOM     76  F   UNL A   1      45.179  33.295  29.046  1.00  0.00    -0.206 F 
ATOM     77  C   UNL A   1      44.930  35.166  32.137  1.00  0.00     0.006 A 
ENDBRANCH  56  70
BRANCH  57  78
ATOM     78  C   UNL A   1      42.785  23.487  27.328  1.00  0.00     0.057 A 
ATOM     79  C   UNL A   1      42.386  22.418  28.138  1.00  0.00     0.134 A 
ATOM     80  C   UNL A   1      42.935  23.237  25.959  1.00  0.00     0.134 A 
ATOM     81  F   UNL A   1      42.241  22.592  29.461  1.00  0.00    -0.206 F 
ATOM     82  C   UNL A   1      42.162  21.145  27.613  1.00  0.00     0.040 A 
ATOM     83  C   UNL A   1      42.689  21.975  25.416  1.00  0.00     0.040 A 
ATOM     84  F   UNL A   1      43.307  24.221  25.127  1.00  0.00    -0.206 F 
ATOM     85  C   UNL A   1      42.308  20.922  26.245  1.00  0.00     0.006 A 
ENDBRANCH  57  78
BRANCH  69  86
ATOM     86  C   UNL A   1      48.402  26.550  30.078  1.00  0.00     0.057 A 
ATOM     87  C   UNL A   1      49.427  26.781  29.152  1.00  0.00     0.134 A 
ATOM     88  C   UNL A   1      48.740  25.879  31.261  1.00  0.00     0.134 A 
ATOM     89  F   UNL A   1      49.168  27.406  27.992  1.00  0.00    -0.206 F 
ATOM     90  C   UNL A   1      50.732  26.341  29.383  1.00  0.00     0.040 A 
ATOM     91  C   UNL A   1      50.047  25.462  31.517  1.00  0.00     0.040 A 
ATOM     92  F   UNL A   1      47.809  25.632  32.194  1.00  0.00    -0.206 F 
ATOM     93  C   UNL A   1      51.046  25.686  30.572  1.00  0.00     0.006 A 
ENDBRANCH  69  86
ENDBRANCH  43  44
ENDBRANCH  35  38
ENDBRANCH  33  34
ENDBRANCH  32  33
ENDBRANCH  31  32
ENDBRANCH   3  31
TORSDOF 16
ENDMDL
MODEL 3
REMARK VINA RESULT:     -11.6      0.257      5.890
REMARK SMILES CCOC(=O)[C@H](c1ccccc1)N1C(=O)/C(=C/c2ccc(C(=O)NCCCNC(=O)c3ccc(-c4c5nc(c(-c6c(F)cccc6F)c6ccc([nH]6)c(-c6c(F)cccc6F)c6nc(c(-c7c(F)cccc7F)c7ccc4[nH]7)C=C6)C=C5)cc3)cc2)SC1=S
REMARK SMILES IDX 22 1 23 2 24 3 21 5 18 6 19 7 86 8 20 9 85 10 17 11 13 12
REMARK SMILES IDX 14 13 88 14 15 15 16 16 87 17 89 18 6 19 4 20 5 21 3 22 2 23
REMARK SMILES IDX 1 24 7 25 8 26 12 27 9 28 11 29 10 30 25 31 26 32 27 33
REMARK SMILES IDX 28 34 29 35 30 37 31 38 32 39 84 40 33 41 83 42 34 43 35 44
REMARK SMILES IDX 36 45 77 46 37 47 82 48 76 49 78 50 38 51 81 52 75 53 74 54
REMARK SMILES IDX 39 56 65 57 48 58 64 59 49 60 52 61 63 62 79 63 50 64 51 65
REMARK SMILES IDX 62 67 80 68 53 69 40 70 41 71 46 72 42 73 43 74 45 75 47 76
REMARK SMILES IDX 44 77 66 78 67 79 72 80 68 81 69 82 71 83 73 84 70 85 54 86
REMARK SMILES IDX 55 87 60 88 56 89 57 90 59 91 61 92 58 93
REMARK H PARENT 24 4 28 36 78 55 52 66
REMARK Flexibility Score: inf
ROOT
ATOM      1  C   UNL A   1      42.171  21.807  28.062  1.00  0.00     0.251 C 
ATOM      2  O   UNL A   1      42.954  22.575  28.619  1.00  0.00    -0.269 OA
ATOM      3  N   UNL A   1      42.477  20.469  28.060  1.00  0.00    -0.352 N 
ATOM      4  H   UNL A   1      43.345  20.256  28.474  1.00  0.00     0.163 HD
ENDROOT
BRANCH   1   5
ATOM      5  C   UNL A   1      40.919  22.351  27.467  1.00  0.00     0.039 A 
ATOM      6  C   UNL A   1      38.517  23.459  26.502  1.00  0.00    -0.024 A 
ATOM      7  C   UNL A   1      39.271  24.148  27.454  1.00  0.00     0.009 A 
ATOM      8  C   UNL A   1      38.999  22.252  25.990  1.00  0.00     0.009 A 
ATOM      9  C   UNL A   1      40.464  23.592  27.937  1.00  0.00     0.014 A 
ATOM     10  C   UNL A   1      40.203  21.717  26.451  1.00  0.00     0.014 A 
BRANCH   6  11
ATOM     11  C   UNL A   1      37.252  23.991  25.991  1.00  0.00     0.029 C 
ATOM     12  N   UNL A   1      34.170  22.895  24.417  1.00  0.00    -0.274 N 
ATOM     13  C   UNL A   1      35.030  23.863  24.905  1.00  0.00     0.267 C 
ATOM     14  C   UNL A   1      34.366  21.673  25.041  1.00  0.00     0.149 C 
ATOM     15  O   UNL A   1      34.860  25.078  24.942  1.00  0.00    -0.268 OA
ATOM     16  C   UNL A   1      36.226  23.252  25.544  1.00  0.00     0.081 C 
ATOM     17  S   UNL A   1      36.034  21.555  25.605  1.00  0.00    -0.054 SA
ATOM     18  S   UNL A   1      33.277  20.452  25.373  1.00  0.00    -0.052 S 
BRANCH  12  19
ATOM     19  C   UNL A   1      32.980  23.214  23.562  1.00  0.00     0.232 C 
BRANCH  19  20
ATOM     20  C   UNL A   1      33.328  23.949  22.209  1.00  0.00     0.333 C 
ATOM     21  O   UNL A   1      33.277  23.444  21.092  1.00  0.00    -0.249 OA
BRANCH  20  22
ATOM     22  O   UNL A   1      33.864  25.181  22.414  1.00  0.00    -0.464 OA
BRANCH  22  23
ATOM     23  C   UNL A   1      33.225  26.264  21.715  1.00  0.00     0.229 C 
ATOM     24  C   UNL A   1      33.119  27.489  22.612  1.00  0.00     0.049 C 
ENDBRANCH  22  23
ENDBRANCH  20  22
ENDBRANCH  19  20
BRANCH  19  25
ATOM     25  C   UNL A   1      31.847  24.041  24.191  1.00  0.00    -0.014 A 
ATOM     26  C   UNL A   1      31.943  24.517  25.515  1.00  0.00     0.006 A 
ATOM     27  C   UNL A   1      30.803  24.520  23.384  1.00  0.00     0.006 A 
ATOM     28  C   UNL A   1      31.037  25.456  26.007  1.00  0.00     0.000 A 
ATOM     29  C   UNL A   1      29.907  25.471  23.877  1.00  0.00     0.000 A 
ATOM     30  C   UNL A   1      30.029  25.943  25.183  1.00  0.00     0.000 A 
ENDBRANCH  19  25
ENDBRANCH  12  19
ENDBRANCH   6  11
ENDBRANCH   1   5
BRANCH   3  31
ATOM     31  C   UNL A   1      41.759  19.309  27.562  1.00  0.00     0.118 C 
BRANCH  31  32
ATOM     32  C   UNL A   1      42.611  18.522  26.566  1.00  0.00     0.042 C 
BRANCH  32  33
ATOM     33  C   UNL A   1      42.846  19.266  25.255  1.00  0.00     0.118 C 
BRANCH  33  34
ATOM     34  N   UNL A   1      44.094  18.865  24.620  1.00  0.00    -0.352 N 
ATOM     35  C   UNL A   1      45.171  19.623  24.238  1.00  0.00     0.251 C 
ATOM     36  H   UNL A   1      44.176  17.902  24.437  1.00  0.00     0.163 HD
ATOM     37  O   UNL A   1      46.023  19.134  23.502  1.00  0.00    -0.269 OA
BRANCH  35  38
ATOM     38  C   UNL A   1      45.310  21.022  24.695  1.00  0.00     0.039 A 
ATOM     39  C   UNL A   1      45.571  21.265  26.047  1.00  0.00     0.014 A 
ATOM     40  C   UNL A   1      45.138  22.092  23.813  1.00  0.00     0.014 A 
ATOM     41  C   UNL A   1      45.709  22.577  26.503  1.00  0.00     0.010 A 
ATOM     42  C   UNL A   1      45.353  23.396  24.252  1.00  0.00     0.010 A 
ATOM     43  C   UNL A   1      45.631  23.653  25.603  1.00  0.00    -0.014 A 
BRANCH  43  44
ATOM     44  C   UNL A   1      45.836  25.050  26.057  1.00  0.00     0.031 A 
ATOM     45  C   UNL A   1      44.677  25.861  26.566  1.00  0.00     0.074 A 
ATOM     46  C   UNL A   1      47.057  25.608  25.949  1.00  0.00     0.049 A 
ATOM     47  N   UNL A   1      44.649  27.111  26.954  1.00  0.00    -0.248 NA
ATOM     48  C   UNL A   1      43.371  25.187  26.622  1.00  0.00     0.031 C 
ATOM     49  C   UNL A   1      48.251  24.937  25.432  1.00  0.00     0.029 A 
ATOM     50  N   UNL A   1      47.495  26.869  26.263  1.00  0.00    -0.354 N 
ATOM     51  C   UNL A   1      43.325  27.376  27.280  1.00  0.00     0.074 A 
ATOM     52  C   UNL A   1      42.572  26.175  26.996  1.00  0.00     0.031 C 
ATOM     53  C   UNL A   1      49.292  25.782  25.493  1.00  0.00     0.029 A 
ATOM     54  C   UNL A   1      48.831  27.066  26.012  1.00  0.00     0.049 A 
ATOM     55  H   UNL A   1      46.908  27.568  26.633  1.00  0.00     0.167 HD
ATOM     56  C   UNL A   1      42.789  28.513  27.786  1.00  0.00     0.037 A 
ATOM     57  C   UNL A   1      49.597  28.160  26.176  1.00  0.00     0.037 A 
ATOM     58  C   UNL A   1      43.550  29.699  28.087  1.00  0.00     0.049 A 
ATOM     59  C   UNL A   1      48.976  29.414  26.724  1.00  0.00     0.074 A 
ATOM     60  C   UNL A   1      43.116  30.876  28.670  1.00  0.00     0.029 A 
ATOM     61  N   UNL A   1      44.900  29.860  27.816  1.00  0.00    -0.354 N 
ATOM     62  N   UNL A   1      47.739  29.629  27.101  1.00  0.00    -0.248 NA
ATOM     63  C   UNL A   1      49.860  30.580  26.873  1.00  0.00     0.031 C 
ATOM     64  C   UNL A   1      44.191  31.771  28.698  1.00  0.00     0.029 A 
ATOM     65  C   UNL A   1      45.309  31.131  28.190  1.00  0.00     0.049 A 
ATOM     66  H   UNL A   1      45.483  29.173  27.418  1.00  0.00     0.167 HD
ATOM     67  C   UNL A   1      47.701  30.939  27.560  1.00  0.00     0.074 A 
ATOM     68  C   UNL A   1      49.044  31.465  27.425  1.00  0.00     0.031 C 
ATOM     69  C   UNL A   1      46.651  31.641  28.052  1.00  0.00     0.037 A 
BRANCH  56  70
ATOM     70  C   UNL A   1      41.308  28.529  28.036  1.00  0.00     0.057 A 
ATOM     71  C   UNL A   1      40.755  28.154  29.269  1.00  0.00     0.134 A 
ATOM     72  C   UNL A   1      40.421  28.947  27.035  1.00  0.00     0.134 A 
ATOM     73  F   UNL A   1      41.546  27.734  30.269  1.00  0.00    -0.206 F 
ATOM     74  C   UNL A   1      39.376  28.159  29.485  1.00  0.00     0.040 A 
ATOM     75  C   UNL A   1      39.041  28.986  27.250  1.00  0.00     0.040 A 
ATOM     76  F   UNL A   1      40.879  29.329  25.834  1.00  0.00    -0.206 F 
ATOM     77  C   UNL A   1      38.514  28.581  28.474  1.00  0.00     0.006 A 
ENDBRANCH  56  70
BRANCH  57  78
ATOM     78  C   UNL A   1      51.045  28.109  25.849  1.00  0.00     0.057 A 
ATOM     79  C   UNL A   1      51.998  27.865  26.844  1.00  0.00     0.134 A 
ATOM     80  C   UNL A   1      51.511  28.295  24.542  1.00  0.00     0.134 A 
ATOM     81  F   UNL A   1      51.614  27.696  28.118  1.00  0.00    -0.206 F 
ATOM     82  C   UNL A   1      53.364  27.826  26.556  1.00  0.00     0.040 A 
ATOM     83  C   UNL A   1      52.871  28.232  24.235  1.00  0.00     0.040 A 
ATOM     84  F   UNL A   1      50.648  28.523  23.540  1.00  0.00    -0.206 F 
ATOM     85  C   UNL A   1      53.802  28.004  25.246  1.00  0.00     0.006 A 
ENDBRANCH  57  78
BRANCH  69  86
ATOM     86  C   UNL A   1      46.919  33.043  28.516  1.00  0.00     0.057 A 
ATOM     87  C   UNL A   1      46.772  34.148  27.668  1.00  0.00     0.134 A 
ATOM     88  C   UNL A   1      47.294  33.293  29.843  1.00  0.00     0.134 A 
ATOM     89  F   UNL A   1      46.429  33.977  26.382  1.00  0.00    -0.206 F 
ATOM     90  C   UNL A   1      47.013  35.448  28.116  1.00  0.00     0.040 A 
ATOM     91  C   UNL A   1      47.508  34.591  30.310  1.00  0.00     0.040 A 
ATOM     92  F   UNL A   1      47.444  32.281  30.711  1.00  0.00    -0.206 F 
ATOM     93  C   UNL A   1      47.375  35.673  29.442  1.00  0.00     0.006 A 
ENDBRANCH  69  86
ENDBRANCH  43  44
ENDBRANCH  35  38
ENDBRANCH  33  34
ENDBRANCH  32  33
ENDBRANCH  31  32
ENDBRANCH   3  31
TORSDOF 16
ENDMDL
