MODEL 1
REMARK VINA RESULT:     -11.9      0.000      0.000
REMARK SMILES C[C@@H]1CCC[C@@H](N(C)C(=O)N2CCC(CC(=O)NCCCNC(=O)c3ccc(-c4c5nc(c(-c6c(F)cccc6F)c6ccc([nH]6)c(-c6c(F)cccc6F)c6nc(c(-c7c(F)cccc7F)c7ccc4[nH]7)C=C6)C=C5)cc3)CC2)C1
REMARK SMILES IDX 19 1 18 2 16 3 17 4 15 6 14 7 9 8 10 9 11 10 12 11 80 12
REMARK SMILES IDX 13 13 79 14 7 15 8 16 6 17 1 18 2 19 3 20 81 21 4 22 5 23
REMARK SMILES IDX 20 24 21 25 22 26 23 27 24 29 25 30 26 31 78 32 27 33 77 34
REMARK SMILES IDX 28 35 29 36 30 37 71 38 31 39 76 40 70 41 72 42 32 43 75 44
REMARK SMILES IDX 69 45 68 46 33 48 59 49 42 50 58 51 43 52 46 53 57 54 73 55
REMARK SMILES IDX 44 56 45 57 56 59 74 60 47 61 34 62 35 63 40 64 36 65 37 66
REMARK SMILES IDX 39 67 41 68 38 69 60 70 61 71 66 72 62 73 63 74 65 75 67 76
REMARK SMILES IDX 64 77 48 78 49 79 54 80 50 81 51 82 53 83 55 84 52 85
REMARK H PARENT 18 5 22 28 72 47 46 58
REMARK Flexibility Score: inf
ROOT
ATOM      1  C   UNL A   1      36.551  19.978  25.008  1.00  0.00     0.117 C 
ENDROOT
BRANCH   1   2
ATOM      2  N   UNL A   1      35.430  19.107  24.674  1.00  0.00    -0.356 N 
ATOM      3  C   UNL A   1      34.084  19.326  24.688  1.00  0.00     0.220 C 
ATOM      4  O   UNL A   1      33.344  18.398  24.356  1.00  0.00    -0.275 OA
ATOM      5  H   UNL A   1      35.691  18.201  24.390  1.00  0.00     0.163 HD
BRANCH   3   6
ATOM      6  C   UNL A   1      33.506  20.659  25.124  1.00  0.00     0.103 C 
BRANCH   6   7
ATOM      7  C   UNL A   1      33.886  21.811  24.175  1.00  0.00     0.002 C 
ATOM      8  C   UNL A   1      32.391  25.446  23.616  1.00  0.00     0.319 C 
ATOM      9  O   UNL A   1      31.258  25.107  23.948  1.00  0.00    -0.248 OA
ATOM     10  N   UNL A   1      33.338  24.508  23.235  1.00  0.00    -0.325 N 
ATOM     11  C   UNL A   1      32.942  23.394  22.404  1.00  0.00     0.121 C 
ATOM     12  C   UNL A   1      34.510  24.282  24.069  1.00  0.00     0.121 C 
ATOM     13  C   UNL A   1      32.730  22.135  23.225  1.00  0.00     0.026 C 
ATOM     14  C   UNL A   1      34.292  23.064  24.977  1.00  0.00     0.026 C 
BRANCH   8  15
ATOM     15  N   UNL A   1      32.827  26.765  23.563  1.00  0.00    -0.325 N 
ATOM     16  C   UNL A   1      33.418  27.332  22.356  1.00  0.00     0.149 C 
BRANCH  15  17
ATOM     17  C   UNL A   1      32.636  27.693  24.687  1.00  0.00     0.086 C 
ATOM     18  C   UNL A   1      31.547  27.982  27.665  1.00  0.00     0.008 C 
ATOM     19  C   UNL A   1      32.977  28.205  27.165  1.00  0.00    -0.012 C 
ATOM     20  C   UNL A   1      33.228  29.676  26.791  1.00  0.00     0.003 C 
ATOM     21  C   UNL A   1      33.324  27.267  25.994  1.00  0.00     0.028 C 
ATOM     22  C   UNL A   1      32.609  30.086  25.454  1.00  0.00     0.002 C 
ATOM     23  C   UNL A   1      33.005  29.136  24.325  1.00  0.00     0.025 C 
ENDBRANCH  15  17
ENDBRANCH   8  15
ENDBRANCH   6   7
ENDBRANCH   3   6
ENDBRANCH   1   2
BRANCH   1  24
ATOM     24  C   UNL A   1      37.902  19.259  24.962  1.00  0.00     0.042 C 
BRANCH  24  25
ATOM     25  C   UNL A   1      39.016  19.960  25.729  1.00  0.00     0.118 C 
BRANCH  25  26
ATOM     26  N   UNL A   1      40.201  19.125  25.835  1.00  0.00    -0.352 N 
ATOM     27  C   UNL A   1      41.509  19.475  26.066  1.00  0.00     0.251 C 
ATOM     28  H   UNL A   1      40.041  18.160  25.723  1.00  0.00     0.163 HD
ATOM     29  O   UNL A   1      42.392  18.647  25.860  1.00  0.00    -0.269 OA
BRANCH  27  30
ATOM     30  C   UNL A   1      41.881  20.826  26.558  1.00  0.00     0.039 A 
ATOM     31  C   UNL A   1      41.770  21.092  27.929  1.00  0.00     0.014 A 
ATOM     32  C   UNL A   1      42.246  21.858  25.688  1.00  0.00     0.014 A 
ATOM     33  C   UNL A   1      42.049  22.371  28.425  1.00  0.00     0.010 A 
ATOM     34  C   UNL A   1      42.594  23.114  26.191  1.00  0.00     0.010 A 
ATOM     35  C   UNL A   1      42.477  23.392  27.562  1.00  0.00    -0.014 A 
BRANCH  35  36
ATOM     36  C   UNL A   1      42.760  24.763  28.069  1.00  0.00     0.031 A 
ATOM     37  C   UNL A   1      44.166  25.165  28.427  1.00  0.00     0.074 A 
ATOM     38  C   UNL A   1      41.752  25.638  28.251  1.00  0.00     0.049 A 
ATOM     39  N   UNL A   1      44.603  26.287  28.942  1.00  0.00    -0.248 NA
ATOM     40  C   UNL A   1      45.219  24.162  28.199  1.00  0.00     0.031 C 
ATOM     41  C   UNL A   1      40.339  25.373  27.978  1.00  0.00     0.029 A 
ATOM     42  N   UNL A   1      41.764  26.930  28.718  1.00  0.00    -0.354 N 
ATOM     43  C   UNL A   1      45.970  26.115  29.126  1.00  0.00     0.074 A 
ATOM     44  C   UNL A   1      46.285  24.767  28.703  1.00  0.00     0.031 C 
ATOM     45  C   UNL A   1      39.623  26.475  28.256  1.00  0.00     0.029 A 
ATOM     46  C   UNL A   1      40.520  27.512  28.760  1.00  0.00     0.049 A 
ATOM     47  H   UNL A   1      42.586  27.394  28.997  1.00  0.00     0.167 HD
ATOM     48  C   UNL A   1      46.884  27.002  29.586  1.00  0.00     0.037 A 
ATOM     49  C   UNL A   1      40.143  28.741  29.160  1.00  0.00     0.037 A 
ATOM     50  C   UNL A   1      46.587  28.359  29.961  1.00  0.00     0.049 A 
ATOM     51  C   UNL A   1      41.179  29.712  29.655  1.00  0.00     0.074 A 
ATOM     52  C   UNL A   1      47.461  29.354  30.361  1.00  0.00     0.029 A 
ATOM     53  N   UNL A   1      45.316  28.913  29.976  1.00  0.00    -0.354 N 
ATOM     54  N   UNL A   1      42.474  29.554  29.767  1.00  0.00    -0.248 NA
ATOM     55  C   UNL A   1      40.698  31.037  30.076  1.00  0.00     0.031 C 
ATOM     56  C   UNL A   1      46.715  30.502  30.652  1.00  0.00     0.029 A 
ATOM     57  C   UNL A   1      45.381  30.230  30.398  1.00  0.00     0.049 A 
ATOM     58  H   UNL A   1      44.490  28.438  29.724  1.00  0.00     0.167 HD
ATOM     59  C   UNL A   1      42.965  30.761  30.245  1.00  0.00     0.074 A 
ATOM     60  C   UNL A   1      41.830  31.647  30.394  1.00  0.00     0.031 C 
ATOM     61  C   UNL A   1      44.245  31.104  30.534  1.00  0.00     0.037 A 
BRANCH  48  62
ATOM     62  C   UNL A   1      48.304  26.529  29.710  1.00  0.00     0.057 A 
ATOM     63  C   UNL A   1      49.256  26.778  28.713  1.00  0.00     0.134 A 
ATOM     64  C   UNL A   1      48.731  25.848  30.857  1.00  0.00     0.134 A 
ATOM     65  F   UNL A   1      48.907  27.417  27.586  1.00  0.00    -0.206 F 
ATOM     66  C   UNL A   1      50.576  26.341  28.839  1.00  0.00     0.040 A 
ATOM     67  C   UNL A   1      50.054  25.427  31.005  1.00  0.00     0.040 A 
ATOM     68  F   UNL A   1      47.873  25.584  31.853  1.00  0.00    -0.206 F 
ATOM     69  C   UNL A   1      50.979  25.669  29.991  1.00  0.00     0.006 A 
ENDBRANCH  48  62
BRANCH  49  70
ATOM     70  C   UNL A   1      38.717  29.141  29.080  1.00  0.00     0.057 A 
ATOM     71  C   UNL A   1      37.881  29.044  30.198  1.00  0.00     0.134 A 
ATOM     72  C   UNL A   1      38.155  29.621  27.891  1.00  0.00     0.134 A 
ATOM     73  F   UNL A   1      38.359  28.568  31.358  1.00  0.00    -0.206 F 
ATOM     74  C   UNL A   1      36.532  29.398  30.136  1.00  0.00     0.040 A 
ATOM     75  C   UNL A   1      36.813  29.998  27.820  1.00  0.00     0.040 A 
ATOM     76  F   UNL A   1      38.905  29.738  26.786  1.00  0.00    -0.206 F 
ATOM     77  C   UNL A   1      35.997  29.881  28.944  1.00  0.00     0.006 A 
ENDBRANCH  49  70
BRANCH  61  78
ATOM     78  C   UNL A   1      44.489  32.505  31.007  1.00  0.00     0.057 A 
ATOM     79  C   UNL A   1      44.741  33.551  30.112  1.00  0.00     0.134 A 
ATOM     80  C   UNL A   1      44.436  32.816  32.371  1.00  0.00     0.134 A 
ATOM     81  F   UNL A   1      44.819  33.315  28.793  1.00  0.00    -0.206 F 
ATOM     82  C   UNL A   1      44.948  34.858  30.559  1.00  0.00     0.040 A 
ATOM     83  C   UNL A   1      44.621  34.122  32.829  1.00  0.00     0.040 A 
ATOM     84  F   UNL A   1      44.194  31.859  33.279  1.00  0.00    -0.206 F 
ATOM     85  C   UNL A   1      44.881  35.146  31.921  1.00  0.00     0.006 A 
ENDBRANCH  61  78
ENDBRANCH  35  36
ENDBRANCH  27  30
ENDBRANCH  25  26
ENDBRANCH  24  25
ENDBRANCH   1  24
TORSDOF 13
ENDMDL
MODEL 2
REMARK VINA RESULT:     -11.7      0.329      6.315
REMARK SMILES C[C@@H]1CCC[C@@H](N(C)C(=O)N2CCC(CC(=O)NCCCNC(=O)c3ccc(-c4c5nc(c(-c6c(F)cccc6F)c6ccc([nH]6)c(-c6c(F)cccc6F)c6nc(c(-c7c(F)cccc7F)c7ccc4[nH]7)C=C6)C=C5)cc3)CC2)C1
REMARK SMILES IDX 19 1 18 2 16 3 17 4 15 6 14 7 9 8 10 9 11 10 12 11 80 12
REMARK SMILES IDX 13 13 79 14 7 15 8 16 6 17 1 18 2 19 3 20 81 21 4 22 5 23
REMARK SMILES IDX 20 24 21 25 22 26 23 27 24 29 25 30 26 31 78 32 27 33 77 34
REMARK SMILES IDX 28 35 29 36 30 37 71 38 31 39 76 40 70 41 72 42 32 43 75 44
REMARK SMILES IDX 69 45 68 46 33 48 59 49 42 50 58 51 43 52 46 53 57 54 73 55
REMARK SMILES IDX 44 56 45 57 56 59 74 60 47 61 34 62 35 63 40 64 36 65 37 66
REMARK SMILES IDX 39 67 41 68 38 69 60 70 61 71 66 72 62 73 63 74 65 75 67 76
REMARK SMILES IDX 64 77 48 78 49 79 54 80 50 81 51 82 53 83 55 84 52 85
REMARK H PARENT 18 5 22 28 72 47 46 58
REMARK Flexibility Score: inf
ROOT
ATOM      1  C   UNL A   1      36.239  19.936  24.994  1.00  0.00     0.117 C 
ENDROOT
BRANCH   1   2
ATOM      2  N   UNL A   1      35.098  19.075  24.701  1.00  0.00    -0.356 N 
ATOM      3  C   UNL A   1      33.757  19.317  24.732  1.00  0.00     0.220 C 
ATOM      4  O   UNL A   1      32.996  18.394  24.435  1.00  0.00    -0.275 OA
ATOM      5  H   UNL A   1      35.340  18.159  24.433  1.00  0.00     0.163 HD
BRANCH   3   6
ATOM      6  C   UNL A   1      33.208  20.669  25.148  1.00  0.00     0.103 C 
BRANCH   6   7
ATOM      7  C   UNL A   1      33.696  21.813  24.239  1.00  0.00     0.002 C 
ATOM      8  C   UNL A   1      32.355  25.491  23.583  1.00  0.00     0.319 C 
ATOM      9  O   UNL A   1      31.189  25.185  23.821  1.00  0.00    -0.248 OA
ATOM     10  N   UNL A   1      33.301  24.528  23.273  1.00  0.00    -0.325 N 
ATOM     11  C   UNL A   1      32.941  23.428  22.407  1.00  0.00     0.121 C 
ATOM     12  C   UNL A   1      34.396  24.265  24.197  1.00  0.00     0.121 C 
ATOM     13  C   UNL A   1      32.629  22.174  23.201  1.00  0.00     0.026 C 
ATOM     14  C   UNL A   1      34.072  23.051  25.077  1.00  0.00     0.026 C 
BRANCH   8  15
ATOM     15  N   UNL A   1      32.831  26.798  23.573  1.00  0.00    -0.325 N 
ATOM     16  C   UNL A   1      33.499  27.363  22.406  1.00  0.00     0.149 C 
BRANCH  15  17
ATOM     17  C   UNL A   1      32.609  27.716  24.699  1.00  0.00     0.086 C 
ATOM     18  C   UNL A   1      31.535  27.954  27.687  1.00  0.00     0.008 C 
ATOM     19  C   UNL A   1      32.949  28.240  27.175  1.00  0.00    -0.012 C 
ATOM     20  C   UNL A   1      33.131  29.721  26.800  1.00  0.00     0.003 C 
ATOM     21  C   UNL A   1      33.327  27.319  26.000  1.00  0.00     0.028 C 
ATOM     22  C   UNL A   1      32.484  30.105  25.469  1.00  0.00     0.002 C 
ATOM     23  C   UNL A   1      32.911  29.173  24.335  1.00  0.00     0.025 C 
ENDBRANCH  15  17
ENDBRANCH   8  15
ENDBRANCH   6   7
ENDBRANCH   3   6
ENDBRANCH   1   2
BRANCH   1  24
ATOM     24  C   UNL A   1      37.574  19.187  24.972  1.00  0.00     0.042 C 
BRANCH  24  25
ATOM     25  C   UNL A   1      38.758  19.991  25.496  1.00  0.00     0.118 C 
BRANCH  25  26
ATOM     26  N   UNL A   1      39.929  19.154  25.694  1.00  0.00    -0.352 N 
ATOM     27  C   UNL A   1      41.209  19.498  26.057  1.00  0.00     0.251 C 
ATOM     28  H   UNL A   1      39.782  18.192  25.545  1.00  0.00     0.163 HD
ATOM     29  O   UNL A   1      42.109  18.674  25.916  1.00  0.00    -0.269 OA
BRANCH  27  30
ATOM     30  C   UNL A   1      41.529  20.836  26.615  1.00  0.00     0.039 A 
ATOM     31  C   UNL A   1      41.934  21.848  25.734  1.00  0.00     0.014 A 
ATOM     32  C   UNL A   1      41.530  21.086  27.991  1.00  0.00     0.014 A 
ATOM     33  C   UNL A   1      42.307  23.104  26.226  1.00  0.00     0.010 A 
ATOM     34  C   UNL A   1      41.832  22.361  28.475  1.00  0.00     0.010 A 
ATOM     35  C   UNL A   1      42.246  23.378  27.602  1.00  0.00    -0.014 A 
BRANCH  35  36
ATOM     36  C   UNL A   1      42.657  24.702  28.143  1.00  0.00     0.031 A 
ATOM     37  C   UNL A   1      41.627  25.770  28.399  1.00  0.00     0.074 A 
ATOM     38  C   UNL A   1      43.959  24.967  28.368  1.00  0.00     0.049 A 
ATOM     39  N   UNL A   1      41.794  27.004  28.807  1.00  0.00    -0.248 NA
ATOM     40  C   UNL A   1      40.224  25.413  28.137  1.00  0.00     0.031 C 
ATOM     41  C   UNL A   1      45.066  24.038  28.134  1.00  0.00     0.029 A 
ATOM     42  N   UNL A   1      44.572  26.103  28.838  1.00  0.00    -0.354 N 
ATOM     43  C   UNL A   1      40.527  27.575  28.822  1.00  0.00     0.074 A 
ATOM     44  C   UNL A   1      39.606  26.566  28.346  1.00  0.00     0.031 C 
ATOM     45  C   UNL A   1      46.218  24.631  28.487  1.00  0.00     0.029 A 
ATOM     46  C   UNL A   1      45.938  25.992  28.938  1.00  0.00     0.049 A 
ATOM     47  H   UNL A   1      44.079  26.919  29.081  1.00  0.00     0.167 HD
ATOM     48  C   UNL A   1      40.160  28.818  29.214  1.00  0.00     0.037 A 
ATOM     49  C   UNL A   1      46.860  26.884  29.344  1.00  0.00     0.037 A 
ATOM     50  C   UNL A   1      41.063  29.809  29.735  1.00  0.00     0.049 A 
ATOM     51  C   UNL A   1      46.425  28.254  29.786  1.00  0.00     0.074 A 
ATOM     52  C   UNL A   1      40.770  31.067  30.233  1.00  0.00     0.029 A 
ATOM     53  N   UNL A   1      42.437  29.651  29.831  1.00  0.00    -0.354 N 
ATOM     54  N   UNL A   1      45.218  28.758  29.850  1.00  0.00    -0.248 NA
ATOM     55  C   UNL A   1      47.485  29.179  30.217  1.00  0.00     0.031 C 
ATOM     56  C   UNL A   1      41.972  31.685  30.599  1.00  0.00     0.029 A 
ATOM     57  C   UNL A   1      43.007  30.796  30.362  1.00  0.00     0.049 A 
ATOM     58  H   UNL A   1      42.933  28.844  29.562  1.00  0.00     0.167 HD
ATOM     59  C   UNL A   1      45.368  30.044  30.350  1.00  0.00     0.074 A 
ATOM     60  C   UNL A   1      46.783  30.242  30.582  1.00  0.00     0.031 C 
ATOM     61  C   UNL A   1      44.417  30.978  30.596  1.00  0.00     0.037 A 
BRANCH  48  62
ATOM     62  C   UNL A   1      38.707  29.180  29.093  1.00  0.00     0.057 A 
ATOM     63  C   UNL A   1      37.839  29.124  30.191  1.00  0.00     0.134 A 
ATOM     64  C   UNL A   1      38.181  29.621  27.873  1.00  0.00     0.134 A 
ATOM     65  F   UNL A   1      38.279  28.700  31.385  1.00  0.00    -0.206 F 
ATOM     66  C   UNL A   1      36.491  29.469  30.072  1.00  0.00     0.040 A 
ATOM     67  C   UNL A   1      36.841  29.991  27.748  1.00  0.00     0.040 A 
ATOM     68  F   UNL A   1      38.961  29.705  26.785  1.00  0.00    -0.206 F 
ATOM     69  C   UNL A   1      35.991  29.910  28.849  1.00  0.00     0.006 A 
ENDBRANCH  48  62
BRANCH  49  70
ATOM     70  C   UNL A   1      48.293  26.502  29.384  1.00  0.00     0.057 A 
ATOM     71  C   UNL A   1      49.132  26.748  28.291  1.00  0.00     0.134 A 
ATOM     72  C   UNL A   1      48.855  25.879  30.505  1.00  0.00     0.134 A 
ATOM     73  F   UNL A   1      48.642  27.321  27.181  1.00  0.00    -0.206 F 
ATOM     74  C   UNL A   1      50.477  26.379  28.304  1.00  0.00     0.040 A 
ATOM     75  C   UNL A   1      50.204  25.523  30.539  1.00  0.00     0.040 A 
ATOM     76  F   UNL A   1      48.103  25.618  31.583  1.00  0.00    -0.206 F 
ATOM     77  C   UNL A   1      51.017  25.768  29.434  1.00  0.00     0.006 A 
ENDBRANCH  49  70
BRANCH  61  78
ATOM     78  C   UNL A   1      44.870  32.284  31.175  1.00  0.00     0.057 A 
ATOM     79  C   UNL A   1      44.988  32.475  32.557  1.00  0.00     0.134 A 
ATOM     80  C   UNL A   1      45.227  33.349  30.339  1.00  0.00     0.134 A 
ATOM     81  F   UNL A   1      44.649  31.497  33.411  1.00  0.00    -0.206 F 
ATOM     82  C   UNL A   1      45.431  33.688  33.088  1.00  0.00     0.040 A 
ATOM     83  C   UNL A   1      45.690  34.559  30.858  1.00  0.00     0.040 A 
ATOM     84  F   UNL A   1      45.140  33.227  29.006  1.00  0.00    -0.206 F 
ATOM     85  C   UNL A   1      45.789  34.732  32.237  1.00  0.00     0.006 A 
ENDBRANCH  61  78
ENDBRANCH  35  36
ENDBRANCH  27  30
ENDBRANCH  25  26
ENDBRANCH  24  25
ENDBRANCH   1  24
TORSDOF 13
ENDMDL
MODEL 3
REMARK VINA RESULT:     -11.7      3.415      8.983
REMARK SMILES C[C@@H]1CCC[C@@H](N(C)C(=O)N2CCC(CC(=O)NCCCNC(=O)c3ccc(-c4c5nc(c(-c6c(F)cccc6F)c6ccc([nH]6)c(-c6c(F)cccc6F)c6nc(c(-c7c(F)cccc7F)c7ccc4[nH]7)C=C6)C=C5)cc3)CC2)C1
REMARK SMILES IDX 19 1 18 2 16 3 17 4 15 6 14 7 9 8 10 9 11 10 12 11 80 12
REMARK SMILES IDX 13 13 79 14 7 15 8 16 6 17 1 18 2 19 3 20 81 21 4 22 5 23
REMARK SMILES IDX 20 24 21 25 22 26 23 27 24 29 25 30 26 31 78 32 27 33 77 34
REMARK SMILES IDX 28 35 29 36 30 37 71 38 31 39 76 40 70 41 72 42 32 43 75 44
REMARK SMILES IDX 69 45 68 46 33 48 59 49 42 50 58 51 43 52 46 53 57 54 73 55
REMARK SMILES IDX 44 56 45 57 56 59 74 60 47 61 34 62 35 63 40 64 36 65 37 66
REMARK SMILES IDX 39 67 41 68 38 69 60 70 61 71 66 72 62 73 63 74 65 75 67 76
REMARK SMILES IDX 64 77 48 78 49 79 54 80 50 81 51 82 53 83 55 84 52 85
REMARK H PARENT 18 5 22 28 72 47 46 58
REMARK Flexibility Score: inf
ROOT
ATOM      1  C   UNL A   1      31.413  30.607  25.581  1.00  0.00     0.117 C 
ENDROOT
BRANCH   1   2
ATOM      2  N   UNL A   1      30.405  30.483  24.535  1.00  0.00    -0.356 N 
ATOM      3  C   UNL A   1      30.247  29.564  23.540  1.00  0.00     0.220 C 
ATOM      4  O   UNL A   1      29.290  29.700  22.775  1.00  0.00    -0.275 OA
ATOM      5  H   UNL A   1      29.716  31.187  24.550  1.00  0.00     0.163 HD
BRANCH   3   6
ATOM      6  C   UNL A   1      31.232  28.425  23.355  1.00  0.00     0.103 C 
BRANCH   6   7
ATOM      7  C   UNL A   1      31.437  27.602  24.641  1.00  0.00     0.002 C 
ATOM      8  C   UNL A   1      32.374  23.799  25.283  1.00  0.00     0.319 C 
ATOM      9  O   UNL A   1      31.847  23.419  24.241  1.00  0.00    -0.248 OA
ATOM     10  N   UNL A   1      32.059  25.027  25.841  1.00  0.00    -0.325 N 
ATOM     11  C   UNL A   1      30.685  25.476  25.845  1.00  0.00     0.121 C 
ATOM     12  C   UNL A   1      33.062  26.081  25.885  1.00  0.00     0.121 C 
ATOM     13  C   UNL A   1      30.418  26.461  24.721  1.00  0.00     0.026 C 
ATOM     14  C   UNL A   1      32.874  27.048  24.708  1.00  0.00     0.026 C 
BRANCH   8  15
ATOM     15  N   UNL A   1      33.295  23.051  26.008  1.00  0.00    -0.325 N 
ATOM     16  C   UNL A   1      33.046  22.652  27.389  1.00  0.00     0.149 C 
BRANCH  15  17
ATOM     17  C   UNL A   1      34.532  22.539  25.401  1.00  0.00     0.086 C 
ATOM     18  C   UNL A   1      36.763  23.080  23.195  1.00  0.00     0.008 C 
ATOM     19  C   UNL A   1      36.953  22.968  24.710  1.00  0.00    -0.012 C 
ATOM     20  C   UNL A   1      37.293  21.529  25.137  1.00  0.00     0.003 C 
ATOM     21  C   UNL A   1      35.730  23.501  25.478  1.00  0.00     0.028 C 
ATOM     22  C   UNL A   1      36.090  20.585  25.135  1.00  0.00     0.002 C 
ATOM     23  C   UNL A   1      34.915  21.153  25.930  1.00  0.00     0.025 C 
ENDBRANCH  15  17
ENDBRANCH   8  15
ENDBRANCH   6   7
ENDBRANCH   3   6
ENDBRANCH   1   2
BRANCH   1  24
ATOM     24  C   UNL A   1      31.258  31.881  26.416  1.00  0.00     0.042 C 
BRANCH  24  25
ATOM     25  C   UNL A   1      32.545  32.369  27.070  1.00  0.00     0.118 C 
BRANCH  25  26
ATOM     26  N   UNL A   1      32.428  33.744  27.523  1.00  0.00    -0.352 N 
ATOM     27  C   UNL A   1      33.152  34.425  28.472  1.00  0.00     0.251 C 
ATOM     28  H   UNL A   1      31.720  34.268  27.084  1.00  0.00     0.163 HD
ATOM     29  O   UNL A   1      32.724  35.499  28.889  1.00  0.00    -0.269 OA
BRANCH  27  30
ATOM     30  C   UNL A   1      34.434  33.898  29.003  1.00  0.00     0.039 A 
ATOM     31  C   UNL A   1      35.619  34.217  28.327  1.00  0.00     0.014 A 
ATOM     32  C   UNL A   1      34.482  33.023  30.092  1.00  0.00     0.014 A 
ATOM     33  C   UNL A   1      36.841  33.688  28.757  1.00  0.00     0.010 A 
ATOM     34  C   UNL A   1      35.710  32.553  30.565  1.00  0.00     0.010 A 
ATOM     35  C   UNL A   1      36.901  32.860  29.890  1.00  0.00    -0.014 A 
BRANCH  35  36
ATOM     36  C   UNL A   1      38.189  32.274  30.350  1.00  0.00     0.031 A 
ATOM     37  C   UNL A   1      38.684  30.977  29.766  1.00  0.00     0.074 A 
ATOM     38  C   UNL A   1      38.899  32.878  31.323  1.00  0.00     0.049 A 
ATOM     39  N   UNL A   1      39.745  30.276  30.080  1.00  0.00    -0.248 NA
ATOM     40  C   UNL A   1      37.862  30.373  28.704  1.00  0.00     0.031 C 
ATOM     41  C   UNL A   1      38.523  34.119  32.001  1.00  0.00     0.029 A 
ATOM     42  N   UNL A   1      40.086  32.521  31.915  1.00  0.00    -0.354 N 
ATOM     43  C   UNL A   1      39.702  29.141  29.279  1.00  0.00     0.074 A 
ATOM     44  C   UNL A   1      38.491  29.227  28.492  1.00  0.00     0.031 C 
ATOM     45  C   UNL A   1      39.473  34.435  32.896  1.00  0.00     0.029 A 
ATOM     46  C   UNL A   1      40.506  33.403  32.882  1.00  0.00     0.049 A 
ATOM     47  H   UNL A   1      40.588  31.710  31.671  1.00  0.00     0.167 HD
ATOM     48  C   UNL A   1      40.598  28.129  29.191  1.00  0.00     0.037 A 
ATOM     49  C   UNL A   1      41.598  33.382  33.669  1.00  0.00     0.037 A 
ATOM     50  C   UNL A   1      41.828  28.062  29.933  1.00  0.00     0.049 A 
ATOM     51  C   UNL A   1      42.584  32.254  33.543  1.00  0.00     0.074 A 
ATOM     52  C   UNL A   1      42.836  27.116  29.850  1.00  0.00     0.029 A 
ATOM     53  N   UNL A   1      42.222  28.982  30.892  1.00  0.00    -0.354 N 
ATOM     54  N   UNL A   1      42.558  31.219  32.741  1.00  0.00    -0.248 NA
ATOM     55  C   UNL A   1      43.754  32.294  34.434  1.00  0.00     0.031 C 
ATOM     56  C   UNL A   1      43.825  27.446  30.785  1.00  0.00     0.029 A 
ATOM     57  C   UNL A   1      43.447  28.616  31.423  1.00  0.00     0.049 A 
ATOM     58  H   UNL A   1      41.705  29.778  31.157  1.00  0.00     0.167 HD
ATOM     59  C   UNL A   1      43.716  30.501  33.009  1.00  0.00     0.074 A 
ATOM     60  C   UNL A   1      44.427  31.221  34.043  1.00  0.00     0.031 C 
ATOM     61  C   UNL A   1      44.150  29.346  32.446  1.00  0.00     0.037 A 
BRANCH  48  62
ATOM     62  C   UNL A   1      40.278  27.002  28.251  1.00  0.00     0.057 A 
ATOM     63  C   UNL A   1      40.816  26.942  26.959  1.00  0.00     0.134 A 
ATOM     64  C   UNL A   1      39.448  25.949  28.656  1.00  0.00     0.134 A 
ATOM     65  F   UNL A   1      41.609  27.925  26.507  1.00  0.00    -0.206 F 
ATOM     66  C   UNL A   1      40.519  25.887  26.094  1.00  0.00     0.040 A 
ATOM     67  C   UNL A   1      39.163  24.878  27.809  1.00  0.00     0.040 A 
ATOM     68  F   UNL A   1      38.906  25.941  29.883  1.00  0.00    -0.206 F 
ATOM     69  C   UNL A   1      39.695  24.848  26.521  1.00  0.00     0.006 A 
ENDBRANCH  48  62
BRANCH  49  70
ATOM     70  C   UNL A   1      41.838  34.486  34.630  1.00  0.00     0.057 A 
ATOM     71  C   UNL A   1      41.452  34.367  35.970  1.00  0.00     0.134 A 
ATOM     72  C   UNL A   1      42.451  35.681  34.236  1.00  0.00     0.134 A 
ATOM     73  F   UNL A   1      40.840  33.253  36.399  1.00  0.00    -0.206 F 
ATOM     74  C   UNL A   1      41.654  35.402  36.884  1.00  0.00     0.040 A 
ATOM     75  C   UNL A   1      42.678  36.717  35.144  1.00  0.00     0.040 A 
ATOM     76  F   UNL A   1      42.846  35.854  32.967  1.00  0.00    -0.206 F 
ATOM     77  C   UNL A   1      42.274  36.580  36.471  1.00  0.00     0.006 A 
ENDBRANCH  49  70
BRANCH  61  78
ATOM     78  C   UNL A   1      45.469  28.809  32.912  1.00  0.00     0.057 A 
ATOM     79  C   UNL A   1      46.673  29.187  32.307  1.00  0.00     0.134 A 
ATOM     80  C   UNL A   1      45.537  27.933  34.003  1.00  0.00     0.134 A 
ATOM     81  F   UNL A   1      46.674  30.012  31.249  1.00  0.00    -0.206 F 
ATOM     82  C   UNL A   1      47.900  28.698  32.760  1.00  0.00     0.040 A 
ATOM     83  C   UNL A   1      46.759  27.454  34.477  1.00  0.00     0.040 A 
ATOM     84  F   UNL A   1      44.419  27.537  34.629  1.00  0.00    -0.206 F 
ATOM     85  C   UNL A   1      47.945  27.833  33.853  1.00  0.00     0.006 A 
ENDBRANCH  61  78
ENDBRANCH  35  36
ENDBRANCH  27  30
ENDBRANCH  25  26
ENDBRANCH  24  25
ENDBRANCH   1  24
TORSDOF 13
ENDMDL
