MODEL 1
REMARK VINA RESULT:     -11.6      0.000      0.000
REMARK SMILES CN1C(=O)/C(=C\c2ccc(OCC(=O)NCCCNC(=O)c3ccc(-c4c5nc(c(-c6c(F)cccc6F)c6ccc([nH]6)c(-c6c(F)cccc6F)c6nc(c(-c7c(F)cccc7F)c7ccc4[nH]7)C=C6)C=C5)cc3)cc2)C(O)=NC1=S
REMARK SMILES IDX 16 1 15 2 13 3 14 4 12 6 11 7 10 8 7 9 8 10 77 11 9 12 76 13
REMARK SMILES IDX 6 14 1 15 2 16 3 17 81 18 4 19 5 20 80 21 82 22 78 23 79 24
REMARK SMILES IDX 17 26 18 27 19 28 20 29 21 31 22 32 23 33 75 34 24 35 74 36
REMARK SMILES IDX 25 37 26 38 27 39 68 40 28 41 73 42 67 43 69 44 29 45 72 46
REMARK SMILES IDX 66 47 65 48 30 50 56 51 39 52 55 53 40 54 43 55 54 56 70 57
REMARK SMILES IDX 41 58 42 59 53 61 71 62 44 63 31 64 32 65 37 66 33 67 34 68
REMARK SMILES IDX 36 69 38 70 35 71 57 72 58 73 63 74 59 75 60 76 62 77 64 78
REMARK SMILES IDX 61 79 45 80 46 81 51 82 47 83 48 84 50 85 52 86 49 87
REMARK H PARENT 15 5 79 25 19 30 69 49 43 60
REMARK Flexibility Score: inf
ROOT
ATOM      1  C   UNL A   1      32.555  28.180  24.841  1.00  0.00     0.117 C 
ENDROOT
BRANCH   1   2
ATOM      2  N   UNL A   1      31.662  29.301  24.618  1.00  0.00    -0.353 N 
ATOM      3  C   UNL A   1      30.499  29.332  23.904  1.00  0.00     0.257 C 
ATOM      4  O   UNL A   1      29.854  30.383  23.870  1.00  0.00    -0.271 OA
ATOM      5  H   UNL A   1      31.929  30.151  25.038  1.00  0.00     0.163 HD
BRANCH   3   6
ATOM      6  C   UNL A   1      29.997  28.062  23.204  1.00  0.00     0.329 C 
BRANCH   6   7
ATOM      7  O   UNL A   1      29.248  27.153  23.997  1.00  0.00    -0.484 OA
BRANCH   7   8
ATOM      8  C   UNL A   1      29.864  25.994  24.381  1.00  0.00     0.120 A 
ATOM      9  C   UNL A   1      31.034  23.494  24.883  1.00  0.00    -0.024 A 
ATOM     10  C   UNL A   1      30.936  23.970  23.574  1.00  0.00     0.012 A 
ATOM     11  C   UNL A   1      30.596  24.294  25.941  1.00  0.00     0.012 A 
ATOM     12  C   UNL A   1      30.357  25.217  23.328  1.00  0.00     0.047 A 
ATOM     13  C   UNL A   1      30.016  25.542  25.691  1.00  0.00     0.047 A 
BRANCH   9  14
ATOM     14  C   UNL A   1      31.563  22.153  25.149  1.00  0.00     0.027 C 
ATOM     15  C   UNL A   1      36.256  23.340  24.723  1.00  0.00     0.156 C 
ATOM     16  N   UNL A   1      35.221  22.343  25.002  1.00  0.00    -0.286 N 
ATOM     17  C   UNL A   1      33.957  22.861  25.280  1.00  0.00     0.265 C 
ATOM     18  C   UNL A   1      35.534  20.976  25.076  1.00  0.00     0.205 C 
ATOM     19  O   UNL A   1      33.754  24.051  25.504  1.00  0.00    -0.268 OA
ATOM     20  C   UNL A   1      32.865  21.846  25.328  1.00  0.00     0.103 C 
ATOM     21  N   UNL A   1      34.542  20.080  25.377  1.00  0.00    -0.184 NA
ATOM     22  S   UNL A   1      37.102  20.369  24.843  1.00  0.00    -0.038 S 
ATOM     23  C   UNL A   1      33.328  20.468  25.493  1.00  0.00     0.226 C 
BRANCH  23  24
ATOM     24  O   UNL A   1      32.423  19.530  25.822  1.00  0.00    -0.493 OA
ATOM     25  H   UNL A   1      32.035  19.533  26.675  1.00  0.00     0.295 HD
ENDBRANCH  23  24
ENDBRANCH   9  14
ENDBRANCH   7   8
ENDBRANCH   6   7
ENDBRANCH   3   6
ENDBRANCH   1   2
BRANCH   1  26
ATOM     26  C   UNL A   1      33.880  28.592  25.478  1.00  0.00     0.042 C 
BRANCH  26  27
ATOM     27  C   UNL A   1      33.904  28.560  27.006  1.00  0.00     0.118 C 
BRANCH  27  28
ATOM     28  N   UNL A   1      33.802  29.882  27.609  1.00  0.00    -0.352 N 
ATOM     29  C   UNL A   1      34.699  30.604  28.350  1.00  0.00     0.251 C 
ATOM     30  H   UNL A   1      32.940  30.333  27.459  1.00  0.00     0.163 HD
ATOM     31  O   UNL A   1      34.324  31.660  28.871  1.00  0.00    -0.269 OA
BRANCH  29  32
ATOM     32  C   UNL A   1      36.093  30.154  28.559  1.00  0.00     0.039 A 
ATOM     33  C   UNL A   1      36.986  30.239  27.485  1.00  0.00     0.014 A 
ATOM     34  C   UNL A   1      36.520  29.588  29.764  1.00  0.00     0.014 A 
ATOM     35  C   UNL A   1      38.308  29.808  27.629  1.00  0.00     0.010 A 
ATOM     36  C   UNL A   1      37.857  29.218  29.930  1.00  0.00     0.010 A 
ATOM     37  C   UNL A   1      38.762  29.315  28.862  1.00  0.00    -0.014 A 
BRANCH  37  38
ATOM     38  C   UNL A   1      40.174  28.890  29.041  1.00  0.00     0.031 A 
ATOM     39  C   UNL A   1      41.189  29.835  29.624  1.00  0.00     0.074 A 
ATOM     40  C   UNL A   1      40.559  27.666  28.632  1.00  0.00     0.049 A 
ATOM     41  N   UNL A   1      42.472  29.655  29.817  1.00  0.00    -0.248 NA
ATOM     42  C   UNL A   1      40.704  31.167  30.019  1.00  0.00     0.031 C 
ATOM     43  C   UNL A   1      39.688  26.672  28.003  1.00  0.00     0.029 A 
ATOM     44  N   UNL A   1      41.788  27.054  28.674  1.00  0.00    -0.354 N 
ATOM     45  C   UNL A   1      42.950  30.855  30.330  1.00  0.00     0.074 A 
ATOM     46  C   UNL A   1      41.827  31.767  30.383  1.00  0.00     0.031 C 
ATOM     47  C   UNL A   1      40.405  25.568  27.735  1.00  0.00     0.029 A 
ATOM     48  C   UNL A   1      41.789  25.786  28.148  1.00  0.00     0.049 A 
ATOM     49  H   UNL A   1      42.591  27.483  29.047  1.00  0.00     0.167 HD
ATOM     50  C   UNL A   1      44.204  31.164  30.739  1.00  0.00     0.037 A 
ATOM     51  C   UNL A   1      42.791  24.897  28.012  1.00  0.00     0.037 A 
ATOM     52  C   UNL A   1      45.314  30.247  30.724  1.00  0.00     0.049 A 
ATOM     53  C   UNL A   1      44.166  25.248  28.507  1.00  0.00     0.074 A 
ATOM     54  C   UNL A   1      46.603  30.445  31.187  1.00  0.00     0.029 A 
ATOM     55  N   UNL A   1      45.266  28.958  30.217  1.00  0.00    -0.354 N 
ATOM     56  N   UNL A   1      44.585  26.361  29.057  1.00  0.00    -0.248 NA
ATOM     57  C   UNL A   1      45.203  24.216  28.370  1.00  0.00     0.031 C 
ATOM     58  C   UNL A   1      47.344  29.286  30.932  1.00  0.00     0.029 A 
ATOM     59  C   UNL A   1      46.506  28.353  30.343  1.00  0.00     0.049 A 
ATOM     60  H   UNL A   1      44.467  28.534  29.826  1.00  0.00     0.167 HD
ATOM     61  C   UNL A   1      45.926  26.156  29.355  1.00  0.00     0.074 A 
ATOM     62  C   UNL A   1      46.247  24.807  28.934  1.00  0.00     0.031 C 
ATOM     63  C   UNL A   1      46.811  27.009  29.924  1.00  0.00     0.037 A 
BRANCH  50  64
ATOM     64  C   UNL A   1      44.440  32.557  31.243  1.00  0.00     0.057 A 
ATOM     65  C   UNL A   1      44.330  32.881  32.601  1.00  0.00     0.134 A 
ATOM     66  C   UNL A   1      44.808  33.582  30.362  1.00  0.00     0.134 A 
ATOM     67  F   UNL A   1      43.970  31.947  33.495  1.00  0.00    -0.206 F 
ATOM     68  C   UNL A   1      44.549  34.180  33.061  1.00  0.00     0.040 A 
ATOM     69  C   UNL A   1      45.054  34.879  30.813  1.00  0.00     0.040 A 
ATOM     70  F   UNL A   1      44.939  33.338  29.048  1.00  0.00    -0.206 F 
ATOM     71  C   UNL A   1      44.917  35.183  32.167  1.00  0.00     0.006 A 
ENDBRANCH  50  64
BRANCH  51  72
ATOM     72  C   UNL A   1      42.521  23.570  27.409  1.00  0.00     0.057 A 
ATOM     73  C   UNL A   1      42.615  23.375  26.026  1.00  0.00     0.134 A 
ATOM     74  C   UNL A   1      42.170  22.467  28.196  1.00  0.00     0.134 A 
ATOM     75  F   UNL A   1      42.931  24.400  25.221  1.00  0.00    -0.206 F 
ATOM     76  C   UNL A   1      42.357  22.134  25.445  1.00  0.00     0.040 A 
ATOM     77  C   UNL A   1      41.928  21.215  27.630  1.00  0.00     0.040 A 
ATOM     78  F   UNL A   1      42.070  22.589  29.527  1.00  0.00    -0.206 F 
ATOM     79  C   UNL A   1      42.016  21.047  26.249  1.00  0.00     0.006 A 
ENDBRANCH  51  72
BRANCH  63  80
ATOM     80  C   UNL A   1      48.202  26.500  30.152  1.00  0.00     0.057 A 
ATOM     81  C   UNL A   1      49.215  26.666  29.198  1.00  0.00     0.134 A 
ATOM     82  C   UNL A   1      48.541  25.863  31.352  1.00  0.00     0.134 A 
ATOM     83  F   UNL A   1      48.950  27.256  28.023  1.00  0.00    -0.206 F 
ATOM     84  C   UNL A   1      50.509  26.198  29.422  1.00  0.00     0.040 A 
ATOM     85  C   UNL A   1      49.838  25.409  31.596  1.00  0.00     0.040 A 
ATOM     86  F   UNL A   1      47.619  25.677  32.309  1.00  0.00    -0.206 F 
ATOM     87  C   UNL A   1      50.826  25.573  30.628  1.00  0.00     0.006 A 
ENDBRANCH  63  80
ENDBRANCH  37  38
ENDBRANCH  29  32
ENDBRANCH  27  28
ENDBRANCH  26  27
ENDBRANCH   1  26
TORSDOF 14
ENDMDL
MODEL 2
REMARK VINA RESULT:     -11.6      2.358      7.794
REMARK SMILES CN1C(=O)/C(=C\c2ccc(OCC(=O)NCCCNC(=O)c3ccc(-c4c5nc(c(-c6c(F)cccc6F)c6ccc([nH]6)c(-c6c(F)cccc6F)c6nc(c(-c7c(F)cccc7F)c7ccc4[nH]7)C=C6)C=C5)cc3)cc2)C(O)=NC1=S
REMARK SMILES IDX 16 1 15 2 13 3 14 4 12 6 11 7 10 8 7 9 8 10 77 11 9 12 76 13
REMARK SMILES IDX 6 14 1 15 2 16 3 17 81 18 4 19 5 20 80 21 82 22 78 23 79 24
REMARK SMILES IDX 17 26 18 27 19 28 20 29 21 31 22 32 23 33 75 34 24 35 74 36
REMARK SMILES IDX 25 37 26 38 27 39 68 40 28 41 73 42 67 43 69 44 29 45 72 46
REMARK SMILES IDX 66 47 65 48 30 50 56 51 39 52 55 53 40 54 43 55 54 56 70 57
REMARK SMILES IDX 41 58 42 59 53 61 71 62 44 63 31 64 32 65 37 66 33 67 34 68
REMARK SMILES IDX 36 69 38 70 35 71 57 72 58 73 63 74 59 75 60 76 62 77 64 78
REMARK SMILES IDX 61 79 45 80 46 81 51 82 47 83 48 84 50 85 52 86 49 87
REMARK H PARENT 15 5 79 25 19 30 69 49 43 60
REMARK Flexibility Score: inf
ROOT
ATOM      1  C   UNL A   1      36.027  20.058  24.968  1.00  0.00     0.117 C 
ENDROOT
BRANCH   1   2
ATOM      2  N   UNL A   1      35.090  18.951  24.948  1.00  0.00    -0.353 N 
ATOM      3  C   UNL A   1      33.732  18.989  24.820  1.00  0.00     0.257 C 
ATOM      4  O   UNL A   1      33.111  17.924  24.782  1.00  0.00    -0.271 OA
ATOM      5  H   UNL A   1      35.486  18.054  25.040  1.00  0.00     0.163 HD
BRANCH   3   6
ATOM      6  C   UNL A   1      33.014  20.339  24.678  1.00  0.00     0.329 C 
BRANCH   6   7
ATOM      7  O   UNL A   1      32.721  20.767  23.357  1.00  0.00    -0.484 OA
BRANCH   7   8
ATOM      8  C   UNL A   1      32.504  22.103  23.159  1.00  0.00     0.120 A 
ATOM      9  C   UNL A   1      31.744  24.782  22.820  1.00  0.00    -0.024 A 
ATOM     10  C   UNL A   1      31.048  23.966  23.714  1.00  0.00     0.012 A 
ATOM     11  C   UNL A   1      32.853  24.271  22.141  1.00  0.00     0.012 A 
ATOM     12  C   UNL A   1      31.432  22.633  23.883  1.00  0.00     0.047 A 
ATOM     13  C   UNL A   1      33.233  22.936  22.313  1.00  0.00     0.047 A 
BRANCH   9  14
ATOM     14  C   UNL A   1      31.303  26.158  22.569  1.00  0.00     0.027 C 
ATOM     15  C   UNL A   1      33.089  28.045  26.676  1.00  0.00     0.156 C 
ATOM     16  N   UNL A   1      32.396  28.217  25.399  1.00  0.00    -0.286 N 
ATOM     17  C   UNL A   1      32.535  27.160  24.500  1.00  0.00     0.265 C 
ATOM     18  C   UNL A   1      31.730  29.415  25.092  1.00  0.00     0.205 C 
ATOM     19  O   UNL A   1      33.350  26.254  24.651  1.00  0.00    -0.268 OA
ATOM     20  C   UNL A   1      31.641  27.235  23.308  1.00  0.00     0.103 C 
ATOM     21  N   UNL A   1      31.127  29.549  23.869  1.00  0.00    -0.184 NA
ATOM     22  S   UNL A   1      31.662  30.737  26.155  1.00  0.00    -0.038 S 
ATOM     23  C   UNL A   1      31.082  28.563  23.054  1.00  0.00     0.226 C 
BRANCH  23  24
ATOM     24  O   UNL A   1      30.501  28.790  21.864  1.00  0.00    -0.493 OA
ATOM     25  H   UNL A   1      30.874  29.412  21.271  1.00  0.00     0.295 HD
ENDBRANCH  23  24
ENDBRANCH   9  14
ENDBRANCH   7   8
ENDBRANCH   6   7
ENDBRANCH   3   6
ENDBRANCH   1   2
BRANCH   1  26
ATOM     26  C   UNL A   1      37.458  19.633  24.647  1.00  0.00     0.042 C 
BRANCH  26  27
ATOM     27  C   UNL A   1      38.518  20.128  25.630  1.00  0.00     0.118 C 
BRANCH  27  28
ATOM     28  N   UNL A   1      39.684  19.258  25.702  1.00  0.00    -0.352 N 
ATOM     29  C   UNL A   1      40.977  19.515  26.073  1.00  0.00     0.251 C 
ATOM     30  H   UNL A   1      39.514  18.325  25.438  1.00  0.00     0.163 HD
ATOM     31  O   UNL A   1      41.826  18.630  25.918  1.00  0.00    -0.269 OA
BRANCH  29  32
ATOM     32  C   UNL A   1      41.392  20.819  26.636  1.00  0.00     0.039 A 
ATOM     33  C   UNL A   1      41.879  21.796  25.759  1.00  0.00     0.014 A 
ATOM     34  C   UNL A   1      41.376  21.077  28.010  1.00  0.00     0.014 A 
ATOM     35  C   UNL A   1      42.301  23.036  26.247  1.00  0.00     0.010 A 
ATOM     36  C   UNL A   1      41.736  22.338  28.491  1.00  0.00     0.010 A 
ATOM     37  C   UNL A   1      42.210  23.326  27.617  1.00  0.00    -0.014 A 
BRANCH  37  38
ATOM     38  C   UNL A   1      42.619  24.655  28.144  1.00  0.00     0.031 A 
ATOM     39  C   UNL A   1      41.595  25.731  28.377  1.00  0.00     0.074 A 
ATOM     40  C   UNL A   1      43.921  24.912  28.367  1.00  0.00     0.049 A 
ATOM     41  N   UNL A   1      41.768  26.962  28.792  1.00  0.00    -0.248 NA
ATOM     42  C   UNL A   1      40.195  25.390  28.081  1.00  0.00     0.031 C 
ATOM     43  C   UNL A   1      45.021  23.974  28.133  1.00  0.00     0.029 A 
ATOM     44  N   UNL A   1      44.543  26.045  28.831  1.00  0.00    -0.354 N 
ATOM     45  C   UNL A   1      40.508  27.546  28.783  1.00  0.00     0.074 A 
ATOM     46  C   UNL A   1      39.584  26.548  28.285  1.00  0.00     0.031 C 
ATOM     47  C   UNL A   1      46.179  24.564  28.472  1.00  0.00     0.029 A 
ATOM     48  C   UNL A   1      45.908  25.926  28.920  1.00  0.00     0.049 A 
ATOM     49  H   UNL A   1      44.056  26.864  29.077  1.00  0.00     0.167 HD
ATOM     50  C   UNL A   1      40.147  28.793  29.172  1.00  0.00     0.037 A 
ATOM     51  C   UNL A   1      46.838  26.814  29.318  1.00  0.00     0.037 A 
ATOM     52  C   UNL A   1      41.056  29.775  29.703  1.00  0.00     0.049 A 
ATOM     53  C   UNL A   1      46.410  28.179  29.780  1.00  0.00     0.074 A 
ATOM     54  C   UNL A   1      40.772  31.037  30.193  1.00  0.00     0.029 A 
ATOM     55  N   UNL A   1      42.427  29.603  29.813  1.00  0.00    -0.354 N 
ATOM     56  N   UNL A   1      45.205  28.691  29.834  1.00  0.00    -0.248 NA
ATOM     57  C   UNL A   1      47.471  29.084  30.245  1.00  0.00     0.031 C 
ATOM     58  C   UNL A   1      41.976  31.642  30.571  1.00  0.00     0.029 A 
ATOM     59  C   UNL A   1      43.006  30.742  30.349  1.00  0.00     0.049 A 
ATOM     60  H   UNL A   1      42.918  28.791  29.549  1.00  0.00     0.167 HD
ATOM     61  C   UNL A   1      45.359  29.967  30.361  1.00  0.00     0.074 A 
ATOM     62  C   UNL A   1      46.773  30.146  30.621  1.00  0.00     0.031 C 
ATOM     63  C   UNL A   1      44.413  30.906  30.606  1.00  0.00     0.037 A 
BRANCH  50  64
ATOM     64  C   UNL A   1      38.699  29.164  29.038  1.00  0.00     0.057 A 
ATOM     65  C   UNL A   1      37.812  29.081  30.118  1.00  0.00     0.134 A 
ATOM     66  C   UNL A   1      38.193  29.635  27.820  1.00  0.00     0.134 A 
ATOM     67  F   UNL A   1      38.232  28.627  31.309  1.00  0.00    -0.206 F 
ATOM     68  C   UNL A   1      36.466  29.426  29.985  1.00  0.00     0.040 A 
ATOM     69  C   UNL A   1      36.855  30.006  27.681  1.00  0.00     0.040 A 
ATOM     70  F   UNL A   1      38.991  29.747  26.747  1.00  0.00    -0.206 F 
ATOM     71  C   UNL A   1      35.985  29.895  28.764  1.00  0.00     0.006 A 
ENDBRANCH  50  64
BRANCH  51  72
ATOM     72  C   UNL A   1      48.269  26.426  29.330  1.00  0.00     0.057 A 
ATOM     73  C   UNL A   1      48.831  25.782  30.438  1.00  0.00     0.134 A 
ATOM     74  C   UNL A   1      49.105  26.683  28.238  1.00  0.00     0.134 A 
ATOM     75  F   UNL A   1      48.082  25.526  31.520  1.00  0.00    -0.206 F 
ATOM     76  C   UNL A   1      50.177  25.417  30.465  1.00  0.00     0.040 A 
ATOM     77  C   UNL A   1      50.448  26.307  28.243  1.00  0.00     0.040 A 
ATOM     78  F   UNL A   1      48.623  27.292  27.145  1.00  0.00    -0.206 F 
ATOM     79  C   UNL A   1      50.989  25.676  29.363  1.00  0.00     0.006 A 
ENDBRANCH  51  72
BRANCH  63  80
ATOM     80  C   UNL A   1      44.872  32.198  31.212  1.00  0.00     0.057 A 
ATOM     81  C   UNL A   1      44.962  32.372  32.599  1.00  0.00     0.134 A 
ATOM     82  C   UNL A   1      45.257  33.271  30.398  1.00  0.00     0.134 A 
ATOM     83  F   UNL A   1      44.595  31.388  33.432  1.00  0.00    -0.206 F 
ATOM     84  C   UNL A   1      45.400  33.575  33.155  1.00  0.00     0.040 A 
ATOM     85  C   UNL A   1      45.716  34.471  30.942  1.00  0.00     0.040 A 
ATOM     86  F   UNL A   1      45.199  33.167  29.061  1.00  0.00    -0.206 F 
ATOM     87  C   UNL A   1      45.785  34.627  32.324  1.00  0.00     0.006 A 
ENDBRANCH  63  80
ENDBRANCH  37  38
ENDBRANCH  29  32
ENDBRANCH  27  28
ENDBRANCH  26  27
ENDBRANCH   1  26
TORSDOF 14
ENDMDL
MODEL 3
REMARK VINA RESULT:     -11.6      3.469      4.794
REMARK SMILES CN1C(=O)/C(=C\c2ccc(OCC(=O)NCCCNC(=O)c3ccc(-c4c5nc(c(-c6c(F)cccc6F)c6ccc([nH]6)c(-c6c(F)cccc6F)c6nc(c(-c7c(F)cccc7F)c7ccc4[nH]7)C=C6)C=C5)cc3)cc2)C(O)=NC1=S
REMARK SMILES IDX 16 1 15 2 13 3 14 4 12 6 11 7 10 8 7 9 8 10 77 11 9 12 76 13
REMARK SMILES IDX 6 14 1 15 2 16 3 17 81 18 4 19 5 20 80 21 82 22 78 23 79 24
REMARK SMILES IDX 17 26 18 27 19 28 20 29 21 31 22 32 23 33 75 34 24 35 74 36
REMARK SMILES IDX 25 37 26 38 27 39 68 40 28 41 73 42 67 43 69 44 29 45 72 46
REMARK SMILES IDX 66 47 65 48 30 50 56 51 39 52 55 53 40 54 43 55 54 56 70 57
REMARK SMILES IDX 41 58 42 59 53 61 71 62 44 63 31 64 32 65 37 66 33 67 34 68
REMARK SMILES IDX 36 69 38 70 35 71 57 72 58 73 63 74 59 75 60 76 62 77 64 78
REMARK SMILES IDX 61 79 45 80 46 81 51 82 47 83 48 84 50 85 52 86 49 87
REMARK H PARENT 15 5 79 25 19 30 69 49 43 60
REMARK Flexibility Score: inf
ROOT
ATOM      1  C   UNL A   1      31.083  30.739  25.466  1.00  0.00     0.117 C 
ENDROOT
BRANCH   1   2
ATOM      2  N   UNL A   1      30.273  30.769  24.263  1.00  0.00    -0.353 N 
ATOM      3  C   UNL A   1      29.979  29.745  23.410  1.00  0.00     0.257 C 
ATOM      4  O   UNL A   1      29.228  29.966  22.456  1.00  0.00    -0.271 OA
ATOM      5  H   UNL A   1      29.885  31.644  24.031  1.00  0.00     0.163 HD
BRANCH   3   6
ATOM      6  C   UNL A   1      30.542  28.342  23.676  1.00  0.00     0.329 C 
BRANCH   6   7
ATOM      7  O   UNL A   1      29.727  27.464  24.439  1.00  0.00    -0.484 OA
BRANCH   7   8
ATOM      8  C   UNL A   1      30.104  26.152  24.509  1.00  0.00     0.120 A 
ATOM      9  C   UNL A   1      30.990  23.527  24.952  1.00  0.00    -0.024 A 
ATOM     10  C   UNL A   1      30.564  24.312  26.026  1.00  0.00     0.012 A 
ATOM     11  C   UNL A   1      30.919  24.040  23.654  1.00  0.00     0.012 A 
ATOM     12  C   UNL A   1      30.119  25.617  25.801  1.00  0.00     0.047 A 
ATOM     13  C   UNL A   1      30.474  25.347  23.434  1.00  0.00     0.047 A 
BRANCH   9  14
ATOM     14  C   UNL A   1      31.537  22.186  25.181  1.00  0.00     0.027 C 
ATOM     15  C   UNL A   1      36.215  23.452  24.810  1.00  0.00     0.156 C 
ATOM     16  N   UNL A   1      35.193  22.433  25.055  1.00  0.00    -0.286 N 
ATOM     17  C   UNL A   1      33.920  22.924  25.342  1.00  0.00     0.265 C 
ATOM     18  C   UNL A   1      35.525  21.069  25.089  1.00  0.00     0.205 C 
ATOM     19  O   UNL A   1      33.700  24.104  25.600  1.00  0.00    -0.268 OA
ATOM     20  C   UNL A   1      32.843  21.893  25.355  1.00  0.00     0.103 C 
ATOM     21  N   UNL A   1      34.545  20.150  25.360  1.00  0.00    -0.184 NA
ATOM     22  S   UNL A   1      37.102  20.491  24.845  1.00  0.00    -0.038 S 
ATOM     23  C   UNL A   1      33.325  20.517  25.482  1.00  0.00     0.226 C 
BRANCH  23  24
ATOM     24  O   UNL A   1      32.433  19.558  25.779  1.00  0.00    -0.493 OA
ATOM     25  H   UNL A   1      31.972  19.117  25.092  1.00  0.00     0.295 HD
ENDBRANCH  23  24
ENDBRANCH   9  14
ENDBRANCH   7   8
ENDBRANCH   6   7
ENDBRANCH   3   6
ENDBRANCH   1   2
BRANCH   1  26
ATOM     26  C   UNL A   1      31.042  32.051  26.245  1.00  0.00     0.042 C 
BRANCH  26  27
ATOM     27  C   UNL A   1      32.364  32.464  26.892  1.00  0.00     0.118 C 
BRANCH  27  28
ATOM     28  N   UNL A   1      32.338  33.815  27.436  1.00  0.00    -0.352 N 
ATOM     29  C   UNL A   1      33.124  34.420  28.380  1.00  0.00     0.251 C 
ATOM     30  H   UNL A   1      31.635  34.392  27.061  1.00  0.00     0.163 HD
ATOM     31  O   UNL A   1      32.815  35.549  28.775  1.00  0.00    -0.269 OA
BRANCH  29  32
ATOM     32  C   UNL A   1      34.319  33.760  28.952  1.00  0.00     0.039 A 
ATOM     33  C   UNL A   1      34.128  32.688  29.832  1.00  0.00     0.014 A 
ATOM     34  C   UNL A   1      35.616  34.214  28.696  1.00  0.00     0.014 A 
ATOM     35  C   UNL A   1      35.225  32.046  30.413  1.00  0.00     0.010 A 
ATOM     36  C   UNL A   1      36.715  33.532  29.223  1.00  0.00     0.010 A 
ATOM     37  C   UNL A   1      36.531  32.448  30.094  1.00  0.00    -0.014 A 
BRANCH  37  38
ATOM     38  C   UNL A   1      37.708  31.749  30.673  1.00  0.00     0.031 A 
ATOM     39  C   UNL A   1      38.193  32.088  32.056  1.00  0.00     0.074 A 
ATOM     40  C   UNL A   1      38.375  30.842  29.935  1.00  0.00     0.049 A 
ATOM     41  N   UNL A   1      39.225  31.615  32.710  1.00  0.00    -0.248 NA
ATOM     42  C   UNL A   1      37.435  33.112  32.792  1.00  0.00     0.031 C 
ATOM     43  C   UNL A   1      38.042  30.459  28.562  1.00  0.00     0.029 A 
ATOM     44  N   UNL A   1      39.481  30.084  30.234  1.00  0.00    -0.354 N 
ATOM     45  C   UNL A   1      39.253  32.299  33.919  1.00  0.00     0.074 A 
ATOM     46  C   UNL A   1      38.159  33.247  33.893  1.00  0.00     0.031 C 
ATOM     47  C   UNL A   1      38.914  29.525  28.144  1.00  0.00     0.029 A 
ATOM     48  C   UNL A   1      39.880  29.265  29.208  1.00  0.00     0.049 A 
ATOM     49  H   UNL A   1      39.943  30.125  31.102  1.00  0.00     0.167 HD
ATOM     50  C   UNL A   1      40.100  32.140  34.965  1.00  0.00     0.037 A 
ATOM     51  C   UNL A   1      40.908  28.399  29.129  1.00  0.00     0.037 A 
ATOM     52  C   UNL A   1      41.164  31.172  35.010  1.00  0.00     0.049 A 
ATOM     53  C   UNL A   1      41.812  28.213  30.315  1.00  0.00     0.074 A 
ATOM     54  C   UNL A   1      42.026  30.886  36.055  1.00  0.00     0.029 A 
ATOM     55  N   UNL A   1      41.513  30.334  33.963  1.00  0.00    -0.354 N 
ATOM     56  N   UNL A   1      41.781  28.815  31.479  1.00  0.00    -0.248 NA
ATOM     57  C   UNL A   1      42.886  27.219  30.180  1.00  0.00     0.031 C 
ATOM     58  C   UNL A   1      42.917  29.895  35.629  1.00  0.00     0.029 A 
ATOM     59  C   UNL A   1      42.587  29.539  34.331  1.00  0.00     0.049 A 
ATOM     60  H   UNL A   1      41.063  30.305  33.088  1.00  0.00     0.167 HD
ATOM     61  C   UNL A   1      42.813  28.258  32.222  1.00  0.00     0.074 A 
ATOM     62  C   UNL A   1      43.444  27.261  31.382  1.00  0.00     0.031 C 
ATOM     63  C   UNL A   1      43.203  28.548  33.487  1.00  0.00     0.037 A 
BRANCH  50  64
ATOM     64  C   UNL A   1      39.903  33.037  36.152  1.00  0.00     0.057 A 
ATOM     65  C   UNL A   1      40.579  34.257  36.277  1.00  0.00     0.134 A 
ATOM     66  C   UNL A   1      39.007  32.687  37.170  1.00  0.00     0.134 A 
ATOM     67  F   UNL A   1      41.460  34.644  35.341  1.00  0.00    -0.206 F 
ATOM     68  C   UNL A   1      40.393  35.084  37.385  1.00  0.00     0.040 A 
ATOM     69  C   UNL A   1      38.793  33.518  38.271  1.00  0.00     0.040 A 
ATOM     70  F   UNL A   1      38.321  31.535  37.108  1.00  0.00    -0.206 F 
ATOM     71  C   UNL A   1      39.493  34.718  38.384  1.00  0.00     0.006 A 
ENDBRANCH  50  64
BRANCH  51  72
ATOM     72  C   UNL A   1      41.117  27.614  27.889  1.00  0.00     0.057 A 
ATOM     73  C   UNL A   1      40.542  26.348  27.733  1.00  0.00     0.134 A 
ATOM     74  C   UNL A   1      41.888  28.111  26.831  1.00  0.00     0.134 A 
ATOM     75  F   UNL A   1      39.809  25.814  28.720  1.00  0.00    -0.206 F 
ATOM     76  C   UNL A   1      40.737  25.596  26.574  1.00  0.00     0.040 A 
ATOM     77  C   UNL A   1      42.075  27.378  25.659  1.00  0.00     0.040 A 
ATOM     78  F   UNL A   1      42.459  29.321  26.919  1.00  0.00    -0.206 F 
ATOM     79  C   UNL A   1      41.502  26.114  25.530  1.00  0.00     0.006 A 
ENDBRANCH  51  72
BRANCH  63  80
ATOM     80  C   UNL A   1      44.346  27.757  34.049  1.00  0.00     0.057 A 
ATOM     81  C   UNL A   1      44.150  26.521  34.677  1.00  0.00     0.134 A 
ATOM     82  C   UNL A   1      45.661  28.223  33.934  1.00  0.00     0.134 A 
ATOM     83  F   UNL A   1      42.912  26.026  34.832  1.00  0.00    -0.206 F 
ATOM     84  C   UNL A   1      45.219  25.786  35.189  1.00  0.00     0.040 A 
ATOM     85  C   UNL A   1      46.741  27.487  34.422  1.00  0.00     0.040 A 
ATOM     86  F   UNL A   1      45.918  29.398  33.338  1.00  0.00    -0.206 F 
ATOM     87  C   UNL A   1      46.522  26.267  35.056  1.00  0.00     0.006 A 
ENDBRANCH  63  80
ENDBRANCH  37  38
ENDBRANCH  29  32
ENDBRANCH  27  28
ENDBRANCH  26  27
ENDBRANCH   1  26
TORSDOF 14
ENDMDL
