MODEL 1
REMARK VINA RESULT:     -13.2      0.000      0.000
REMARK SMILES Cc1cccc(C(=O)NCCCNC(=O)c2ccc(-c3c4nc(c(-c5c(F)cccc5F)c5ccc([nH]5)c(-c5c(F)cccc5F)c5nc(c(-c6c(F)cccc6F)c6ccc3[nH]6)C=C5)C=C4)cc2)c1NC(=O)N[C@@H]1CCCC1(C)C
REMARK SMILES IDX 11 1 10 2 9 3 7 4 8 5 6 7 1 8 2 9 3 10 70 11 4 12 5 13 71 14
REMARK SMILES IDX 72 15 73 17 74 18 75 20 76 21 79 22 77 23 78 24 80 25 81 26
REMARK SMILES IDX 12 27 13 28 14 29 15 31 16 32 17 33 69 34 18 35 68 36 19 37
REMARK SMILES IDX 20 38 21 39 62 40 22 41 67 42 61 43 63 44 23 45 66 46 60 47
REMARK SMILES IDX 59 48 24 50 50 51 33 52 49 53 34 54 37 55 48 56 64 57 35 58
REMARK SMILES IDX 36 59 47 61 65 62 38 63 25 64 26 65 31 66 27 67 28 68 30 69
REMARK SMILES IDX 32 70 29 71 51 72 52 73 57 74 53 75 54 76 56 77 58 78 55 79
REMARK SMILES IDX 39 80 40 81 45 82 41 83 42 84 44 85 46 86 43 87
REMARK H PARENT 9 6 71 16 74 19 13 30 63 49 37 60
REMARK Flexibility Score: inf
ROOT
ATOM      1  C   UNL A   1      33.284  31.554  27.406  1.00  0.00     0.042 C 
ENDROOT
BRANCH   1   2
ATOM      2  C   UNL A   1      32.328  30.731  26.560  1.00  0.00     0.118 C 
BRANCH   2   3
ATOM      3  N   UNL A   1      31.702  29.616  27.247  1.00  0.00    -0.352 N 
ATOM      4  C   UNL A   1      31.854  28.267  27.019  1.00  0.00     0.253 C 
ATOM      5  O   UNL A   1      31.713  27.498  27.964  1.00  0.00    -0.269 OA
ATOM      6  H   UNL A   1      31.084  29.857  27.975  1.00  0.00     0.163 HD
BRANCH   4   7
ATOM      7  C   UNL A   1      32.270  27.767  25.687  1.00  0.00     0.063 A 
ATOM      8  C   UNL A   1      30.428  27.539  22.585  1.00  0.00     0.046 C 
ATOM      9  C   UNL A   1      31.580  27.183  23.489  1.00  0.00    -0.027 A 
ATOM     10  C   UNL A   1      32.876  27.392  23.007  1.00  0.00     0.005 A 
ATOM     11  C   UNL A   1      31.406  27.050  24.869  1.00  0.00     0.058 A 
ATOM     12  C   UNL A   1      33.890  27.744  23.892  1.00  0.00     0.001 A 
ATOM     13  C   UNL A   1      33.555  28.057  25.210  1.00  0.00     0.016 A 
BRANCH  11  14
ATOM     14  N   UNL A   1      30.472  26.102  25.343  1.00  0.00    -0.307 N 
ATOM     15  C   UNL A   1      30.664  24.906  25.963  1.00  0.00     0.319 C 
ATOM     16  H   UNL A   1      29.529  26.347  25.202  1.00  0.00     0.171 HD
ATOM     17  O   UNL A   1      29.802  24.504  26.748  1.00  0.00    -0.248 OA
ATOM     18  N   UNL A   1      31.711  24.090  25.671  1.00  0.00    -0.335 N 
ATOM     19  H   UNL A   1      31.986  23.489  26.399  1.00  0.00     0.165 HD
BRANCH  18  20
ATOM     20  C   UNL A   1      32.491  23.971  24.442  1.00  0.00     0.089 C 
ATOM     21  C   UNL A   1      31.880  22.977  23.449  1.00  0.00     0.025 C 
ATOM     22  C   UNL A   1      33.957  23.459  24.561  1.00  0.00    -0.015 C 
ATOM     23  C   UNL A   1      32.979  22.794  22.402  1.00  0.00     0.003 C 
ATOM     24  C   UNL A   1      34.290  23.218  23.071  1.00  0.00     0.008 C 
ATOM     25  C   UNL A   1      34.939  24.471  25.149  1.00  0.00     0.013 C 
ATOM     26  C   UNL A   1      34.115  22.149  25.354  1.00  0.00     0.013 C 
ENDBRANCH  18  20
ENDBRANCH  11  14
ENDBRANCH   4   7
ENDBRANCH   2   3
ENDBRANCH   1   2
BRANCH   1  27
ATOM     27  C   UNL A   1      34.516  30.812  27.890  1.00  0.00     0.118 C 
BRANCH  27  28
ATOM     28  N   UNL A   1      35.202  31.500  28.974  1.00  0.00    -0.352 N 
ATOM     29  C   UNL A   1      36.307  31.136  29.708  1.00  0.00     0.251 C 
ATOM     30  H   UNL A   1      34.809  32.367  29.224  1.00  0.00     0.163 HD
ATOM     31  O   UNL A   1      36.679  31.873  30.624  1.00  0.00    -0.269 OA
BRANCH  29  32
ATOM     32  C   UNL A   1      37.150  29.985  29.305  1.00  0.00     0.039 A 
ATOM     33  C   UNL A   1      37.305  28.955  30.243  1.00  0.00     0.014 A 
ATOM     34  C   UNL A   1      37.929  29.990  28.152  1.00  0.00     0.014 A 
ATOM     35  C   UNL A   1      38.398  28.100  30.153  1.00  0.00     0.010 A 
ATOM     36  C   UNL A   1      39.064  29.210  28.105  1.00  0.00     0.010 A 
ATOM     37  C   UNL A   1      39.329  28.318  29.142  1.00  0.00    -0.014 A 
BRANCH  37  38
ATOM     38  C   UNL A   1      40.639  27.692  29.121  1.00  0.00     0.031 A 
ATOM     39  C   UNL A   1      40.765  26.281  28.726  1.00  0.00     0.074 A 
ATOM     40  C   UNL A   1      41.722  28.439  29.418  1.00  0.00     0.049 A 
ATOM     41  N   UNL A   1      41.731  25.507  29.086  1.00  0.00    -0.248 NA
ATOM     42  C   UNL A   1      39.755  25.611  27.917  1.00  0.00     0.031 C 
ATOM     43  C   UNL A   1      43.126  28.088  29.237  1.00  0.00     0.029 A 
ATOM     44  N   UNL A   1      41.749  29.621  30.171  1.00  0.00    -0.354 N 
ATOM     45  C   UNL A   1      41.618  24.339  28.367  1.00  0.00     0.074 A 
ATOM     46  C   UNL A   1      40.339  24.429  27.702  1.00  0.00     0.031 C 
ATOM     47  C   UNL A   1      43.866  28.834  30.075  1.00  0.00     0.029 A 
ATOM     48  C   UNL A   1      42.941  29.569  30.923  1.00  0.00     0.049 A 
ATOM     49  H   UNL A   1      41.075  30.339  30.173  1.00  0.00     0.167 HD
ATOM     50  C   UNL A   1      42.683  23.488  28.310  1.00  0.00     0.037 A 
ATOM     51  C   UNL A   1      42.911  29.499  32.286  1.00  0.00     0.037 A 
ATOM     52  C   UNL A   1      43.785  23.978  29.133  1.00  0.00     0.049 A 
ATOM     53  C   UNL A   1      43.592  28.271  32.844  1.00  0.00     0.074 A 
ATOM     54  C   UNL A   1      44.895  24.750  28.832  1.00  0.00     0.029 A 
ATOM     55  N   UNL A   1      43.661  23.988  30.517  1.00  0.00    -0.354 N 
ATOM     56  N   UNL A   1      43.784  27.173  32.166  1.00  0.00    -0.248 NA
ATOM     57  C   UNL A   1      44.092  28.179  34.213  1.00  0.00     0.031 C 
ATOM     58  C   UNL A   1      45.402  25.283  30.041  1.00  0.00     0.029 A 
ATOM     59  C   UNL A   1      44.618  24.809  31.080  1.00  0.00     0.049 A 
ATOM     60  H   UNL A   1      42.985  23.482  31.024  1.00  0.00     0.167 HD
ATOM     61  C   UNL A   1      44.397  26.245  32.966  1.00  0.00     0.074 A 
ATOM     62  C   UNL A   1      44.583  26.928  34.233  1.00  0.00     0.031 C 
ATOM     63  C   UNL A   1      44.692  24.990  32.521  1.00  0.00     0.037 A 
BRANCH  50  64
ATOM     64  C   UNL A   1      42.828  22.408  27.264  1.00  0.00     0.057 A 
ATOM     65  C   UNL A   1      42.059  21.230  27.331  1.00  0.00     0.134 A 
ATOM     66  C   UNL A   1      43.750  22.436  26.204  1.00  0.00     0.134 A 
ATOM     67  F   UNL A   1      41.055  21.091  28.207  1.00  0.00    -0.206 F 
ATOM     68  C   UNL A   1      42.284  20.123  26.503  1.00  0.00     0.040 A 
ATOM     69  C   UNL A   1      44.025  21.318  25.402  1.00  0.00     0.040 A 
ATOM     70  F   UNL A   1      44.389  23.564  25.864  1.00  0.00    -0.206 F 
ATOM     71  C   UNL A   1      43.300  20.147  25.562  1.00  0.00     0.006 A 
ENDBRANCH  50  64
BRANCH  51  72
ATOM     72  C   UNL A   1      41.715  30.149  32.887  1.00  0.00     0.057 A 
ATOM     73  C   UNL A   1      41.697  31.551  33.013  1.00  0.00     0.134 A 
ATOM     74  C   UNL A   1      40.488  29.488  32.985  1.00  0.00     0.134 A 
ATOM     75  F   UNL A   1      42.843  32.247  32.937  1.00  0.00    -0.206 F 
ATOM     76  C   UNL A   1      40.504  32.270  33.107  1.00  0.00     0.040 A 
ATOM     77  C   UNL A   1      39.285  30.198  33.096  1.00  0.00     0.040 A 
ATOM     78  F   UNL A   1      40.417  28.155  32.865  1.00  0.00    -0.206 F 
ATOM     79  C   UNL A   1      39.289  31.594  33.115  1.00  0.00     0.006 A 
ENDBRANCH  51  72
BRANCH  63  80
ATOM     80  C   UNL A   1      45.154  23.833  33.369  1.00  0.00     0.057 A 
ATOM     81  C   UNL A   1      46.454  23.699  33.877  1.00  0.00     0.134 A 
ATOM     82  C   UNL A   1      44.224  22.878  33.841  1.00  0.00     0.134 A 
ATOM     83  F   UNL A   1      47.411  24.593  33.597  1.00  0.00    -0.206 F 
ATOM     84  C   UNL A   1      46.814  22.666  34.753  1.00  0.00     0.040 A 
ATOM     85  C   UNL A   1      44.560  21.877  34.755  1.00  0.00     0.040 A 
ATOM     86  F   UNL A   1      42.940  22.893  33.453  1.00  0.00    -0.206 F 
ATOM     87  C   UNL A   1      45.865  21.759  35.206  1.00  0.00     0.006 A 
ENDBRANCH  63  80
ENDBRANCH  37  38
ENDBRANCH  29  32
ENDBRANCH  27  28
ENDBRANCH   1  27
TORSDOF 12
ENDMDL
MODEL 2
REMARK VINA RESULT:     -13.1      3.965      9.301
REMARK SMILES Cc1cccc(C(=O)NCCCNC(=O)c2ccc(-c3c4nc(c(-c5c(F)cccc5F)c5ccc([nH]5)c(-c5c(F)cccc5F)c5nc(c(-c6c(F)cccc6F)c6ccc3[nH]6)C=C5)C=C4)cc2)c1NC(=O)N[C@@H]1CCCC1(C)C
REMARK SMILES IDX 11 1 10 2 9 3 7 4 8 5 6 7 1 8 2 9 3 10 70 11 4 12 5 13 71 14
REMARK SMILES IDX 72 15 73 17 74 18 75 20 76 21 79 22 77 23 78 24 80 25 81 26
REMARK SMILES IDX 12 27 13 28 14 29 15 31 16 32 17 33 69 34 18 35 68 36 19 37
REMARK SMILES IDX 20 38 21 39 62 40 22 41 67 42 61 43 63 44 23 45 66 46 60 47
REMARK SMILES IDX 59 48 24 50 50 51 33 52 49 53 34 54 37 55 48 56 64 57 35 58
REMARK SMILES IDX 36 59 47 61 65 62 38 63 25 64 26 65 31 66 27 67 28 68 30 69
REMARK SMILES IDX 32 70 29 71 51 72 52 73 57 74 53 75 54 76 56 77 58 78 55 79
REMARK SMILES IDX 39 80 40 81 45 82 41 83 42 84 44 85 46 86 43 87
REMARK H PARENT 9 6 71 16 74 19 13 30 63 49 37 60
REMARK Flexibility Score: inf
ROOT
ATOM      1  C   UNL A   1      38.912  21.373  25.787  1.00  0.00     0.042 C 
ENDROOT
BRANCH   1   2
ATOM      2  C   UNL A   1      37.510  21.135  25.252  1.00  0.00     0.118 C 
BRANCH   2   3
ATOM      3  N   UNL A   1      37.192  21.842  24.025  1.00  0.00    -0.352 N 
ATOM      4  C   UNL A   1      36.250  22.824  23.815  1.00  0.00     0.253 C 
ATOM      5  O   UNL A   1      36.462  23.655  22.940  1.00  0.00    -0.269 OA
ATOM      6  H   UNL A   1      37.721  21.585  23.236  1.00  0.00     0.163 HD
BRANCH   4   7
ATOM      7  C   UNL A   1      35.056  22.925  24.688  1.00  0.00     0.063 A 
ATOM      8  C   UNL A   1      32.149  20.792  24.947  1.00  0.00     0.046 C 
ATOM      9  C   UNL A   1      32.889  22.084  25.182  1.00  0.00    -0.027 A 
ATOM     10  C   UNL A   1      32.987  22.550  26.497  1.00  0.00     0.005 A 
ATOM     11  C   UNL A   1      33.786  22.589  24.237  1.00  0.00     0.058 A 
ATOM     12  C   UNL A   1      34.119  23.257  26.892  1.00  0.00     0.001 A 
ATOM     13  C   UNL A   1      35.206  23.330  26.020  1.00  0.00     0.016 A 
BRANCH  11  14
ATOM     14  N   UNL A   1      33.313  22.856  22.933  1.00  0.00    -0.307 N 
ATOM     15  C   UNL A   1      33.160  24.036  22.273  1.00  0.00     0.319 C 
ATOM     16  H   UNL A   1      33.052  22.059  22.418  1.00  0.00     0.171 HD
ATOM     17  O   UNL A   1      33.257  24.041  21.044  1.00  0.00    -0.248 OA
ATOM     18  N   UNL A   1      32.799  25.186  22.903  1.00  0.00    -0.335 N 
ATOM     19  H   UNL A   1      33.094  26.013  22.460  1.00  0.00     0.165 HD
BRANCH  18  20
ATOM     20  C   UNL A   1      32.041  25.379  24.135  1.00  0.00     0.089 C 
ATOM     21  C   UNL A   1      30.529  25.442  23.896  1.00  0.00     0.025 C 
ATOM     22  C   UNL A   1      32.299  26.682  24.948  1.00  0.00    -0.015 C 
ATOM     23  C   UNL A   1      29.973  25.930  25.234  1.00  0.00     0.003 C 
ATOM     24  C   UNL A   1      31.134  26.616  25.962  1.00  0.00     0.008 C 
ATOM     25  C   UNL A   1      33.630  26.711  25.699  1.00  0.00     0.013 C 
ATOM     26  C   UNL A   1      32.208  27.980  24.124  1.00  0.00     0.013 C 
ENDBRANCH  18  20
ENDBRANCH  11  14
ENDBRANCH   4   7
ENDBRANCH   2   3
ENDBRANCH   1   2
BRANCH   1  27
ATOM     27  C   UNL A   1      39.190  22.790  26.253  1.00  0.00     0.118 C 
BRANCH  27  28
ATOM     28  N   UNL A   1      40.612  23.074  26.388  1.00  0.00    -0.352 N 
ATOM     29  C   UNL A   1      41.268  24.249  26.674  1.00  0.00     0.251 C 
ATOM     30  H   UNL A   1      41.201  22.296  26.250  1.00  0.00     0.163 HD
ATOM     31  O   UNL A   1      42.501  24.251  26.685  1.00  0.00    -0.269 OA
BRANCH  29  32
ATOM     32  C   UNL A   1      40.528  25.446  27.137  1.00  0.00     0.039 A 
ATOM     33  C   UNL A   1      40.685  26.618  26.385  1.00  0.00     0.014 A 
ATOM     34  C   UNL A   1      39.873  25.497  28.364  1.00  0.00     0.014 A 
ATOM     35  C   UNL A   1      40.426  27.853  26.970  1.00  0.00     0.010 A 
ATOM     36  C   UNL A   1      39.703  26.717  28.984  1.00  0.00     0.010 A 
ATOM     37  C   UNL A   1      40.047  27.886  28.308  1.00  0.00    -0.014 A 
BRANCH  37  38
ATOM     38  C   UNL A   1      40.037  29.103  29.100  1.00  0.00     0.031 A 
ATOM     39  C   UNL A   1      38.955  30.082  28.915  1.00  0.00     0.074 A 
ATOM     40  C   UNL A   1      40.997  29.283  30.030  1.00  0.00     0.049 A 
ATOM     41  N   UNL A   1      39.056  31.338  29.185  1.00  0.00    -0.248 NA
ATOM     42  C   UNL A   1      37.666  29.712  28.345  1.00  0.00     0.031 C 
ATOM     43  C   UNL A   1      41.048  30.298  31.076  1.00  0.00     0.029 A 
ATOM     44  N   UNL A   1      42.264  28.684  30.058  1.00  0.00    -0.354 N 
ATOM     45  C   UNL A   1      37.799  31.889  29.078  1.00  0.00     0.074 A 
ATOM     46  C   UNL A   1      36.983  30.851  28.492  1.00  0.00     0.031 C 
ATOM     47  C   UNL A   1      42.328  30.463  31.450  1.00  0.00     0.029 A 
ATOM     48  C   UNL A   1      43.145  29.672  30.543  1.00  0.00     0.049 A 
ATOM     49  H   UNL A   1      42.491  27.763  29.795  1.00  0.00     0.167 HD
ATOM     50  C   UNL A   1      37.563  33.117  29.623  1.00  0.00     0.037 A 
ATOM     51  C   UNL A   1      44.144  30.173  29.758  1.00  0.00     0.037 A 
ATOM     52  C   UNL A   1      38.785  33.678  30.191  1.00  0.00     0.049 A 
ATOM     53  C   UNL A   1      44.055  31.665  29.545  1.00  0.00     0.074 A 
ATOM     54  C   UNL A   1      39.308  33.652  31.474  1.00  0.00     0.029 A 
ATOM     55  N   UNL A   1      39.820  34.071  29.351  1.00  0.00    -0.354 N 
ATOM     56  N   UNL A   1      42.955  32.356  29.672  1.00  0.00    -0.248 NA
ATOM     57  C   UNL A   1      45.193  32.493  29.153  1.00  0.00     0.031 C 
ATOM     58  C   UNL A   1      40.686  33.967  31.393  1.00  0.00     0.029 A 
ATOM     59  C   UNL A   1      40.992  34.215  30.066  1.00  0.00     0.049 A 
ATOM     60  H   UNL A   1      39.729  34.225  28.382  1.00  0.00     0.167 HD
ATOM     61  C   UNL A   1      43.207  33.671  29.381  1.00  0.00     0.074 A 
ATOM     62  C   UNL A   1      44.626  33.709  29.078  1.00  0.00     0.031 C 
ATOM     63  C   UNL A   1      42.224  34.617  29.407  1.00  0.00     0.037 A 
BRANCH  50  64
ATOM     64  C   UNL A   1      36.178  33.642  29.920  1.00  0.00     0.057 A 
ATOM     65  C   UNL A   1      35.325  34.058  28.879  1.00  0.00     0.134 A 
ATOM     66  C   UNL A   1      35.647  33.822  31.209  1.00  0.00     0.134 A 
ATOM     67  F   UNL A   1      35.627  33.847  27.591  1.00  0.00    -0.206 F 
ATOM     68  C   UNL A   1      34.112  34.722  29.105  1.00  0.00     0.040 A 
ATOM     69  C   UNL A   1      34.463  34.534  31.453  1.00  0.00     0.040 A 
ATOM     70  F   UNL A   1      36.226  33.274  32.285  1.00  0.00    -0.206 F 
ATOM     71  C   UNL A   1      33.697  35.002  30.397  1.00  0.00     0.006 A 
ENDBRANCH  50  64
BRANCH  51  72
ATOM     72  C   UNL A   1      44.645  29.202  28.748  1.00  0.00     0.057 A 
ATOM     73  C   UNL A   1      45.554  28.208  29.156  1.00  0.00     0.134 A 
ATOM     74  C   UNL A   1      43.990  29.001  27.530  1.00  0.00     0.134 A 
ATOM     75  F   UNL A   1      46.224  28.343  30.312  1.00  0.00    -0.206 F 
ATOM     76  C   UNL A   1      45.711  27.014  28.449  1.00  0.00     0.040 A 
ATOM     77  C   UNL A   1      44.152  27.814  26.804  1.00  0.00     0.040 A 
ATOM     78  F   UNL A   1      43.102  29.895  27.075  1.00  0.00    -0.206 F 
ATOM     79  C   UNL A   1      44.981  26.800  27.285  1.00  0.00     0.006 A 
ENDBRANCH  51  72
BRANCH  63  80
ATOM     80  C   UNL A   1      42.339  36.030  28.894  1.00  0.00     0.057 A 
ATOM     81  C   UNL A   1      43.036  37.052  29.552  1.00  0.00     0.134 A 
ATOM     82  C   UNL A   1      41.868  36.360  27.601  1.00  0.00     0.134 A 
ATOM     83  F   UNL A   1      43.625  36.848  30.737  1.00  0.00    -0.206 F 
ATOM     84  C   UNL A   1      43.212  38.323  28.989  1.00  0.00     0.040 A 
ATOM     85  C   UNL A   1      42.084  37.606  27.009  1.00  0.00     0.040 A 
ATOM     86  F   UNL A   1      41.197  35.476  26.848  1.00  0.00    -0.206 F 
ATOM     87  C   UNL A   1      42.749  38.600  27.709  1.00  0.00     0.006 A 
ENDBRANCH  63  80
ENDBRANCH  37  38
ENDBRANCH  29  32
ENDBRANCH  27  28
ENDBRANCH   1  27
TORSDOF 12
ENDMDL
MODEL 3
REMARK VINA RESULT:     -12.8      1.858      2.936
REMARK SMILES Cc1cccc(C(=O)NCCCNC(=O)c2ccc(-c3c4nc(c(-c5c(F)cccc5F)c5ccc([nH]5)c(-c5c(F)cccc5F)c5nc(c(-c6c(F)cccc6F)c6ccc3[nH]6)C=C5)C=C4)cc2)c1NC(=O)N[C@@H]1CCCC1(C)C
REMARK SMILES IDX 11 1 10 2 9 3 7 4 8 5 6 7 1 8 2 9 3 10 70 11 4 12 5 13 71 14
REMARK SMILES IDX 72 15 73 17 74 18 75 20 76 21 79 22 77 23 78 24 80 25 81 26
REMARK SMILES IDX 12 27 13 28 14 29 15 31 16 32 17 33 69 34 18 35 68 36 19 37
REMARK SMILES IDX 20 38 21 39 62 40 22 41 67 42 61 43 63 44 23 45 66 46 60 47
REMARK SMILES IDX 59 48 24 50 50 51 33 52 49 53 34 54 37 55 48 56 64 57 35 58
REMARK SMILES IDX 36 59 47 61 65 62 38 63 25 64 26 65 31 66 27 67 28 68 30 69
REMARK SMILES IDX 32 70 29 71 51 72 52 73 57 74 53 75 54 76 56 77 58 78 55 79
REMARK SMILES IDX 39 80 40 81 45 82 41 83 42 84 44 85 46 86 43 87
REMARK H PARENT 9 6 71 16 74 19 13 30 63 49 37 60
REMARK Flexibility Score: inf
ROOT
ATOM      1  C   UNL A   1      32.839  30.056  25.766  1.00  0.00     0.042 C 
ENDROOT
BRANCH   1   2
ATOM      2  C   UNL A   1      31.377  30.145  25.362  1.00  0.00     0.118 C 
BRANCH   2   3
ATOM      3  N   UNL A   1      31.085  29.703  24.010  1.00  0.00    -0.352 N 
ATOM      4  C   UNL A   1      30.764  28.440  23.566  1.00  0.00     0.253 C 
ATOM      5  O   UNL A   1      30.052  28.336  22.574  1.00  0.00    -0.269 OA
ATOM      6  H   UNL A   1      31.122  30.400  23.317  1.00  0.00     0.163 HD
BRANCH   4   7
ATOM      7  C   UNL A   1      31.193  27.240  24.325  1.00  0.00     0.063 A 
ATOM      8  C   UNL A   1      34.404  26.388  25.750  1.00  0.00     0.046 C 
ATOM      9  C   UNL A   1      33.017  26.046  25.272  1.00  0.00    -0.027 A 
ATOM     10  C   UNL A   1      32.156  25.408  26.170  1.00  0.00     0.005 A 
ATOM     11  C   UNL A   1      32.454  26.680  24.162  1.00  0.00     0.058 A 
ATOM     12  C   UNL A   1      30.788  25.656  26.106  1.00  0.00     0.001 A 
ATOM     13  C   UNL A   1      30.327  26.671  25.266  1.00  0.00     0.016 A 
BRANCH  11  14
ATOM     14  N   UNL A   1      33.126  26.594  22.922  1.00  0.00    -0.307 N 
ATOM     15  C   UNL A   1      33.068  25.644  21.950  1.00  0.00     0.319 C 
ATOM     16  H   UNL A   1      33.737  27.342  22.731  1.00  0.00     0.171 HD
ATOM     17  O   UNL A   1      33.278  25.982  20.782  1.00  0.00    -0.248 OA
ATOM     18  N   UNL A   1      32.895  24.324  22.225  1.00  0.00    -0.335 N 
ATOM     19  H   UNL A   1      32.479  23.800  21.504  1.00  0.00     0.165 HD
BRANCH  18  20
ATOM     20  C   UNL A   1      33.231  23.566  23.427  1.00  0.00     0.089 C 
ATOM     21  C   UNL A   1      34.633  22.952  23.364  1.00  0.00     0.025 C 
ATOM     22  C   UNL A   1      32.346  22.334  23.778  1.00  0.00    -0.015 C 
ATOM     23  C   UNL A   1      34.657  21.991  24.554  1.00  0.00     0.003 C 
ATOM     24  C   UNL A   1      33.194  21.691  24.898  1.00  0.00     0.008 C 
ATOM     25  C   UNL A   1      30.959  22.679  24.319  1.00  0.00     0.013 C 
ATOM     26  C   UNL A   1      32.154  21.334  22.623  1.00  0.00     0.013 C 
ENDBRANCH  18  20
ENDBRANCH  11  14
ENDBRANCH   4   7
ENDBRANCH   2   3
ENDBRANCH   1   2
BRANCH   1  27
ATOM     27  C   UNL A   1      33.084  29.861  27.251  1.00  0.00     0.118 C 
BRANCH  27  28
ATOM     28  N   UNL A   1      33.650  31.040  27.891  1.00  0.00    -0.352 N 
ATOM     29  C   UNL A   1      34.847  31.215  28.547  1.00  0.00     0.251 C 
ATOM     30  H   UNL A   1      33.083  31.843  27.849  1.00  0.00     0.163 HD
ATOM     31  O   UNL A   1      35.088  32.311  29.058  1.00  0.00    -0.269 OA
BRANCH  29  32
ATOM     32  C   UNL A   1      35.908  30.182  28.493  1.00  0.00     0.039 A 
ATOM     33  C   UNL A   1      36.280  29.593  29.710  1.00  0.00     0.014 A 
ATOM     34  C   UNL A   1      36.663  29.937  27.350  1.00  0.00     0.014 A 
ATOM     35  C   UNL A   1      37.527  28.988  29.830  1.00  0.00     0.010 A 
ATOM     36  C   UNL A   1      37.936  29.424  27.482  1.00  0.00     0.010 A 
ATOM     37  C   UNL A   1      38.386  29.017  28.736  1.00  0.00    -0.014 A 
BRANCH  37  38
ATOM     38  C   UNL A   1      39.797  28.689  28.827  1.00  0.00     0.031 A 
ATOM     39  C   UNL A   1      40.258  27.345  28.445  1.00  0.00     0.074 A 
ATOM     40  C   UNL A   1      40.665  29.647  29.214  1.00  0.00     0.049 A 
ATOM     41  N   UNL A   1      41.335  26.792  28.886  1.00  0.00    -0.248 NA
ATOM     42  C   UNL A   1      39.487  26.488  27.554  1.00  0.00     0.031 C 
ATOM     43  C   UNL A   1      42.122  29.609  29.153  1.00  0.00     0.029 A 
ATOM     44  N   UNL A   1      40.373  30.793  29.965  1.00  0.00    -0.354 N 
ATOM     45  C   UNL A   1      41.538  25.640  28.161  1.00  0.00     0.074 A 
ATOM     46  C   UNL A   1      40.329  25.463  27.390  1.00  0.00     0.031 C 
ATOM     47  C   UNL A   1      42.610  30.483  30.050  1.00  0.00     0.029 A 
ATOM     48  C   UNL A   1      41.481  30.986  30.816  1.00  0.00     0.049 A 
ATOM     49  H   UNL A   1      39.562  31.349  29.910  1.00  0.00     0.167 HD
ATOM     50  C   UNL A   1      42.763  25.040  28.195  1.00  0.00     0.037 A 
ATOM     51  C   UNL A   1      41.354  30.887  32.172  1.00  0.00     0.037 A 
ATOM     52  C   UNL A   1      43.660  25.740  29.108  1.00  0.00     0.049 A 
ATOM     53  C   UNL A   1      42.236  29.826  32.786  1.00  0.00     0.074 A 
ATOM     54  C   UNL A   1      44.599  26.739  28.902  1.00  0.00     0.029 A 
ATOM     55  N   UNL A   1      43.423  25.700  30.477  1.00  0.00    -0.354 N 
ATOM     56  N   UNL A   1      42.716  28.807  32.127  1.00  0.00    -0.248 NA
ATOM     57  C   UNL A   1      42.629  29.819  34.193  1.00  0.00     0.031 C 
ATOM     58  C   UNL A   1      44.876  27.347  30.149  1.00  0.00     0.029 A 
ATOM     59  C   UNL A   1      44.130  26.697  31.118  1.00  0.00     0.049 A 
ATOM     60  H   UNL A   1      42.833  25.051  30.926  1.00  0.00     0.167 HD
ATOM     61  C   UNL A   1      43.447  28.019  32.978  1.00  0.00     0.074 A 
ATOM     62  C   UNL A   1      43.376  28.703  34.255  1.00  0.00     0.031 C 
ATOM     63  C   UNL A   1      44.043  26.865  32.560  1.00  0.00     0.037 A 
BRANCH  50  64
ATOM     64  C   UNL A   1      43.225  24.034  27.166  1.00  0.00     0.057 A 
ATOM     65  C   UNL A   1      43.791  24.458  25.947  1.00  0.00     0.134 A 
ATOM     66  C   UNL A   1      43.082  22.642  27.284  1.00  0.00     0.134 A 
ATOM     67  F   UNL A   1      44.104  25.740  25.721  1.00  0.00    -0.206 F 
ATOM     68  C   UNL A   1      44.062  23.583  24.887  1.00  0.00     0.040 A 
ATOM     69  C   UNL A   1      43.297  21.760  26.214  1.00  0.00     0.040 A 
ATOM     70  F   UNL A   1      42.779  22.068  28.456  1.00  0.00    -0.206 F 
ATOM     71  C   UNL A   1      43.773  22.233  25.001  1.00  0.00     0.006 A 
ENDBRANCH  50  64
BRANCH  51  72
ATOM     72  C   UNL A   1      40.000  31.254  32.668  1.00  0.00     0.057 A 
ATOM     73  C   UNL A   1      39.108  30.225  33.025  1.00  0.00     0.134 A 
ATOM     74  C   UNL A   1      39.710  32.537  33.137  1.00  0.00     0.134 A 
ATOM     75  F   UNL A   1      39.324  28.970  32.600  1.00  0.00    -0.206 F 
ATOM     76  C   UNL A   1      38.049  30.439  33.909  1.00  0.00     0.040 A 
ATOM     77  C   UNL A   1      38.639  32.767  34.012  1.00  0.00     0.040 A 
ATOM     78  F   UNL A   1      40.514  33.569  32.850  1.00  0.00    -0.206 F 
ATOM     79  C   UNL A   1      37.832  31.709  34.433  1.00  0.00     0.006 A 
ENDBRANCH  51  72
BRANCH  63  80
ATOM     80  C   UNL A   1      44.673  25.820  33.445  1.00  0.00     0.057 A 
ATOM     81  C   UNL A   1      43.953  24.977  34.303  1.00  0.00     0.134 A 
ATOM     82  C   UNL A   1      46.051  25.521  33.328  1.00  0.00     0.134 A 
ATOM     83  F   UNL A   1      42.623  25.079  34.432  1.00  0.00    -0.206 F 
ATOM     84  C   UNL A   1      44.563  23.945  35.027  1.00  0.00     0.040 A 
ATOM     85  C   UNL A   1      46.659  24.462  34.003  1.00  0.00     0.040 A 
ATOM     86  F   UNL A   1      46.861  26.234  32.530  1.00  0.00    -0.206 F 
ATOM     87  C   UNL A   1      45.916  23.674  34.869  1.00  0.00     0.006 A 
ENDBRANCH  63  80
ENDBRANCH  37  38
ENDBRANCH  29  32
ENDBRANCH  27  28
ENDBRANCH   1  27
TORSDOF 12
ENDMDL
