MODEL 1
REMARK VINA RESULT:     -10.3      0.000      0.000
REMARK SMILES CC(C)(C)OC(=O)CSc1ccnc(C(=O)NCCCNC(=O)c2ccc(-c3c4nc(c(-c5c(F)cccc5F)c5ccc([nH]5)c(-c5c(F)cccc5F)c5nc(c(-c6c(F)cccc6F)c6ccc3[nH]6)C=C5)C=C4)cc2)c1
REMARK SMILES IDX 15 1 16 2 17 3 14 5 10 6 11 7 78 8 12 9 13 10 9 11 8 12 6 13
REMARK SMILES IDX 7 14 5 15 2 16 1 17 3 18 4 19 18 20 19 21 20 22 21 23 22 24
REMARK SMILES IDX 23 26 24 27 25 28 77 29 26 30 76 31 27 32 28 33 29 34 70 35
REMARK SMILES IDX 30 36 75 37 69 38 71 39 31 40 74 41 68 42 67 43 32 45 58 46
REMARK SMILES IDX 41 47 57 48 42 49 45 50 56 51 72 52 43 53 44 54 55 56 73 57
REMARK SMILES IDX 46 58 33 59 34 60 39 61 35 62 36 63 38 64 40 65 37 66 59 67
REMARK SMILES IDX 60 68 65 69 61 70 62 71 64 72 66 73 63 74 47 75 48 76 53 77
REMARK SMILES IDX 49 78 50 79 52 80 54 81 51 82
REMARK H PARENT 17 4 21 25 71 44 45 55
REMARK Flexibility Score: inf
ROOT
ATOM      1  C   UNL A   1      35.730  33.281  28.359  1.00  0.00     0.269 C 
ATOM      2  O   UNL A   1      36.927  33.577  28.368  1.00  0.00    -0.268 OA
ATOM      3  N   UNL A   1      34.855  34.291  28.697  1.00  0.00    -0.351 N 
ATOM      4  H   UNL A   1      35.303  35.135  28.935  1.00  0.00     0.163 HD
ENDROOT
BRANCH   1   5
ATOM      5  C   UNL A   1      35.300  31.894  27.965  1.00  0.00     0.129 A 
ATOM      6  C   UNL A   1      33.714  30.253  27.228  1.00  0.00     0.012 A 
ATOM      7  C   UNL A   1      34.734  29.310  27.199  1.00  0.00     0.035 A 
ATOM      8  C   UNL A   1      33.992  31.545  27.677  1.00  0.00     0.049 A 
ATOM      9  C   UNL A   1      36.002  29.718  27.563  1.00  0.00     0.113 A 
ATOM     10  N   UNL A   1      36.307  30.981  27.922  1.00  0.00    -0.251 NA
BRANCH   6  11
ATOM     11  S   UNL A   1      32.043  29.902  26.711  1.00  0.00    -0.114 SA
BRANCH  11  12
ATOM     12  C   UNL A   1      31.737  28.291  27.504  1.00  0.00     0.197 C 
BRANCH  12  13
ATOM     13  C   UNL A   1      31.484  27.168  26.524  1.00  0.00     0.316 C 
ATOM     14  O   UNL A   1      31.011  26.092  26.862  1.00  0.00    -0.251 OA
BRANCH  13  15
ATOM     15  O   UNL A   1      31.789  27.536  25.249  1.00  0.00    -0.459 OA
BRANCH  15  16
ATOM     16  C   UNL A   1      32.895  26.906  24.545  1.00  0.00     0.104 C 
ATOM     17  C   UNL A   1      32.243  25.851  23.638  1.00  0.00     0.056 C 
ATOM     18  C   UNL A   1      33.829  26.190  25.529  1.00  0.00     0.056 C 
ATOM     19  C   UNL A   1      33.652  27.903  23.660  1.00  0.00     0.056 C 
ENDBRANCH  15  16
ENDBRANCH  13  15
ENDBRANCH  12  13
ENDBRANCH  11  12
ENDBRANCH   6  11
ENDBRANCH   1   5
BRANCH   3  20
ATOM     20  C   UNL A   1      33.408  34.363  28.773  1.00  0.00     0.118 C 
BRANCH  20  21
ATOM     21  C   UNL A   1      32.930  35.816  28.807  1.00  0.00     0.042 C 
BRANCH  21  22
ATOM     22  C   UNL A   1      33.387  36.579  30.050  1.00  0.00     0.118 C 
BRANCH  22  23
ATOM     23  N   UNL A   1      32.468  36.397  31.163  1.00  0.00    -0.352 N 
ATOM     24  C   UNL A   1      32.529  35.563  32.248  1.00  0.00     0.251 C 
ATOM     25  H   UNL A   1      31.667  36.969  31.131  1.00  0.00     0.163 HD
ATOM     26  O   UNL A   1      31.520  35.406  32.933  1.00  0.00    -0.269 OA
BRANCH  24  27
ATOM     27  C   UNL A   1      33.776  34.852  32.614  1.00  0.00     0.039 A 
ATOM     28  C   UNL A   1      34.991  35.530  32.470  1.00  0.00     0.014 A 
ATOM     29  C   UNL A   1      33.775  33.509  33.007  1.00  0.00     0.014 A 
ATOM     30  C   UNL A   1      36.194  34.876  32.741  1.00  0.00     0.010 A 
ATOM     31  C   UNL A   1      34.973  32.878  33.344  1.00  0.00     0.010 A 
ATOM     32  C   UNL A   1      36.196  33.549  33.198  1.00  0.00    -0.014 A 
BRANCH  32  33
ATOM     33  C   UNL A   1      37.476  32.862  33.511  1.00  0.00     0.031 A 
ATOM     34  C   UNL A   1      38.221  33.168  34.781  1.00  0.00     0.074 A 
ATOM     35  C   UNL A   1      37.980  31.975  32.633  1.00  0.00     0.049 A 
ATOM     36  N   UNL A   1      39.343  32.659  35.225  1.00  0.00    -0.248 NA
ATOM     37  C   UNL A   1      37.644  34.198  35.659  1.00  0.00     0.031 C 
ATOM     38  C   UNL A   1      37.381  31.630  31.342  1.00  0.00     0.029 A 
ATOM     39  N   UNL A   1      39.108  31.196  32.694  1.00  0.00    -0.354 N 
ATOM     40  C   UNL A   1      39.611  33.312  36.422  1.00  0.00     0.074 A 
ATOM     41  C   UNL A   1      38.561  34.291  36.611  1.00  0.00     0.031 C 
ATOM     42  C   UNL A   1      38.129  30.687  30.748  1.00  0.00     0.029 A 
ATOM     43  C   UNL A   1      39.273  30.379  31.603  1.00  0.00     0.049 A 
ATOM     44  H   UNL A   1      39.741  31.221  33.450  1.00  0.00     0.167 HD
ATOM     45  C   UNL A   1      40.625  33.101  37.296  1.00  0.00     0.037 A 
ATOM     46  C   UNL A   1      40.231  29.476  31.326  1.00  0.00     0.037 A 
ATOM     47  C   UNL A   1      41.656  32.111  37.118  1.00  0.00     0.049 A 
ATOM     48  C   UNL A   1      41.328  29.240  32.324  1.00  0.00     0.074 A 
ATOM     49  C   UNL A   1      42.698  31.786  37.971  1.00  0.00     0.029 A 
ATOM     50  N   UNL A   1      41.775  31.286  36.011  1.00  0.00    -0.354 N 
ATOM     51  N   UNL A   1      41.530  29.818  33.484  1.00  0.00    -0.248 NA
ATOM     52  C   UNL A   1      42.323  28.214  31.982  1.00  0.00     0.031 C 
ATOM     53  C   UNL A   1      43.465  30.786  37.363  1.00  0.00     0.029 A 
ATOM     54  C   UNL A   1      42.877  30.459  36.152  1.00  0.00     0.049 A 
ATOM     55  H   UNL A   1      41.165  31.287  35.237  1.00  0.00     0.167 HD
ATOM     56  C   UNL A   1      42.658  29.212  34.020  1.00  0.00     0.074 A 
ATOM     57  C   UNL A   1      43.083  28.206  33.067  1.00  0.00     0.031 C 
ATOM     58  C   UNL A   1      43.287  29.464  35.194  1.00  0.00     0.037 A 
BRANCH  45  59
ATOM     59  C   UNL A   1      40.662  33.957  38.530  1.00  0.00     0.057 A 
ATOM     60  C   UNL A   1      41.407  35.143  38.582  1.00  0.00     0.134 A 
ATOM     61  C   UNL A   1      39.924  33.609  39.669  1.00  0.00     0.134 A 
ATOM     62  F   UNL A   1      42.145  35.530  37.531  1.00  0.00    -0.206 F 
ATOM     63  C   UNL A   1      41.439  35.937  39.731  1.00  0.00     0.040 A 
ATOM     64  C   UNL A   1      39.928  34.407  40.815  1.00  0.00     0.040 A 
ATOM     65  F   UNL A   1      39.185  32.490  39.685  1.00  0.00    -0.206 F 
ATOM     66  C   UNL A   1      40.693  35.572  40.849  1.00  0.00     0.006 A 
ENDBRANCH  45  59
BRANCH  46  67
ATOM     67  C   UNL A   1      40.170  28.694  30.066  1.00  0.00     0.057 A 
ATOM     68  C   UNL A   1      40.862  29.115  28.924  1.00  0.00     0.134 A 
ATOM     69  C   UNL A   1      39.421  27.516  29.970  1.00  0.00     0.134 A 
ATOM     70  F   UNL A   1      41.583  30.246  28.950  1.00  0.00    -0.206 F 
ATOM     71  C   UNL A   1      40.796  28.403  27.726  1.00  0.00     0.040 A 
ATOM     72  C   UNL A   1      39.365  26.781  28.785  1.00  0.00     0.040 A 
ATOM     73  F   UNL A   1      38.744  27.057  31.033  1.00  0.00    -0.206 F 
ATOM     74  C   UNL A   1      40.049  27.229  27.656  1.00  0.00     0.006 A 
ENDBRANCH  46  67
BRANCH  58  75
ATOM     75  C   UNL A   1      44.481  28.615  35.520  1.00  0.00     0.057 A 
ATOM     76  C   UNL A   1      44.358  27.399  36.203  1.00  0.00     0.134 A 
ATOM     77  C   UNL A   1      45.767  29.019  35.140  1.00  0.00     0.134 A 
ATOM     78  F   UNL A   1      43.155  26.963  36.606  1.00  0.00    -0.206 F 
ATOM     79  C   UNL A   1      45.477  26.629  36.526  1.00  0.00     0.040 A 
ATOM     80  C   UNL A   1      46.890  28.245  35.435  1.00  0.00     0.040 A 
ATOM     81  F   UNL A   1      45.952  30.170  34.476  1.00  0.00    -0.206 F 
ATOM     82  C   UNL A   1      46.747  27.051  36.139  1.00  0.00     0.006 A 
ENDBRANCH  58  75
ENDBRANCH  32  33
ENDBRANCH  24  27
ENDBRANCH  22  23
ENDBRANCH  21  22
ENDBRANCH  20  21
ENDBRANCH   3  20
TORSDOF 15
ENDMDL
MODEL 2
REMARK VINA RESULT:     -10.3      5.906     10.857
REMARK SMILES CC(C)(C)OC(=O)CSc1ccnc(C(=O)NCCCNC(=O)c2ccc(-c3c4nc(c(-c5c(F)cccc5F)c5ccc([nH]5)c(-c5c(F)cccc5F)c5nc(c(-c6c(F)cccc6F)c6ccc3[nH]6)C=C5)C=C4)cc2)c1
REMARK SMILES IDX 15 1 16 2 17 3 14 5 10 6 11 7 78 8 12 9 13 10 9 11 8 12 6 13
REMARK SMILES IDX 7 14 5 15 2 16 1 17 3 18 4 19 18 20 19 21 20 22 21 23 22 24
REMARK SMILES IDX 23 26 24 27 25 28 77 29 26 30 76 31 27 32 28 33 29 34 70 35
REMARK SMILES IDX 30 36 75 37 69 38 71 39 31 40 74 41 68 42 67 43 32 45 58 46
REMARK SMILES IDX 41 47 57 48 42 49 45 50 56 51 72 52 43 53 44 54 55 56 73 57
REMARK SMILES IDX 46 58 33 59 34 60 39 61 35 62 36 63 38 64 40 65 37 66 59 67
REMARK SMILES IDX 60 68 65 69 61 70 62 71 64 72 66 73 63 74 47 75 48 76 53 77
REMARK SMILES IDX 49 78 50 79 52 80 54 81 51 82
REMARK H PARENT 17 4 21 25 71 44 45 55
REMARK Flexibility Score: inf
ROOT
ATOM      1  C   UNL A   1      36.582  22.803  23.643  1.00  0.00     0.269 C 
ATOM      2  O   UNL A   1      37.013  23.458  22.692  1.00  0.00    -0.268 OA
ATOM      3  N   UNL A   1      37.301  21.674  23.973  1.00  0.00    -0.351 N 
ATOM      4  H   UNL A   1      38.071  21.512  23.382  1.00  0.00     0.163 HD
ENDROOT
BRANCH   1   5
ATOM      5  C   UNL A   1      35.359  23.267  24.386  1.00  0.00     0.129 A 
ATOM      6  C   UNL A   1      33.119  23.039  25.212  1.00  0.00     0.012 A 
ATOM      7  C   UNL A   1      33.257  24.259  25.862  1.00  0.00     0.035 A 
ATOM      8  C   UNL A   1      34.163  22.569  24.414  1.00  0.00     0.049 A 
ATOM      9  C   UNL A   1      34.458  24.929  25.734  1.00  0.00     0.113 A 
ATOM     10  N   UNL A   1      35.507  24.453  25.033  1.00  0.00    -0.251 NA
BRANCH   6  11
ATOM     11  S   UNL A   1      31.662  22.019  25.347  1.00  0.00    -0.114 SA
BRANCH  11  12
ATOM     12  C   UNL A   1      32.174  20.515  24.455  1.00  0.00     0.197 C 
BRANCH  12  13
ATOM     13  C   UNL A   1      32.660  19.406  25.361  1.00  0.00     0.316 C 
ATOM     14  O   UNL A   1      33.243  19.622  26.414  1.00  0.00    -0.251 OA
BRANCH  13  15
ATOM     15  O   UNL A   1      32.313  18.179  24.882  1.00  0.00    -0.459 OA
BRANCH  15  16
ATOM     16  C   UNL A   1      33.303  17.334  24.234  1.00  0.00     0.104 C 
ATOM     17  C   UNL A   1      32.932  17.353  22.743  1.00  0.00     0.056 C 
ATOM     18  C   UNL A   1      33.202  15.890  24.740  1.00  0.00     0.056 C 
ATOM     19  C   UNL A   1      34.722  17.895  24.386  1.00  0.00     0.056 C 
ENDBRANCH  15  16
ENDBRANCH  13  15
ENDBRANCH  12  13
ENDBRANCH  11  12
ENDBRANCH   6  11
ENDBRANCH   1   5
BRANCH   3  20
ATOM     20  C   UNL A   1      37.154  20.678  25.018  1.00  0.00     0.118 C 
BRANCH  20  21
ATOM     21  C   UNL A   1      38.266  19.629  24.939  1.00  0.00     0.042 C 
BRANCH  21  22
ATOM     22  C   UNL A   1      39.168  19.602  26.172  1.00  0.00     0.118 C 
BRANCH  22  23
ATOM     23  N   UNL A   1      40.480  19.052  25.869  1.00  0.00    -0.352 N 
ATOM     24  C   UNL A   1      41.718  19.638  25.863  1.00  0.00     0.251 C 
ATOM     25  H   UNL A   1      40.478  18.097  25.628  1.00  0.00     0.163 HD
ATOM     26  O   UNL A   1      42.655  19.040  25.339  1.00  0.00    -0.269 OA
BRANCH  24  27
ATOM     27  C   UNL A   1      41.953  20.968  26.472  1.00  0.00     0.039 A 
ATOM     28  C   UNL A   1      42.285  22.032  25.627  1.00  0.00     0.014 A 
ATOM     29  C   UNL A   1      41.941  21.162  27.857  1.00  0.00     0.014 A 
ATOM     30  C   UNL A   1      42.578  23.287  26.162  1.00  0.00     0.010 A 
ATOM     31  C   UNL A   1      42.167  22.434  28.387  1.00  0.00     0.010 A 
ATOM     32  C   UNL A   1      42.504  23.505  27.547  1.00  0.00    -0.014 A 
BRANCH  32  33
ATOM     33  C   UNL A   1      42.790  24.848  28.115  1.00  0.00     0.031 A 
ATOM     34  C   UNL A   1      44.197  25.249  28.464  1.00  0.00     0.074 A 
ATOM     35  C   UNL A   1      41.773  25.700  28.340  1.00  0.00     0.049 A 
ATOM     36  N   UNL A   1      44.636  26.381  28.957  1.00  0.00    -0.248 NA
ATOM     37  C   UNL A   1      45.248  24.241  28.254  1.00  0.00     0.031 C 
ATOM     38  C   UNL A   1      40.358  25.411  28.095  1.00  0.00     0.029 A 
ATOM     39  N   UNL A   1      41.770  26.986  28.820  1.00  0.00    -0.354 N 
ATOM     40  C   UNL A   1      46.006  26.216  29.126  1.00  0.00     0.074 A 
ATOM     41  C   UNL A   1      46.318  24.859  28.732  1.00  0.00     0.031 C 
ATOM     42  C   UNL A   1      39.629  26.497  28.395  1.00  0.00     0.029 A 
ATOM     43  C   UNL A   1      40.520  27.549  28.878  1.00  0.00     0.049 A 
ATOM     44  H   UNL A   1      42.589  27.459  29.098  1.00  0.00     0.167 HD
ATOM     45  C   UNL A   1      46.924  27.120  29.549  1.00  0.00     0.037 A 
ATOM     46  C   UNL A   1      40.133  28.778  29.266  1.00  0.00     0.037 A 
ATOM     47  C   UNL A   1      46.615  28.477  29.920  1.00  0.00     0.049 A 
ATOM     48  C   UNL A   1      41.173  29.770  29.703  1.00  0.00     0.074 A 
ATOM     49  C   UNL A   1      47.480  29.484  30.313  1.00  0.00     0.029 A 
ATOM     50  N   UNL A   1      45.339  29.017  29.941  1.00  0.00    -0.354 N 
ATOM     51  N   UNL A   1      42.472  29.621  29.793  1.00  0.00    -0.248 NA
ATOM     52  C   UNL A   1      40.693  31.108  30.078  1.00  0.00     0.031 C 
ATOM     53  C   UNL A   1      46.723  30.623  30.604  1.00  0.00     0.029 A 
ATOM     54  C   UNL A   1      45.391  30.339  30.351  1.00  0.00     0.049 A 
ATOM     55  H   UNL A   1      44.515  28.532  29.701  1.00  0.00     0.167 HD
ATOM     56  C   UNL A   1      42.968  30.849  30.211  1.00  0.00     0.074 A 
ATOM     57  C   UNL A   1      41.830  31.737  30.336  1.00  0.00     0.031 C 
ATOM     58  C   UNL A   1      44.249  31.210  30.470  1.00  0.00     0.037 A 
BRANCH  45  59
ATOM     59  C   UNL A   1      48.353  26.666  29.627  1.00  0.00     0.057 A 
ATOM     60  C   UNL A   1      49.245  26.850  28.562  1.00  0.00     0.134 A 
ATOM     61  C   UNL A   1      48.853  26.063  30.789  1.00  0.00     0.134 A 
ATOM     62  F   UNL A   1      48.829  27.410  27.416  1.00  0.00    -0.206 F 
ATOM     63  C   UNL A   1      50.574  26.427  28.638  1.00  0.00     0.040 A 
ATOM     64  C   UNL A   1      50.187  25.659  30.887  1.00  0.00     0.040 A 
ATOM     65  F   UNL A   1      48.057  25.862  31.849  1.00  0.00    -0.206 F 
ATOM     66  C   UNL A   1      51.049  25.835  29.806  1.00  0.00     0.006 A 
ENDBRANCH  45  59
BRANCH  46  67
ATOM     67  C   UNL A   1      38.699  29.155  29.215  1.00  0.00     0.057 A 
ATOM     68  C   UNL A   1      38.118  29.621  28.030  1.00  0.00     0.134 A 
ATOM     69  C   UNL A   1      37.877  29.062  30.344  1.00  0.00     0.134 A 
ATOM     70  F   UNL A   1      38.860  29.748  26.920  1.00  0.00    -0.206 F 
ATOM     71  C   UNL A   1      36.776  30.000  27.973  1.00  0.00     0.040 A 
ATOM     72  C   UNL A   1      36.528  29.414  30.296  1.00  0.00     0.040 A 
ATOM     73  F   UNL A   1      38.373  28.613  31.507  1.00  0.00    -0.206 F 
ATOM     74  C   UNL A   1      35.975  29.893  29.108  1.00  0.00     0.006 A 
ENDBRANCH  46  67
BRANCH  58  75
ATOM     75  C   UNL A   1      44.482  32.633  30.883  1.00  0.00     0.057 A 
ATOM     76  C   UNL A   1      44.497  33.019  32.229  1.00  0.00     0.134 A 
ATOM     77  C   UNL A   1      44.700  33.628  29.921  1.00  0.00     0.134 A 
ATOM     78  F   UNL A   1      44.281  32.117  33.198  1.00  0.00    -0.206 F 
ATOM     79  C   UNL A   1      44.687  34.351  32.603  1.00  0.00     0.040 A 
ATOM     80  C   UNL A   1      44.918  34.957  30.285  1.00  0.00     0.040 A 
ATOM     81  F   UNL A   1      44.706  33.323  28.614  1.00  0.00    -0.206 F 
ATOM     82  C   UNL A   1      44.901  35.323  31.628  1.00  0.00     0.006 A 
ENDBRANCH  58  75
ENDBRANCH  32  33
ENDBRANCH  24  27
ENDBRANCH  22  23
ENDBRANCH  21  22
ENDBRANCH  20  21
ENDBRANCH   3  20
TORSDOF 15
ENDMDL
MODEL 3
REMARK VINA RESULT:     -10.3      4.543      9.440
REMARK SMILES CC(C)(C)OC(=O)CSc1ccnc(C(=O)NCCCNC(=O)c2ccc(-c3c4nc(c(-c5c(F)cccc5F)c5ccc([nH]5)c(-c5c(F)cccc5F)c5nc(c(-c6c(F)cccc6F)c6ccc3[nH]6)C=C5)C=C4)cc2)c1
REMARK SMILES IDX 15 1 16 2 17 3 14 5 10 6 11 7 78 8 12 9 13 10 9 11 8 12 6 13
REMARK SMILES IDX 7 14 5 15 2 16 1 17 3 18 4 19 18 20 19 21 20 22 21 23 22 24
REMARK SMILES IDX 23 26 24 27 25 28 77 29 26 30 76 31 27 32 28 33 29 34 70 35
REMARK SMILES IDX 30 36 75 37 69 38 71 39 31 40 74 41 68 42 67 43 32 45 58 46
REMARK SMILES IDX 41 47 57 48 42 49 45 50 56 51 72 52 43 53 44 54 55 56 73 57
REMARK SMILES IDX 46 58 33 59 34 60 39 61 35 62 36 63 38 64 40 65 37 66 59 67
REMARK SMILES IDX 60 68 65 69 61 70 62 71 64 72 66 73 63 74 47 75 48 76 53 77
REMARK SMILES IDX 49 78 50 79 52 80 54 81 51 82
REMARK H PARENT 17 4 21 25 71 44 45 55
REMARK Flexibility Score: inf
ROOT
ATOM      1  C   UNL A   1      41.160  20.673  27.465  1.00  0.00     0.269 C 
ATOM      2  O   UNL A   1      40.750  19.593  27.896  1.00  0.00    -0.268 OA
ATOM      3  N   UNL A   1      42.529  20.829  27.430  1.00  0.00    -0.351 N 
ATOM      4  H   UNL A   1      43.022  20.054  27.786  1.00  0.00     0.163 HD
ENDROOT
BRANCH   1   5
ATOM      5  C   UNL A   1      40.184  21.713  26.987  1.00  0.00     0.129 A 
ATOM      6  C   UNL A   1      38.336  22.499  25.676  1.00  0.00     0.012 A 
ATOM      7  C   UNL A   1      38.439  23.732  26.307  1.00  0.00     0.035 A 
ATOM      8  C   UNL A   1      39.260  21.498  25.977  1.00  0.00     0.049 A 
ATOM      9  C   UNL A   1      39.428  23.892  27.257  1.00  0.00     0.113 A 
ATOM     10  N   UNL A   1      40.280  22.912  27.621  1.00  0.00    -0.251 NA
BRANCH   6  11
ATOM     11  S   UNL A   1      37.063  22.113  24.487  1.00  0.00    -0.114 SA
BRANCH  11  12
ATOM     12  C   UNL A   1      35.965  21.028  25.453  1.00  0.00     0.197 C 
BRANCH  12  13
ATOM     13  C   UNL A   1      34.536  21.009  24.958  1.00  0.00     0.316 C 
ATOM     14  O   UNL A   1      34.126  21.777  24.098  1.00  0.00    -0.251 OA
BRANCH  13  15
ATOM     15  O   UNL A   1      33.816  20.011  25.540  1.00  0.00    -0.459 OA
BRANCH  15  16
ATOM     16  C   UNL A   1      33.444  18.831  24.777  1.00  0.00     0.104 C 
ATOM     17  C   UNL A   1      32.664  17.946  25.763  1.00  0.00     0.056 C 
ATOM     18  C   UNL A   1      34.690  18.062  24.318  1.00  0.00     0.056 C 
ATOM     19  C   UNL A   1      32.520  19.175  23.603  1.00  0.00     0.056 C 
ENDBRANCH  15  16
ENDBRANCH  13  15
ENDBRANCH  12  13
ENDBRANCH  11  12
ENDBRANCH   6  11
ENDBRANCH   1   5
BRANCH   3  20
ATOM     20  C   UNL A   1      43.392  21.903  26.975  1.00  0.00     0.118 C 
BRANCH  20  21
ATOM     21  C   UNL A   1      43.456  21.948  25.446  1.00  0.00     0.042 C 
BRANCH  21  22
ATOM     22  C   UNL A   1      43.175  23.333  24.865  1.00  0.00     0.118 C 
BRANCH  22  23
ATOM     23  N   UNL A   1      44.403  24.077  24.627  1.00  0.00    -0.352 N 
ATOM     24  C   UNL A   1      44.827  25.285  25.112  1.00  0.00     0.251 C 
ATOM     25  H   UNL A   1      45.036  23.637  24.014  1.00  0.00     0.163 HD
ATOM     26  O   UNL A   1      45.793  25.831  24.583  1.00  0.00    -0.269 OA
BRANCH  24  27
ATOM     27  C   UNL A   1      44.152  25.946  26.253  1.00  0.00     0.039 A 
ATOM     28  C   UNL A   1      44.457  27.286  26.517  1.00  0.00     0.014 A 
ATOM     29  C   UNL A   1      43.300  25.249  27.116  1.00  0.00     0.014 A 
ATOM     30  C   UNL A   1      43.894  27.929  27.620  1.00  0.00     0.010 A 
ATOM     31  C   UNL A   1      42.684  25.912  28.179  1.00  0.00     0.010 A 
ATOM     32  C   UNL A   1      42.987  27.254  28.452  1.00  0.00    -0.014 A 
BRANCH  32  33
ATOM     33  C   UNL A   1      42.368  27.947  29.611  1.00  0.00     0.031 A 
ATOM     34  C   UNL A   1      42.998  27.873  30.975  1.00  0.00     0.074 A 
ATOM     35  C   UNL A   1      41.219  28.625  29.437  1.00  0.00     0.049 A 
ATOM     36  N   UNL A   1      42.606  28.423  32.097  1.00  0.00    -0.248 NA
ATOM     37  C   UNL A   1      44.216  27.057  31.102  1.00  0.00     0.031 C 
ATOM     38  C   UNL A   1      40.480  28.727  28.177  1.00  0.00     0.029 A 
ATOM     39  N   UNL A   1      40.471  29.363  30.321  1.00  0.00    -0.354 N 
ATOM     40  C   UNL A   1      43.519  28.011  33.062  1.00  0.00     0.074 A 
ATOM     41  C   UNL A   1      44.454  27.124  32.404  1.00  0.00     0.031 C 
ATOM     42  C   UNL A   1      39.404  29.509  28.360  1.00  0.00     0.029 A 
ATOM     43  C   UNL A   1      39.363  29.941  29.754  1.00  0.00     0.049 A 
ATOM     44  H   UNL A   1      40.708  29.466  31.272  1.00  0.00     0.167 HD
ATOM     45  C   UNL A   1      43.585  28.357  34.371  1.00  0.00     0.037 A 
ATOM     46  C   UNL A   1      38.423  30.740  30.294  1.00  0.00     0.037 A 
ATOM     47  C   UNL A   1      42.666  29.257  35.019  1.00  0.00     0.049 A 
ATOM     48  C   UNL A   1      38.536  31.131  31.739  1.00  0.00     0.074 A 
ATOM     49  C   UNL A   1      42.679  29.710  36.328  1.00  0.00     0.029 A 
ATOM     50  N   UNL A   1      41.570  29.842  34.405  1.00  0.00    -0.354 N 
ATOM     51  N   UNL A   1      39.442  30.788  32.622  1.00  0.00    -0.248 NA
ATOM     52  C   UNL A   1      37.501  32.036  32.260  1.00  0.00     0.031 C 
ATOM     53  C   UNL A   1      41.570  30.544  36.513  1.00  0.00     0.029 A 
ATOM     54  C   UNL A   1      40.892  30.643  35.309  1.00  0.00     0.049 A 
ATOM     55  H   UNL A   1      41.311  29.708  33.464  1.00  0.00     0.167 HD
ATOM     56  C   UNL A   1      39.103  31.451  33.794  1.00  0.00     0.074 A 
ATOM     57  C   UNL A   1      37.919  32.233  33.502  1.00  0.00     0.031 C 
ATOM     58  C   UNL A   1      39.715  31.415  35.003  1.00  0.00     0.037 A 
BRANCH  45  59
ATOM     59  C   UNL A   1      44.697  27.761  35.186  1.00  0.00     0.057 A 
ATOM     60  C   UNL A   1      44.561  26.521  35.824  1.00  0.00     0.134 A 
ATOM     61  C   UNL A   1      45.927  28.420  35.315  1.00  0.00     0.134 A 
ATOM     62  F   UNL A   1      43.406  25.842  35.751  1.00  0.00    -0.206 F 
ATOM     63  C   UNL A   1      45.596  25.970  36.581  1.00  0.00     0.040 A 
ATOM     64  C   UNL A   1      46.979  27.867  36.048  1.00  0.00     0.040 A 
ATOM     65  F   UNL A   1      46.128  29.607  34.726  1.00  0.00    -0.206 F 
ATOM     66  C   UNL A   1      46.812  26.641  36.689  1.00  0.00     0.006 A 
ENDBRANCH  45  59
BRANCH  46  67
ATOM     67  C   UNL A   1      37.318  31.258  29.450  1.00  0.00     0.057 A 
ATOM     68  C   UNL A   1      37.383  32.536  28.884  1.00  0.00     0.134 A 
ATOM     69  C   UNL A   1      36.173  30.495  29.194  1.00  0.00     0.134 A 
ATOM     70  F   UNL A   1      38.448  33.320  29.108  1.00  0.00    -0.206 F 
ATOM     71  C   UNL A   1      36.342  33.046  28.107  1.00  0.00     0.040 A 
ATOM     72  C   UNL A   1      35.134  30.983  28.399  1.00  0.00     0.040 A 
ATOM     73  F   UNL A   1      36.055  29.259  29.701  1.00  0.00    -0.206 F 
ATOM     74  C   UNL A   1      35.214  32.265  27.859  1.00  0.00     0.006 A 
ENDBRANCH  46  67
BRANCH  58  75
ATOM     75  C   UNL A   1      39.127  32.272  36.086  1.00  0.00     0.057 A 
ATOM     76  C   UNL A   1      38.173  31.775  36.984  1.00  0.00     0.134 A 
ATOM     77  C   UNL A   1      39.524  33.606  36.234  1.00  0.00     0.134 A 
ATOM     78  F   UNL A   1      37.741  30.509  36.887  1.00  0.00    -0.206 F 
ATOM     79  C   UNL A   1      37.611  32.587  37.971  1.00  0.00     0.040 A 
ATOM     80  C   UNL A   1      38.988  34.419  37.234  1.00  0.00     0.040 A 
ATOM     81  F   UNL A   1      40.439  34.141  35.411  1.00  0.00    -0.206 F 
ATOM     82  C   UNL A   1      38.021  33.912  38.099  1.00  0.00     0.006 A 
ENDBRANCH  58  75
ENDBRANCH  32  33
ENDBRANCH  24  27
ENDBRANCH  22  23
ENDBRANCH  21  22
ENDBRANCH  20  21
ENDBRANCH   3  20
TORSDOF 15
ENDMDL
