MODEL 1
REMARK VINA RESULT:     -11.8      0.000      0.000
REMARK SMILES Cc1ccc(F)cc1NS(=O)(=O)c1ccc(C(=O)NCCCNC(=O)c2ccc(-c3c4nc(c(-c5c(F)cccc5F)c5ccc([nH]5)c(-c5c(F)cccc5F)c5nc(c(-c6c(F)cccc6F)c6ccc3[nH]6)C=C5)C=C4)cc2)cc1
REMARK SMILES IDX 20 1 19 2 17 3 18 4 16 6 13 7 14 8 81 9 15 10 80 11 10 12
REMARK SMILES IDX 11 13 12 14 9 15 8 17 1 18 2 19 3 20 4 21 7 22 5 23 6 24
REMARK SMILES IDX 21 25 22 26 23 27 24 28 25 30 26 31 27 32 79 33 28 34 78 35
REMARK SMILES IDX 29 36 30 37 31 38 72 39 32 40 77 41 71 42 73 43 33 44 76 45
REMARK SMILES IDX 70 46 69 47 34 49 60 50 43 51 59 52 44 53 47 54 58 55 74 56
REMARK SMILES IDX 45 57 46 58 57 60 75 61 48 62 35 63 36 64 41 65 37 66 38 67
REMARK SMILES IDX 40 68 42 69 39 70 61 71 62 72 67 73 63 74 64 75 66 76 68 77
REMARK SMILES IDX 65 78 49 79 50 80 55 81 51 82 52 83 54 84 56 85 53 86
REMARK H PARENT 19 5 9 16 23 29 73 48 47 59
REMARK Flexibility Score: inf
ROOT
ATOM      1  C   UNL A   1      37.307  20.818  24.606  1.00  0.00     0.118 C 
ENDROOT
BRANCH   1   2
ATOM      2  N   UNL A   1      37.901  22.066  25.043  1.00  0.00    -0.352 N 
ATOM      3  C   UNL A   1      37.306  23.211  25.495  1.00  0.00     0.251 C 
ATOM      4  O   UNL A   1      38.003  24.143  25.886  1.00  0.00    -0.269 OA
ATOM      5  H   UNL A   1      38.885  22.094  25.009  1.00  0.00     0.163 HD
BRANCH   3   6
ATOM      6  C   UNL A   1      35.834  23.326  25.566  1.00  0.00     0.039 A 
ATOM      7  C   UNL A   1      33.096  23.731  25.899  1.00  0.00     0.087 A 
ATOM      8  C   UNL A   1      33.848  23.184  26.945  1.00  0.00     0.023 A 
ATOM      9  C   UNL A   1      33.687  23.974  24.653  1.00  0.00     0.023 A 
ATOM     10  C   UNL A   1      35.225  23.029  26.792  1.00  0.00     0.015 A 
ATOM     11  C   UNL A   1      35.062  23.781  24.491  1.00  0.00     0.015 A 
BRANCH   7  12
ATOM     12  S   UNL A   1      31.379  24.099  26.148  1.00  0.00     0.261 S 
ATOM     13  O   UNL A   1      30.982  23.459  27.388  1.00  0.00    -0.201 OA
ATOM     14  O   UNL A   1      30.681  23.789  24.920  1.00  0.00    -0.201 OA
BRANCH  12  15
ATOM     15  N   UNL A   1      31.168  25.785  26.379  1.00  0.00    -0.279 N 
ATOM     16  H   UNL A   1      30.863  26.108  27.259  1.00  0.00     0.180 HD
BRANCH  15  17
ATOM     17  C   UNL A   1      31.417  26.749  25.334  1.00  0.00     0.055 A 
ATOM     18  C   UNL A   1      33.746  27.410  26.247  1.00  0.00     0.046 C 
ATOM     19  C   UNL A   1      32.639  27.449  25.227  1.00  0.00    -0.027 A 
ATOM     20  C   UNL A   1      32.817  28.364  24.163  1.00  0.00     0.008 A 
ATOM     21  C   UNL A   1      31.794  28.623  23.259  1.00  0.00     0.039 A 
ATOM     22  C   UNL A   1      30.359  27.137  24.507  1.00  0.00     0.066 A 
ATOM     23  C   UNL A   1      30.562  28.028  23.458  1.00  0.00     0.125 A 
ATOM     24  F   UNL A   1      29.546  28.318  22.637  1.00  0.00    -0.207 F 
ENDBRANCH  15  17
ENDBRANCH  12  15
ENDBRANCH   7  12
ENDBRANCH   3   6
ENDBRANCH   1   2
BRANCH   1  25
ATOM     25  C   UNL A   1      38.203  19.638  24.964  1.00  0.00     0.042 C 
BRANCH  25  26
ATOM     26  C   UNL A   1      39.173  19.950  26.098  1.00  0.00     0.118 C 
BRANCH  26  27
ATOM     27  N   UNL A   1      40.411  19.195  25.969  1.00  0.00    -0.352 N 
ATOM     28  C   UNL A   1      41.710  19.627  25.999  1.00  0.00     0.251 C 
ATOM     29  H   UNL A   1      40.296  18.225  25.843  1.00  0.00     0.163 HD
ATOM     30  O   UNL A   1      42.602  18.889  25.593  1.00  0.00    -0.269 OA
BRANCH  28  31
ATOM     31  C   UNL A   1      42.042  20.967  26.524  1.00  0.00     0.039 A 
ATOM     32  C   UNL A   1      42.010  21.175  27.905  1.00  0.00     0.014 A 
ATOM     33  C   UNL A   1      42.315  22.033  25.661  1.00  0.00     0.014 A 
ATOM     34  C   UNL A   1      42.272  22.444  28.420  1.00  0.00     0.010 A 
ATOM     35  C   UNL A   1      42.667  23.275  26.180  1.00  0.00     0.010 A 
ATOM     36  C   UNL A   1      42.619  23.501  27.561  1.00  0.00    -0.014 A 
BRANCH  36  37
ATOM     37  C   UNL A   1      42.889  24.856  28.099  1.00  0.00     0.031 A 
ATOM     38  C   UNL A   1      44.293  25.261  28.459  1.00  0.00     0.074 A 
ATOM     39  C   UNL A   1      41.865  25.709  28.286  1.00  0.00     0.049 A 
ATOM     40  N   UNL A   1      44.727  26.396  28.945  1.00  0.00    -0.248 NA
ATOM     41  C   UNL A   1      45.346  24.249  28.276  1.00  0.00     0.031 C 
ATOM     42  C   UNL A   1      40.455  25.411  28.021  1.00  0.00     0.029 A 
ATOM     43  N   UNL A   1      41.851  27.002  28.741  1.00  0.00    -0.354 N 
ATOM     44  C   UNL A   1      46.093  26.231  29.132  1.00  0.00     0.074 A 
ATOM     45  C   UNL A   1      46.407  24.866  28.772  1.00  0.00     0.031 C 
ATOM     46  C   UNL A   1      39.719  26.502  28.282  1.00  0.00     0.029 A 
ATOM     47  C   UNL A   1      40.597  27.561  28.768  1.00  0.00     0.049 A 
ATOM     48  H   UNL A   1      42.662  27.484  29.021  1.00  0.00     0.167 HD
ATOM     49  C   UNL A   1      47.010  27.141  29.538  1.00  0.00     0.037 A 
ATOM     50  C   UNL A   1      40.202  28.793  29.141  1.00  0.00     0.037 A 
ATOM     51  C   UNL A   1      46.692  28.503  29.881  1.00  0.00     0.049 A 
ATOM     52  C   UNL A   1      41.238  29.785  29.592  1.00  0.00     0.074 A 
ATOM     53  C   UNL A   1      47.549  29.520  30.261  1.00  0.00     0.029 A 
ATOM     54  N   UNL A   1      45.411  29.036  29.885  1.00  0.00    -0.354 N 
ATOM     55  N   UNL A   1      42.536  29.635  29.699  1.00  0.00    -0.248 NA
ATOM     56  C   UNL A   1      40.754  31.121  29.958  1.00  0.00     0.031 C 
ATOM     57  C   UNL A   1      46.781  30.655  30.547  1.00  0.00     0.029 A 
ATOM     58  C   UNL A   1      45.452  30.363  30.281  1.00  0.00     0.049 A 
ATOM     59  H   UNL A   1      44.594  28.544  29.643  1.00  0.00     0.167 HD
ATOM     60  C   UNL A   1      43.028  30.867  30.110  1.00  0.00     0.074 A 
ATOM     61  C   UNL A   1      41.889  31.755  30.215  1.00  0.00     0.031 C 
ATOM     62  C   UNL A   1      44.307  31.234  30.373  1.00  0.00     0.037 A 
BRANCH  49  63
ATOM     63  C   UNL A   1      48.441  26.689  29.636  1.00  0.00     0.057 A 
ATOM     64  C   UNL A   1      48.960  26.121  30.808  1.00  0.00     0.134 A 
ATOM     65  C   UNL A   1      49.303  26.799  28.538  1.00  0.00     0.134 A 
ATOM     66  F   UNL A   1      48.195  25.997  31.902  1.00  0.00    -0.206 F 
ATOM     67  C   UNL A   1      50.293  25.709  30.893  1.00  0.00     0.040 A 
ATOM     68  C   UNL A   1      50.628  26.363  28.602  1.00  0.00     0.040 A 
ATOM     69  F   UNL A   1      48.873  27.329  27.383  1.00  0.00    -0.206 F 
ATOM     70  C   UNL A   1      51.128  25.823  29.784  1.00  0.00     0.006 A 
ENDBRANCH  49  63
BRANCH  50  71
ATOM     71  C   UNL A   1      38.766  29.167  29.074  1.00  0.00     0.057 A 
ATOM     72  C   UNL A   1      38.194  29.634  27.883  1.00  0.00     0.134 A 
ATOM     73  C   UNL A   1      37.934  29.079  30.196  1.00  0.00     0.134 A 
ATOM     74  F   UNL A   1      38.943  29.754  26.777  1.00  0.00    -0.206 F 
ATOM     75  C   UNL A   1      36.856  30.025  27.819  1.00  0.00     0.040 A 
ATOM     76  C   UNL A   1      36.587  29.438  30.137  1.00  0.00     0.040 A 
ATOM     77  F   UNL A   1      38.416  28.627  31.363  1.00  0.00    -0.206 F 
ATOM     78  C   UNL A   1      36.047  29.923  28.948  1.00  0.00     0.006 A 
ENDBRANCH  50  71
BRANCH  62  79
ATOM     79  C   UNL A   1      44.543  32.669  30.750  1.00  0.00     0.057 A 
ATOM     80  C   UNL A   1      44.540  33.103  32.081  1.00  0.00     0.134 A 
ATOM     81  C   UNL A   1      44.789  33.629  29.759  1.00  0.00     0.134 A 
ATOM     82  F   UNL A   1      44.300  32.238  33.079  1.00  0.00    -0.206 F 
ATOM     83  C   UNL A   1      44.732  34.446  32.412  1.00  0.00     0.040 A 
ATOM     84  C   UNL A   1      45.017  34.968  30.079  1.00  0.00     0.040 A 
ATOM     85  F   UNL A   1      44.819  33.281  28.464  1.00  0.00    -0.206 F 
ATOM     86  C   UNL A   1      44.977  35.382  31.408  1.00  0.00     0.006 A 
ENDBRANCH  62  79
ENDBRANCH  36  37
ENDBRANCH  28  31
ENDBRANCH  26  27
ENDBRANCH  25  26
ENDBRANCH   1  25
TORSDOF 13
ENDMDL
MODEL 2
REMARK VINA RESULT:     -11.8      1.344      2.308
REMARK SMILES Cc1ccc(F)cc1NS(=O)(=O)c1ccc(C(=O)NCCCNC(=O)c2ccc(-c3c4nc(c(-c5c(F)cccc5F)c5ccc([nH]5)c(-c5c(F)cccc5F)c5nc(c(-c6c(F)cccc6F)c6ccc3[nH]6)C=C5)C=C4)cc2)cc1
REMARK SMILES IDX 20 1 19 2 17 3 18 4 16 6 13 7 14 8 81 9 15 10 80 11 10 12
REMARK SMILES IDX 11 13 12 14 9 15 8 17 1 18 2 19 3 20 4 21 7 22 5 23 6 24
REMARK SMILES IDX 21 25 22 26 23 27 24 28 25 30 26 31 27 32 79 33 28 34 78 35
REMARK SMILES IDX 29 36 30 37 31 38 72 39 32 40 77 41 71 42 73 43 33 44 76 45
REMARK SMILES IDX 70 46 69 47 34 49 60 50 43 51 59 52 44 53 47 54 58 55 74 56
REMARK SMILES IDX 45 57 46 58 57 60 75 61 48 62 35 63 36 64 41 65 37 66 38 67
REMARK SMILES IDX 40 68 42 69 39 70 61 71 62 72 67 73 63 74 64 75 66 76 68 77
REMARK SMILES IDX 65 78 49 79 50 80 55 81 51 82 52 83 54 84 56 85 53 86
REMARK H PARENT 19 5 9 16 23 29 73 48 47 59
REMARK Flexibility Score: inf
ROOT
ATOM      1  C   UNL A   1      36.409  20.097  24.983  1.00  0.00     0.118 C 
ENDROOT
BRANCH   1   2
ATOM      2  N   UNL A   1      35.399  19.074  24.792  1.00  0.00    -0.352 N 
ATOM      3  C   UNL A   1      34.037  19.163  24.857  1.00  0.00     0.251 C 
ATOM      4  O   UNL A   1      33.353  18.178  24.592  1.00  0.00    -0.269 OA
ATOM      5  H   UNL A   1      35.749  18.177  24.585  1.00  0.00     0.163 HD
BRANCH   3   6
ATOM      6  C   UNL A   1      33.373  20.439  25.195  1.00  0.00     0.039 A 
ATOM      7  C   UNL A   1      31.879  22.716  25.791  1.00  0.00     0.087 A 
ATOM      8  C   UNL A   1      31.830  22.173  24.503  1.00  0.00     0.023 A 
ATOM      9  C   UNL A   1      32.754  22.189  26.750  1.00  0.00     0.023 A 
ATOM     10  C   UNL A   1      32.539  21.006  24.222  1.00  0.00     0.015 A 
ATOM     11  C   UNL A   1      33.493  21.041  26.453  1.00  0.00     0.015 A 
BRANCH   7  12
ATOM     12  S   UNL A   1      30.841  24.093  26.207  1.00  0.00     0.261 S 
ATOM     13  O   UNL A   1      29.892  23.625  27.200  1.00  0.00    -0.201 OA
ATOM     14  O   UNL A   1      30.365  24.673  24.970  1.00  0.00    -0.201 OA
BRANCH  12  15
ATOM     15  N   UNL A   1      31.770  25.322  26.959  1.00  0.00    -0.279 N 
ATOM     16  H   UNL A   1      31.986  25.233  27.916  1.00  0.00     0.180 HD
BRANCH  15  17
ATOM     17  C   UNL A   1      32.245  26.483  26.245  1.00  0.00     0.055 A 
ATOM     18  C   UNL A   1      34.401  25.317  25.415  1.00  0.00     0.046 C 
ATOM     19  C   UNL A   1      33.424  26.463  25.468  1.00  0.00    -0.027 A 
ATOM     20  C   UNL A   1      33.815  27.635  24.780  1.00  0.00     0.008 A 
ATOM     21  C   UNL A   1      33.090  28.814  24.900  1.00  0.00     0.039 A 
ATOM     22  C   UNL A   1      31.622  27.714  26.468  1.00  0.00     0.066 A 
ATOM     23  C   UNL A   1      32.015  28.850  25.769  1.00  0.00     0.125 A 
ATOM     24  F   UNL A   1      31.347  29.996  25.948  1.00  0.00    -0.207 F 
ENDBRANCH  15  17
ENDBRANCH  12  15
ENDBRANCH   7  12
ENDBRANCH   3   6
ENDBRANCH   1   2
BRANCH   1  25
ATOM     25  C   UNL A   1      37.803  19.534  24.735  1.00  0.00     0.042 C 
BRANCH  25  26
ATOM     26  C   UNL A   1      38.861  20.136  25.653  1.00  0.00     0.118 C 
BRANCH  26  27
ATOM     27  N   UNL A   1      40.018  19.264  25.784  1.00  0.00    -0.352 N 
ATOM     28  C   UNL A   1      41.326  19.575  26.044  1.00  0.00     0.251 C 
ATOM     29  H   UNL A   1      39.832  18.303  25.670  1.00  0.00     0.163 HD
ATOM     30  O   UNL A   1      42.200  18.737  25.838  1.00  0.00    -0.269 OA
BRANCH  28  31
ATOM     31  C   UNL A   1      41.689  20.903  26.579  1.00  0.00     0.039 A 
ATOM     32  C   UNL A   1      41.572  21.128  27.953  1.00  0.00     0.014 A 
ATOM     33  C   UNL A   1      42.074  21.944  25.729  1.00  0.00     0.014 A 
ATOM     34  C   UNL A   1      41.862  22.389  28.474  1.00  0.00     0.010 A 
ATOM     35  C   UNL A   1      42.452  23.172  26.260  1.00  0.00     0.010 A 
ATOM     36  C   UNL A   1      42.320  23.417  27.632  1.00  0.00    -0.014 A 
BRANCH  36  37
ATOM     37  C   UNL A   1      42.620  24.764  28.175  1.00  0.00     0.031 A 
ATOM     38  C   UNL A   1      44.028  25.125  28.564  1.00  0.00     0.074 A 
ATOM     39  C   UNL A   1      41.619  25.648  28.343  1.00  0.00     0.049 A 
ATOM     40  N   UNL A   1      44.487  26.247  29.059  1.00  0.00    -0.248 NA
ATOM     41  C   UNL A   1      45.053  24.082  28.402  1.00  0.00     0.031 C 
ATOM     42  C   UNL A   1      40.207  25.392  28.049  1.00  0.00     0.029 A 
ATOM     43  N   UNL A   1      41.636  26.941  28.797  1.00  0.00    -0.354 N 
ATOM     44  C   UNL A   1      45.844  26.040  29.273  1.00  0.00     0.074 A 
ATOM     45  C   UNL A   1      46.122  24.666  28.919  1.00  0.00     0.031 C 
ATOM     46  C   UNL A   1      39.499  26.505  28.295  1.00  0.00     0.029 A 
ATOM     47  C   UNL A   1      40.399  27.538  28.799  1.00  0.00     0.049 A 
ATOM     48  H   UNL A   1      42.455  27.398  29.094  1.00  0.00     0.167 HD
ATOM     49  C   UNL A   1      46.779  26.922  29.698  1.00  0.00     0.037 A 
ATOM     50  C   UNL A   1      40.034  28.781  29.165  1.00  0.00     0.037 A 
ATOM     51  C   UNL A   1      46.496  28.293  30.034  1.00  0.00     0.049 A 
ATOM     52  C   UNL A   1      41.091  29.741  29.636  1.00  0.00     0.074 A 
ATOM     53  C   UNL A   1      47.376  29.284  30.431  1.00  0.00     0.029 A 
ATOM     54  N   UNL A   1      45.232  28.866  30.013  1.00  0.00    -0.354 N 
ATOM     55  N   UNL A   1      42.382  29.552  29.769  1.00  0.00    -0.248 NA
ATOM     56  C   UNL A   1      40.641  31.092  29.993  1.00  0.00     0.031 C 
ATOM     57  C   UNL A   1      46.638  30.442  30.702  1.00  0.00     0.029 A 
ATOM     58  C   UNL A   1      45.306  30.191  30.409  1.00  0.00     0.049 A 
ATOM     59  H   UNL A   1      44.406  28.399  29.754  1.00  0.00     0.167 HD
ATOM     60  C   UNL A   1      42.903  30.769  30.190  1.00  0.00     0.074 A 
ATOM     61  C   UNL A   1      41.789  31.691  30.273  1.00  0.00     0.031 C 
ATOM     62  C   UNL A   1      44.187  31.096  30.479  1.00  0.00     0.037 A 
BRANCH  49  63
ATOM     63  C   UNL A   1      48.194  26.427  29.824  1.00  0.00     0.057 A 
ATOM     64  C   UNL A   1      49.123  26.568  28.783  1.00  0.00     0.134 A 
ATOM     65  C   UNL A   1      48.640  25.827  31.007  1.00  0.00     0.134 A 
ATOM     66  F   UNL A   1      48.761  27.123  27.617  1.00  0.00    -0.206 F 
ATOM     67  C   UNL A   1      50.434  26.101  28.905  1.00  0.00     0.040 A 
ATOM     68  C   UNL A   1      49.956  25.384  31.151  1.00  0.00     0.040 A 
ATOM     69  F   UNL A   1      47.807  25.663  32.046  1.00  0.00    -0.206 F 
ATOM     70  C   UNL A   1      50.855  25.513  30.095  1.00  0.00     0.006 A 
ENDBRANCH  49  63
BRANCH  50  71
ATOM     71  C   UNL A   1      38.612  29.199  29.068  1.00  0.00     0.057 A 
ATOM     72  C   UNL A   1      37.760  29.131  30.178  1.00  0.00     0.134 A 
ATOM     73  C   UNL A   1      38.067  29.665  27.866  1.00  0.00     0.134 A 
ATOM     74  F   UNL A   1      38.219  28.679  31.354  1.00  0.00    -0.206 F 
ATOM     75  C   UNL A   1      36.413  29.484  30.089  1.00  0.00     0.040 A 
ATOM     76  C   UNL A   1      36.729  30.051  27.771  1.00  0.00     0.040 A 
ATOM     77  F   UNL A   1      38.833  29.768  26.770  1.00  0.00    -0.206 F 
ATOM     78  C   UNL A   1      35.895  29.950  28.882  1.00  0.00     0.006 A 
ENDBRANCH  50  71
BRANCH  62  79
ATOM     79  C   UNL A   1      44.458  32.523  30.861  1.00  0.00     0.057 A 
ATOM     80  C   UNL A   1      44.747  33.510  29.910  1.00  0.00     0.134 A 
ATOM     81  C   UNL A   1      44.417  32.916  32.206  1.00  0.00     0.134 A 
ATOM     82  F   UNL A   1      44.813  33.200  28.605  1.00  0.00    -0.206 F 
ATOM     83  C   UNL A   1      45.025  34.826  30.284  1.00  0.00     0.040 A 
ATOM     84  C   UNL A   1      44.659  34.236  32.589  1.00  0.00     0.040 A 
ATOM     85  F   UNL A   1      44.134  32.026  33.168  1.00  0.00    -0.206 F 
ATOM     86  C   UNL A   1      44.976  35.193  31.628  1.00  0.00     0.006 A 
ENDBRANCH  62  79
ENDBRANCH  36  37
ENDBRANCH  28  31
ENDBRANCH  26  27
ENDBRANCH  25  26
ENDBRANCH   1  25
TORSDOF 13
ENDMDL
MODEL 3
REMARK VINA RESULT:     -11.8      0.444      6.124
REMARK SMILES Cc1ccc(F)cc1NS(=O)(=O)c1ccc(C(=O)NCCCNC(=O)c2ccc(-c3c4nc(c(-c5c(F)cccc5F)c5ccc([nH]5)c(-c5c(F)cccc5F)c5nc(c(-c6c(F)cccc6F)c6ccc3[nH]6)C=C5)C=C4)cc2)cc1
REMARK SMILES IDX 20 1 19 2 17 3 18 4 16 6 13 7 14 8 81 9 15 10 80 11 10 12
REMARK SMILES IDX 11 13 12 14 9 15 8 17 1 18 2 19 3 20 4 21 7 22 5 23 6 24
REMARK SMILES IDX 21 25 22 26 23 27 24 28 25 30 26 31 27 32 79 33 28 34 78 35
REMARK SMILES IDX 29 36 30 37 31 38 72 39 32 40 77 41 71 42 73 43 33 44 76 45
REMARK SMILES IDX 70 46 69 47 34 49 60 50 43 51 59 52 44 53 47 54 58 55 74 56
REMARK SMILES IDX 45 57 46 58 57 60 75 61 48 62 35 63 36 64 41 65 37 66 38 67
REMARK SMILES IDX 40 68 42 69 39 70 61 71 62 72 67 73 63 74 64 75 66 76 68 77
REMARK SMILES IDX 65 78 49 79 50 80 55 81 51 82 52 83 54 84 56 85 53 86
REMARK H PARENT 19 5 9 16 23 29 73 48 47 59
REMARK Flexibility Score: inf
ROOT
ATOM      1  C   UNL A   1      37.343  21.088  24.601  1.00  0.00     0.118 C 
ENDROOT
BRANCH   1   2
ATOM      2  N   UNL A   1      37.931  22.302  25.132  1.00  0.00    -0.352 N 
ATOM      3  C   UNL A   1      37.328  23.426  25.626  1.00  0.00     0.251 C 
ATOM      4  O   UNL A   1      38.017  24.326  26.096  1.00  0.00    -0.269 OA
ATOM      5  H   UNL A   1      38.915  22.321  25.138  1.00  0.00     0.163 HD
BRANCH   3   6
ATOM      6  C   UNL A   1      35.855  23.552  25.646  1.00  0.00     0.039 A 
ATOM      7  C   UNL A   1      33.109  23.946  25.913  1.00  0.00     0.087 A 
ATOM      8  C   UNL A   1      33.805  23.233  26.895  1.00  0.00     0.023 A 
ATOM      9  C   UNL A   1      33.760  24.368  24.747  1.00  0.00     0.023 A 
ATOM     10  C   UNL A   1      35.186  23.081  26.783  1.00  0.00     0.015 A 
ATOM     11  C   UNL A   1      35.139  24.179  24.620  1.00  0.00     0.015 A 
BRANCH   7  12
ATOM     12  S   UNL A   1      31.385  24.299  26.137  1.00  0.00     0.261 S 
ATOM     13  O   UNL A   1      30.973  23.646  27.365  1.00  0.00    -0.201 OA
ATOM     14  O   UNL A   1      30.709  23.993  24.895  1.00  0.00    -0.201 OA
BRANCH  12  15
ATOM     15  N   UNL A   1      31.157  25.982  26.377  1.00  0.00    -0.279 N 
ATOM     16  H   UNL A   1      30.833  26.295  27.253  1.00  0.00     0.180 HD
BRANCH  15  17
ATOM     17  C   UNL A   1      31.420  26.956  25.345  1.00  0.00     0.055 A 
ATOM     18  C   UNL A   1      33.632  27.764  26.416  1.00  0.00     0.046 C 
ATOM     19  C   UNL A   1      32.601  27.730  25.319  1.00  0.00    -0.027 A 
ATOM     20  C   UNL A   1      32.797  28.651  24.264  1.00  0.00     0.008 A 
ATOM     21  C   UNL A   1      31.827  28.843  23.287  1.00  0.00     0.039 A 
ATOM     22  C   UNL A   1      30.403  27.274  24.441  1.00  0.00     0.066 A 
ATOM     23  C   UNL A   1      30.624  28.172  23.403  1.00  0.00     0.125 A 
ATOM     24  F   UNL A   1      29.654  28.396  22.509  1.00  0.00    -0.207 F 
ENDBRANCH  15  17
ENDBRANCH  12  15
ENDBRANCH   7  12
ENDBRANCH   3   6
ENDBRANCH   1   2
BRANCH   1  25
ATOM     25  C   UNL A   1      38.231  19.884  24.896  1.00  0.00     0.042 C 
BRANCH  25  26
ATOM     26  C   UNL A   1      39.184  20.119  26.063  1.00  0.00     0.118 C 
BRANCH  26  27
ATOM     27  N   UNL A   1      40.376  19.292  25.958  1.00  0.00    -0.352 N 
ATOM     28  C   UNL A   1      41.698  19.649  25.991  1.00  0.00     0.251 C 
ATOM     29  H   UNL A   1      40.207  18.328  25.848  1.00  0.00     0.163 HD
ATOM     30  O   UNL A   1      42.550  18.854  25.606  1.00  0.00    -0.269 OA
BRANCH  28  31
ATOM     31  C   UNL A   1      42.103  20.977  26.495  1.00  0.00     0.039 A 
ATOM     32  C   UNL A   1      42.106  21.200  27.875  1.00  0.00     0.014 A 
ATOM     33  C   UNL A   1      42.410  22.021  25.617  1.00  0.00     0.014 A 
ATOM     34  C   UNL A   1      42.437  22.461  28.371  1.00  0.00     0.010 A 
ATOM     35  C   UNL A   1      42.830  23.249  26.115  1.00  0.00     0.010 A 
ATOM     36  C   UNL A   1      42.818  23.491  27.495  1.00  0.00    -0.014 A 
BRANCH  36  37
ATOM     37  C   UNL A   1      43.161  24.837  28.012  1.00  0.00     0.031 A 
ATOM     38  C   UNL A   1      42.078  25.855  28.249  1.00  0.00     0.074 A 
ATOM     39  C   UNL A   1      44.451  25.149  28.243  1.00  0.00     0.049 A 
ATOM     40  N   UNL A   1      42.180  27.082  28.692  1.00  0.00    -0.248 NA
ATOM     41  C   UNL A   1      40.702  25.452  27.919  1.00  0.00     0.031 C 
ATOM     42  C   UNL A   1      45.591  24.262  28.003  1.00  0.00     0.029 A 
ATOM     43  N   UNL A   1      45.018  26.296  28.733  1.00  0.00    -0.354 N 
ATOM     44  C   UNL A   1      40.889  27.596  28.685  1.00  0.00     0.074 A 
ATOM     45  C   UNL A   1      40.031  26.573  28.130  1.00  0.00     0.031 C 
ATOM     46  C   UNL A   1      46.718  24.884  28.382  1.00  0.00     0.029 A 
ATOM     47  C   UNL A   1      46.385  26.224  28.854  1.00  0.00     0.049 A 
ATOM     48  H   UNL A   1      44.497  27.095  28.975  1.00  0.00     0.167 HD
ATOM     49  C   UNL A   1      40.452  28.799  29.127  1.00  0.00     0.037 A 
ATOM     50  C   UNL A   1      47.267  27.137  29.298  1.00  0.00     0.037 A 
ATOM     51  C   UNL A   1      41.312  29.807  29.692  1.00  0.00     0.049 A 
ATOM     52  C   UNL A   1      46.758  28.467  29.781  1.00  0.00     0.074 A 
ATOM     53  C   UNL A   1      40.968  31.042  30.212  1.00  0.00     0.029 A 
ATOM     54  N   UNL A   1      42.690  29.693  29.808  1.00  0.00    -0.354 N 
ATOM     55  N   UNL A   1      45.527  28.914  29.831  1.00  0.00    -0.248 NA
ATOM     56  C   UNL A   1      47.763  29.413  30.283  1.00  0.00     0.031 C 
ATOM     57  C   UNL A   1      42.143  31.697  30.595  1.00  0.00     0.029 A 
ATOM     58  C   UNL A   1      43.213  30.844  30.374  1.00  0.00     0.049 A 
ATOM     59  H   UNL A   1      43.217  28.910  29.531  1.00  0.00     0.167 HD
ATOM     60  C   UNL A   1      45.603  30.177  30.403  1.00  0.00     0.074 A 
ATOM     61  C   UNL A   1      47.002  30.416  30.697  1.00  0.00     0.031 C 
ATOM     62  C   UNL A   1      44.608  31.060  30.666  1.00  0.00     0.037 A 
BRANCH  49  63
ATOM     63  C   UNL A   1      38.981  29.088  29.014  1.00  0.00     0.057 A 
ATOM     64  C   UNL A   1      38.121  28.999  30.118  1.00  0.00     0.134 A 
ATOM     65  C   UNL A   1      38.421  29.486  27.794  1.00  0.00     0.134 A 
ATOM     66  F   UNL A   1      38.587  28.610  31.314  1.00  0.00    -0.206 F 
ATOM     67  C   UNL A   1      36.754  29.263  30.004  1.00  0.00     0.040 A 
ATOM     68  C   UNL A   1      37.062  29.783  27.675  1.00  0.00     0.040 A 
ATOM     69  F   UNL A   1      39.185  29.598  26.697  1.00  0.00    -0.206 F 
ATOM     70  C   UNL A   1      36.223  29.664  28.781  1.00  0.00     0.006 A 
ENDBRANCH  49  63
BRANCH  50  71
ATOM     71  C   UNL A   1      48.717  26.815  29.339  1.00  0.00     0.057 A 
ATOM     72  C   UNL A   1      49.562  27.142  28.272  1.00  0.00     0.134 A 
ATOM     73  C   UNL A   1      49.290  26.164  30.438  1.00  0.00     0.134 A 
ATOM     74  F   UNL A   1      49.070  27.753  27.184  1.00  0.00    -0.206 F 
ATOM     75  C   UNL A   1      50.918  26.808  28.283  1.00  0.00     0.040 A 
ATOM     76  C   UNL A   1      50.650  25.852  30.475  1.00  0.00     0.040 A 
ATOM     77  F   UNL A   1      48.538  25.836  31.499  1.00  0.00    -0.206 F 
ATOM     78  C   UNL A   1      51.465  26.165  29.390  1.00  0.00     0.006 A 
ENDBRANCH  50  71
BRANCH  62  79
ATOM     79  C   UNL A   1      44.994  32.342  31.349  1.00  0.00     0.057 A 
ATOM     80  C   UNL A   1      45.031  32.464  32.743  1.00  0.00     0.134 A 
ATOM     81  C   UNL A   1      45.345  33.468  30.593  1.00  0.00     0.134 A 
ATOM     82  F   UNL A   1      44.696  31.427  33.527  1.00  0.00    -0.206 F 
ATOM     83  C   UNL A   1      45.365  33.670  33.362  1.00  0.00     0.040 A 
ATOM     84  C   UNL A   1      45.714  34.670  31.200  1.00  0.00     0.040 A 
ATOM     85  F   UNL A   1      45.344  33.418  29.252  1.00  0.00    -0.206 F 
ATOM     86  C   UNL A   1      45.712  34.777  32.588  1.00  0.00     0.006 A 
ENDBRANCH  62  79
ENDBRANCH  36  37
ENDBRANCH  28  31
ENDBRANCH  26  27
ENDBRANCH  25  26
ENDBRANCH   1  25
TORSDOF 13
ENDMDL
