MODEL 1
REMARK VINA RESULT:     -13.0      0.000      0.000
REMARK SMILES O=C(NCCCNC(=O)c1cc2c(c(S(=O)(=O)Nc3cc(C(F)(F)F)ccc3-n3cccn3)c1)CCC2)c1ccc(-c2c3nc(c(-c4c(F)cccc4F)c4ccc([nH]4)c(-c4c(F)cccc4F)c4nc(c(-c5c(F)cccc5F)c5ccc2[nH]5)C=C4)C=C3)cc1
REMARK SMILES IDX 6 1 5 2 4 3 3 4 1 5 2 6 38 8 39 9 91 10 40 11 90 12 41 13
REMARK SMILES IDX 42 14 43 15 84 16 44 17 89 18 83 19 85 20 45 21 88 22 82 23
REMARK SMILES IDX 81 24 46 26 72 27 55 28 71 29 56 30 59 31 70 32 86 33 57 34
REMARK SMILES IDX 58 35 69 37 87 38 60 39 47 40 48 41 53 42 49 43 50 44 52 45
REMARK SMILES IDX 54 46 51 47 73 48 74 49 79 50 75 51 76 52 78 53 80 54 77 55
REMARK SMILES IDX 61 56 62 57 67 58 63 59 64 60 66 61 68 62 65 63 7 64 8 65
REMARK SMILES IDX 9 67 10 68 11 69 34 70 12 71 14 72 13 73 37 74 35 75 36 76
REMARK SMILES IDX 15 77 16 78 17 79 18 80 19 82 20 83 28 84 21 85 27 86 26 87
REMARK SMILES IDX 29 88 30 89 33 90 31 91 32 92 22 93 23 94 24 95 25 96
REMARK H PARENT 3 7 85 25 59 36 7 66 18 81
REMARK Flexibility Score: inf
ROOT
ATOM      1  C   UNL A   1      34.224  29.548  27.485  1.00  0.00     0.118 C 
ENDROOT
BRANCH   1   2
ATOM      2  C   UNL A   1      33.926  31.027  27.239  1.00  0.00     0.042 C 
BRANCH   2   3
ATOM      3  C   UNL A   1      34.877  32.001  27.926  1.00  0.00     0.118 C 
BRANCH   3   4
ATOM      4  N   UNL A   1      34.712  32.097  29.364  1.00  0.00    -0.352 N 
ATOM      5  O   UNL A   1      35.017  32.103  31.548  1.00  0.00    -0.269 OA
ATOM      6  C   UNL A   1      35.441  31.716  30.455  1.00  0.00     0.251 C 
ATOM      7  H   UNL A   1      33.872  32.545  29.614  1.00  0.00     0.163 HD
BRANCH   6   8
ATOM      8  C   UNL A   1      36.649  30.844  30.435  1.00  0.00     0.039 A 
ATOM      9  C   UNL A   1      36.661  29.452  30.538  1.00  0.00     0.014 A 
ATOM     10  C   UNL A   1      37.881  31.514  30.297  1.00  0.00     0.014 A 
ATOM     11  C   UNL A   1      37.870  28.755  30.562  1.00  0.00     0.010 A 
ATOM     12  C   UNL A   1      39.088  30.823  30.306  1.00  0.00     0.010 A 
ATOM     13  C   UNL A   1      39.085  29.440  30.463  1.00  0.00    -0.014 A 
BRANCH  13  14
ATOM     14  C   UNL A   1      40.324  28.665  30.361  1.00  0.00     0.031 A 
ATOM     15  C   UNL A   1      41.065  28.469  31.646  1.00  0.00     0.074 A 
ATOM     16  C   UNL A   1      40.697  27.990  29.255  1.00  0.00     0.049 A 
ATOM     17  N   UNL A   1      42.302  28.737  31.920  1.00  0.00    -0.248 NA
ATOM     18  C   UNL A   1      40.301  27.949  32.794  1.00  0.00     0.031 C 
ATOM     19  C   UNL A   1      39.933  27.797  28.019  1.00  0.00     0.029 A 
ATOM     20  N   UNL A   1      41.813  27.231  29.049  1.00  0.00    -0.354 N 
ATOM     21  C   UNL A   1      42.520  28.276  33.219  1.00  0.00     0.074 A 
ATOM     22  C   UNL A   1      41.233  27.901  33.745  1.00  0.00     0.031 C 
ATOM     23  C   UNL A   1      40.508  26.813  27.291  1.00  0.00     0.029 A 
ATOM     24  C   UNL A   1      41.739  26.396  27.942  1.00  0.00     0.049 A 
ATOM     25  H   UNL A   1      42.603  27.272  29.635  1.00  0.00     0.167 HD
ATOM     26  C   UNL A   1      43.768  28.059  33.720  1.00  0.00     0.037 A 
ATOM     27  C   UNL A   1      42.591  25.391  27.618  1.00  0.00     0.037 A 
ATOM     28  C   UNL A   1      44.777  28.768  32.985  1.00  0.00     0.049 A 
ATOM     29  C   UNL A   1      43.851  25.596  28.370  1.00  0.00     0.074 A 
ATOM     30  C   UNL A   1      45.026  30.098  32.711  1.00  0.00     0.029 A 
ATOM     31  N   UNL A   1      45.574  28.063  32.121  1.00  0.00    -0.354 N 
ATOM     32  N   UNL A   1      44.702  26.553  28.137  1.00  0.00    -0.248 NA
ATOM     33  C   UNL A   1      43.977  24.949  29.666  1.00  0.00     0.031 C 
ATOM     34  C   UNL A   1      45.547  30.110  31.384  1.00  0.00     0.029 A 
ATOM     35  C   UNL A   1      45.618  28.784  30.956  1.00  0.00     0.049 A 
ATOM     36  H   UNL A   1      46.026  27.207  32.302  1.00  0.00     0.167 HD
ATOM     37  C   UNL A   1      45.175  26.916  29.389  1.00  0.00     0.074 A 
ATOM     38  C   UNL A   1      44.776  25.828  30.276  1.00  0.00     0.031 C 
ATOM     39  C   UNL A   1      45.601  28.187  29.642  1.00  0.00     0.037 A 
BRANCH  26  40
ATOM     40  C   UNL A   1      44.105  26.953  34.688  1.00  0.00     0.057 A 
ATOM     41  C   UNL A   1      44.721  27.255  35.916  1.00  0.00     0.134 A 
ATOM     42  C   UNL A   1      44.109  25.588  34.335  1.00  0.00     0.134 A 
ATOM     43  F   UNL A   1      44.808  28.521  36.349  1.00  0.00    -0.206 F 
ATOM     44  C   UNL A   1      45.340  26.278  36.706  1.00  0.00     0.040 A 
ATOM     45  C   UNL A   1      44.680  24.598  35.140  1.00  0.00     0.040 A 
ATOM     46  F   UNL A   1      43.652  25.158  33.152  1.00  0.00    -0.206 F 
ATOM     47  C   UNL A   1      45.325  24.944  36.317  1.00  0.00     0.006 A 
ENDBRANCH  26  40
BRANCH  27  48
ATOM     48  C   UNL A   1      42.304  24.116  26.922  1.00  0.00     0.057 A 
ATOM     49  C   UNL A   1      43.159  23.619  25.928  1.00  0.00     0.134 A 
ATOM     50  C   UNL A   1      41.335  23.221  27.406  1.00  0.00     0.134 A 
ATOM     51  F   UNL A   1      44.144  24.381  25.432  1.00  0.00    -0.206 F 
ATOM     52  C   UNL A   1      43.069  22.301  25.459  1.00  0.00     0.040 A 
ATOM     53  C   UNL A   1      41.229  21.907  26.941  1.00  0.00     0.040 A 
ATOM     54  F   UNL A   1      40.517  23.563  28.413  1.00  0.00    -0.206 F 
ATOM     55  C   UNL A   1      42.108  21.437  25.974  1.00  0.00     0.006 A 
ENDBRANCH  27  48
BRANCH  39  56
ATOM     56  C   UNL A   1      45.795  29.111  28.473  1.00  0.00     0.057 A 
ATOM     57  C   UNL A   1      44.786  29.929  27.943  1.00  0.00     0.134 A 
ATOM     58  C   UNL A   1      47.085  29.287  27.959  1.00  0.00     0.134 A 
ATOM     59  F   UNL A   1      43.543  29.909  28.441  1.00  0.00    -0.206 F 
ATOM     60  C   UNL A   1      45.039  30.842  26.916  1.00  0.00     0.040 A 
ATOM     61  C   UNL A   1      47.359  30.223  26.958  1.00  0.00     0.040 A 
ATOM     62  F   UNL A   1      48.114  28.584  28.457  1.00  0.00    -0.206 F 
ATOM     63  C   UNL A   1      46.331  30.995  26.424  1.00  0.00     0.006 A 
ENDBRANCH  39  56
ENDBRANCH  13  14
ENDBRANCH   6   8
ENDBRANCH   3   4
ENDBRANCH   2   3
ENDBRANCH   1   2
BRANCH   1  64
ATOM     64  N   UNL A   1      33.050  28.752  27.846  1.00  0.00    -0.352 N 
ATOM     65  C   UNL A   1      32.432  27.700  27.196  1.00  0.00     0.251 C 
ATOM     66  H   UNL A   1      32.630  29.008  28.698  1.00  0.00     0.163 HD
ATOM     67  O   UNL A   1      31.391  27.229  27.649  1.00  0.00    -0.269 OA
BRANCH  65  68
ATOM     68  C   UNL A   1      32.995  27.154  25.937  1.00  0.00     0.041 A 
ATOM     69  C   UNL A   1      32.539  27.650  24.720  1.00  0.00     0.018 A 
ATOM     70  C   UNL A   1      33.915  26.081  25.978  1.00  0.00     0.036 A 
ATOM     71  C   UNL A   1      32.783  26.892  23.596  1.00  0.00    -0.043 A 
ATOM     72  C   UNL A   1      34.231  25.356  24.806  1.00  0.00     0.092 A 
ATOM     73  C   UNL A   1      33.545  25.708  23.650  1.00  0.00    -0.024 A 
ATOM     74  C   UNL A   1      32.162  27.099  22.248  1.00  0.00     0.036 C 
ATOM     75  C   UNL A   1      33.287  24.956  22.382  1.00  0.00     0.037 C 
ATOM     76  C   UNL A   1      32.972  26.105  21.420  1.00  0.00     0.010 C 
BRANCH  72  77
ATOM     77  S   UNL A   1      35.231  23.884  24.949  1.00  0.00     0.262 S 
ATOM     78  O   UNL A   1      35.318  23.303  23.623  1.00  0.00    -0.201 OA
ATOM     79  O   UNL A   1      36.443  24.251  25.650  1.00  0.00    -0.201 OA
BRANCH  77  80
ATOM     80  N   UNL A   1      34.492  22.648  25.872  1.00  0.00    -0.277 N 
ATOM     81  H   UNL A   1      34.488  22.730  26.853  1.00  0.00     0.180 HD
BRANCH  80  82
ATOM     82  C   UNL A   1      33.878  21.496  25.276  1.00  0.00     0.075 A 
ATOM     83  C   UNL A   1      34.673  20.373  24.983  1.00  0.00     0.042 A 
ATOM     84  C   UNL A   1      32.488  21.417  25.098  1.00  0.00     0.089 A 
ATOM     85  C   UNL A   1      34.083  19.154  24.578  1.00  0.00     0.058 A 
ATOM     86  C   UNL A   1      31.900  20.218  24.663  1.00  0.00     0.031 A 
ATOM     87  C   UNL A   1      32.692  19.098  24.402  1.00  0.00     0.015 A 
BRANCH  84  88
ATOM     88  N   UNL A   1      31.642  22.508  25.412  1.00  0.00    -0.239 N 
ATOM     89  C   UNL A   1      30.967  23.339  24.546  1.00  0.00     0.115 A 
ATOM     90  N   UNL A   1      31.504  22.922  26.697  1.00  0.00    -0.177 NA
ATOM     91  C   UNL A   1      30.562  24.430  25.273  1.00  0.00     0.042 A 
ATOM     92  C   UNL A   1      30.952  24.134  26.588  1.00  0.00     0.135 A 
ENDBRANCH  84  88
BRANCH  85  93
ATOM     93  C   UNL A   1      34.928  17.908  24.421  1.00  0.00     0.416 C 
ATOM     94  F   UNL A   1      34.832  17.362  23.181  1.00  0.00    -0.166 F 
ATOM     95  F   UNL A   1      36.251  18.153  24.628  1.00  0.00    -0.166 F 
ATOM     96  F   UNL A   1      34.596  16.917  25.298  1.00  0.00    -0.166 F 
ENDBRANCH  85  93
ENDBRANCH  80  82
ENDBRANCH  77  80
ENDBRANCH  72  77
ENDBRANCH  65  68
ENDBRANCH   1  64
TORSDOF 15
ENDMDL
MODEL 2
REMARK VINA RESULT:     -12.8      3.996      8.567
REMARK SMILES O=C(NCCCNC(=O)c1cc2c(c(S(=O)(=O)Nc3cc(C(F)(F)F)ccc3-n3cccn3)c1)CCC2)c1ccc(-c2c3nc(c(-c4c(F)cccc4F)c4ccc([nH]4)c(-c4c(F)cccc4F)c4nc(c(-c5c(F)cccc5F)c5ccc2[nH]5)C=C4)C=C3)cc1
REMARK SMILES IDX 6 1 5 2 4 3 3 4 1 5 2 6 38 8 39 9 91 10 40 11 90 12 41 13
REMARK SMILES IDX 42 14 43 15 84 16 44 17 89 18 83 19 85 20 45 21 88 22 82 23
REMARK SMILES IDX 81 24 46 26 72 27 55 28 71 29 56 30 59 31 70 32 86 33 57 34
REMARK SMILES IDX 58 35 69 37 87 38 60 39 47 40 48 41 53 42 49 43 50 44 52 45
REMARK SMILES IDX 54 46 51 47 73 48 74 49 79 50 75 51 76 52 78 53 80 54 77 55
REMARK SMILES IDX 61 56 62 57 67 58 63 59 64 60 66 61 68 62 65 63 7 64 8 65
REMARK SMILES IDX 9 67 10 68 11 69 34 70 12 71 14 72 13 73 37 74 35 75 36 76
REMARK SMILES IDX 15 77 16 78 17 79 18 80 19 82 20 83 28 84 21 85 27 86 26 87
REMARK SMILES IDX 29 88 30 89 33 90 31 91 32 92 22 93 23 94 24 95 25 96
REMARK H PARENT 3 7 85 25 59 36 7 66 18 81
REMARK Flexibility Score: inf
ROOT
ATOM      1  C   UNL A   1      37.774  23.120  25.697  1.00  0.00     0.118 C 
ENDROOT
BRANCH   1   2
ATOM      2  C   UNL A   1      38.449  21.775  25.966  1.00  0.00     0.042 C 
BRANCH   2   3
ATOM      3  C   UNL A   1      39.769  21.854  26.724  1.00  0.00     0.118 C 
BRANCH   3   4
ATOM      4  N   UNL A   1      40.919  22.192  25.906  1.00  0.00    -0.352 N 
ATOM      5  O   UNL A   1      42.769  23.072  25.090  1.00  0.00    -0.269 OA
ATOM      6  C   UNL A   1      41.830  23.210  25.880  1.00  0.00     0.251 C 
ATOM      7  H   UNL A   1      41.081  21.527  25.199  1.00  0.00     0.163 HD
BRANCH   6   8
ATOM      8  C   UNL A   1      41.753  24.468  26.672  1.00  0.00     0.039 A 
ATOM      9  C   UNL A   1      42.481  24.760  27.827  1.00  0.00     0.014 A 
ATOM     10  C   UNL A   1      40.855  25.440  26.188  1.00  0.00     0.014 A 
ATOM     11  C   UNL A   1      42.275  25.960  28.511  1.00  0.00     0.010 A 
ATOM     12  C   UNL A   1      40.655  26.643  26.856  1.00  0.00     0.010 A 
ATOM     13  C   UNL A   1      41.350  26.895  28.035  1.00  0.00    -0.014 A 
BRANCH  13  14
ATOM     14  C   UNL A   1      41.256  28.195  28.705  1.00  0.00     0.031 A 
ATOM     15  C   UNL A   1      42.330  29.175  28.354  1.00  0.00     0.074 A 
ATOM     16  C   UNL A   1      40.190  28.589  29.430  1.00  0.00     0.049 A 
ATOM     17  N   UNL A   1      43.127  29.824  29.143  1.00  0.00    -0.248 NA
ATOM     18  C   UNL A   1      42.578  29.423  26.923  1.00  0.00     0.031 C 
ATOM     19  C   UNL A   1      38.912  27.892  29.601  1.00  0.00     0.029 A 
ATOM     20  N   UNL A   1      39.987  29.770  30.084  1.00  0.00    -0.354 N 
ATOM     21  C   UNL A   1      43.868  30.680  28.326  1.00  0.00     0.074 A 
ATOM     22  C   UNL A   1      43.567  30.315  26.967  1.00  0.00     0.031 C 
ATOM     23  C   UNL A   1      38.006  28.748  30.125  1.00  0.00     0.029 A 
ATOM     24  C   UNL A   1      38.665  30.005  30.441  1.00  0.00     0.049 A 
ATOM     25  H   UNL A   1      40.715  30.401  30.286  1.00  0.00     0.167 HD
ATOM     26  C   UNL A   1      44.544  31.757  28.815  1.00  0.00     0.037 A 
ATOM     27  C   UNL A   1      38.138  31.167  30.900  1.00  0.00     0.037 A 
ATOM     28  C   UNL A   1      44.793  31.644  30.224  1.00  0.00     0.049 A 
ATOM     29  C   UNL A   1      39.250  32.017  31.383  1.00  0.00     0.074 A 
ATOM     30  C   UNL A   1      45.474  30.747  31.023  1.00  0.00     0.029 A 
ATOM     31  N   UNL A   1      44.034  32.394  31.085  1.00  0.00    -0.354 N 
ATOM     32  N   UNL A   1      39.953  31.776  32.453  1.00  0.00    -0.248 NA
ATOM     33  C   UNL A   1      39.845  32.952  30.442  1.00  0.00     0.031 C 
ATOM     34  C   UNL A   1      44.709  30.667  32.223  1.00  0.00     0.029 A 
ATOM     35  C   UNL A   1      43.637  31.551  32.090  1.00  0.00     0.049 A 
ATOM     36  H   UNL A   1      43.817  33.351  30.998  1.00  0.00     0.167 HD
ATOM     37  C   UNL A   1      41.239  32.174  32.125  1.00  0.00     0.074 A 
ATOM     38  C   UNL A   1      41.091  32.985  30.920  1.00  0.00     0.031 C 
ATOM     39  C   UNL A   1      42.329  31.586  32.697  1.00  0.00     0.037 A 
BRANCH  26  40
ATOM     40  C   UNL A   1      44.705  33.058  28.070  1.00  0.00     0.057 A 
ATOM     41  C   UNL A   1      43.620  33.949  27.967  1.00  0.00     0.134 A 
ATOM     42  C   UNL A   1      45.790  33.333  27.213  1.00  0.00     0.134 A 
ATOM     43  F   UNL A   1      42.516  33.777  28.708  1.00  0.00    -0.206 F 
ATOM     44  C   UNL A   1      43.598  35.000  27.042  1.00  0.00     0.040 A 
ATOM     45  C   UNL A   1      45.799  34.409  26.322  1.00  0.00     0.040 A 
ATOM     46  F   UNL A   1      46.849  32.518  27.123  1.00  0.00    -0.206 F 
ATOM     47  C   UNL A   1      44.688  35.231  26.212  1.00  0.00     0.006 A 
ENDBRANCH  26  40
BRANCH  27  48
ATOM     48  C   UNL A   1      36.776  31.713  30.701  1.00  0.00     0.057 A 
ATOM     49  C   UNL A   1      35.928  31.976  31.787  1.00  0.00     0.134 A 
ATOM     50  C   UNL A   1      36.376  32.246  29.464  1.00  0.00     0.134 A 
ATOM     51  F   UNL A   1      36.244  31.546  33.017  1.00  0.00    -0.206 F 
ATOM     52  C   UNL A   1      34.764  32.743  31.655  1.00  0.00     0.040 A 
ATOM     53  C   UNL A   1      35.212  33.007  29.316  1.00  0.00     0.040 A 
ATOM     54  F   UNL A   1      37.150  32.126  28.375  1.00  0.00    -0.206 F 
ATOM     55  C   UNL A   1      34.408  33.271  30.417  1.00  0.00     0.006 A 
ENDBRANCH  27  48
BRANCH  39  56
ATOM     56  C   UNL A   1      42.103  30.685  33.879  1.00  0.00     0.057 A 
ATOM     57  C   UNL A   1      41.800  29.319  33.778  1.00  0.00     0.134 A 
ATOM     58  C   UNL A   1      42.346  31.185  35.164  1.00  0.00     0.134 A 
ATOM     59  F   UNL A   1      41.654  28.726  32.586  1.00  0.00    -0.206 F 
ATOM     60  C   UNL A   1      41.693  28.502  34.907  1.00  0.00     0.040 A 
ATOM     61  C   UNL A   1      42.278  30.370  36.297  1.00  0.00     0.040 A 
ATOM     62  F   UNL A   1      42.701  32.468  35.336  1.00  0.00    -0.206 F 
ATOM     63  C   UNL A   1      41.939  29.026  36.172  1.00  0.00     0.006 A 
ENDBRANCH  39  56
ENDBRANCH  13  14
ENDBRANCH   6   8
ENDBRANCH   3   4
ENDBRANCH   2   3
ENDBRANCH   1   2
BRANCH   1  64
ATOM     64  N   UNL A   1      37.260  23.272  24.336  1.00  0.00    -0.352 N 
ATOM     65  C   UNL A   1      35.992  23.567  23.873  1.00  0.00     0.251 C 
ATOM     66  H   UNL A   1      37.933  23.144  23.629  1.00  0.00     0.163 HD
ATOM     67  O   UNL A   1      35.765  23.560  22.665  1.00  0.00    -0.269 OA
BRANCH  65  68
ATOM     68  C   UNL A   1      34.889  23.859  24.821  1.00  0.00     0.041 A 
ATOM     69  C   UNL A   1      34.074  22.818  25.254  1.00  0.00     0.018 A 
ATOM     70  C   UNL A   1      34.619  25.193  25.206  1.00  0.00     0.036 A 
ATOM     71  C   UNL A   1      32.862  23.154  25.814  1.00  0.00    -0.043 A 
ATOM     72  C   UNL A   1      33.410  25.525  25.859  1.00  0.00     0.092 A 
ATOM     73  C   UNL A   1      32.491  24.497  26.034  1.00  0.00    -0.024 A 
ATOM     74  C   UNL A   1      31.735  22.208  26.099  1.00  0.00     0.036 C 
ATOM     75  C   UNL A   1      31.014  24.516  26.274  1.00  0.00     0.037 C 
ATOM     76  C   UNL A   1      30.799  23.126  26.880  1.00  0.00     0.010 C 
BRANCH  72  77
ATOM     77  S   UNL A   1      33.025  27.246  26.133  1.00  0.00     0.262 S 
ATOM     78  O   UNL A   1      31.694  27.295  26.707  1.00  0.00    -0.201 OA
ATOM     79  O   UNL A   1      34.137  27.828  26.854  1.00  0.00    -0.201 OA
BRANCH  77  80
ATOM     80  N   UNL A   1      32.863  28.144  24.686  1.00  0.00    -0.277 N 
ATOM     81  H   UNL A   1      33.674  28.502  24.260  1.00  0.00     0.180 HD
BRANCH  80  82
ATOM     82  C   UNL A   1      31.592  28.397  24.069  1.00  0.00     0.075 A 
ATOM     83  C   UNL A   1      30.923  29.601  24.352  1.00  0.00     0.042 A 
ATOM     84  C   UNL A   1      31.066  27.533  23.095  1.00  0.00     0.089 A 
ATOM     85  C   UNL A   1      29.772  29.979  23.624  1.00  0.00     0.058 A 
ATOM     86  C   UNL A   1      29.903  27.888  22.394  1.00  0.00     0.031 A 
ATOM     87  C   UNL A   1      29.260  29.098  22.660  1.00  0.00     0.015 A 
BRANCH  84  88
ATOM     88  N   UNL A   1      31.722  26.326  22.750  1.00  0.00    -0.239 N 
ATOM     89  C   UNL A   1      32.851  26.161  21.981  1.00  0.00     0.115 A 
ATOM     90  N   UNL A   1      31.181  25.130  23.092  1.00  0.00    -0.177 NA
ATOM     91  C   UNL A   1      32.916  24.832  21.646  1.00  0.00     0.042 A 
ATOM     92  C   UNL A   1      31.839  24.250  22.331  1.00  0.00     0.135 A 
ENDBRANCH  84  88
BRANCH  85  93
ATOM     93  C   UNL A   1      29.153  31.345  23.822  1.00  0.00     0.416 C 
ATOM     94  F   UNL A   1      29.152  32.091  22.686  1.00  0.00    -0.166 F 
ATOM     95  F   UNL A   1      27.855  31.270  24.229  1.00  0.00    -0.166 F 
ATOM     96  F   UNL A   1      29.790  32.095  24.767  1.00  0.00    -0.166 F 
ENDBRANCH  85  93
ENDBRANCH  80  82
ENDBRANCH  77  80
ENDBRANCH  72  77
ENDBRANCH  65  68
ENDBRANCH   1  64
TORSDOF 15
ENDMDL
MODEL 3
REMARK VINA RESULT:     -12.8      1.282      1.918
REMARK SMILES O=C(NCCCNC(=O)c1cc2c(c(S(=O)(=O)Nc3cc(C(F)(F)F)ccc3-n3cccn3)c1)CCC2)c1ccc(-c2c3nc(c(-c4c(F)cccc4F)c4ccc([nH]4)c(-c4c(F)cccc4F)c4nc(c(-c5c(F)cccc5F)c5ccc2[nH]5)C=C4)C=C3)cc1
REMARK SMILES IDX 6 1 5 2 4 3 3 4 1 5 2 6 38 8 39 9 91 10 40 11 90 12 41 13
REMARK SMILES IDX 42 14 43 15 84 16 44 17 89 18 83 19 85 20 45 21 88 22 82 23
REMARK SMILES IDX 81 24 46 26 72 27 55 28 71 29 56 30 59 31 70 32 86 33 57 34
REMARK SMILES IDX 58 35 69 37 87 38 60 39 47 40 48 41 53 42 49 43 50 44 52 45
REMARK SMILES IDX 54 46 51 47 73 48 74 49 79 50 75 51 76 52 78 53 80 54 77 55
REMARK SMILES IDX 61 56 62 57 67 58 63 59 64 60 66 61 68 62 65 63 7 64 8 65
REMARK SMILES IDX 9 67 10 68 11 69 34 70 12 71 14 72 13 73 37 74 35 75 36 76
REMARK SMILES IDX 15 77 16 78 17 79 18 80 19 82 20 83 28 84 21 85 27 86 26 87
REMARK SMILES IDX 29 88 30 89 33 90 31 91 32 92 22 93 23 94 24 95 25 96
REMARK H PARENT 3 7 85 25 59 36 7 66 18 81
REMARK Flexibility Score: inf
ROOT
ATOM      1  C   UNL A   1      34.006  29.733  26.912  1.00  0.00     0.118 C 
ENDROOT
BRANCH   1   2
ATOM      2  C   UNL A   1      35.020  30.509  27.753  1.00  0.00     0.042 C 
BRANCH   2   3
ATOM      3  C   UNL A   1      34.610  31.935  28.106  1.00  0.00     0.118 C 
BRANCH   3   4
ATOM      4  N   UNL A   1      34.606  32.230  29.526  1.00  0.00    -0.352 N 
ATOM      5  O   UNL A   1      35.147  32.516  31.645  1.00  0.00    -0.269 OA
ATOM      6  C   UNL A   1      35.437  31.966  30.578  1.00  0.00     0.251 C 
ATOM      7  H   UNL A   1      33.813  32.746  29.798  1.00  0.00     0.163 HD
BRANCH   6   8
ATOM      8  C   UNL A   1      36.608  31.045  30.554  1.00  0.00     0.039 A 
ATOM      9  C   UNL A   1      36.584  29.677  30.827  1.00  0.00     0.014 A 
ATOM     10  C   UNL A   1      37.842  31.638  30.220  1.00  0.00     0.014 A 
ATOM     11  C   UNL A   1      37.766  28.934  30.824  1.00  0.00     0.010 A 
ATOM     12  C   UNL A   1      39.021  30.900  30.201  1.00  0.00     0.010 A 
ATOM     13  C   UNL A   1      38.988  29.547  30.528  1.00  0.00    -0.014 A 
BRANCH  13  14
ATOM     14  C   UNL A   1      40.184  28.711  30.408  1.00  0.00     0.031 A 
ATOM     15  C   UNL A   1      40.932  28.475  31.683  1.00  0.00     0.074 A 
ATOM     16  C   UNL A   1      40.507  28.020  29.296  1.00  0.00     0.049 A 
ATOM     17  N   UNL A   1      42.185  28.680  31.940  1.00  0.00    -0.248 NA
ATOM     18  C   UNL A   1      40.159  27.993  32.840  1.00  0.00     0.031 C 
ATOM     19  C   UNL A   1      39.717  27.868  28.071  1.00  0.00     0.029 A 
ATOM     20  N   UNL A   1      41.581  27.206  29.074  1.00  0.00    -0.354 N 
ATOM     21  C   UNL A   1      42.397  28.206  33.235  1.00  0.00     0.074 A 
ATOM     22  C   UNL A   1      41.101  27.896  33.778  1.00  0.00     0.031 C 
ATOM     23  C   UNL A   1      40.231  26.857  27.334  1.00  0.00     0.029 A 
ATOM     24  C   UNL A   1      41.449  26.377  27.967  1.00  0.00     0.049 A 
ATOM     25  H   UNL A   1      42.379  27.206  29.649  1.00  0.00     0.167 HD
ATOM     26  C   UNL A   1      43.640  27.926  33.718  1.00  0.00     0.037 A 
ATOM     27  C   UNL A   1      42.245  25.332  27.630  1.00  0.00     0.037 A 
ATOM     28  C   UNL A   1      44.672  28.584  32.970  1.00  0.00     0.049 A 
ATOM     29  C   UNL A   1      43.523  25.472  28.365  1.00  0.00     0.074 A 
ATOM     30  C   UNL A   1      44.985  29.901  32.693  1.00  0.00     0.029 A 
ATOM     31  N   UNL A   1      45.421  27.841  32.094  1.00  0.00    -0.354 N 
ATOM     32  N   UNL A   1      44.418  26.385  28.121  1.00  0.00    -0.248 NA
ATOM     33  C   UNL A   1      43.635  24.816  29.658  1.00  0.00     0.031 C 
ATOM     34  C   UNL A   1      45.486  29.888  31.359  1.00  0.00     0.029 A 
ATOM     35  C   UNL A   1      45.485  28.561  30.929  1.00  0.00     0.049 A 
ATOM     36  H   UNL A   1      45.831  26.964  32.268  1.00  0.00     0.167 HD
ATOM     37  C   UNL A   1      44.926  26.721  29.366  1.00  0.00     0.074 A 
ATOM     38  C   UNL A   1      44.486  25.652  30.258  1.00  0.00     0.031 C 
ATOM     39  C   UNL A   1      45.419  27.969  29.615  1.00  0.00     0.037 A 
BRANCH  26  40
ATOM     40  C   UNL A   1      43.933  26.802  34.680  1.00  0.00     0.057 A 
ATOM     41  C   UNL A   1      44.437  27.087  35.963  1.00  0.00     0.134 A 
ATOM     42  C   UNL A   1      44.012  25.449  34.291  1.00  0.00     0.134 A 
ATOM     43  F   UNL A   1      44.446  28.342  36.435  1.00  0.00    -0.206 F 
ATOM     44  C   UNL A   1      45.022  26.106  36.774  1.00  0.00     0.040 A 
ATOM     45  C   UNL A   1      44.548  24.454  35.113  1.00  0.00     0.040 A 
ATOM     46  F   UNL A   1      43.668  25.040  33.064  1.00  0.00    -0.206 F 
ATOM     47  C   UNL A   1      45.083  24.785  36.349  1.00  0.00     0.006 A 
ENDBRANCH  26  40
BRANCH  27  48
ATOM     48  C   UNL A   1      41.884  24.074  26.937  1.00  0.00     0.057 A 
ATOM     49  C   UNL A   1      42.777  23.442  26.060  1.00  0.00     0.134 A 
ATOM     50  C   UNL A   1      40.765  23.319  27.328  1.00  0.00     0.134 A 
ATOM     51  F   UNL A   1      43.896  24.063  25.662  1.00  0.00    -0.206 F 
ATOM     52  C   UNL A   1      42.581  22.128  25.616  1.00  0.00     0.040 A 
ATOM     53  C   UNL A   1      40.553  22.009  26.886  1.00  0.00     0.040 A 
ATOM     54  F   UNL A   1      39.888  23.793  28.226  1.00  0.00    -0.206 F 
ATOM     55  C   UNL A   1      41.470  21.403  26.038  1.00  0.00     0.006 A 
ENDBRANCH  27  48
BRANCH  39  56
ATOM     56  C   UNL A   1      45.644  28.884  28.444  1.00  0.00     0.057 A 
ATOM     57  C   UNL A   1      44.664  29.738  27.917  1.00  0.00     0.134 A 
ATOM     58  C   UNL A   1      46.938  29.011  27.926  1.00  0.00     0.134 A 
ATOM     59  F   UNL A   1      43.422  29.764  28.419  1.00  0.00    -0.206 F 
ATOM     60  C   UNL A   1      44.947  30.640  26.888  1.00  0.00     0.040 A 
ATOM     61  C   UNL A   1      47.242  29.935  26.922  1.00  0.00     0.040 A 
ATOM     62  F   UNL A   1      47.942  28.271  28.421  1.00  0.00    -0.206 F 
ATOM     63  C   UNL A   1      46.243  30.745  26.392  1.00  0.00     0.006 A 
ENDBRANCH  39  56
ENDBRANCH  13  14
ENDBRANCH   6   8
ENDBRANCH   3   4
ENDBRANCH   2   3
ENDBRANCH   1   2
BRANCH   1  64
ATOM     64  N   UNL A   1      32.865  29.220  27.671  1.00  0.00    -0.352 N 
ATOM     65  C   UNL A   1      31.969  28.205  27.389  1.00  0.00     0.251 C 
ATOM     66  H   UNL A   1      32.709  29.674  28.530  1.00  0.00     0.163 HD
ATOM     67  O   UNL A   1      31.021  28.000  28.143  1.00  0.00    -0.269 OA
BRANCH  65  68
ATOM     68  C   UNL A   1      32.121  27.383  26.164  1.00  0.00     0.041 A 
ATOM     69  C   UNL A   1      31.970  27.984  24.920  1.00  0.00     0.018 A 
ATOM     70  C   UNL A   1      32.327  25.987  26.268  1.00  0.00     0.036 A 
ATOM     71  C   UNL A   1      31.742  27.160  23.841  1.00  0.00    -0.043 A 
ATOM     72  C   UNL A   1      32.178  25.148  25.140  1.00  0.00     0.092 A 
ATOM     73  C   UNL A   1      31.756  25.755  23.963  1.00  0.00    -0.024 A 
ATOM     74  C   UNL A   1      31.293  27.599  22.480  1.00  0.00     0.036 C 
ATOM     75  C   UNL A   1      31.104  25.196  22.737  1.00  0.00     0.037 C 
ATOM     76  C   UNL A   1      31.426  26.287  21.712  1.00  0.00     0.010 C 
BRANCH  72  77
ATOM     77  S   UNL A   1      32.241  23.380  25.369  1.00  0.00     0.262 S 
ATOM     78  O   UNL A   1      32.887  23.142  26.646  1.00  0.00    -0.201 OA
ATOM     79  O   UNL A   1      30.910  22.865  25.134  1.00  0.00    -0.201 OA
BRANCH  77  80
ATOM     80  N   UNL A   1      33.271  22.587  24.256  1.00  0.00    -0.277 N 
ATOM     81  H   UNL A   1      33.494  23.044  23.412  1.00  0.00     0.180 HD
BRANCH  80  82
ATOM     82  C   UNL A   1      33.823  21.285  24.500  1.00  0.00     0.075 A 
ATOM     83  C   UNL A   1      33.027  20.150  24.261  1.00  0.00     0.042 A 
ATOM     84  C   UNL A   1      35.172  21.115  24.847  1.00  0.00     0.089 A 
ATOM     85  C   UNL A   1      33.585  18.853  24.301  1.00  0.00     0.058 A 
ATOM     86  C   UNL A   1      35.723  19.826  24.923  1.00  0.00     0.031 A 
ATOM     87  C   UNL A   1      34.934  18.705  24.655  1.00  0.00     0.015 A 
BRANCH  84  88
ATOM     88  N   UNL A   1      36.022  22.227  25.064  1.00  0.00    -0.239 N 
ATOM     89  C   UNL A   1      37.084  22.649  24.296  1.00  0.00     0.115 A 
ATOM     90  N   UNL A   1      35.914  22.963  26.199  1.00  0.00    -0.177 NA
ATOM     91  C   UNL A   1      37.800  23.538  25.058  1.00  0.00     0.042 A 
ATOM     92  C   UNL A   1      37.049  23.666  26.236  1.00  0.00     0.135 A 
ENDBRANCH  84  88
BRANCH  85  93
ATOM     93  C   UNL A   1      32.764  17.651  23.886  1.00  0.00     0.416 C 
ATOM     94  F   UNL A   1      31.915  17.234  24.860  1.00  0.00    -0.166 F 
ATOM     95  F   UNL A   1      31.993  17.906  22.792  1.00  0.00    -0.166 F 
ATOM     96  F   UNL A   1      33.523  16.567  23.555  1.00  0.00    -0.166 F 
ENDBRANCH  85  93
ENDBRANCH  80  82
ENDBRANCH  77  80
ENDBRANCH  72  77
ENDBRANCH  65  68
ENDBRANCH   1  64
TORSDOF 15
ENDMDL
