MODEL 1
REMARK VINA RESULT:     -11.8      0.000      0.000
REMARK SMILES C[C@@](NC(=O)c1cc(Br)c[nH]1)(C(=O)NCCCNC(=O)c1ccc(-c2c3nc(c(-c4c(F)cccc4F)c4ccc([nH]4)c(-c4c(F)cccc4F)c4nc(c(-c5c(F)cccc5F)c5ccc2[nH]5)C=C4)C=C3)cc1)C(F)(F)F
REMARK SMILES IDX 16 1 15 2 14 3 12 4 13 5 2 7 1 8 3 9 4 10 5 12 6 13 7 14
REMARK SMILES IDX 11 15 8 16 10 17 9 19 75 20 76 21 77 22 78 23 17 24 18 25
REMARK SMILES IDX 19 26 20 28 21 29 22 30 74 31 23 32 73 33 24 34 25 35 26 36
REMARK SMILES IDX 67 37 27 38 72 39 66 40 68 41 28 42 71 43 65 44 64 45 29 47
REMARK SMILES IDX 55 48 38 49 54 50 39 51 42 52 53 53 69 54 40 55 41 56 52 58
REMARK SMILES IDX 70 59 43 60 30 61 31 62 36 63 32 64 33 65 35 66 37 67 34 68
REMARK SMILES IDX 56 69 57 70 62 71 58 72 59 73 61 74 63 75 60 76 44 77 45 78
REMARK SMILES IDX 50 79 46 80 47 81 49 82 51 83 48 84
REMARK H PARENT 14 6 3 11 11 18 18 27 68 46 42 57
REMARK Flexibility Score: inf
ROOT
ATOM      1  C   UNL A   1      37.952  19.933  25.021  1.00  0.00     0.042 C 
ENDROOT
BRANCH   1   2
ATOM      2  C   UNL A   1      36.970  21.087  24.907  1.00  0.00     0.117 C 
BRANCH   2   3
ATOM      3  N   UNL A   1      36.153  21.222  26.102  1.00  0.00    -0.354 N 
ATOM      4  C   UNL A   1      34.960  21.849  26.308  1.00  0.00     0.254 C 
ATOM      5  O   UNL A   1      34.491  21.751  27.446  1.00  0.00    -0.272 OA
ATOM      6  H   UNL A   1      36.526  20.784  26.902  1.00  0.00     0.163 HD
BRANCH   4   7
ATOM      7  C   UNL A   1      34.307  22.738  25.239  1.00  0.00     0.212 C 
ATOM      8  C   UNL A   1      34.910  22.314  23.880  1.00  0.00     0.056 C 
BRANCH   7   9
ATOM      9  N   UNL A   1      32.821  22.602  25.144  1.00  0.00    -0.329 N 
ATOM     10  C   UNL A   1      31.985  21.539  25.375  1.00  0.00     0.268 C 
ATOM     11  H   UNL A   1      32.358  23.425  24.864  1.00  0.00     0.165 HD
ATOM     12  O   UNL A   1      30.798  21.803  25.557  1.00  0.00    -0.268 OA
BRANCH  10  13
ATOM     13  C   UNL A   1      32.460  20.188  25.210  1.00  0.00     0.105 A 
ATOM     14  C   UNL A   1      32.587  19.508  24.003  1.00  0.00     0.049 A 
ATOM     15  N   UNL A   1      32.831  19.296  26.195  1.00  0.00    -0.356 N 
ATOM     16  C   UNL A   1      33.207  18.279  24.271  1.00  0.00     0.036 A 
ATOM     17  C   UNL A   1      33.358  18.161  25.626  1.00  0.00     0.098 A 
ATOM     18  H   UNL A   1      32.735  19.449  27.162  1.00  0.00     0.166 HD
ATOM     19  Br  UNL A   1      33.747  17.061  22.959  1.00  0.00    -0.049 Br
ENDBRANCH  10  13
ENDBRANCH   7   9
BRANCH   7  20
ATOM     20  C   UNL A   1      34.733  24.199  25.494  1.00  0.00     0.420 C 
ATOM     21  F   UNL A   1      36.024  24.325  25.865  1.00  0.00    -0.168 F 
ATOM     22  F   UNL A   1      34.592  24.923  24.350  1.00  0.00    -0.168 F 
ATOM     23  F   UNL A   1      33.963  24.806  26.427  1.00  0.00    -0.168 F 
ENDBRANCH   7  20
ENDBRANCH   4   7
ENDBRANCH   2   3
ENDBRANCH   1   2
BRANCH   1  24
ATOM     24  C   UNL A   1      39.233  20.282  25.770  1.00  0.00     0.118 C 
BRANCH  24  25
ATOM     25  N   UNL A   1      40.170  19.170  25.864  1.00  0.00    -0.352 N 
ATOM     26  C   UNL A   1      41.523  19.201  26.115  1.00  0.00     0.251 C 
ATOM     27  H   UNL A   1      39.783  18.275  25.730  1.00  0.00     0.163 HD
ATOM     28  O   UNL A   1      42.202  18.185  26.023  1.00  0.00    -0.269 OA
BRANCH  26  29
ATOM     29  C   UNL A   1      42.158  20.490  26.460  1.00  0.00     0.039 A 
ATOM     30  C   UNL A   1      42.701  21.274  25.440  1.00  0.00     0.014 A 
ATOM     31  C   UNL A   1      42.150  20.948  27.780  1.00  0.00     0.014 A 
ATOM     32  C   UNL A   1      43.146  22.565  25.731  1.00  0.00     0.010 A 
ATOM     33  C   UNL A   1      42.519  22.259  28.052  1.00  0.00     0.010 A 
ATOM     34  C   UNL A   1      43.007  23.086  27.028  1.00  0.00    -0.014 A 
BRANCH  34  35
ATOM     35  C   UNL A   1      43.336  24.500  27.338  1.00  0.00     0.031 A 
ATOM     36  C   UNL A   1      44.767  24.956  27.341  1.00  0.00     0.074 A 
ATOM     37  C   UNL A   1      42.357  25.346  27.715  1.00  0.00     0.049 A 
ATOM     38  N   UNL A   1      45.267  26.106  27.711  1.00  0.00    -0.248 NA
ATOM     39  C   UNL A   1      45.772  23.975  26.900  1.00  0.00     0.031 C 
ATOM     40  C   UNL A   1      40.934  25.011  27.808  1.00  0.00     0.029 A 
ATOM     41  N   UNL A   1      42.414  26.659  28.109  1.00  0.00    -0.354 N 
ATOM     42  C   UNL A   1      46.644  25.978  27.576  1.00  0.00     0.074 A 
ATOM     43  C   UNL A   1      46.902  24.627  27.128  1.00  0.00     0.031 C 
ATOM     44  C   UNL A   1      40.253  26.096  28.213  1.00  0.00     0.029 A 
ATOM     45  C   UNL A   1      41.191  27.188  28.445  1.00  0.00     0.049 A 
ATOM     46  H   UNL A   1      43.252  27.173  28.149  1.00  0.00     0.167 HD
ATOM     47  C   UNL A   1      47.603  26.909  27.787  1.00  0.00     0.037 A 
ATOM     48  C   UNL A   1      40.865  28.413  28.898  1.00  0.00     0.037 A 
ATOM     49  C   UNL A   1      47.344  28.265  28.189  1.00  0.00     0.049 A 
ATOM     50  C   UNL A   1      41.947  29.434  29.103  1.00  0.00     0.074 A 
ATOM     51  C   UNL A   1      48.243  29.304  28.350  1.00  0.00     0.029 A 
ATOM     52  N   UNL A   1      46.089  28.770  28.489  1.00  0.00    -0.354 N 
ATOM     53  N   UNL A   1      43.239  29.317  28.917  1.00  0.00    -0.248 NA
ATOM     54  C   UNL A   1      41.526  30.758  29.585  1.00  0.00     0.031 C 
ATOM     55  C   UNL A   1      47.534  30.434  28.774  1.00  0.00     0.029 A 
ATOM     56  C   UNL A   1      46.191  30.104  28.850  1.00  0.00     0.049 A 
ATOM     57  H   UNL A   1      45.249  28.258  28.451  1.00  0.00     0.167 HD
ATOM     58  C   UNL A   1      43.783  30.551  29.241  1.00  0.00     0.074 A 
ATOM     59  C   UNL A   1      42.680  31.409  29.623  1.00  0.00     0.031 C 
ATOM     60  C   UNL A   1      45.081  30.940  29.226  1.00  0.00     0.037 A 
BRANCH  47  61
ATOM     61  C   UNL A   1      49.026  26.488  27.574  1.00  0.00     0.057 A 
ATOM     62  C   UNL A   1      49.637  26.569  26.316  1.00  0.00     0.134 A 
ATOM     63  C   UNL A   1      49.799  26.014  28.641  1.00  0.00     0.134 A 
ATOM     64  F   UNL A   1      48.943  26.999  25.251  1.00  0.00    -0.206 F 
ATOM     65  C   UNL A   1      50.960  26.171  26.121  1.00  0.00     0.040 A 
ATOM     66  C   UNL A   1      51.131  25.635  28.464  1.00  0.00     0.040 A 
ATOM     67  F   UNL A   1      49.274  25.915  29.871  1.00  0.00    -0.206 F 
ATOM     68  C   UNL A   1      51.712  25.707  27.199  1.00  0.00     0.006 A 
ENDBRANCH  47  61
BRANCH  48  69
ATOM     69  C   UNL A   1      39.448  28.749  29.172  1.00  0.00     0.057 A 
ATOM     70  C   UNL A   1      38.626  29.266  28.164  1.00  0.00     0.134 A 
ATOM     71  C   UNL A   1      38.882  28.565  30.439  1.00  0.00     0.134 A 
ATOM     72  F   UNL A   1      39.120  29.480  26.936  1.00  0.00    -0.206 F 
ATOM     73  C   UNL A   1      37.294  29.603  28.408  1.00  0.00     0.040 A 
ATOM     74  C   UNL A   1      37.546  28.881  30.692  1.00  0.00     0.040 A 
ATOM     75  F   UNL A   1      39.617  28.068  31.443  1.00  0.00    -0.206 F 
ATOM     76  C   UNL A   1      36.749  29.406  29.676  1.00  0.00     0.006 A 
ENDBRANCH  48  69
BRANCH  60  77
ATOM     77  C   UNL A   1      45.372  32.355  29.619  1.00  0.00     0.057 A 
ATOM     78  C   UNL A   1      45.695  32.698  30.937  1.00  0.00     0.134 A 
ATOM     79  C   UNL A   1      45.367  33.378  28.663  1.00  0.00     0.134 A 
ATOM     80  F   UNL A   1      45.702  31.764  31.901  1.00  0.00    -0.206 F 
ATOM     81  C   UNL A   1      45.987  34.015  31.295  1.00  0.00     0.040 A 
ATOM     82  C   UNL A   1      45.675  34.694  29.004  1.00  0.00     0.040 A 
ATOM     83  F   UNL A   1      45.070  33.111  27.382  1.00  0.00    -0.206 F 
ATOM     84  C   UNL A   1      45.983  35.016  30.325  1.00  0.00     0.006 A 
ENDBRANCH  60  77
ENDBRANCH  34  35
ENDBRANCH  26  29
ENDBRANCH  24  25
ENDBRANCH   1  24
TORSDOF 13
ENDMDL
MODEL 2
REMARK VINA RESULT:     -11.8      5.629     10.644
REMARK SMILES C[C@@](NC(=O)c1cc(Br)c[nH]1)(C(=O)NCCCNC(=O)c1ccc(-c2c3nc(c(-c4c(F)cccc4F)c4ccc([nH]4)c(-c4c(F)cccc4F)c4nc(c(-c5c(F)cccc5F)c5ccc2[nH]5)C=C4)C=C3)cc1)C(F)(F)F
REMARK SMILES IDX 16 1 15 2 14 3 12 4 13 5 2 7 1 8 3 9 4 10 5 12 6 13 7 14
REMARK SMILES IDX 11 15 8 16 10 17 9 19 75 20 76 21 77 22 78 23 17 24 18 25
REMARK SMILES IDX 19 26 20 28 21 29 22 30 74 31 23 32 73 33 24 34 25 35 26 36
REMARK SMILES IDX 67 37 27 38 72 39 66 40 68 41 28 42 71 43 65 44 64 45 29 47
REMARK SMILES IDX 55 48 38 49 54 50 39 51 42 52 53 53 69 54 40 55 41 56 52 58
REMARK SMILES IDX 70 59 43 60 30 61 31 62 36 63 32 64 33 65 35 66 37 67 34 68
REMARK SMILES IDX 56 69 57 70 62 71 58 72 59 73 61 74 63 75 60 76 44 77 45 78
REMARK SMILES IDX 50 79 46 80 47 81 49 82 51 83 48 84
REMARK H PARENT 14 6 3 11 11 18 18 27 68 46 42 57
REMARK Flexibility Score: inf
ROOT
ATOM      1  C   UNL A   1      34.977  34.559  28.900  1.00  0.00     0.042 C 
ENDROOT
BRANCH   1   2
ATOM      2  C   UNL A   1      34.014  35.018  29.983  1.00  0.00     0.117 C 
BRANCH   2   3
ATOM      3  N   UNL A   1      33.779  33.978  30.972  1.00  0.00    -0.354 N 
ATOM      4  C   UNL A   1      34.072  33.921  32.302  1.00  0.00     0.254 C 
ATOM      5  O   UNL A   1      33.703  32.900  32.890  1.00  0.00    -0.272 OA
ATOM      6  H   UNL A   1      33.329  33.176  30.620  1.00  0.00     0.163 HD
BRANCH   4   7
ATOM      7  C   UNL A   1      34.929  34.989  32.998  1.00  0.00     0.212 C 
ATOM      8  C   UNL A   1      35.198  34.477  34.431  1.00  0.00     0.056 C 
BRANCH   7   9
ATOM      9  N   UNL A   1      36.249  35.245  32.346  1.00  0.00    -0.329 N 
ATOM     10  C   UNL A   1      37.245  34.395  31.935  1.00  0.00     0.268 C 
ATOM     11  H   UNL A   1      36.440  36.197  32.182  1.00  0.00     0.165 HD
ATOM     12  O   UNL A   1      38.053  34.846  31.125  1.00  0.00    -0.268 OA
BRANCH  10  13
ATOM     13  C   UNL A   1      37.427  33.119  32.582  1.00  0.00     0.105 A 
ATOM     14  C   UNL A   1      38.339  32.840  33.595  1.00  0.00     0.049 A 
ATOM     15  N   UNL A   1      36.787  31.930  32.303  1.00  0.00    -0.356 N 
ATOM     16  C   UNL A   1      38.099  31.529  34.033  1.00  0.00     0.036 A 
ATOM     17  C   UNL A   1      37.136  30.979  33.231  1.00  0.00     0.098 A 
ATOM     18  H   UNL A   1      36.169  31.784  31.551  1.00  0.00     0.166 HD
ATOM     19  Br  UNL A   1      38.955  30.730  35.491  1.00  0.00    -0.049 Br
ENDBRANCH  10  13
ENDBRANCH   7   9
BRANCH   7  20
ATOM     20  C   UNL A   1      34.091  36.280  33.122  1.00  0.00     0.420 C 
ATOM     21  F   UNL A   1      34.484  37.259  32.281  1.00  0.00    -0.168 F 
ATOM     22  F   UNL A   1      32.791  36.013  32.818  1.00  0.00    -0.168 F 
ATOM     23  F   UNL A   1      34.093  36.776  34.381  1.00  0.00    -0.168 F 
ENDBRANCH   7  20
ENDBRANCH   4   7
ENDBRANCH   2   3
ENDBRANCH   1   2
BRANCH   1  24
ATOM     24  C   UNL A   1      35.353  33.084  28.991  1.00  0.00     0.118 C 
BRANCH  24  25
ATOM     25  N   UNL A   1      34.366  32.197  28.389  1.00  0.00    -0.352 N 
ATOM     26  C   UNL A   1      34.517  30.893  27.977  1.00  0.00     0.251 C 
ATOM     27  H   UNL A   1      33.469  32.583  28.260  1.00  0.00     0.163 HD
ATOM     28  O   UNL A   1      33.626  30.323  27.357  1.00  0.00    -0.269 OA
BRANCH  26  29
ATOM     29  C   UNL A   1      35.789  30.196  28.256  1.00  0.00     0.039 A 
ATOM     30  C   UNL A   1      36.794  30.200  27.286  1.00  0.00     0.014 A 
ATOM     31  C   UNL A   1      36.009  29.603  29.501  1.00  0.00     0.014 A 
ATOM     32  C   UNL A   1      38.057  29.697  27.603  1.00  0.00     0.010 A 
ATOM     33  C   UNL A   1      37.287  29.176  29.842  1.00  0.00     0.010 A 
ATOM     34  C   UNL A   1      38.327  29.233  28.901  1.00  0.00    -0.014 A 
BRANCH  34  35
ATOM     35  C   UNL A   1      39.694  28.826  29.313  1.00  0.00     0.031 A 
ATOM     36  C   UNL A   1      40.534  29.749  30.148  1.00  0.00     0.074 A 
ATOM     37  C   UNL A   1      40.214  27.672  28.851  1.00  0.00     0.049 A 
ATOM     38  N   UNL A   1      41.789  29.635  30.498  1.00  0.00    -0.248 NA
ATOM     39  C   UNL A   1      39.884  30.981  30.626  1.00  0.00     0.031 C 
ATOM     40  C   UNL A   1      39.522  26.714  27.986  1.00  0.00     0.029 A 
ATOM     41  N   UNL A   1      41.456  27.117  29.030  1.00  0.00    -0.354 N 
ATOM     42  C   UNL A   1      42.087  30.790  31.209  1.00  0.00     0.074 A 
ATOM     43  C   UNL A   1      40.894  31.609  31.208  1.00  0.00     0.031 C 
ATOM     44  C   UNL A   1      40.343  25.682  27.726  1.00  0.00     0.029 A 
ATOM     45  C   UNL A   1      41.628  25.923  28.373  1.00  0.00     0.049 A 
ATOM     46  H   UNL A   1      42.159  27.536  29.578  1.00  0.00     0.167 HD
ATOM     47  C   UNL A   1      43.244  31.128  31.825  1.00  0.00     0.037 A 
ATOM     48  C   UNL A   1      42.704  25.117  28.293  1.00  0.00     0.037 A 
ATOM     49  C   UNL A   1      44.415  30.296  31.865  1.00  0.00     0.049 A 
ATOM     50  C   UNL A   1      43.969  25.506  29.004  1.00  0.00     0.074 A 
ATOM     51  C   UNL A   1      45.608  30.515  32.532  1.00  0.00     0.029 A 
ATOM     52  N   UNL A   1      44.538  29.079  31.213  1.00  0.00    -0.354 N 
ATOM     53  N   UNL A   1      44.218  26.574  29.720  1.00  0.00    -0.248 NA
ATOM     54  C   UNL A   1      45.103  24.577  28.892  1.00  0.00     0.031 C 
ATOM     55  C   UNL A   1      46.464  29.442  32.260  1.00  0.00     0.029 A 
ATOM     56  C   UNL A   1      45.793  28.542  31.448  1.00  0.00     0.049 A 
ATOM     57  H   UNL A   1      43.837  28.658  30.664  1.00  0.00     0.167 HD
ATOM     58  C   UNL A   1      45.528  26.440  30.158  1.00  0.00     0.074 A 
ATOM     59  C   UNL A   1      46.018  25.180  29.638  1.00  0.00     0.031 C 
ATOM     60  C   UNL A   1      46.261  27.286  30.921  1.00  0.00     0.037 A 
BRANCH  47  61
ATOM     61  C   UNL A   1      43.290  32.458  32.516  1.00  0.00     0.057 A 
ATOM     62  C   UNL A   1      43.744  33.611  31.864  1.00  0.00     0.134 A 
ATOM     63  C   UNL A   1      42.858  32.590  33.841  1.00  0.00     0.134 A 
ATOM     64  F   UNL A   1      44.187  33.546  30.599  1.00  0.00    -0.206 F 
ATOM     65  C   UNL A   1      43.790  34.845  32.513  1.00  0.00     0.040 A 
ATOM     66  C   UNL A   1      42.877  33.824  34.494  1.00  0.00     0.040 A 
ATOM     67  F   UNL A   1      42.408  31.524  34.521  1.00  0.00    -0.206 F 
ATOM     68  C   UNL A   1      43.351  34.954  33.831  1.00  0.00     0.006 A 
ENDBRANCH  47  61
BRANCH  48  69
ATOM     69  C   UNL A   1      42.627  23.852  27.525  1.00  0.00     0.057 A 
ATOM     70  C   UNL A   1      42.851  23.837  26.143  1.00  0.00     0.134 A 
ATOM     71  C   UNL A   1      42.327  22.634  28.145  1.00  0.00     0.134 A 
ATOM     72  F   UNL A   1      43.124  24.978  25.493  1.00  0.00    -0.206 F 
ATOM     73  C   UNL A   1      42.767  22.658  25.402  1.00  0.00     0.040 A 
ATOM     74  C   UNL A   1      42.258  21.444  27.419  1.00  0.00     0.040 A 
ATOM     75  F   UNL A   1      42.108  22.584  29.467  1.00  0.00    -0.206 F 
ATOM     76  C   UNL A   1      42.474  21.455  26.041  1.00  0.00     0.006 A 
ENDBRANCH  48  69
BRANCH  60  77
ATOM     77  C   UNL A   1      47.661  26.868  31.250  1.00  0.00     0.057 A 
ATOM     78  C   UNL A   1      47.938  26.029  32.335  1.00  0.00     0.134 A 
ATOM     79  C   UNL A   1      48.736  27.277  30.451  1.00  0.00     0.134 A 
ATOM     80  F   UNL A   1      46.952  25.615  33.146  1.00  0.00    -0.206 F 
ATOM     81  C   UNL A   1      49.242  25.622  32.625  1.00  0.00     0.040 A 
ATOM     82  C   UNL A   1      50.040  26.863  30.720  1.00  0.00     0.040 A 
ATOM     83  F   UNL A   1      48.533  28.078  29.394  1.00  0.00    -0.206 F 
ATOM     84  C   UNL A   1      50.296  26.037  31.812  1.00  0.00     0.006 A 
ENDBRANCH  60  77
ENDBRANCH  34  35
ENDBRANCH  26  29
ENDBRANCH  24  25
ENDBRANCH   1  24
TORSDOF 13
ENDMDL
MODEL 3
REMARK VINA RESULT:     -11.7      5.571     10.198
REMARK SMILES C[C@@](NC(=O)c1cc(Br)c[nH]1)(C(=O)NCCCNC(=O)c1ccc(-c2c3nc(c(-c4c(F)cccc4F)c4ccc([nH]4)c(-c4c(F)cccc4F)c4nc(c(-c5c(F)cccc5F)c5ccc2[nH]5)C=C4)C=C3)cc1)C(F)(F)F
REMARK SMILES IDX 16 1 15 2 14 3 12 4 13 5 2 7 1 8 3 9 4 10 5 12 6 13 7 14
REMARK SMILES IDX 11 15 8 16 10 17 9 19 75 20 76 21 77 22 78 23 17 24 18 25
REMARK SMILES IDX 19 26 20 28 21 29 22 30 74 31 23 32 73 33 24 34 25 35 26 36
REMARK SMILES IDX 67 37 27 38 72 39 66 40 68 41 28 42 71 43 65 44 64 45 29 47
REMARK SMILES IDX 55 48 38 49 54 50 39 51 42 52 53 53 69 54 40 55 41 56 52 58
REMARK SMILES IDX 70 59 43 60 30 61 31 62 36 63 32 64 33 65 35 66 37 67 34 68
REMARK SMILES IDX 56 69 57 70 62 71 58 72 59 73 61 74 63 75 60 76 44 77 45 78
REMARK SMILES IDX 50 79 46 80 47 81 49 82 51 83 48 84
REMARK H PARENT 14 6 3 11 11 18 18 27 68 46 42 57
REMARK Flexibility Score: inf
ROOT
ATOM      1  C   UNL A   1      31.598  32.064  26.558  1.00  0.00     0.042 C 
ENDROOT
BRANCH   1   2
ATOM      2  C   UNL A   1      31.957  30.641  26.163  1.00  0.00     0.117 C 
BRANCH   2   3
ATOM      3  N   UNL A   1      31.680  29.697  27.234  1.00  0.00    -0.354 N 
ATOM      4  C   UNL A   1      31.699  28.334  27.257  1.00  0.00     0.254 C 
ATOM      5  O   UNL A   1      31.449  27.812  28.347  1.00  0.00    -0.272 OA
ATOM      6  H   UNL A   1      31.435  30.115  28.092  1.00  0.00     0.163 HD
BRANCH   4   7
ATOM      7  C   UNL A   1      31.878  27.496  25.982  1.00  0.00     0.212 C 
ATOM      8  C   UNL A   1      31.415  26.062  26.326  1.00  0.00     0.056 C 
BRANCH   7   9
ATOM      9  N   UNL A   1      31.077  27.969  24.813  1.00  0.00    -0.329 N 
ATOM     10  C   UNL A   1      30.360  27.288  23.861  1.00  0.00     0.268 C 
ATOM     11  H   UNL A   1      31.060  28.948  24.705  1.00  0.00     0.165 HD
ATOM     12  O   UNL A   1      29.525  27.936  23.233  1.00  0.00    -0.268 OA
BRANCH  10  13
ATOM     13  C   UNL A   1      30.724  25.941  23.499  1.00  0.00     0.105 A 
ATOM     14  C   UNL A   1      31.884  25.559  22.834  1.00  0.00     0.049 A 
ATOM     15  N   UNL A   1      29.993  24.787  23.691  1.00  0.00    -0.356 N 
ATOM     16  C   UNL A   1      31.913  24.157  22.800  1.00  0.00     0.036 A 
ATOM     17  C   UNL A   1      30.743  23.691  23.338  1.00  0.00     0.098 A 
ATOM     18  H   UNL A   1      29.071  24.752  24.033  1.00  0.00     0.166 HD
ATOM     19  Br  UNL A   1      33.347  23.145  22.153  1.00  0.00    -0.049 Br
ENDBRANCH  10  13
ENDBRANCH   7   9
BRANCH   7  20
ATOM     20  C   UNL A   1      33.384  27.426  25.654  1.00  0.00     0.420 C 
ATOM     21  F   UNL A   1      33.741  28.186  24.598  1.00  0.00    -0.168 F 
ATOM     22  F   UNL A   1      34.105  27.882  26.714  1.00  0.00    -0.168 F 
ATOM     23  F   UNL A   1      33.803  26.159  25.426  1.00  0.00    -0.168 F 
ENDBRANCH   7  20
ENDBRANCH   4   7
ENDBRANCH   2   3
ENDBRANCH   1   2
BRANCH   1  24
ATOM     24  C   UNL A   1      32.686  32.780  27.350  1.00  0.00     0.118 C 
BRANCH  24  25
ATOM     25  N   UNL A   1      32.372  34.175  27.632  1.00  0.00    -0.352 N 
ATOM     26  C   UNL A   1      32.958  35.022  28.546  1.00  0.00     0.251 C 
ATOM     27  H   UNL A   1      31.644  34.565  27.097  1.00  0.00     0.163 HD
ATOM     28  O   UNL A   1      32.486  36.132  28.765  1.00  0.00    -0.269 OA
BRANCH  26  29
ATOM     29  C   UNL A   1      34.144  34.559  29.295  1.00  0.00     0.039 A 
ATOM     30  C   UNL A   1      33.973  34.014  30.569  1.00  0.00     0.014 A 
ATOM     31  C   UNL A   1      35.409  34.601  28.705  1.00  0.00     0.014 A 
ATOM     32  C   UNL A   1      35.060  33.417  31.211  1.00  0.00     0.010 A 
ATOM     33  C   UNL A   1      36.470  33.938  29.309  1.00  0.00     0.010 A 
ATOM     34  C   UNL A   1      36.302  33.327  30.562  1.00  0.00    -0.014 A 
BRANCH  34  35
ATOM     35  C   UNL A   1      37.437  32.575  31.155  1.00  0.00     0.031 A 
ATOM     36  C   UNL A   1      38.058  33.041  32.441  1.00  0.00     0.074 A 
ATOM     37  C   UNL A   1      37.971  31.535  30.484  1.00  0.00     0.049 A 
ATOM     38  N   UNL A   1      39.131  32.602  33.046  1.00  0.00    -0.248 NA
ATOM     39  C   UNL A   1      37.403  34.172  33.117  1.00  0.00     0.031 C 
ATOM     40  C   UNL A   1      37.496  31.019  29.199  1.00  0.00     0.029 A 
ATOM     41  N   UNL A   1      39.045  30.736  30.784  1.00  0.00    -0.354 N 
ATOM     42  C   UNL A   1      39.297  33.421  34.156  1.00  0.00     0.074 A 
ATOM     43  C   UNL A   1      38.237  34.405  34.119  1.00  0.00     0.031 C 
ATOM     44  C   UNL A   1      38.263  29.979  28.831  1.00  0.00     0.029 A 
ATOM     45  C   UNL A   1      39.304  29.779  29.833  1.00  0.00     0.049 A 
ATOM     46  H   UNL A   1      39.581  30.839  31.604  1.00  0.00     0.167 HD
ATOM     47  C   UNL A   1      40.235  33.345  35.129  1.00  0.00     0.037 A 
ATOM     48  C   UNL A   1      40.279  28.852  29.771  1.00  0.00     0.037 A 
ATOM     49  C   UNL A   1      41.261  32.340  35.191  1.00  0.00     0.049 A 
ATOM     50  C   UNL A   1      41.295  28.776  30.874  1.00  0.00     0.074 A 
ATOM     51  C   UNL A   1      42.206  32.131  36.179  1.00  0.00     0.029 A 
ATOM     52  N   UNL A   1      41.470  31.369  34.223  1.00  0.00    -0.354 N 
ATOM     53  N   UNL A   1      41.405  29.520  31.947  1.00  0.00    -0.248 NA
ATOM     54  C   UNL A   1      42.324  27.732  30.757  1.00  0.00     0.031 C 
ATOM     55  C   UNL A   1      43.008  31.049  35.796  1.00  0.00     0.029 A 
ATOM     56  C   UNL A   1      42.542  30.568  34.584  1.00  0.00     0.049 A 
ATOM     57  H   UNL A   1      40.937  31.264  33.402  1.00  0.00     0.167 HD
ATOM     58  C   UNL A   1      42.501  29.027  32.640  1.00  0.00     0.074 A 
ATOM     59  C   UNL A   1      43.015  27.911  31.874  1.00  0.00     0.031 C 
ATOM     60  C   UNL A   1      43.037  29.462  33.806  1.00  0.00     0.037 A 
BRANCH  47  61
ATOM     61  C   UNL A   1      40.183  34.379  36.214  1.00  0.00     0.057 A 
ATOM     62  C   UNL A   1      40.905  35.576  36.124  1.00  0.00     0.134 A 
ATOM     63  C   UNL A   1      39.389  34.183  37.349  1.00  0.00     0.134 A 
ATOM     64  F   UNL A   1      41.697  35.814  35.068  1.00  0.00    -0.206 F 
ATOM     65  C   UNL A   1      40.857  36.533  37.138  1.00  0.00     0.040 A 
ATOM     66  C   UNL A   1      39.314  35.144  38.360  1.00  0.00     0.040 A 
ATOM     67  F   UNL A   1      38.670  33.060  37.494  1.00  0.00    -0.206 F 
ATOM     68  C   UNL A   1      40.056  36.319  38.259  1.00  0.00     0.006 A 
ENDBRANCH  47  61
BRANCH  48  69
ATOM     69  C   UNL A   1      40.331  27.907  28.630  1.00  0.00     0.057 A 
ATOM     70  C   UNL A   1      39.673  26.673  28.691  1.00  0.00     0.134 A 
ATOM     71  C   UNL A   1      41.035  28.209  27.459  1.00  0.00     0.134 A 
ATOM     72  F   UNL A   1      38.998  26.324  29.796  1.00  0.00    -0.206 F 
ATOM     73  C   UNL A   1      39.725  25.765  27.633  1.00  0.00     0.040 A 
ATOM     74  C   UNL A   1      41.080  27.317  26.386  1.00  0.00     0.040 A 
ATOM     75  F   UNL A   1      41.680  29.377  27.339  1.00  0.00    -0.206 F 
ATOM     76  C   UNL A   1      40.427  26.088  26.473  1.00  0.00     0.006 A 
ENDBRANCH  48  69
BRANCH  60  77
ATOM     77  C   UNL A   1      44.227  28.717  34.328  1.00  0.00     0.057 A 
ATOM     78  C   UNL A   1      45.533  29.123  34.028  1.00  0.00     0.134 A 
ATOM     79  C   UNL A   1      44.065  27.609  35.168  1.00  0.00     0.134 A 
ATOM     80  F   UNL A   1      45.752  30.169  33.217  1.00  0.00    -0.206 F 
ATOM     81  C   UNL A   1      46.640  28.440  34.534  1.00  0.00     0.040 A 
ATOM     82  C   UNL A   1      45.163  26.930  35.695  1.00  0.00     0.040 A 
ATOM     83  F   UNL A   1      42.839  27.176  35.495  1.00  0.00    -0.206 F 
ATOM     84  C   UNL A   1      46.456  27.342  35.374  1.00  0.00     0.006 A 
ENDBRANCH  60  77
ENDBRANCH  34  35
ENDBRANCH  26  29
ENDBRANCH  24  25
ENDBRANCH   1  24
TORSDOF 13
ENDMDL
