MODEL 1
REMARK VINA RESULT:     -11.5      0.000      0.000
REMARK SMILES Cc1cc(C)c2c(OCCCC(=O)NCCCNC(=O)c3ccc(-c4c5nc(c(-c6c(F)cccc6F)c6ccc([nH]6)c(-c6c(F)cccc6F)c6nc(c(-c7c(F)cccc7F)c7ccc4[nH]7)C=C6)C=C5)cc3)nsc2n1
REMARK SMILES IDX 15 1 14 2 12 3 13 4 11 6 10 7 9 8 8 9 7 10 1 11 2 12 3 13
REMARK SMILES IDX 78 14 4 15 77 16 5 17 6 18 76 19 75 20 16 21 17 22 18 23
REMARK SMILES IDX 19 24 20 26 21 27 22 28 74 29 23 30 73 31 24 32 25 33 26 34
REMARK SMILES IDX 67 35 27 36 72 37 66 38 68 39 28 40 71 41 65 42 64 43 29 45
REMARK SMILES IDX 55 46 38 47 54 48 39 49 42 50 53 51 69 52 40 53 41 54 52 56
REMARK SMILES IDX 70 57 43 58 30 59 31 60 36 61 32 62 33 63 35 64 37 65 34 66
REMARK SMILES IDX 56 67 57 68 62 69 58 70 59 71 61 72 63 73 60 74 44 75 45 76
REMARK SMILES IDX 50 77 46 78 47 79 49 80 51 81 48 82
REMARK H PARENT 14 5 18 25 68 44 42 55
REMARK Flexibility Score: inf
ROOT
ATOM      1  C   UNL A   1      40.147  21.661  26.291  1.00  0.00     0.117 C 
ENDROOT
BRANCH   1   2
ATOM      2  N   UNL A   1      38.780  21.505  25.579  1.00  0.00    -0.356 N 
ATOM      3  C   UNL A   1      37.535  21.960  25.235  1.00  0.00     0.220 C 
ATOM      4  O   UNL A   1      36.950  21.075  24.570  1.00  0.00    -0.275 OA
ATOM      5  H   UNL A   1      38.835  20.621  25.150  1.00  0.00     0.163 HD
BRANCH   3   6
ATOM      6  C   UNL A   1      36.731  23.357  25.326  1.00  0.00     0.103 C 
BRANCH   6   7
ATOM      7  C   UNL A   1      35.569  24.023  24.440  1.00  0.00     0.051 C 
BRANCH   7   8
ATOM      8  C   UNL A   1      34.466  23.399  23.474  1.00  0.00     0.232 C 
BRANCH   8   9
ATOM      9  O   UNL A   1      33.859  24.098  22.371  1.00  0.00    -0.477 OA
BRANCH   9  10
ATOM     10  C   UNL A   1      33.327  25.345  22.480  1.00  0.00     0.235 A 
ATOM     11  C   UNL A   1      31.616  27.696  27.118  1.00  0.00     0.067 C 
ATOM     12  C   UNL A   1      31.717  27.166  25.717  1.00  0.00     0.039 A 
ATOM     13  C   UNL A   1      31.181  25.918  25.449  1.00  0.00     0.027 A 
ATOM     14  N   UNL A   1      32.353  27.908  24.778  1.00  0.00    -0.240 NA
ATOM     15  C   UNL A   1      31.463  25.294  24.227  1.00  0.00    -0.034 A 
ATOM     16  C   UNL A   1      32.701  27.198  23.681  1.00  0.00     0.147 A 
ATOM     17  C   UNL A   1      30.749  24.132  23.696  1.00  0.00     0.045 C 
ATOM     18  C   UNL A   1      32.440  25.861  23.449  1.00  0.00     0.078 A 
ATOM     19  S   UNL A   1      33.507  27.778  22.298  1.00  0.00    -0.012 S 
ATOM     20  N   UNL A   1      33.871  26.259  21.674  1.00  0.00    -0.153 NA
ENDBRANCH   9  10
ENDBRANCH   8   9
ENDBRANCH   7   8
ENDBRANCH   6   7
ENDBRANCH   3   6
ENDBRANCH   1   2
BRANCH   1  21
ATOM     21  C   UNL A   1      40.979  20.335  26.385  1.00  0.00     0.042 C 
BRANCH  21  22
ATOM     22  C   UNL A   1      42.389  20.313  26.960  1.00  0.00     0.118 C 
BRANCH  22  23
ATOM     23  N   UNL A   1      43.351  19.492  26.208  1.00  0.00    -0.352 N 
ATOM     24  C   UNL A   1      44.144  19.926  25.120  1.00  0.00     0.251 C 
ATOM     25  H   UNL A   1      43.452  18.554  26.488  1.00  0.00     0.163 HD
ATOM     26  O   UNL A   1      44.577  19.189  24.292  1.00  0.00    -0.269 OA
BRANCH  24  27
ATOM     27  C   UNL A   1      44.407  21.367  25.117  1.00  0.00     0.039 A 
ATOM     28  C   UNL A   1      43.528  22.245  24.475  1.00  0.00     0.014 A 
ATOM     29  C   UNL A   1      45.292  21.792  26.101  1.00  0.00     0.014 A 
ATOM     30  C   UNL A   1      43.445  23.556  24.944  1.00  0.00     0.010 A 
ATOM     31  C   UNL A   1      45.062  23.022  26.668  1.00  0.00     0.010 A 
ATOM     32  C   UNL A   1      44.169  23.929  26.091  1.00  0.00    -0.014 A 
BRANCH  32  33
ATOM     33  C   UNL A   1      43.933  25.226  26.737  1.00  0.00     0.031 A 
ATOM     34  C   UNL A   1      44.929  26.323  26.510  1.00  0.00     0.074 A 
ATOM     35  C   UNL A   1      42.815  25.520  27.436  1.00  0.00     0.049 A 
ATOM     36  N   UNL A   1      45.764  26.807  27.373  1.00  0.00    -0.248 NA
ATOM     37  C   UNL A   1      45.053  26.924  25.174  1.00  0.00     0.031 C 
ATOM     38  C   UNL A   1      41.583  24.741  27.627  1.00  0.00     0.029 A 
ATOM     39  N   UNL A   1      42.539  26.673  28.106  1.00  0.00    -0.354 N 
ATOM     40  C   UNL A   1      46.421  27.871  26.754  1.00  0.00     0.074 A 
ATOM     41  C   UNL A   1      46.016  27.833  25.371  1.00  0.00     0.031 C 
ATOM     42  C   UNL A   1      40.621  25.524  28.155  1.00  0.00     0.029 A 
ATOM     43  C   UNL A   1      41.233  26.773  28.549  1.00  0.00     0.049 A 
ATOM     44  H   UNL A   1      43.211  27.374  28.261  1.00  0.00     0.167 HD
ATOM     45  C   UNL A   1      47.132  28.791  27.469  1.00  0.00     0.037 A 
ATOM     46  C   UNL A   1      40.680  27.780  29.256  1.00  0.00     0.037 A 
ATOM     47  C   UNL A   1      47.380  28.336  28.812  1.00  0.00     0.049 A 
ATOM     48  C   UNL A   1      41.782  28.472  29.960  1.00  0.00     0.074 A 
ATOM     49  C   UNL A   1      48.049  27.262  29.368  1.00  0.00     0.029 A 
ATOM     50  N   UNL A   1      46.599  28.840  29.821  1.00  0.00    -0.354 N 
ATOM     51  N   UNL A   1      42.475  27.932  30.925  1.00  0.00    -0.248 NA
ATOM     52  C   UNL A   1      42.408  29.608  29.302  1.00  0.00     0.031 C 
ATOM     53  C   UNL A   1      47.248  26.873  30.482  1.00  0.00     0.029 A 
ATOM     54  C   UNL A   1      46.176  27.765  30.562  1.00  0.00     0.049 A 
ATOM     55  H   UNL A   1      46.383  29.786  29.984  1.00  0.00     0.167 HD
ATOM     56  C   UNL A   1      43.773  28.377  30.723  1.00  0.00     0.074 A 
ATOM     57  C   UNL A   1      43.649  29.483  29.776  1.00  0.00     0.031 C 
ATOM     58  C   UNL A   1      44.852  27.642  31.127  1.00  0.00     0.037 A 
BRANCH  45  59
ATOM     59  C   UNL A   1      47.383  30.225  27.074  1.00  0.00     0.057 A 
ATOM     60  C   UNL A   1      48.688  30.756  27.149  1.00  0.00     0.134 A 
ATOM     61  C   UNL A   1      46.363  31.176  26.898  1.00  0.00     0.134 A 
ATOM     62  F   UNL A   1      49.749  29.955  27.332  1.00  0.00    -0.206 F 
ATOM     63  C   UNL A   1      48.947  32.133  27.114  1.00  0.00     0.040 A 
ATOM     64  C   UNL A   1      46.614  32.552  26.815  1.00  0.00     0.040 A 
ATOM     65  F   UNL A   1      45.068  30.834  26.896  1.00  0.00    -0.206 F 
ATOM     66  C   UNL A   1      47.906  33.037  26.953  1.00  0.00     0.006 A 
ENDBRANCH  45  59
BRANCH  46  67
ATOM     67  C   UNL A   1      39.297  28.281  29.172  1.00  0.00     0.057 A 
ATOM     68  C   UNL A   1      38.447  28.246  30.281  1.00  0.00     0.134 A 
ATOM     69  C   UNL A   1      38.863  29.044  28.072  1.00  0.00     0.134 A 
ATOM     70  F   UNL A   1      38.791  27.565  31.382  1.00  0.00    -0.206 F 
ATOM     71  C   UNL A   1      37.244  28.963  30.311  1.00  0.00     0.040 A 
ATOM     72  C   UNL A   1      37.663  29.758  28.086  1.00  0.00     0.040 A 
ATOM     73  F   UNL A   1      39.630  29.190  26.981  1.00  0.00    -0.206 F 
ATOM     74  C   UNL A   1      36.857  29.733  29.218  1.00  0.00     0.006 A 
ENDBRANCH  46  67
BRANCH  58  75
ATOM     75  C   UNL A   1      44.612  26.446  32.009  1.00  0.00     0.057 A 
ATOM     76  C   UNL A   1      44.465  25.137  31.525  1.00  0.00     0.134 A 
ATOM     77  C   UNL A   1      44.718  26.595  33.397  1.00  0.00     0.134 A 
ATOM     78  F   UNL A   1      44.453  24.880  30.213  1.00  0.00    -0.206 F 
ATOM     79  C   UNL A   1      44.392  24.034  32.382  1.00  0.00     0.040 A 
ATOM     80  C   UNL A   1      44.678  25.498  34.262  1.00  0.00     0.040 A 
ATOM     81  F   UNL A   1      44.922  27.808  33.933  1.00  0.00    -0.206 F 
ATOM     82  C   UNL A   1      44.507  24.212  33.757  1.00  0.00     0.006 A 
ENDBRANCH  58  75
ENDBRANCH  32  33
ENDBRANCH  24  27
ENDBRANCH  22  23
ENDBRANCH  21  22
ENDBRANCH   1  21
TORSDOF 14
ENDMDL
MODEL 2
REMARK VINA RESULT:     -11.3      1.319      2.053
REMARK SMILES Cc1cc(C)c2c(OCCCC(=O)NCCCNC(=O)c3ccc(-c4c5nc(c(-c6c(F)cccc6F)c6ccc([nH]6)c(-c6c(F)cccc6F)c6nc(c(-c7c(F)cccc7F)c7ccc4[nH]7)C=C6)C=C5)cc3)nsc2n1
REMARK SMILES IDX 15 1 14 2 12 3 13 4 11 6 10 7 9 8 8 9 7 10 1 11 2 12 3 13
REMARK SMILES IDX 78 14 4 15 77 16 5 17 6 18 76 19 75 20 16 21 17 22 18 23
REMARK SMILES IDX 19 24 20 26 21 27 22 28 74 29 23 30 73 31 24 32 25 33 26 34
REMARK SMILES IDX 67 35 27 36 72 37 66 38 68 39 28 40 71 41 65 42 64 43 29 45
REMARK SMILES IDX 55 46 38 47 54 48 39 49 42 50 53 51 69 52 40 53 41 54 52 56
REMARK SMILES IDX 70 57 43 58 30 59 31 60 36 61 32 62 33 63 35 64 37 65 34 66
REMARK SMILES IDX 56 67 57 68 62 69 58 70 59 71 61 72 63 73 60 74 44 75 45 76
REMARK SMILES IDX 50 77 46 78 47 79 49 80 51 81 48 82
REMARK H PARENT 14 5 18 25 68 44 42 55
REMARK Flexibility Score: inf
ROOT
ATOM      1  C   UNL A   1      39.926  21.614  26.506  1.00  0.00     0.117 C 
ENDROOT
BRANCH   1   2
ATOM      2  N   UNL A   1      38.773  21.718  25.476  1.00  0.00    -0.356 N 
ATOM      3  C   UNL A   1      37.458  21.599  25.115  1.00  0.00     0.220 C 
ATOM      4  O   UNL A   1      37.344  21.882  23.900  1.00  0.00    -0.275 OA
ATOM      5  H   UNL A   1      39.216  22.033  24.656  1.00  0.00     0.163 HD
BRANCH   3   6
ATOM      6  C   UNL A   1      36.052  21.358  25.872  1.00  0.00     0.103 C 
BRANCH   6   7
ATOM      7  C   UNL A   1      34.545  21.141  25.360  1.00  0.00     0.051 C 
BRANCH   7   8
ATOM      8  C   UNL A   1      33.132  21.516  25.995  1.00  0.00     0.232 C 
BRANCH   8   9
ATOM      9  O   UNL A   1      32.897  22.651  26.849  1.00  0.00    -0.477 OA
BRANCH   9  10
ATOM     10  C   UNL A   1      32.335  23.810  26.412  1.00  0.00     0.235 A 
ATOM     11  C   UNL A   1      32.483  25.693  21.274  1.00  0.00     0.067 C 
ATOM     12  C   UNL A   1      32.574  25.553  22.766  1.00  0.00     0.039 A 
ATOM     13  C   UNL A   1      33.803  25.235  23.319  1.00  0.00     0.027 A 
ATOM     14  N   UNL A   1      31.453  25.708  23.511  1.00  0.00    -0.240 NA
ATOM     15  C   UNL A   1      33.877  24.864  24.668  1.00  0.00    -0.034 A 
ATOM     16  C   UNL A   1      31.569  25.210  24.763  1.00  0.00     0.147 A 
ATOM     17  C   UNL A   1      35.114  24.785  25.448  1.00  0.00     0.045 C 
ATOM     18  C   UNL A   1      32.692  24.621  25.314  1.00  0.00     0.078 A 
ATOM     19  S   UNL A   1      30.382  25.220  25.984  1.00  0.00    -0.012 S 
ATOM     20  N   UNL A   1      31.169  24.117  26.981  1.00  0.00    -0.153 NA
ENDBRANCH   9  10
ENDBRANCH   8   9
ENDBRANCH   7   8
ENDBRANCH   6   7
ENDBRANCH   3   6
ENDBRANCH   1   2
BRANCH   1  21
ATOM     21  C   UNL A   1      40.916  20.426  26.247  1.00  0.00     0.042 C 
BRANCH  21  22
ATOM     22  C   UNL A   1      42.362  20.469  26.724  1.00  0.00     0.118 C 
BRANCH  22  23
ATOM     23  N   UNL A   1      43.309  19.704  25.900  1.00  0.00    -0.352 N 
ATOM     24  C   UNL A   1      44.111  20.222  24.855  1.00  0.00     0.251 C 
ATOM     25  H   UNL A   1      43.392  18.742  26.091  1.00  0.00     0.163 HD
ATOM     26  O   UNL A   1      44.531  19.557  23.962  1.00  0.00    -0.269 OA
BRANCH  24  27
ATOM     27  C   UNL A   1      44.400  21.652  24.985  1.00  0.00     0.039 A 
ATOM     28  C   UNL A   1      43.558  22.599  24.395  1.00  0.00     0.014 A 
ATOM     29  C   UNL A   1      45.260  21.972  26.028  1.00  0.00     0.014 A 
ATOM     30  C   UNL A   1      43.484  23.867  24.972  1.00  0.00     0.010 A 
ATOM     31  C   UNL A   1      45.035  23.153  26.692  1.00  0.00     0.010 A 
ATOM     32  C   UNL A   1      44.178  24.125  26.169  1.00  0.00    -0.014 A 
BRANCH  32  33
ATOM     33  C   UNL A   1      43.944  25.366  26.918  1.00  0.00     0.031 A 
ATOM     34  C   UNL A   1      44.969  26.456  26.818  1.00  0.00     0.074 A 
ATOM     35  C   UNL A   1      42.809  25.624  27.603  1.00  0.00     0.049 A 
ATOM     36  N   UNL A   1      45.783  26.845  27.747  1.00  0.00    -0.248 NA
ATOM     37  C   UNL A   1      45.150  27.167  25.544  1.00  0.00     0.031 C 
ATOM     38  C   UNL A   1      41.556  24.858  27.685  1.00  0.00     0.029 A 
ATOM     39  N   UNL A   1      42.533  26.720  28.361  1.00  0.00    -0.354 N 
ATOM     40  C   UNL A   1      46.481  27.944  27.244  1.00  0.00     0.074 A 
ATOM     41  C   UNL A   1      46.123  28.034  25.851  1.00  0.00     0.031 C 
ATOM     42  C   UNL A   1      40.592  25.614  28.248  1.00  0.00     0.029 A 
ATOM     43  C   UNL A   1      41.214  26.811  28.768  1.00  0.00     0.049 A 
ATOM     44  H   UNL A   1      43.213  27.391  28.598  1.00  0.00     0.167 HD
ATOM     45  C   UNL A   1      47.186  28.783  28.059  1.00  0.00     0.037 A 
ATOM     46  C   UNL A   1      40.658  27.766  29.542  1.00  0.00     0.037 A 
ATOM     47  C   UNL A   1      47.379  28.208  29.365  1.00  0.00     0.049 A 
ATOM     48  C   UNL A   1      41.748  28.370  30.338  1.00  0.00     0.074 A 
ATOM     49  C   UNL A   1      48.007  27.076  29.847  1.00  0.00     0.029 A 
ATOM     50  N   UNL A   1      46.573  28.641  30.388  1.00  0.00    -0.354 N 
ATOM     51  N   UNL A   1      42.397  27.733  31.275  1.00  0.00    -0.248 NA
ATOM     52  C   UNL A   1      42.418  29.543  29.802  1.00  0.00     0.031 C 
ATOM     53  C   UNL A   1      47.161  26.610  30.897  1.00  0.00     0.029 A 
ATOM     54  C   UNL A   1      46.105  27.516  31.019  1.00  0.00     0.049 A 
ATOM     55  H   UNL A   1      46.370  29.574  30.625  1.00  0.00     0.167 HD
ATOM     56  C   UNL A   1      43.710  28.165  31.154  1.00  0.00     0.074 A 
ATOM     57  C   UNL A   1      43.640  29.351  30.304  1.00  0.00     0.031 C 
ATOM     58  C   UNL A   1      44.760  27.374  31.528  1.00  0.00     0.037 A 
BRANCH  45  59
ATOM     59  C   UNL A   1      47.477  30.240  27.799  1.00  0.00     0.057 A 
ATOM     60  C   UNL A   1      46.414  31.140  27.575  1.00  0.00     0.134 A 
ATOM     61  C   UNL A   1      48.754  30.736  27.480  1.00  0.00     0.134 A 
ATOM     62  F   UNL A   1      45.144  30.783  27.825  1.00  0.00    -0.206 F 
ATOM     63  C   UNL A   1      46.604  32.411  27.018  1.00  0.00     0.040 A 
ATOM     64  C   UNL A   1      48.960  32.022  26.965  1.00  0.00     0.040 A 
ATOM     65  F   UNL A   1      49.850  29.971  27.556  1.00  0.00    -0.206 F 
ATOM     66  C   UNL A   1      47.881  32.854  26.705  1.00  0.00     0.006 A 
ENDBRANCH  45  59
BRANCH  46  67
ATOM     67  C   UNL A   1      39.288  28.302  29.458  1.00  0.00     0.057 A 
ATOM     68  C   UNL A   1      38.431  28.275  30.561  1.00  0.00     0.134 A 
ATOM     69  C   UNL A   1      38.880  29.090  28.365  1.00  0.00     0.134 A 
ATOM     70  F   UNL A   1      38.752  27.571  31.655  1.00  0.00    -0.206 F 
ATOM     71  C   UNL A   1      37.247  29.021  30.594  1.00  0.00     0.040 A 
ATOM     72  C   UNL A   1      37.698  29.834  28.382  1.00  0.00     0.040 A 
ATOM     73  F   UNL A   1      39.656  29.230  27.280  1.00  0.00    -0.206 F 
ATOM     74  C   UNL A   1      36.886  29.815  29.509  1.00  0.00     0.006 A 
ENDBRANCH  46  67
BRANCH  58  75
ATOM     75  C   UNL A   1      44.467  26.112  32.294  1.00  0.00     0.057 A 
ATOM     76  C   UNL A   1      44.335  24.849  31.697  1.00  0.00     0.134 A 
ATOM     77  C   UNL A   1      44.504  26.144  33.694  1.00  0.00     0.134 A 
ATOM     78  F   UNL A   1      44.388  24.702  30.369  1.00  0.00    -0.206 F 
ATOM     79  C   UNL A   1      44.211  23.680  32.454  1.00  0.00     0.040 A 
ATOM     80  C   UNL A   1      44.412  24.980  34.461  1.00  0.00     0.040 A 
ATOM     81  F   UNL A   1      44.689  27.307  34.338  1.00  0.00    -0.206 F 
ATOM     82  C   UNL A   1      44.257  23.743  33.843  1.00  0.00     0.006 A 
ENDBRANCH  58  75
ENDBRANCH  32  33
ENDBRANCH  24  27
ENDBRANCH  22  23
ENDBRANCH  21  22
ENDBRANCH   1  21
TORSDOF 14
ENDMDL
MODEL 3
REMARK VINA RESULT:     -11.2      4.912     10.028
REMARK SMILES Cc1cc(C)c2c(OCCCC(=O)NCCCNC(=O)c3ccc(-c4c5nc(c(-c6c(F)cccc6F)c6ccc([nH]6)c(-c6c(F)cccc6F)c6nc(c(-c7c(F)cccc7F)c7ccc4[nH]7)C=C6)C=C5)cc3)nsc2n1
REMARK SMILES IDX 15 1 14 2 12 3 13 4 11 6 10 7 9 8 8 9 7 10 1 11 2 12 3 13
REMARK SMILES IDX 78 14 4 15 77 16 5 17 6 18 76 19 75 20 16 21 17 22 18 23
REMARK SMILES IDX 19 24 20 26 21 27 22 28 74 29 23 30 73 31 24 32 25 33 26 34
REMARK SMILES IDX 67 35 27 36 72 37 66 38 68 39 28 40 71 41 65 42 64 43 29 45
REMARK SMILES IDX 55 46 38 47 54 48 39 49 42 50 53 51 69 52 40 53 41 54 52 56
REMARK SMILES IDX 70 57 43 58 30 59 31 60 36 61 32 62 33 63 35 64 37 65 34 66
REMARK SMILES IDX 56 67 57 68 62 69 58 70 59 71 61 72 63 73 60 74 44 75 45 76
REMARK SMILES IDX 50 77 46 78 47 79 49 80 51 81 48 82
REMARK H PARENT 14 5 18 25 68 44 42 55
REMARK Flexibility Score: inf
ROOT
ATOM      1  C   UNL A   1      35.103  33.749  27.781  1.00  0.00     0.117 C 
ENDROOT
BRANCH   1   2
ATOM      2  N   UNL A   1      34.988  32.207  27.680  1.00  0.00    -0.356 N 
ATOM      3  C   UNL A   1      34.270  31.056  27.497  1.00  0.00     0.220 C 
ATOM      4  O   UNL A   1      35.038  30.075  27.627  1.00  0.00    -0.275 OA
ATOM      5  H   UNL A   1      35.910  31.891  27.821  1.00  0.00     0.163 HD
BRANCH   3   6
ATOM      6  C   UNL A   1      32.780  30.668  27.011  1.00  0.00     0.103 C 
BRANCH   6   7
ATOM      7  C   UNL A   1      31.810  29.424  27.307  1.00  0.00     0.051 C 
BRANCH   7   8
ATOM      8  C   UNL A   1      31.992  27.852  27.115  1.00  0.00     0.232 C 
BRANCH   8   9
ATOM      9  O   UNL A   1      31.156  27.032  26.278  1.00  0.00    -0.477 OA
BRANCH   9  10
ATOM     10  C   UNL A   1      31.386  25.709  26.061  1.00  0.00     0.235 A 
ATOM     11  C   UNL A   1      36.291  23.278  26.065  1.00  0.00     0.067 C 
ATOM     12  C   UNL A   1      34.912  23.751  25.707  1.00  0.00     0.039 A 
ATOM     13  C   UNL A   1      34.792  24.850  24.873  1.00  0.00     0.027 A 
ATOM     14  N   UNL A   1      33.840  23.111  26.235  1.00  0.00    -0.240 NA
ATOM     15  C   UNL A   1      33.543  25.461  24.712  1.00  0.00    -0.034 A 
ATOM     16  C   UNL A   1      32.695  23.826  26.148  1.00  0.00     0.147 A 
ATOM     17  C   UNL A   1      33.212  26.428  23.663  1.00  0.00     0.045 C 
ATOM     18  C   UNL A   1      32.542  25.069  25.565  1.00  0.00     0.078 A 
ATOM     19  S   UNL A   1      31.152  23.358  26.695  1.00  0.00    -0.012 S 
ATOM     20  N   UNL A   1      30.466  24.889  26.569  1.00  0.00    -0.153 NA
ENDBRANCH   9  10
ENDBRANCH   8   9
ENDBRANCH   7   8
ENDBRANCH   6   7
ENDBRANCH   3   6
ENDBRANCH   1   2
BRANCH   1  21
ATOM     21  C   UNL A   1      34.920  34.315  29.231  1.00  0.00     0.042 C 
BRANCH  21  22
ATOM     22  C   UNL A   1      33.627  34.118  30.011  1.00  0.00     0.118 C 
BRANCH  22  23
ATOM     23  N   UNL A   1      33.185  35.290  30.784  1.00  0.00    -0.352 N 
ATOM     24  C   UNL A   1      33.291  35.451  32.185  1.00  0.00     0.251 C 
ATOM     25  H   UNL A   1      32.776  36.030  30.279  1.00  0.00     0.163 HD
ATOM     26  O   UNL A   1      32.586  36.172  32.816  1.00  0.00    -0.269 OA
BRANCH  24  27
ATOM     27  C   UNL A   1      34.371  34.667  32.791  1.00  0.00     0.039 A 
ATOM     28  C   UNL A   1      34.257  33.278  32.905  1.00  0.00     0.014 A 
ATOM     29  C   UNL A   1      35.599  35.316  32.833  1.00  0.00     0.014 A 
ATOM     30  C   UNL A   1      35.427  32.519  32.918  1.00  0.00     0.010 A 
ATOM     31  C   UNL A   1      36.725  34.549  32.657  1.00  0.00     0.010 A 
ATOM     32  C   UNL A   1      36.667  33.154  32.727  1.00  0.00    -0.014 A 
BRANCH  32  33
ATOM     33  C   UNL A   1      37.887  32.366  32.512  1.00  0.00     0.031 A 
ATOM     34  C   UNL A   1      38.788  32.122  33.686  1.00  0.00     0.074 A 
ATOM     35  C   UNL A   1      38.189  31.758  31.344  1.00  0.00     0.049 A 
ATOM     36  N   UNL A   1      39.962  32.631  33.884  1.00  0.00    -0.248 NA
ATOM     37  C   UNL A   1      38.330  31.259  34.784  1.00  0.00     0.031 C 
ATOM     38  C   UNL A   1      37.398  31.625  30.112  1.00  0.00     0.029 A 
ATOM     39  N   UNL A   1      39.316  31.055  31.046  1.00  0.00    -0.354 N 
ATOM     40  C   UNL A   1      40.467  32.051  35.048  1.00  0.00     0.074 A 
ATOM     41  C   UNL A   1      39.381  31.290  35.613  1.00  0.00     0.031 C 
ATOM     42  C   UNL A   1      37.960  30.706  29.302  1.00  0.00     0.029 A 
ATOM     43  C   UNL A   1      39.255  30.367  29.848  1.00  0.00     0.049 A 
ATOM     44  H   UNL A   1      40.106  31.038  31.633  1.00  0.00     0.167 HD
ATOM     45  C   UNL A   1      41.791  32.126  35.373  1.00  0.00     0.037 A 
ATOM     46  C   UNL A   1      40.220  29.611  29.285  1.00  0.00     0.037 A 
ATOM     47  C   UNL A   1      42.472  33.116  34.581  1.00  0.00     0.049 A 
ATOM     48  C   UNL A   1      41.512  30.076  29.837  1.00  0.00     0.074 A 
ATOM     49  C   UNL A   1      42.349  34.483  34.415  1.00  0.00     0.029 A 
ATOM     50  N   UNL A   1      43.231  32.688  33.520  1.00  0.00    -0.354 N 
ATOM     51  N   UNL A   1      42.028  31.248  29.581  1.00  0.00    -0.248 NA
ATOM     52  C   UNL A   1      42.029  29.412  31.022  1.00  0.00     0.031 C 
ATOM     53  C   UNL A   1      42.579  34.702  33.025  1.00  0.00     0.029 A 
ATOM     54  C   UNL A   1      42.877  33.466  32.447  1.00  0.00     0.049 A 
ATOM     55  H   UNL A   1      43.900  31.965  33.527  1.00  0.00     0.167 HD
ATOM     56  C   UNL A   1      42.610  31.648  30.775  1.00  0.00     0.074 A 
ATOM     57  C   UNL A   1      42.669  30.436  31.590  1.00  0.00     0.031 C 
ATOM     58  C   UNL A   1      42.744  32.969  31.097  1.00  0.00     0.037 A 
BRANCH  45  59
ATOM     59  C   UNL A   1      42.562  31.130  36.205  1.00  0.00     0.057 A 
ATOM     60  C   UNL A   1      43.311  31.573  37.315  1.00  0.00     0.134 A 
ATOM     61  C   UNL A   1      42.825  29.810  35.798  1.00  0.00     0.134 A 
ATOM     62  F   UNL A   1      43.165  32.819  37.792  1.00  0.00    -0.206 F 
ATOM     63  C   UNL A   1      44.291  30.783  37.930  1.00  0.00     0.040 A 
ATOM     64  C   UNL A   1      43.770  28.995  36.434  1.00  0.00     0.040 A 
ATOM     65  F   UNL A   1      42.257  29.278  34.708  1.00  0.00    -0.206 F 
ATOM     66  C   UNL A   1      44.527  29.490  37.486  1.00  0.00     0.006 A 
ENDBRANCH  45  59
BRANCH  46  67
ATOM     67  C   UNL A   1      40.047  28.393  28.475  1.00  0.00     0.057 A 
ATOM     68  C   UNL A   1      40.618  28.282  27.204  1.00  0.00     0.134 A 
ATOM     69  C   UNL A   1      39.534  27.209  29.038  1.00  0.00     0.134 A 
ATOM     70  F   UNL A   1      41.154  29.353  26.603  1.00  0.00    -0.206 F 
ATOM     71  C   UNL A   1      40.710  27.052  26.542  1.00  0.00     0.040 A 
ATOM     72  C   UNL A   1      39.613  25.977  28.385  1.00  0.00     0.040 A 
ATOM     73  F   UNL A   1      39.017  27.195  30.276  1.00  0.00    -0.206 F 
ATOM     74  C   UNL A   1      40.220  25.894  27.138  1.00  0.00     0.006 A 
ENDBRANCH  46  67
BRANCH  58  75
ATOM     75  C   UNL A   1      42.463  33.996  30.033  1.00  0.00     0.057 A 
ATOM     76  C   UNL A   1      43.392  34.380  29.054  1.00  0.00     0.134 A 
ATOM     77  C   UNL A   1      41.155  34.473  29.880  1.00  0.00     0.134 A 
ATOM     78  F   UNL A   1      44.640  33.899  29.056  1.00  0.00    -0.206 F 
ATOM     79  C   UNL A   1      43.046  35.226  27.995  1.00  0.00     0.040 A 
ATOM     80  C   UNL A   1      40.790  35.293  28.810  1.00  0.00     0.040 A 
ATOM     81  F   UNL A   1      40.195  34.101  30.741  1.00  0.00    -0.206 F 
ATOM     82  C   UNL A   1      41.737  35.679  27.866  1.00  0.00     0.006 A 
ENDBRANCH  58  75
ENDBRANCH  32  33
ENDBRANCH  24  27
ENDBRANCH  22  23
ENDBRANCH  21  22
ENDBRANCH   1  21
TORSDOF 14
ENDMDL
