MODEL 1
REMARK VINA RESULT:     -10.4      0.000      0.000
REMARK SMILES CC(C)N(CC(F)(F)F)C(=O)N(CC(=O)NCCCNC(=O)c1ccc(-c2c3nc(c(-c4c(F)cccc4F)c4ccc([nH]4)c(-c4c(F)cccc4F)c4nc(c(-c5c(F)cccc5F)c5ccc2[nH]5)C=C4)C=C3)cc1)C(C)(C)C
REMARK SMILES IDX 14 1 15 2 16 3 13 5 12 6 10 7 11 8 4 9 2 10 1 11 3 12 5 13
REMARK SMILES IDX 6 14 7 15 8 16 9 17 77 18 78 19 79 20 80 21 17 22 18 23
REMARK SMILES IDX 19 24 20 25 21 26 22 28 23 29 24 30 76 31 25 32 75 33 26 34
REMARK SMILES IDX 27 35 28 36 69 37 29 38 74 39 68 40 70 41 30 42 73 43 67 44
REMARK SMILES IDX 66 45 31 47 57 48 40 49 56 50 41 51 44 52 55 53 71 54 42 55
REMARK SMILES IDX 43 56 54 58 72 59 45 60 32 61 33 62 38 63 34 64 35 65 37 66
REMARK SMILES IDX 39 67 36 68 58 69 59 70 64 71 60 72 61 73 63 74 65 75 62 76
REMARK SMILES IDX 46 77 47 78 52 79 48 80 49 81 51 82 53 83 50 84
REMARK H PARENT 16 4 20 27 70 46 44 57
REMARK Flexibility Score: inf
ROOT
ATOM      1  C   UNL A   1      33.314  29.045  25.945  1.00  0.00     0.239 C 
ATOM      2  O   UNL A   1      34.403  28.801  26.474  1.00  0.00    -0.273 OA
ATOM      3  N   UNL A   1      32.547  30.012  26.517  1.00  0.00    -0.354 N 
ATOM      4  H   UNL A   1      32.777  30.237  27.448  1.00  0.00     0.163 HD
ENDROOT
BRANCH   1   5
ATOM      5  C   UNL A   1      32.935  28.390  24.608  1.00  0.00     0.221 C 
BRANCH   5   6
ATOM      6  N   UNL A   1      31.832  27.417  24.584  1.00  0.00    -0.311 N 
BRANCH   6   7
ATOM      7  C   UNL A   1      31.628  26.349  25.457  1.00  0.00     0.321 C 
ATOM      8  O   UNL A   1      31.175  26.589  26.581  1.00  0.00    -0.248 OA
BRANCH   7   9
ATOM      9  N   UNL A   1      31.870  25.016  25.143  1.00  0.00    -0.313 N 
BRANCH   9  10
ATOM     10  C   UNL A   1      33.230  24.679  24.612  1.00  0.00     0.081 C 
ATOM     11  C   UNL A   1      34.335  24.913  25.648  1.00  0.00     0.031 C 
ATOM     12  C   UNL A   1      33.336  23.298  23.953  1.00  0.00     0.031 C 
ENDBRANCH   9  10
BRANCH   9  13
ATOM     13  C   UNL A   1      30.942  23.854  25.071  1.00  0.00     0.237 C 
BRANCH  13  14
ATOM     14  C   UNL A   1      30.533  23.227  26.423  1.00  0.00     0.406 C 
ATOM     15  F   UNL A   1      29.535  23.903  27.032  1.00  0.00    -0.169 F 
ATOM     16  F   UNL A   1      30.097  21.959  26.247  1.00  0.00    -0.169 F 
ATOM     17  F   UNL A   1      31.569  23.177  27.293  1.00  0.00    -0.169 F 
ENDBRANCH  13  14
ENDBRANCH   9  13
ENDBRANCH   7   9
ENDBRANCH   6   7
BRANCH   6  18
ATOM     18  C   UNL A   1      30.878  27.530  23.381  1.00  0.00     0.037 C 
ATOM     19  C   UNL A   1      31.377  26.697  22.177  1.00  0.00     0.034 C 
ATOM     20  C   UNL A   1      29.443  27.090  23.765  1.00  0.00     0.034 C 
ATOM     21  C   UNL A   1      30.704  28.974  22.825  1.00  0.00     0.034 C 
ENDBRANCH   6  18
ENDBRANCH   5   6
ENDBRANCH   1   5
BRANCH   3  22
ATOM     22  C   UNL A   1      31.442  30.760  25.955  1.00  0.00     0.117 C 
BRANCH  22  23
ATOM     23  C   UNL A   1      31.302  32.158  26.522  1.00  0.00     0.042 C 
BRANCH  23  24
ATOM     24  C   UNL A   1      32.553  32.636  27.232  1.00  0.00     0.118 C 
BRANCH  24  25
ATOM     25  N   UNL A   1      32.462  34.039  27.614  1.00  0.00    -0.352 N 
ATOM     26  C   UNL A   1      33.155  34.719  28.584  1.00  0.00     0.251 C 
ATOM     27  H   UNL A   1      31.813  34.575  27.103  1.00  0.00     0.163 HD
ATOM     28  O   UNL A   1      32.799  35.841  28.925  1.00  0.00    -0.269 OA
BRANCH  26  29
ATOM     29  C   UNL A   1      34.319  34.079  29.231  1.00  0.00     0.039 A 
ATOM     30  C   UNL A   1      34.103  33.107  30.209  1.00  0.00     0.014 A 
ATOM     31  C   UNL A   1      35.621  34.428  28.861  1.00  0.00     0.014 A 
ATOM     32  C   UNL A   1      35.195  32.444  30.772  1.00  0.00     0.010 A 
ATOM     33  C   UNL A   1      36.697  33.691  29.339  1.00  0.00     0.010 A 
ATOM     34  C   UNL A   1      36.498  32.704  30.314  1.00  0.00    -0.014 A 
BRANCH  34  35
ATOM     35  C   UNL A   1      37.665  31.968  30.861  1.00  0.00     0.031 A 
ATOM     36  C   UNL A   1      38.177  32.284  32.242  1.00  0.00     0.074 A 
ATOM     37  C   UNL A   1      38.296  31.056  30.096  1.00  0.00     0.049 A 
ATOM     38  N   UNL A   1      39.201  31.777  32.879  1.00  0.00    -0.248 NA
ATOM     39  C   UNL A   1      37.465  33.331  32.993  1.00  0.00     0.031 C 
ATOM     40  C   UNL A   1      37.938  30.711  28.719  1.00  0.00     0.029 A 
ATOM     41  N   UNL A   1      39.374  30.253  30.369  1.00  0.00    -0.354 N 
ATOM     42  C   UNL A   1      39.262  32.451  34.092  1.00  0.00     0.074 A 
ATOM     43  C   UNL A   1      38.217  33.450  34.075  1.00  0.00     0.031 C 
ATOM     44  C   UNL A   1      38.756  29.740  28.282  1.00  0.00     0.029 A 
ATOM     45  C   UNL A   1      39.720  29.423  29.330  1.00  0.00     0.049 A 
ATOM     46  H   UNL A   1      39.855  30.269  31.228  1.00  0.00     0.167 HD
ATOM     47  C   UNL A   1      40.093  32.238  35.139  1.00  0.00     0.037 A 
ATOM     48  C   UNL A   1      40.704  28.509  29.235  1.00  0.00     0.037 A 
ATOM     49  C   UNL A   1      41.110  31.222  35.163  1.00  0.00     0.049 A 
ATOM     50  C   UNL A   1      41.607  28.283  30.416  1.00  0.00     0.074 A 
ATOM     51  C   UNL A   1      41.961  30.879  36.200  1.00  0.00     0.029 A 
ATOM     52  N   UNL A   1      41.416  30.386  34.100  1.00  0.00    -0.354 N 
ATOM     53  N   UNL A   1      41.600  28.873  31.588  1.00  0.00    -0.248 NA
ATOM     54  C   UNL A   1      42.648  27.258  30.266  1.00  0.00     0.031 C 
ATOM     55  C   UNL A   1      42.814  29.867  35.746  1.00  0.00     0.029 A 
ATOM     56  C   UNL A   1      42.457  29.541  34.447  1.00  0.00     0.049 A 
ATOM     57  H   UNL A   1      40.959  30.391  33.228  1.00  0.00     0.167 HD
ATOM     58  C   UNL A   1      42.614  28.271  32.322  1.00  0.00     0.074 A 
ATOM     59  C   UNL A   1      43.202  27.258  31.470  1.00  0.00     0.031 C 
ATOM     60  C   UNL A   1      43.024  28.534  33.588  1.00  0.00     0.037 A 
BRANCH  47  61
ATOM     61  C   UNL A   1      39.927  33.114  36.348  1.00  0.00     0.057 A 
ATOM     62  C   UNL A   1      40.655  34.302  36.508  1.00  0.00     0.134 A 
ATOM     63  C   UNL A   1      39.002  32.787  37.347  1.00  0.00     0.134 A 
ATOM     64  F   UNL A   1      41.567  34.668  35.595  1.00  0.00    -0.206 F 
ATOM     65  C   UNL A   1      40.489  35.115  37.631  1.00  0.00     0.040 A 
ATOM     66  C   UNL A   1      38.806  33.608  38.459  1.00  0.00     0.040 A 
ATOM     67  F   UNL A   1      38.267  31.668  37.257  1.00  0.00    -0.206 F 
ATOM     68  C   UNL A   1      39.556  34.773  38.605  1.00  0.00     0.006 A 
ENDBRANCH  47  61
BRANCH  48  69
ATOM     69  C   UNL A   1      40.870  27.717  27.989  1.00  0.00     0.057 A 
ATOM     70  C   UNL A   1      40.258  26.467  27.838  1.00  0.00     0.134 A 
ATOM     71  C   UNL A   1      41.654  28.182  26.927  1.00  0.00     0.134 A 
ATOM     72  F   UNL A   1      39.508  25.959  28.828  1.00  0.00    -0.206 F 
ATOM     73  C   UNL A   1      40.439  25.697  26.689  1.00  0.00     0.040 A 
ATOM     74  C   UNL A   1      41.821  27.435  25.759  1.00  0.00     0.040 A 
ATOM     75  F   UNL A   1      42.260  29.376  27.003  1.00  0.00    -0.206 F 
ATOM     76  C   UNL A   1      41.220  26.183  25.642  1.00  0.00     0.006 A 
ENDBRANCH  48  69
BRANCH  60  77
ATOM     77  C   UNL A   1      44.135  27.687  34.138  1.00  0.00     0.057 A 
ATOM     78  C   UNL A   1      45.474  28.092  34.079  1.00  0.00     0.134 A 
ATOM     79  C   UNL A   1      43.853  26.467  34.766  1.00  0.00     0.134 A 
ATOM     80  F   UNL A   1      45.811  29.243  33.481  1.00  0.00    -0.206 F 
ATOM     81  C   UNL A   1      46.498  27.297  34.598  1.00  0.00     0.040 A 
ATOM     82  C   UNL A   1      44.865  25.679  35.317  1.00  0.00     0.040 A 
ATOM     83  F   UNL A   1      42.590  26.027  34.868  1.00  0.00    -0.206 F 
ATOM     84  C   UNL A   1      46.193  26.090  35.225  1.00  0.00     0.006 A 
ENDBRANCH  60  77
ENDBRANCH  34  35
ENDBRANCH  26  29
ENDBRANCH  24  25
ENDBRANCH  23  24
ENDBRANCH  22  23
ENDBRANCH   3  22
TORSDOF 17
ENDMDL
MODEL 2
REMARK VINA RESULT:     -10.4      4.231      8.576
REMARK SMILES CC(C)N(CC(F)(F)F)C(=O)N(CC(=O)NCCCNC(=O)c1ccc(-c2c3nc(c(-c4c(F)cccc4F)c4ccc([nH]4)c(-c4c(F)cccc4F)c4nc(c(-c5c(F)cccc5F)c5ccc2[nH]5)C=C4)C=C3)cc1)C(C)(C)C
REMARK SMILES IDX 14 1 15 2 16 3 13 5 12 6 10 7 11 8 4 9 2 10 1 11 3 12 5 13
REMARK SMILES IDX 6 14 7 15 8 16 9 17 77 18 78 19 79 20 80 21 17 22 18 23
REMARK SMILES IDX 19 24 20 25 21 26 22 28 23 29 24 30 76 31 25 32 75 33 26 34
REMARK SMILES IDX 27 35 28 36 69 37 29 38 74 39 68 40 70 41 30 42 73 43 67 44
REMARK SMILES IDX 66 45 31 47 57 48 40 49 56 50 41 51 44 52 55 53 71 54 42 55
REMARK SMILES IDX 43 56 54 58 72 59 45 60 32 61 33 62 38 63 34 64 35 65 37 66
REMARK SMILES IDX 39 67 36 68 58 69 59 70 64 71 60 72 61 73 63 74 65 75 62 76
REMARK SMILES IDX 46 77 47 78 52 79 48 80 49 81 51 82 53 83 50 84
REMARK H PARENT 16 4 20 27 70 46 44 57
REMARK Flexibility Score: inf
ROOT
ATOM      1  C   UNL A   1      34.919  22.757  26.508  1.00  0.00     0.239 C 
ATOM      2  O   UNL A   1      34.405  22.721  27.630  1.00  0.00    -0.273 OA
ATOM      3  N   UNL A   1      35.775  21.750  26.184  1.00  0.00    -0.354 N 
ATOM      4  H   UNL A   1      36.136  21.242  26.948  1.00  0.00     0.163 HD
ENDROOT
BRANCH   1   5
ATOM      5  C   UNL A   1      34.472  23.806  25.480  1.00  0.00     0.221 C 
BRANCH   5   6
ATOM      6  N   UNL A   1      33.033  24.070  25.318  1.00  0.00    -0.311 N 
BRANCH   6   7
ATOM      7  C   UNL A   1      32.281  25.064  25.943  1.00  0.00     0.321 C 
ATOM      8  O   UNL A   1      31.554  24.742  26.889  1.00  0.00    -0.248 OA
BRANCH   7   9
ATOM      9  N   UNL A   1      32.311  26.411  25.598  1.00  0.00    -0.313 N 
BRANCH   9  10
ATOM     10  C   UNL A   1      32.747  27.376  26.658  1.00  0.00     0.081 C 
ATOM     11  C   UNL A   1      33.835  28.335  26.163  1.00  0.00     0.031 C 
ATOM     12  C   UNL A   1      31.602  28.112  27.364  1.00  0.00     0.031 C 
ENDBRANCH   9  10
BRANCH   9  13
ATOM     13  C   UNL A   1      31.809  27.110  24.383  1.00  0.00     0.237 C 
BRANCH  13  14
ATOM     14  C   UNL A   1      32.684  26.981  23.115  1.00  0.00     0.406 C 
ATOM     15  F   UNL A   1      32.920  28.171  22.521  1.00  0.00    -0.169 F 
ATOM     16  F   UNL A   1      33.889  26.450  23.420  1.00  0.00    -0.169 F 
ATOM     17  F   UNL A   1      32.115  26.178  22.186  1.00  0.00    -0.169 F 
ENDBRANCH  13  14
ENDBRANCH   9  13
ENDBRANCH   7   9
ENDBRANCH   6   7
BRANCH   6  18
ATOM     18  C   UNL A   1      32.266  23.050  24.458  1.00  0.00     0.037 C 
ATOM     19  C   UNL A   1      33.106  22.580  23.247  1.00  0.00     0.034 C 
ATOM     20  C   UNL A   1      31.830  21.826  25.302  1.00  0.00     0.034 C 
ATOM     21  C   UNL A   1      30.941  23.587  23.843  1.00  0.00     0.034 C 
ENDBRANCH   6  18
ENDBRANCH   5   6
ENDBRANCH   1   5
BRANCH   3  22
ATOM     22  C   UNL A   1      36.232  21.317  24.881  1.00  0.00     0.117 C 
BRANCH  22  23
ATOM     23  C   UNL A   1      37.302  20.245  24.936  1.00  0.00     0.042 C 
BRANCH  23  24
ATOM     24  C   UNL A   1      38.584  20.721  25.590  1.00  0.00     0.118 C 
BRANCH  24  25
ATOM     25  N   UNL A   1      39.585  19.665  25.663  1.00  0.00    -0.352 N 
ATOM     26  C   UNL A   1      40.916  19.755  25.987  1.00  0.00     0.251 C 
ATOM     27  H   UNL A   1      39.260  18.760  25.452  1.00  0.00     0.163 HD
ATOM     28  O   UNL A   1      41.665  18.807  25.785  1.00  0.00    -0.269 OA
BRANCH  26  29
ATOM     29  C   UNL A   1      41.442  21.011  26.560  1.00  0.00     0.039 A 
ATOM     30  C   UNL A   1      41.911  22.006  25.700  1.00  0.00     0.014 A 
ATOM     31  C   UNL A   1      41.458  21.212  27.943  1.00  0.00     0.014 A 
ATOM     32  C   UNL A   1      42.341  23.224  26.228  1.00  0.00     0.010 A 
ATOM     33  C   UNL A   1      41.780  22.462  28.457  1.00  0.00     0.010 A 
ATOM     34  C   UNL A   1      42.243  23.476  27.608  1.00  0.00    -0.014 A 
BRANCH  34  35
ATOM     35  C   UNL A   1      42.642  24.786  28.179  1.00  0.00     0.031 A 
ATOM     36  C   UNL A   1      41.610  25.860  28.396  1.00  0.00     0.074 A 
ATOM     37  C   UNL A   1      43.940  25.026  28.453  1.00  0.00     0.049 A 
ATOM     38  N   UNL A   1      41.767  27.078  28.849  1.00  0.00    -0.248 NA
ATOM     39  C   UNL A   1      40.223  25.537  28.021  1.00  0.00     0.031 C 
ATOM     40  C   UNL A   1      45.042  24.091  28.223  1.00  0.00     0.029 A 
ATOM     41  N   UNL A   1      44.550  26.135  28.982  1.00  0.00    -0.354 N 
ATOM     42  C   UNL A   1      40.509  27.664  28.801  1.00  0.00     0.074 A 
ATOM     43  C   UNL A   1      39.612  26.696  28.210  1.00  0.00     0.031 C 
ATOM     44  C   UNL A   1      46.188  24.649  28.645  1.00  0.00     0.029 A 
ATOM     45  C   UNL A   1      45.909  25.994  29.136  1.00  0.00     0.049 A 
ATOM     46  H   UNL A   1      44.062  26.953  29.228  1.00  0.00     0.167 HD
ATOM     47  C   UNL A   1      40.126  28.887  29.237  1.00  0.00     0.037 A 
ATOM     48  C   UNL A   1      46.824  26.854  29.620  1.00  0.00     0.037 A 
ATOM     49  C   UNL A   1      41.016  29.835  29.853  1.00  0.00     0.049 A 
ATOM     50  C   UNL A   1      46.373  28.203  30.109  1.00  0.00     0.074 A 
ATOM     51  C   UNL A   1      40.717  31.074  30.390  1.00  0.00     0.029 A 
ATOM     52  N   UNL A   1      42.381  29.647  30.012  1.00  0.00    -0.354 N 
ATOM     53  N   UNL A   1      45.164  28.713  30.131  1.00  0.00    -0.248 NA
ATOM     54  C   UNL A   1      47.410  29.092  30.647  1.00  0.00     0.031 C 
ATOM     55  C   UNL A   1      41.909  31.658  30.831  1.00  0.00     0.029 A 
ATOM     56  C   UNL A   1      42.942  30.757  30.619  1.00  0.00     0.049 A 
ATOM     57  H   UNL A   1      42.877  28.843  29.735  1.00  0.00     0.167 HD
ATOM     58  C   UNL A   1      45.292  29.968  30.712  1.00  0.00     0.074 A 
ATOM     59  C   UNL A   1      46.692  30.134  31.044  1.00  0.00     0.031 C 
ATOM     60  C   UNL A   1      44.337  30.902  30.948  1.00  0.00     0.037 A 
BRANCH  47  61
ATOM     61  C   UNL A   1      38.682  29.263  29.073  1.00  0.00     0.057 A 
ATOM     62  C   UNL A   1      38.150  29.638  27.831  1.00  0.00     0.134 A 
ATOM     63  C   UNL A   1      37.802  29.216  30.161  1.00  0.00     0.134 A 
ATOM     64  F   UNL A   1      38.941  29.718  26.750  1.00  0.00    -0.206 F 
ATOM     65  C   UNL A   1      36.804  29.979  27.684  1.00  0.00     0.040 A 
ATOM     66  C   UNL A   1      36.447  29.524  30.020  1.00  0.00     0.040 A 
ATOM     67  F   UNL A   1      38.240  28.860  31.379  1.00  0.00    -0.206 F 
ATOM     68  C   UNL A   1      35.947  29.914  28.780  1.00  0.00     0.006 A 
ENDBRANCH  47  61
BRANCH  48  69
ATOM     69  C   UNL A   1      48.254  26.459  29.695  1.00  0.00     0.057 A 
ATOM     70  C   UNL A   1      48.769  25.817  30.828  1.00  0.00     0.134 A 
ATOM     71  C   UNL A   1      49.142  26.724  28.646  1.00  0.00     0.134 A 
ATOM     72  F   UNL A   1      47.973  25.552  31.874  1.00  0.00    -0.206 F 
ATOM     73  C   UNL A   1      50.119  25.477  30.927  1.00  0.00     0.040 A 
ATOM     74  C   UNL A   1      50.489  26.363  28.719  1.00  0.00     0.040 A 
ATOM     75  F   UNL A   1      48.711  27.327  27.529  1.00  0.00    -0.206 F 
ATOM     76  C   UNL A   1      50.983  25.746  29.867  1.00  0.00     0.006 A 
ENDBRANCH  48  69
BRANCH  60  77
ATOM     77  C   UNL A   1      44.769  32.167  31.631  1.00  0.00     0.057 A 
ATOM     78  C   UNL A   1      45.173  33.298  30.910  1.00  0.00     0.134 A 
ATOM     79  C   UNL A   1      44.748  32.263  33.028  1.00  0.00     0.134 A 
ATOM     80  F   UNL A   1      45.227  33.267  29.570  1.00  0.00    -0.206 F 
ATOM     81  C   UNL A   1      45.569  34.470  31.556  1.00  0.00     0.040 A 
ATOM     82  C   UNL A   1      45.112  33.440  33.684  1.00  0.00     0.040 A 
ATOM     83  F   UNL A   1      44.360  31.220  33.778  1.00  0.00    -0.206 F 
ATOM     84  C   UNL A   1      45.532  34.545  32.948  1.00  0.00     0.006 A 
ENDBRANCH  60  77
ENDBRANCH  34  35
ENDBRANCH  26  29
ENDBRANCH  24  25
ENDBRANCH  23  24
ENDBRANCH  22  23
ENDBRANCH   3  22
TORSDOF 17
ENDMDL
MODEL 3
REMARK VINA RESULT:     -10.3      4.984      9.072
REMARK SMILES CC(C)N(CC(F)(F)F)C(=O)N(CC(=O)NCCCNC(=O)c1ccc(-c2c3nc(c(-c4c(F)cccc4F)c4ccc([nH]4)c(-c4c(F)cccc4F)c4nc(c(-c5c(F)cccc5F)c5ccc2[nH]5)C=C4)C=C3)cc1)C(C)(C)C
REMARK SMILES IDX 14 1 15 2 16 3 13 5 12 6 10 7 11 8 4 9 2 10 1 11 3 12 5 13
REMARK SMILES IDX 6 14 7 15 8 16 9 17 77 18 78 19 79 20 80 21 17 22 18 23
REMARK SMILES IDX 19 24 20 25 21 26 22 28 23 29 24 30 76 31 25 32 75 33 26 34
REMARK SMILES IDX 27 35 28 36 69 37 29 38 74 39 68 40 70 41 30 42 73 43 67 44
REMARK SMILES IDX 66 45 31 47 57 48 40 49 56 50 41 51 44 52 55 53 71 54 42 55
REMARK SMILES IDX 43 56 54 58 72 59 45 60 32 61 33 62 38 63 34 64 35 65 37 66
REMARK SMILES IDX 39 67 36 68 58 69 59 70 64 71 60 72 61 73 63 74 65 75 62 76
REMARK SMILES IDX 46 77 47 78 52 79 48 80 49 81 51 82 53 83 50 84
REMARK H PARENT 16 4 20 27 70 46 44 57
REMARK Flexibility Score: inf
ROOT
ATOM      1  C   UNL A   1      36.246  23.169  25.539  1.00  0.00     0.239 C 
ATOM      2  O   UNL A   1      36.829  24.187  25.927  1.00  0.00    -0.273 OA
ATOM      3  N   UNL A   1      37.019  22.122  25.144  1.00  0.00    -0.354 N 
ATOM      4  H   UNL A   1      37.954  22.347  24.926  1.00  0.00     0.163 HD
ENDROOT
BRANCH   1   5
ATOM      5  C   UNL A   1      34.719  23.052  25.663  1.00  0.00     0.221 C 
BRANCH   5   6
ATOM      6  N   UNL A   1      33.898  23.188  24.449  1.00  0.00    -0.311 N 
BRANCH   6   7
ATOM      7  C   UNL A   1      34.025  24.148  23.446  1.00  0.00     0.321 C 
ATOM      8  O   UNL A   1      34.582  23.825  22.392  1.00  0.00    -0.248 OA
BRANCH   7   9
ATOM      9  N   UNL A   1      33.540  25.448  23.534  1.00  0.00    -0.313 N 
BRANCH   9  10
ATOM     10  C   UNL A   1      33.377  26.201  22.248  1.00  0.00     0.081 C 
ATOM     11  C   UNL A   1      32.015  25.948  21.593  1.00  0.00     0.031 C 
ATOM     12  C   UNL A   1      33.710  27.696  22.334  1.00  0.00     0.031 C 
ENDBRANCH   9  10
BRANCH   9  13
ATOM     13  C   UNL A   1      33.309  26.318  24.720  1.00  0.00     0.237 C 
BRANCH  13  14
ATOM     14  C   UNL A   1      31.961  26.126  25.451  1.00  0.00     0.406 C 
ATOM     15  F   UNL A   1      31.341  27.296  25.717  1.00  0.00    -0.169 F 
ATOM     16  F   UNL A   1      31.111  25.395  24.696  1.00  0.00    -0.169 F 
ATOM     17  F   UNL A   1      32.111  25.478  26.629  1.00  0.00    -0.169 F 
ENDBRANCH  13  14
ENDBRANCH   9  13
ENDBRANCH   7   9
ENDBRANCH   6   7
BRANCH   6  18
ATOM     18  C   UNL A   1      32.693  22.234  24.357  1.00  0.00     0.037 C 
ATOM     19  C   UNL A   1      31.830  22.280  25.639  1.00  0.00     0.034 C 
ATOM     20  C   UNL A   1      31.817  22.562  23.121  1.00  0.00     0.034 C 
ATOM     21  C   UNL A   1      33.067  20.734  24.178  1.00  0.00     0.034 C 
ENDBRANCH   6  18
ENDBRANCH   5   6
ENDBRANCH   1   5
BRANCH   3  22
ATOM     22  C   UNL A   1      36.668  20.725  24.998  1.00  0.00     0.117 C 
BRANCH  22  23
ATOM     23  C   UNL A   1      37.866  19.807  24.867  1.00  0.00     0.042 C 
BRANCH  23  24
ATOM     24  C   UNL A   1      39.047  20.253  25.706  1.00  0.00     0.118 C 
BRANCH  24  25
ATOM     25  N   UNL A   1      40.035  19.193  25.866  1.00  0.00    -0.352 N 
ATOM     26  C   UNL A   1      41.384  19.295  26.097  1.00  0.00     0.251 C 
ATOM     27  H   UNL A   1      39.684  18.275  25.799  1.00  0.00     0.163 HD
ATOM     28  O   UNL A   1      42.105  18.311  25.984  1.00  0.00    -0.269 OA
BRANCH  26  29
ATOM     29  C   UNL A   1      41.963  20.605  26.461  1.00  0.00     0.039 A 
ATOM     30  C   UNL A   1      42.307  21.500  25.447  1.00  0.00     0.014 A 
ATOM     31  C   UNL A   1      42.151  20.953  27.802  1.00  0.00     0.014 A 
ATOM     32  C   UNL A   1      42.786  22.768  25.784  1.00  0.00     0.010 A 
ATOM     33  C   UNL A   1      42.519  22.250  28.134  1.00  0.00     0.010 A 
ATOM     34  C   UNL A   1      42.860  23.166  27.130  1.00  0.00    -0.014 A 
BRANCH  34  35
ATOM     35  C   UNL A   1      43.311  24.529  27.504  1.00  0.00     0.031 A 
ATOM     36  C   UNL A   1      42.304  25.575  27.903  1.00  0.00     0.074 A 
ATOM     37  C   UNL A   1      44.621  24.841  27.432  1.00  0.00     0.049 A 
ATOM     38  N   UNL A   1      42.498  26.828  28.228  1.00  0.00    -0.248 NA
ATOM     39  C   UNL A   1      40.888  25.171  27.904  1.00  0.00     0.031 C 
ATOM     40  C   UNL A   1      45.685  23.935  26.994  1.00  0.00     0.029 A 
ATOM     41  N   UNL A   1      45.278  26.008  27.724  1.00  0.00    -0.354 N 
ATOM     42  C   UNL A   1      41.235  27.358  28.457  1.00  0.00     0.074 A 
ATOM     43  C   UNL A   1      40.278  26.315  28.167  1.00  0.00     0.031 C 
ATOM     44  C   UNL A   1      46.865  24.568  27.084  1.00  0.00     0.029 A 
ATOM     45  C   UNL A   1      46.639  25.933  27.546  1.00  0.00     0.049 A 
ATOM     46  H   UNL A   1      44.820  26.823  28.033  1.00  0.00     0.167 HD
ATOM     47  C   UNL A   1      40.903  28.594  28.898  1.00  0.00     0.037 A 
ATOM     48  C   UNL A   1      47.595  26.862  27.734  1.00  0.00     0.037 A 
ATOM     49  C   UNL A   1      41.861  29.619  29.215  1.00  0.00     0.049 A 
ATOM     50  C   UNL A   1      47.201  28.225  28.235  1.00  0.00     0.074 A 
ATOM     51  C   UNL A   1      41.633  30.882  29.733  1.00  0.00     0.029 A 
ATOM     52  N   UNL A   1      43.232  29.498  29.042  1.00  0.00    -0.354 N 
ATOM     53  N   UNL A   1      46.008  28.686  28.525  1.00  0.00    -0.248 NA
ATOM     54  C   UNL A   1      48.287  29.191  28.445  1.00  0.00     0.031 C 
ATOM     55  C   UNL A   1      42.861  31.543  29.827  1.00  0.00     0.029 A 
ATOM     56  C   UNL A   1      43.861  30.671  29.422  1.00  0.00     0.049 A 
ATOM     57  H   UNL A   1      43.689  28.696  28.701  1.00  0.00     0.167 HD
ATOM     58  C   UNL A   1      46.202  29.985  28.978  1.00  0.00     0.074 A 
ATOM     59  C   UNL A   1      47.630  30.230  28.942  1.00  0.00     0.031 C 
ATOM     60  C   UNL A   1      45.283  30.895  29.386  1.00  0.00     0.037 A 
BRANCH  47  61
ATOM     61  C   UNL A   1      39.443  28.899  29.074  1.00  0.00     0.057 A 
ATOM     62  C   UNL A   1      38.650  29.365  28.016  1.00  0.00     0.134 A 
ATOM     63  C   UNL A   1      38.812  28.692  30.307  1.00  0.00     0.134 A 
ATOM     64  F   UNL A   1      39.194  29.599  26.812  1.00  0.00    -0.206 F 
ATOM     65  C   UNL A   1      37.292  29.639  28.185  1.00  0.00     0.040 A 
ATOM     66  C   UNL A   1      37.447  28.933  30.480  1.00  0.00     0.040 A 
ATOM     67  F   UNL A   1      39.508  28.242  31.363  1.00  0.00    -0.206 F 
ATOM     68  C   UNL A   1      36.685  29.415  29.418  1.00  0.00     0.006 A 
ENDBRANCH  47  61
BRANCH  48  69
ATOM     69  C   UNL A   1      49.019  26.530  27.476  1.00  0.00     0.057 A 
ATOM     70  C   UNL A   1      49.603  26.764  26.225  1.00  0.00     0.134 A 
ATOM     71  C   UNL A   1      49.828  25.958  28.466  1.00  0.00     0.134 A 
ATOM     72  F   UNL A   1      48.876  27.293  25.230  1.00  0.00    -0.206 F 
ATOM     73  C   UNL A   1      50.929  26.420  25.959  1.00  0.00     0.040 A 
ATOM     74  C   UNL A   1      51.164  25.635  28.223  1.00  0.00     0.040 A 
ATOM     75  F   UNL A   1      49.333  25.717  29.689  1.00  0.00    -0.206 F 
ATOM     76  C   UNL A   1      51.715  25.857  26.962  1.00  0.00     0.006 A 
ENDBRANCH  48  69
BRANCH  60  77
ATOM     77  C   UNL A   1      45.797  32.222  29.861  1.00  0.00     0.057 A 
ATOM     78  C   UNL A   1      45.937  33.315  28.997  1.00  0.00     0.134 A 
ATOM     79  C   UNL A   1      46.122  32.416  31.210  1.00  0.00     0.134 A 
ATOM     80  F   UNL A   1      45.654  33.192  27.692  1.00  0.00    -0.206 F 
ATOM     81  C   UNL A   1      46.412  34.547  29.452  1.00  0.00     0.040 A 
ATOM     82  C   UNL A   1      46.569  33.652  31.682  1.00  0.00     0.040 A 
ATOM     83  F   UNL A   1      45.999  31.414  32.093  1.00  0.00    -0.206 F 
ATOM     84  C   UNL A   1      46.723  34.719  30.800  1.00  0.00     0.006 A 
ENDBRANCH  60  77
ENDBRANCH  34  35
ENDBRANCH  26  29
ENDBRANCH  24  25
ENDBRANCH  23  24
ENDBRANCH  22  23
ENDBRANCH   3  22
TORSDOF 17
ENDMDL
