MODEL 1
REMARK VINA RESULT:     -12.2      0.000      0.000
REMARK SMILES CC1CC[NH+](CC(=O)N[C@H](Cc2cccc(F)c2)C(=O)NCCCNC(=O)c2ccc(-c3c4nc(c(-c5c(F)cccc5F)c5ccc([nH]5)c(-c5c(F)cccc5F)c5nc(c(-c6c(F)cccc6F)c6ccc3[nH]6)C=C5)C=C4)cc2)CC1
REMARK SMILES IDX 22 1 21 2 19 3 20 4 10 6 9 7 7 8 8 9 6 11 5 12 1 13 2 14
REMARK SMILES IDX 3 15 83 16 4 17 82 18 11 20 12 21 13 22 18 23 14 24 16 25
REMARK SMILES IDX 15 26 17 27 23 28 24 29 25 30 26 31 27 33 28 34 29 35 81 36
REMARK SMILES IDX 30 37 80 38 31 39 32 40 33 41 74 42 34 43 79 44 73 45 75 46
REMARK SMILES IDX 35 47 78 48 72 49 71 50 36 52 62 53 45 54 61 55 46 56 49 57
REMARK SMILES IDX 60 58 76 59 47 60 48 61 59 63 77 64 50 65 37 66 38 67 43 68
REMARK SMILES IDX 39 69 40 70 42 71 44 72 41 73 63 74 64 75 69 76 65 77 66 78
REMARK SMILES IDX 68 79 70 80 67 81 51 82 52 83 57 84 53 85 54 86 56 87 58 88
REMARK SMILES IDX 55 89
REMARK H PARENT 21 5 9 10 5 19 25 32 75 51 49 62
REMARK Flexibility Score: inf
ROOT
ATOM      1  C   UNL A   1      36.198  21.692  25.102  1.00  0.00     0.117 C 
ENDROOT
BRANCH   1   2
ATOM      2  N   UNL A   1      35.745  21.788  26.483  1.00  0.00    -0.354 N 
ATOM      3  C   UNL A   1      34.464  21.921  26.950  1.00  0.00     0.242 C 
ATOM      4  O   UNL A   1      34.289  22.520  28.012  1.00  0.00    -0.273 OA
ATOM      5  H   UNL A   1      36.450  21.755  27.170  1.00  0.00     0.163 HD
BRANCH   3   6
ATOM      6  C   UNL A   1      33.289  21.377  26.119  1.00  0.00     0.175 C 
BRANCH   6   7
ATOM      7  N   UNL A   1      32.099  22.067  26.660  1.00  0.00    -0.339 N 
ATOM      8  C   UNL A   1      31.544  23.295  26.530  1.00  0.00     0.275 C 
ATOM      9  O   UNL A   1      30.605  23.542  27.294  1.00  0.00    -0.268 OA
ATOM     10  H   UNL A   1      31.582  21.490  27.268  1.00  0.00     0.164 HD
BRANCH   8  11
ATOM     11  C   UNL A   1      31.983  24.279  25.465  1.00  0.00     0.363 C 
BRANCH  11  12
ATOM     12  N   UNL A   1      33.289  24.939  25.600  1.00  0.00    -0.327 N 
ATOM     13  C   UNL A   1      32.790  27.824  22.588  1.00  0.00     0.008 C 
ATOM     14  C   UNL A   1      33.626  27.136  23.671  1.00  0.00    -0.003 C 
ATOM     15  C   UNL A   1      33.839  25.662  23.291  1.00  0.00     0.065 C 
ATOM     16  C   UNL A   1      32.965  27.357  25.039  1.00  0.00     0.065 C 
ATOM     17  C   UNL A   1      34.186  24.765  24.469  1.00  0.00     0.262 C 
ATOM     18  C   UNL A   1      33.335  26.308  26.083  1.00  0.00     0.262 C 
ATOM     19  H   UNL A   1      33.641  24.392  26.385  1.00  0.00     0.348 HD
ENDBRANCH  11  12
ENDBRANCH   8  11
ENDBRANCH   6   7
BRANCH   6  20
ATOM     20  C   UNL A   1      33.287  19.832  26.111  1.00  0.00     0.070 C 
BRANCH  20  21
ATOM     21  C   UNL A   1      33.241  19.244  24.713  1.00  0.00    -0.043 A 
ATOM     22  C   UNL A   1      32.431  19.822  23.721  1.00  0.00     0.004 A 
ATOM     23  C   UNL A   1      33.905  18.045  24.425  1.00  0.00     0.043 A 
ATOM     24  C   UNL A   1      32.173  19.139  22.528  1.00  0.00     0.003 A 
ATOM     25  C   UNL A   1      33.618  17.361  23.246  1.00  0.00     0.123 A 
ATOM     26  C   UNL A   1      32.739  17.886  22.308  1.00  0.00     0.039 A 
ATOM     27  F   UNL A   1      34.136  16.140  23.056  1.00  0.00    -0.207 F 
ENDBRANCH  20  21
ENDBRANCH   6  20
ENDBRANCH   3   6
ENDBRANCH   1   2
BRANCH   1  28
ATOM     28  C   UNL A   1      37.220  20.576  24.962  1.00  0.00     0.042 C 
BRANCH  28  29
ATOM     29  C   UNL A   1      38.552  20.942  25.594  1.00  0.00     0.118 C 
BRANCH  29  30
ATOM     30  N   UNL A   1      39.440  19.789  25.678  1.00  0.00    -0.352 N 
ATOM     31  C   UNL A   1      40.786  19.760  25.947  1.00  0.00     0.251 C 
ATOM     32  H   UNL A   1      39.019  18.913  25.519  1.00  0.00     0.163 HD
ATOM     33  O   UNL A   1      41.454  18.764  25.688  1.00  0.00    -0.269 OA
BRANCH  31  34
ATOM     34  C   UNL A   1      41.416  20.954  26.535  1.00  0.00     0.039 A 
ATOM     35  C   UNL A   1      42.005  21.906  25.701  1.00  0.00     0.014 A 
ATOM     36  C   UNL A   1      41.370  21.148  27.917  1.00  0.00     0.014 A 
ATOM     37  C   UNL A   1      42.472  23.099  26.254  1.00  0.00     0.010 A 
ATOM     38  C   UNL A   1      41.737  22.375  28.448  1.00  0.00     0.010 A 
ATOM     39  C   UNL A   1      42.292  23.362  27.622  1.00  0.00    -0.014 A 
BRANCH  39  40
ATOM     40  C   UNL A   1      42.660  24.665  28.224  1.00  0.00     0.031 A 
ATOM     41  C   UNL A   1      41.609  25.722  28.409  1.00  0.00     0.074 A 
ATOM     42  C   UNL A   1      43.950  24.925  28.510  1.00  0.00     0.049 A 
ATOM     43  N   UNL A   1      41.749  26.966  28.782  1.00  0.00    -0.248 NA
ATOM     44  C   UNL A   1      40.218  25.338  28.106  1.00  0.00     0.031 C 
ATOM     45  C   UNL A   1      45.063  23.988  28.335  1.00  0.00     0.029 A 
ATOM     46  N   UNL A   1      44.550  26.061  28.993  1.00  0.00    -0.354 N 
ATOM     47  C   UNL A   1      40.473  27.513  28.748  1.00  0.00     0.074 A 
ATOM     48  C   UNL A   1      39.578  26.487  28.265  1.00  0.00     0.031 C 
ATOM     49  C   UNL A   1      46.202  24.580  28.725  1.00  0.00     0.029 A 
ATOM     50  C   UNL A   1      45.913  25.953  29.125  1.00  0.00     0.049 A 
ATOM     51  H   UNL A   1      44.049  26.878  29.222  1.00  0.00     0.167 HD
ATOM     52  C   UNL A   1      40.084  28.755  29.116  1.00  0.00     0.037 A 
ATOM     53  C   UNL A   1      46.830  26.864  29.507  1.00  0.00     0.037 A 
ATOM     54  C   UNL A   1      40.977  29.759  29.625  1.00  0.00     0.049 A 
ATOM     55  C   UNL A   1      46.374  28.248  29.877  1.00  0.00     0.074 A 
ATOM     56  C   UNL A   1      40.670  31.029  30.078  1.00  0.00     0.029 A 
ATOM     57  N   UNL A   1      42.350  29.607  29.749  1.00  0.00    -0.354 N 
ATOM     58  N   UNL A   1      45.157  28.736  29.892  1.00  0.00    -0.248 NA
ATOM     59  C   UNL A   1      47.411  29.210  30.276  1.00  0.00     0.031 C 
ATOM     60  C   UNL A   1      41.862  31.665  30.425  1.00  0.00     0.029 A 
ATOM     61  C   UNL A   1      42.906  30.772  30.245  1.00  0.00     0.049 A 
ATOM     62  H   UNL A   1      42.853  28.792  29.520  1.00  0.00     0.167 HD
ATOM     63  C   UNL A   1      45.278  30.049  30.324  1.00  0.00     0.074 A 
ATOM     64  C   UNL A   1      46.686  30.281  30.571  1.00  0.00     0.031 C 
ATOM     65  C   UNL A   1      44.309  30.980  30.499  1.00  0.00     0.037 A 
BRANCH  52  66
ATOM     66  C   UNL A   1      38.629  29.101  29.009  1.00  0.00     0.057 A 
ATOM     67  C   UNL A   1      38.099  29.610  27.816  1.00  0.00     0.134 A 
ATOM     68  C   UNL A   1      37.774  29.025  30.117  1.00  0.00     0.134 A 
ATOM     69  F   UNL A   1      38.866  29.712  26.720  1.00  0.00    -0.206 F 
ATOM     70  C   UNL A   1      36.779  30.054  27.736  1.00  0.00     0.040 A 
ATOM     71  C   UNL A   1      36.443  29.440  30.040  1.00  0.00     0.040 A 
ATOM     72  F   UNL A   1      38.215  28.534  31.285  1.00  0.00    -0.206 F 
ATOM     73  C   UNL A   1      35.948  29.970  28.851  1.00  0.00     0.006 A 
ENDBRANCH  52  66
BRANCH  53  74
ATOM     74  C   UNL A   1      48.265  26.486  29.567  1.00  0.00     0.057 A 
ATOM     75  C   UNL A   1      48.819  25.883  30.704  1.00  0.00     0.134 A 
ATOM     76  C   UNL A   1      49.125  26.744  28.493  1.00  0.00     0.134 A 
ATOM     77  F   UNL A   1      48.052  25.617  31.771  1.00  0.00    -0.206 F 
ATOM     78  C   UNL A   1      50.177  25.567  30.778  1.00  0.00     0.040 A 
ATOM     79  C   UNL A   1      50.480  26.409  28.543  1.00  0.00     0.040 A 
ATOM     80  F   UNL A   1      48.652  27.304  27.371  1.00  0.00    -0.206 F 
ATOM     81  C   UNL A   1      51.011  25.826  29.692  1.00  0.00     0.006 A 
ENDBRANCH  53  74
BRANCH  65  82
ATOM     82  C   UNL A   1      44.714  32.334  31.001  1.00  0.00     0.057 A 
ATOM     83  C   UNL A   1      45.093  33.340  30.103  1.00  0.00     0.134 A 
ATOM     84  C   UNL A   1      44.855  32.595  32.369  1.00  0.00     0.134 A 
ATOM     85  F   UNL A   1      44.994  33.144  28.779  1.00  0.00    -0.206 F 
ATOM     86  C   UNL A   1      45.628  34.548  30.548  1.00  0.00     0.040 A 
ATOM     87  C   UNL A   1      45.365  33.811  32.826  1.00  0.00     0.040 A 
ATOM     88  F   UNL A   1      44.502  31.675  33.278  1.00  0.00    -0.206 F 
ATOM     89  C   UNL A   1      45.767  34.785  31.914  1.00  0.00     0.006 A 
ENDBRANCH  65  82
ENDBRANCH  39  40
ENDBRANCH  31  34
ENDBRANCH  29  30
ENDBRANCH  28  29
ENDBRANCH   1  28
TORSDOF 15
ENDMDL
MODEL 2
REMARK VINA RESULT:     -12.2      3.901      9.088
REMARK SMILES CC1CC[NH+](CC(=O)N[C@H](Cc2cccc(F)c2)C(=O)NCCCNC(=O)c2ccc(-c3c4nc(c(-c5c(F)cccc5F)c5ccc([nH]5)c(-c5c(F)cccc5F)c5nc(c(-c6c(F)cccc6F)c6ccc3[nH]6)C=C5)C=C4)cc2)CC1
REMARK SMILES IDX 22 1 21 2 19 3 20 4 10 6 9 7 7 8 8 9 6 11 5 12 1 13 2 14
REMARK SMILES IDX 3 15 83 16 4 17 82 18 11 20 12 21 13 22 18 23 14 24 16 25
REMARK SMILES IDX 15 26 17 27 23 28 24 29 25 30 26 31 27 33 28 34 29 35 81 36
REMARK SMILES IDX 30 37 80 38 31 39 32 40 33 41 74 42 34 43 79 44 73 45 75 46
REMARK SMILES IDX 35 47 78 48 72 49 71 50 36 52 62 53 45 54 61 55 46 56 49 57
REMARK SMILES IDX 60 58 76 59 47 60 48 61 59 63 77 64 50 65 37 66 38 67 43 68
REMARK SMILES IDX 39 69 40 70 42 71 44 72 41 73 63 74 64 75 69 76 65 77 66 78
REMARK SMILES IDX 68 79 70 80 67 81 51 82 52 83 57 84 53 85 54 86 56 87 58 88
REMARK SMILES IDX 55 89
REMARK H PARENT 21 5 9 10 5 19 25 32 75 51 49 62
REMARK Flexibility Score: inf
ROOT
ATOM      1  C   UNL A   1      32.211  29.465  25.807  1.00  0.00     0.117 C 
ENDROOT
BRANCH   1   2
ATOM      2  N   UNL A   1      33.221  29.625  24.769  1.00  0.00    -0.354 N 
ATOM      3  C   UNL A   1      33.330  28.956  23.580  1.00  0.00     0.242 C 
ATOM      4  O   UNL A   1      34.454  28.792  23.103  1.00  0.00    -0.273 OA
ATOM      5  H   UNL A   1      33.915  30.301  24.946  1.00  0.00     0.163 HD
BRANCH   3   6
ATOM      6  C   UNL A   1      32.069  28.382  22.908  1.00  0.00     0.175 C 
BRANCH   6   7
ATOM      7  N   UNL A   1      32.579  27.358  21.972  1.00  0.00    -0.339 N 
ATOM      8  C   UNL A   1      32.822  26.027  22.025  1.00  0.00     0.275 C 
ATOM      9  O   UNL A   1      33.413  25.552  21.049  1.00  0.00    -0.268 OA
ATOM     10  H   UNL A   1      32.798  27.740  21.091  1.00  0.00     0.164 HD
BRANCH   8  11
ATOM     11  C   UNL A   1      32.334  25.154  23.162  1.00  0.00     0.363 C 
BRANCH  11  12
ATOM     12  N   UNL A   1      33.189  24.979  24.344  1.00  0.00    -0.327 N 
ATOM     13  C   UNL A   1      30.348  23.161  26.847  1.00  0.00     0.008 C 
ATOM     14  C   UNL A   1      31.745  23.732  26.584  1.00  0.00    -0.003 C 
ATOM     15  C   UNL A   1      31.630  25.230  26.257  1.00  0.00     0.065 C 
ATOM     16  C   UNL A   1      32.442  22.892  25.505  1.00  0.00     0.065 C 
ATOM     17  C   UNL A   1      32.821  25.788  25.495  1.00  0.00     0.262 C 
ATOM     18  C   UNL A   1      33.546  23.633  24.757  1.00  0.00     0.262 C 
ATOM     19  H   UNL A   1      34.053  25.348  23.946  1.00  0.00     0.348 HD
ENDBRANCH  11  12
ENDBRANCH   8  11
ENDBRANCH   6   7
BRANCH   6  20
ATOM     20  C   UNL A   1      31.188  29.513  22.333  1.00  0.00     0.070 C 
BRANCH  20  21
ATOM     21  C   UNL A   1      29.770  29.494  22.872  1.00  0.00    -0.043 A 
ATOM     22  C   UNL A   1      29.044  28.293  22.932  1.00  0.00     0.004 A 
ATOM     23  C   UNL A   1      29.119  30.690  23.201  1.00  0.00     0.043 A 
ATOM     24  C   UNL A   1      27.664  28.308  23.166  1.00  0.00     0.003 A 
ATOM     25  C   UNL A   1      27.741  30.696  23.403  1.00  0.00     0.123 A 
ATOM     26  C   UNL A   1      27.006  29.519  23.364  1.00  0.00     0.039 A 
ATOM     27  F   UNL A   1      27.108  31.866  23.557  1.00  0.00    -0.207 F 
ENDBRANCH  20  21
ENDBRANCH   6  20
ENDBRANCH   3   6
ENDBRANCH   1   2
BRANCH   1  28
ATOM     28  C   UNL A   1      31.724  30.825  26.279  1.00  0.00     0.042 C 
BRANCH  28  29
ATOM     29  C   UNL A   1      32.757  31.531  27.142  1.00  0.00     0.118 C 
BRANCH  29  30
ATOM     30  N   UNL A   1      32.426  32.938  27.329  1.00  0.00    -0.352 N 
ATOM     31  C   UNL A   1      33.015  33.854  28.164  1.00  0.00     0.251 C 
ATOM     32  H   UNL A   1      31.679  33.278  26.785  1.00  0.00     0.163 HD
ATOM     33  O   UNL A   1      32.446  34.907  28.439  1.00  0.00    -0.269 OA
BRANCH  31  34
ATOM     34  C   UNL A   1      34.334  33.542  28.740  1.00  0.00     0.039 A 
ATOM     35  C   UNL A   1      34.418  32.763  29.895  1.00  0.00     0.014 A 
ATOM     36  C   UNL A   1      35.491  33.984  28.093  1.00  0.00     0.014 A 
ATOM     37  C   UNL A   1      35.671  32.354  30.351  1.00  0.00     0.010 A 
ATOM     38  C   UNL A   1      36.724  33.490  28.486  1.00  0.00     0.010 A 
ATOM     39  C   UNL A   1      36.827  32.671  29.618  1.00  0.00    -0.014 A 
BRANCH  39  40
ATOM     40  C   UNL A   1      38.162  32.152  29.999  1.00  0.00     0.031 A 
ATOM     41  C   UNL A   1      38.620  30.821  29.473  1.00  0.00     0.074 A 
ATOM     42  C   UNL A   1      38.911  32.831  30.888  1.00  0.00     0.049 A 
ATOM     43  N   UNL A   1      39.681  30.130  29.794  1.00  0.00    -0.248 NA
ATOM     44  C   UNL A   1      37.755  30.165  28.476  1.00  0.00     0.031 C 
ATOM     45  C   UNL A   1      38.550  34.115  31.495  1.00  0.00     0.029 A 
ATOM     46  N   UNL A   1      40.126  32.530  31.452  1.00  0.00    -0.354 N 
ATOM     47  C   UNL A   1      39.605  28.960  29.050  1.00  0.00     0.074 A 
ATOM     48  C   UNL A   1      38.369  29.005  28.304  1.00  0.00     0.031 C 
ATOM     49  C   UNL A   1      39.531  34.499  32.327  1.00  0.00     0.029 A 
ATOM     50  C   UNL A   1      40.562  33.468  32.357  1.00  0.00     0.049 A 
ATOM     51  H   UNL A   1      40.636  31.718  31.229  1.00  0.00     0.167 HD
ATOM     52  C   UNL A   1      40.505  27.953  28.978  1.00  0.00     0.037 A 
ATOM     53  C   UNL A   1      41.660  33.486  33.137  1.00  0.00     0.037 A 
ATOM     54  C   UNL A   1      41.747  27.933  29.701  1.00  0.00     0.049 A 
ATOM     55  C   UNL A   1      42.627  32.336  33.063  1.00  0.00     0.074 A 
ATOM     56  C   UNL A   1      42.752  26.983  29.650  1.00  0.00     0.029 A 
ATOM     57  N   UNL A   1      42.155  28.905  30.602  1.00  0.00    -0.354 N 
ATOM     58  N   UNL A   1      42.571  31.261  32.315  1.00  0.00    -0.248 NA
ATOM     59  C   UNL A   1      43.804  32.394  33.941  1.00  0.00     0.031 C 
ATOM     60  C   UNL A   1      43.742  27.352  30.562  1.00  0.00     0.029 A 
ATOM     61  C   UNL A   1      43.383  28.562  31.136  1.00  0.00     0.049 A 
ATOM     62  H   UNL A   1      41.646  29.717  30.826  1.00  0.00     0.167 HD
ATOM     63  C   UNL A   1      43.712  30.529  32.611  1.00  0.00     0.074 A 
ATOM     64  C   UNL A   1      44.449  31.286  33.601  1.00  0.00     0.031 C 
ATOM     65  C   UNL A   1      44.111  29.336  32.109  1.00  0.00     0.037 A 
BRANCH  52  66
ATOM     66  C   UNL A   1      40.202  26.797  28.072  1.00  0.00     0.057 A 
ATOM     67  C   UNL A   1      39.448  25.709  28.528  1.00  0.00     0.134 A 
ATOM     68  C   UNL A   1      40.742  26.715  26.782  1.00  0.00     0.134 A 
ATOM     69  F   UNL A   1      38.906  25.722  29.756  1.00  0.00    -0.206 F 
ATOM     70  C   UNL A   1      39.262  24.570  27.743  1.00  0.00     0.040 A 
ATOM     71  C   UNL A   1      40.540  25.593  25.977  1.00  0.00     0.040 A 
ATOM     72  F   UNL A   1      41.463  27.730  26.281  1.00  0.00    -0.206 F 
ATOM     73  C   UNL A   1      39.810  24.511  26.464  1.00  0.00     0.006 A 
ENDBRANCH  52  66
BRANCH  53  74
ATOM     74  C   UNL A   1      41.904  34.637  34.043  1.00  0.00     0.057 A 
ATOM     75  C   UNL A   1      41.491  34.619  35.381  1.00  0.00     0.134 A 
ATOM     76  C   UNL A   1      42.535  35.797  33.581  1.00  0.00     0.134 A 
ATOM     77  F   UNL A   1      40.872  33.541  35.885  1.00  0.00    -0.206 F 
ATOM     78  C   UNL A   1      41.681  35.718  36.222  1.00  0.00     0.040 A 
ATOM     79  C   UNL A   1      42.757  36.894  34.417  1.00  0.00     0.040 A 
ATOM     80  F   UNL A   1      42.969  35.871  32.314  1.00  0.00    -0.206 F 
ATOM     81  C   UNL A   1      42.320  36.858  35.741  1.00  0.00     0.006 A 
ENDBRANCH  53  74
BRANCH  65  82
ATOM     82  C   UNL A   1      45.412  28.767  32.592  1.00  0.00     0.057 A 
ATOM     83  C   UNL A   1      46.597  29.007  31.884  1.00  0.00     0.134 A 
ATOM     84  C   UNL A   1      45.467  27.880  33.672  1.00  0.00     0.134 A 
ATOM     85  F   UNL A   1      46.606  29.836  30.830  1.00  0.00    -0.206 F 
ATOM     86  C   UNL A   1      47.786  28.358  32.216  1.00  0.00     0.040 A 
ATOM     87  C   UNL A   1      46.657  27.245  34.030  1.00  0.00     0.040 A 
ATOM     88  F   UNL A   1      44.367  27.617  34.394  1.00  0.00    -0.206 F 
ATOM     89  C   UNL A   1      47.817  27.472  33.291  1.00  0.00     0.006 A 
ENDBRANCH  65  82
ENDBRANCH  39  40
ENDBRANCH  31  34
ENDBRANCH  29  30
ENDBRANCH  28  29
ENDBRANCH   1  28
TORSDOF 15
ENDMDL
MODEL 3
REMARK VINA RESULT:     -12.0      0.537      6.196
REMARK SMILES CC1CC[NH+](CC(=O)N[C@H](Cc2cccc(F)c2)C(=O)NCCCNC(=O)c2ccc(-c3c4nc(c(-c5c(F)cccc5F)c5ccc([nH]5)c(-c5c(F)cccc5F)c5nc(c(-c6c(F)cccc6F)c6ccc3[nH]6)C=C5)C=C4)cc2)CC1
REMARK SMILES IDX 22 1 21 2 19 3 20 4 10 6 9 7 7 8 8 9 6 11 5 12 1 13 2 14
REMARK SMILES IDX 3 15 83 16 4 17 82 18 11 20 12 21 13 22 18 23 14 24 16 25
REMARK SMILES IDX 15 26 17 27 23 28 24 29 25 30 26 31 27 33 28 34 29 35 81 36
REMARK SMILES IDX 30 37 80 38 31 39 32 40 33 41 74 42 34 43 79 44 73 45 75 46
REMARK SMILES IDX 35 47 78 48 72 49 71 50 36 52 62 53 45 54 61 55 46 56 49 57
REMARK SMILES IDX 60 58 76 59 47 60 48 61 59 63 77 64 50 65 37 66 38 67 43 68
REMARK SMILES IDX 39 69 40 70 42 71 44 72 41 73 63 74 64 75 69 76 65 77 66 78
REMARK SMILES IDX 68 79 70 80 67 81 51 82 52 83 57 84 53 85 54 86 56 87 58 88
REMARK SMILES IDX 55 89
REMARK H PARENT 21 5 9 10 5 19 25 32 75 51 49 62
REMARK Flexibility Score: inf
ROOT
ATOM      1  C   UNL A   1      36.514  21.325  24.812  1.00  0.00     0.117 C 
ENDROOT
BRANCH   1   2
ATOM      2  N   UNL A   1      36.123  21.812  26.128  1.00  0.00    -0.354 N 
ATOM      3  C   UNL A   1      34.870  22.139  26.576  1.00  0.00     0.242 C 
ATOM      4  O   UNL A   1      34.768  23.009  27.442  1.00  0.00    -0.273 OA
ATOM      5  H   UNL A   1      36.853  21.921  26.780  1.00  0.00     0.163 HD
BRANCH   3   6
ATOM      6  C   UNL A   1      33.637  21.462  25.951  1.00  0.00     0.175 C 
BRANCH   6   7
ATOM      7  N   UNL A   1      32.484  22.085  26.637  1.00  0.00    -0.339 N 
ATOM      8  C   UNL A   1      31.708  23.176  26.436  1.00  0.00     0.275 C 
ATOM      9  O   UNL A   1      30.921  23.448  27.349  1.00  0.00    -0.268 OA
ATOM     10  H   UNL A   1      32.216  21.582  27.439  1.00  0.00     0.164 HD
BRANCH   8  11
ATOM     11  C   UNL A   1      31.734  23.970  25.147  1.00  0.00     0.363 C 
BRANCH  11  12
ATOM     12  N   UNL A   1      32.516  25.213  25.092  1.00  0.00    -0.327 N 
ATOM     13  C   UNL A   1      32.668  25.613  20.913  1.00  0.00     0.008 C 
ATOM     14  C   UNL A   1      33.034  26.076  22.326  1.00  0.00    -0.003 C 
ATOM     15  C   UNL A   1      33.864  24.985  23.022  1.00  0.00     0.065 C 
ATOM     16  C   UNL A   1      31.757  26.484  23.074  1.00  0.00     0.065 C 
ATOM     17  C   UNL A   1      33.854  25.075  24.539  1.00  0.00     0.262 C 
ATOM     18  C   UNL A   1      31.879  26.419  24.593  1.00  0.00     0.262 C 
ATOM     19  H   UNL A   1      32.590  25.375  26.096  1.00  0.00     0.348 HD
ENDBRANCH  11  12
ENDBRANCH   8  11
ENDBRANCH   6   7
BRANCH   6  20
ATOM     20  C   UNL A   1      33.765  19.924  26.006  1.00  0.00     0.070 C 
BRANCH  20  21
ATOM     21  C   UNL A   1      33.507  19.258  24.667  1.00  0.00    -0.043 A 
ATOM     22  C   UNL A   1      32.501  19.737  23.812  1.00  0.00     0.004 A 
ATOM     23  C   UNL A   1      34.183  18.081  24.318  1.00  0.00     0.043 A 
ATOM     24  C   UNL A   1      32.079  18.976  22.717  1.00  0.00     0.003 A 
ATOM     25  C   UNL A   1      33.734  17.318  23.243  1.00  0.00     0.123 A 
ATOM     26  C   UNL A   1      32.672  17.744  22.456  1.00  0.00     0.039 A 
ATOM     27  F   UNL A   1      34.283  16.117  23.018  1.00  0.00    -0.207 F 
ENDBRANCH  20  21
ENDBRANCH   6  20
ENDBRANCH   3   6
ENDBRANCH   1   2
BRANCH   1  28
ATOM     28  C   UNL A   1      37.527  20.200  24.949  1.00  0.00     0.042 C 
BRANCH  28  29
ATOM     29  C   UNL A   1      38.761  20.637  25.721  1.00  0.00     0.118 C 
BRANCH  29  30
ATOM     30  N   UNL A   1      39.723  19.550  25.852  1.00  0.00    -0.352 N 
ATOM     31  C   UNL A   1      41.075  19.623  26.074  1.00  0.00     0.251 C 
ATOM     32  H   UNL A   1      39.354  18.641  25.771  1.00  0.00     0.163 HD
ATOM     33  O   UNL A   1      41.798  18.653  25.861  1.00  0.00    -0.269 OA
BRANCH  31  34
ATOM     34  C   UNL A   1      41.647  20.893  26.553  1.00  0.00     0.039 A 
ATOM     35  C   UNL A   1      42.187  21.797  25.638  1.00  0.00     0.014 A 
ATOM     36  C   UNL A   1      41.593  21.202  27.914  1.00  0.00     0.014 A 
ATOM     37  C   UNL A   1      42.595  23.054  26.084  1.00  0.00     0.010 A 
ATOM     38  C   UNL A   1      41.900  22.486  28.336  1.00  0.00     0.010 A 
ATOM     39  C   UNL A   1      42.404  23.425  27.425  1.00  0.00    -0.014 A 
BRANCH  39  40
ATOM     40  C   UNL A   1      42.709  24.791  27.911  1.00  0.00     0.031 A 
ATOM     41  C   UNL A   1      44.112  25.139  28.319  1.00  0.00     0.074 A 
ATOM     42  C   UNL A   1      41.708  25.677  28.076  1.00  0.00     0.049 A 
ATOM     43  N   UNL A   1      44.556  26.223  28.898  1.00  0.00    -0.248 NA
ATOM     44  C   UNL A   1      45.150  24.123  28.069  1.00  0.00     0.031 C 
ATOM     45  C   UNL A   1      40.300  25.436  27.751  1.00  0.00     0.029 A 
ATOM     46  N   UNL A   1      41.717  26.956  28.574  1.00  0.00    -0.354 N 
ATOM     47  C   UNL A   1      45.916  26.014  29.091  1.00  0.00     0.074 A 
ATOM     48  C   UNL A   1      46.217  24.682  28.620  1.00  0.00     0.031 C 
ATOM     49  C   UNL A   1      39.588  26.537  28.037  1.00  0.00     0.029 A 
ATOM     50  C   UNL A   1      40.473  27.541  28.616  1.00  0.00     0.049 A 
ATOM     51  H   UNL A   1      42.537  27.412  28.873  1.00  0.00     0.167 HD
ATOM     52  C   UNL A   1      46.833  26.873  29.590  1.00  0.00     0.037 A 
ATOM     53  C   UNL A   1      40.088  28.743  29.086  1.00  0.00     0.037 A 
ATOM     54  C   UNL A   1      46.529  28.209  30.026  1.00  0.00     0.049 A 
ATOM     55  C   UNL A   1      41.123  29.665  29.669  1.00  0.00     0.074 A 
ATOM     56  C   UNL A   1      47.399  29.176  30.495  1.00  0.00     0.029 A 
ATOM     57  N   UNL A   1      45.258  28.765  30.046  1.00  0.00    -0.354 N 
ATOM     58  N   UNL A   1      42.415  29.477  29.795  1.00  0.00    -0.248 NA
ATOM     59  C   UNL A   1      40.653  30.961  30.179  1.00  0.00     0.031 C 
ATOM     60  C   UNL A   1      46.650  30.298  30.850  1.00  0.00     0.029 A 
ATOM     61  C   UNL A   1      45.320  30.052  30.547  1.00  0.00     0.049 A 
ATOM     62  H   UNL A   1      44.437  28.311  29.748  1.00  0.00     0.167 HD
ATOM     63  C   UNL A   1      42.914  30.635  30.374  1.00  0.00     0.074 A 
ATOM     64  C   UNL A   1      41.790  31.526  30.567  1.00  0.00     0.031 C 
ATOM     65  C   UNL A   1      44.191  30.932  30.717  1.00  0.00     0.037 A 
BRANCH  52  66
ATOM     66  C   UNL A   1      48.259  26.417  29.674  1.00  0.00     0.057 A 
ATOM     67  C   UNL A   1      48.755  25.830  30.845  1.00  0.00     0.134 A 
ATOM     68  C   UNL A   1      49.166  26.648  28.631  1.00  0.00     0.134 A 
ATOM     69  F   UNL A   1      47.939  25.585  31.882  1.00  0.00    -0.206 F 
ATOM     70  C   UNL A   1      50.107  25.514  30.986  1.00  0.00     0.040 A 
ATOM     71  C   UNL A   1      50.514  26.311  28.750  1.00  0.00     0.040 A 
ATOM     72  F   UNL A   1      48.751  27.195  27.478  1.00  0.00    -0.206 F 
ATOM     73  C   UNL A   1      50.990  25.755  29.936  1.00  0.00     0.006 A 
ENDBRANCH  52  66
BRANCH  53  74
ATOM     74  C   UNL A   1      38.659  29.141  29.012  1.00  0.00     0.057 A 
ATOM     75  C   UNL A   1      38.091  29.619  27.825  1.00  0.00     0.134 A 
ATOM     76  C   UNL A   1      37.833  29.075  30.140  1.00  0.00     0.134 A 
ATOM     77  F   UNL A   1      38.830  29.717  26.710  1.00  0.00    -0.206 F 
ATOM     78  C   UNL A   1      36.759  30.035  27.765  1.00  0.00     0.040 A 
ATOM     79  C   UNL A   1      36.491  29.462  30.088  1.00  0.00     0.040 A 
ATOM     80  F   UNL A   1      38.313  28.611  31.302  1.00  0.00    -0.206 F 
ATOM     81  C   UNL A   1      35.954  29.952  28.899  1.00  0.00     0.006 A 
ENDBRANCH  53  74
BRANCH  65  82
ATOM     82  C   UNL A   1      44.466  32.278  31.317  1.00  0.00     0.057 A 
ATOM     83  C   UNL A   1      44.813  33.361  30.499  1.00  0.00     0.134 A 
ATOM     84  C   UNL A   1      44.516  32.466  32.702  1.00  0.00     0.134 A 
ATOM     85  F   UNL A   1      44.797  33.240  29.163  1.00  0.00    -0.206 F 
ATOM     86  C   UNL A   1      45.232  34.577  31.040  1.00  0.00     0.040 A 
ATOM     87  C   UNL A   1      44.909  33.686  33.255  1.00  0.00     0.040 A 
ATOM     88  F   UNL A   1      44.187  31.469  33.537  1.00  0.00    -0.206 F 
ATOM     89  C   UNL A   1      45.283  34.740  32.423  1.00  0.00     0.006 A 
ENDBRANCH  65  82
ENDBRANCH  39  40
ENDBRANCH  31  34
ENDBRANCH  29  30
ENDBRANCH  28  29
ENDBRANCH   1  28
TORSDOF 15
ENDMDL
