MODEL 1
REMARK VINA RESULT:     -12.7      0.000      0.000
REMARK SMILES Cc1ccc(-c2nn(-c3ccccc3)cc2[C@@H]2[NH2+][C@H](C(=O)NCCCNC(=O)c3ccc(-c4c5nc(c(-c6c(F)cccc6F)c6ccc([nH]6)c(-c6c(F)cccc6F)c6nc(c(-c7c(F)cccc7F)c7ccc4[nH]7)C=C6)C=C5)cc3)CS2)cc1
REMARK SMILES IDX 24 1 23 2 22 3 20 4 21 5 19 7 17 8 18 9 84 10 83 13 16 14
REMARK SMILES IDX 6 15 7 16 8 17 15 18 5 19 1 20 2 21 3 22 86 23 4 24 85 25
REMARK SMILES IDX 9 26 10 27 14 28 11 29 13 30 12 31 25 32 26 33 27 34 28 36
REMARK SMILES IDX 29 37 30 38 82 39 31 40 81 41 32 42 33 43 34 44 75 45 35 46
REMARK SMILES IDX 80 47 74 48 76 49 36 50 79 51 73 52 72 53 37 55 63 56 46 57
REMARK SMILES IDX 62 58 47 59 50 60 61 61 77 62 48 63 49 64 60 66 78 67 51 68
REMARK SMILES IDX 38 69 39 70 44 71 40 72 41 73 43 74 45 75 42 76 64 77 65 78
REMARK SMILES IDX 70 79 66 80 67 81 69 82 71 83 68 84 52 85 53 86 58 87 54 88
REMARK SMILES IDX 55 89 57 90 59 91 56 92
REMARK H PARENT 22 6 18 11 18 12 26 35 76 54 50 65
REMARK Flexibility Score: inf
ROOT
ATOM      1  C   UNL A   1      35.857  23.870  25.793  1.00  0.00     0.042 C 
ENDROOT
BRANCH   1   2
ATOM      2  C   UNL A   1      34.410  23.712  25.324  1.00  0.00     0.118 C 
BRANCH   2   3
ATOM      3  N   UNL A   1      33.469  23.626  26.432  1.00  0.00    -0.351 N 
ATOM      4  C   UNL A   1      32.162  23.984  26.555  1.00  0.00     0.279 C 
ATOM      5  O   UNL A   1      31.624  23.728  27.639  1.00  0.00    -0.268 OA
ATOM      6  H   UNL A   1      33.852  23.233  27.249  1.00  0.00     0.163 HD
BRANCH   4   7
ATOM      7  C   UNL A   1      31.319  24.595  25.425  1.00  0.00     0.283 C 
ATOM      8  C   UNL A   1      30.580  26.778  24.652  1.00  0.00     0.278 C 
ATOM      9  N   UNL A   1      30.654  25.861  25.800  1.00  0.00    -0.320 N 
ATOM     10  S   UNL A   1      31.139  25.882  23.184  1.00  0.00    -0.087 SA
ATOM     11  H   UNL A   1      29.710  25.658  26.126  1.00  0.00     0.348 HD
ATOM     12  H   UNL A   1      31.199  26.308  26.537  1.00  0.00     0.348 HD
ATOM     13  C   UNL A   1      32.145  24.749  24.163  1.00  0.00     0.151 C 
BRANCH   8  14
ATOM     14  C   UNL A   1      31.445  27.956  24.998  1.00  0.00     0.067 A 
ATOM     15  C   UNL A   1      31.265  29.327  24.629  1.00  0.00     0.103 A 
ATOM     16  N   UNL A   1      32.075  30.120  25.350  1.00  0.00    -0.167 NA
ATOM     17  N   UNL A   1      32.862  29.301  26.073  1.00  0.00    -0.240 N 
ATOM     18  C   UNL A   1      32.580  27.986  25.803  1.00  0.00     0.126 A 
BRANCH  15  19
ATOM     19  C   UNL A   1      30.332  29.966  23.689  1.00  0.00     0.003 A 
ATOM     20  C   UNL A   1      27.737  31.819  20.760  1.00  0.00     0.044 C 
ATOM     21  C   UNL A   1      28.635  31.170  21.771  1.00  0.00    -0.051 A 
ATOM     22  C   UNL A   1      28.659  31.631  23.091  1.00  0.00     0.004 A 
ATOM     23  C   UNL A   1      29.487  30.125  21.406  1.00  0.00     0.004 A 
ATOM     24  C   UNL A   1      29.496  31.031  24.040  1.00  0.00     0.011 A 
ATOM     25  C   UNL A   1      30.326  29.534  22.354  1.00  0.00     0.011 A 
ENDBRANCH  15  19
BRANCH  17  26
ATOM     26  C   UNL A   1      33.782  29.810  27.032  1.00  0.00     0.065 A 
ATOM     27  C   UNL A   1      33.600  31.103  27.542  1.00  0.00     0.028 A 
ATOM     28  C   UNL A   1      34.859  29.042  27.492  1.00  0.00     0.028 A 
ATOM     29  C   UNL A   1      34.471  31.622  28.502  1.00  0.00     0.002 A 
ATOM     30  C   UNL A   1      35.759  29.586  28.415  1.00  0.00     0.002 A 
ATOM     31  C   UNL A   1      35.566  30.873  28.918  1.00  0.00     0.000 A 
ENDBRANCH  17  26
ENDBRANCH   8  14
ENDBRANCH   4   7
ENDBRANCH   2   3
ENDBRANCH   1   2
BRANCH   1  32
ATOM     32  C   UNL A   1      36.842  22.966  25.067  1.00  0.00     0.118 C 
BRANCH  32  33
ATOM     33  N   UNL A   1      37.773  22.152  25.848  1.00  0.00    -0.352 N 
ATOM     34  C   UNL A   1      38.902  22.607  26.538  1.00  0.00     0.251 C 
ATOM     35  H   UNL A   1      37.587  21.187  25.895  1.00  0.00     0.163 HD
ATOM     36  O   UNL A   1      39.664  21.889  27.144  1.00  0.00    -0.269 OA
BRANCH  34  37
ATOM     37  C   UNL A   1      39.060  24.076  26.597  1.00  0.00     0.039 A 
ATOM     38  C   UNL A   1      39.919  24.674  25.660  1.00  0.00     0.014 A 
ATOM     39  C   UNL A   1      38.774  24.672  27.814  1.00  0.00     0.014 A 
ATOM     40  C   UNL A   1      40.696  25.767  26.043  1.00  0.00     0.010 A 
ATOM     41  C   UNL A   1      39.632  25.662  28.228  1.00  0.00     0.010 A 
ATOM     42  C   UNL A   1      40.614  26.197  27.363  1.00  0.00    -0.014 A 
BRANCH  42  43
ATOM     43  C   UNL A   1      41.452  27.211  28.000  1.00  0.00     0.031 A 
ATOM     44  C   UNL A   1      40.803  28.509  28.326  1.00  0.00     0.074 A 
ATOM     45  C   UNL A   1      42.612  26.874  28.610  1.00  0.00     0.049 A 
ATOM     46  N   UNL A   1      41.344  29.462  29.000  1.00  0.00    -0.248 NA
ATOM     47  C   UNL A   1      39.449  28.835  27.882  1.00  0.00     0.031 C 
ATOM     48  C   UNL A   1      43.177  27.517  29.794  1.00  0.00     0.029 A 
ATOM     49  N   UNL A   1      43.626  26.016  28.172  1.00  0.00    -0.354 N 
ATOM     50  C   UNL A   1      40.351  30.343  29.360  1.00  0.00     0.074 A 
ATOM     51  C   UNL A   1      39.216  29.958  28.562  1.00  0.00     0.031 C 
ATOM     52  C   UNL A   1      44.488  27.259  29.858  1.00  0.00     0.029 A 
ATOM     53  C   UNL A   1      44.853  26.566  28.644  1.00  0.00     0.049 A 
ATOM     54  H   UNL A   1      43.515  25.193  27.643  1.00  0.00     0.167 HD
ATOM     55  C   UNL A   1      40.604  31.215  30.378  1.00  0.00     0.037 A 
ATOM     56  C   UNL A   1      45.804  27.018  27.772  1.00  0.00     0.037 A 
ATOM     57  C   UNL A   1      42.049  31.290  30.637  1.00  0.00     0.049 A 
ATOM     58  C   UNL A   1      45.980  28.511  27.720  1.00  0.00     0.074 A 
ATOM     59  C   UNL A   1      42.919  30.825  31.608  1.00  0.00     0.029 A 
ATOM     60  N   UNL A   1      42.850  31.733  29.599  1.00  0.00    -0.354 N 
ATOM     61  N   UNL A   1      45.481  29.345  28.589  1.00  0.00    -0.248 NA
ATOM     62  C   UNL A   1      46.657  29.189  26.613  1.00  0.00     0.031 C 
ATOM     63  C   UNL A   1      44.252  30.932  31.094  1.00  0.00     0.029 A 
ATOM     64  C   UNL A   1      44.188  31.477  29.824  1.00  0.00     0.049 A 
ATOM     65  H   UNL A   1      42.506  32.180  28.793  1.00  0.00     0.167 HD
ATOM     66  C   UNL A   1      45.660  30.621  28.129  1.00  0.00     0.074 A 
ATOM     67  C   UNL A   1      46.427  30.478  26.905  1.00  0.00     0.031 C 
ATOM     68  C   UNL A   1      45.119  31.718  28.733  1.00  0.00     0.037 A 
BRANCH  55  69
ATOM     69  C   UNL A   1      39.562  31.919  31.229  1.00  0.00     0.057 A 
ATOM     70  C   UNL A   1      39.344  31.503  32.560  1.00  0.00     0.134 A 
ATOM     71  C   UNL A   1      38.680  32.935  30.809  1.00  0.00     0.134 A 
ATOM     72  F   UNL A   1      40.097  30.555  33.134  1.00  0.00    -0.206 F 
ATOM     73  C   UNL A   1      38.324  32.022  33.374  1.00  0.00     0.040 A 
ATOM     74  C   UNL A   1      37.662  33.467  31.615  1.00  0.00     0.040 A 
ATOM     75  F   UNL A   1      38.726  33.484  29.596  1.00  0.00    -0.206 F 
ATOM     76  C   UNL A   1      37.472  33.004  32.900  1.00  0.00     0.006 A 
ENDBRANCH  55  69
BRANCH  56  77
ATOM     77  C   UNL A   1      46.015  26.077  26.650  1.00  0.00     0.057 A 
ATOM     78  C   UNL A   1      46.694  24.896  26.987  1.00  0.00     0.134 A 
ATOM     79  C   UNL A   1      45.093  26.045  25.601  1.00  0.00     0.134 A 
ATOM     80  F   UNL A   1      47.625  24.898  27.953  1.00  0.00    -0.206 F 
ATOM     81  C   UNL A   1      46.278  23.673  26.481  1.00  0.00     0.040 A 
ATOM     82  C   UNL A   1      44.665  24.823  25.092  1.00  0.00     0.040 A 
ATOM     83  F   UNL A   1      44.453  27.159  25.218  1.00  0.00    -0.206 F 
ATOM     84  C   UNL A   1      45.214  23.641  25.589  1.00  0.00     0.006 A 
ENDBRANCH  56  77
BRANCH  68  85
ATOM     85  C   UNL A   1      45.428  33.107  28.262  1.00  0.00     0.057 A 
ATOM     86  C   UNL A   1      46.353  33.917  28.939  1.00  0.00     0.134 A 
ATOM     87  C   UNL A   1      44.739  33.720  27.200  1.00  0.00     0.134 A 
ATOM     88  F   UNL A   1      47.034  33.449  29.996  1.00  0.00    -0.206 F 
ATOM     89  C   UNL A   1      46.604  35.240  28.562  1.00  0.00     0.040 A 
ATOM     90  C   UNL A   1      44.944  35.056  26.847  1.00  0.00     0.040 A 
ATOM     91  F   UNL A   1      43.859  33.044  26.449  1.00  0.00    -0.206 F 
ATOM     92  C   UNL A   1      45.887  35.818  27.521  1.00  0.00     0.006 A 
ENDBRANCH  68  85
ENDBRANCH  42  43
ENDBRANCH  34  37
ENDBRANCH  32  33
ENDBRANCH   1  32
TORSDOF 13
ENDMDL
MODEL 2
REMARK VINA RESULT:     -12.5      4.825      7.943
REMARK SMILES Cc1ccc(-c2nn(-c3ccccc3)cc2[C@@H]2[NH2+][C@H](C(=O)NCCCNC(=O)c3ccc(-c4c5nc(c(-c6c(F)cccc6F)c6ccc([nH]6)c(-c6c(F)cccc6F)c6nc(c(-c7c(F)cccc7F)c7ccc4[nH]7)C=C6)C=C5)cc3)CS2)cc1
REMARK SMILES IDX 24 1 23 2 22 3 20 4 21 5 19 7 17 8 18 9 84 10 83 13 16 14
REMARK SMILES IDX 6 15 7 16 8 17 15 18 5 19 1 20 2 21 3 22 86 23 4 24 85 25
REMARK SMILES IDX 9 26 10 27 14 28 11 29 13 30 12 31 25 32 26 33 27 34 28 36
REMARK SMILES IDX 29 37 30 38 82 39 31 40 81 41 32 42 33 43 34 44 75 45 35 46
REMARK SMILES IDX 80 47 74 48 76 49 36 50 79 51 73 52 72 53 37 55 63 56 46 57
REMARK SMILES IDX 62 58 47 59 50 60 61 61 77 62 48 63 49 64 60 66 78 67 51 68
REMARK SMILES IDX 38 69 39 70 44 71 40 72 41 73 43 74 45 75 42 76 64 77 65 78
REMARK SMILES IDX 70 79 66 80 67 81 69 82 71 83 68 84 52 85 53 86 58 87 54 88
REMARK SMILES IDX 55 89 57 90 59 91 56 92
REMARK H PARENT 22 6 18 11 18 12 26 35 76 54 50 65
REMARK Flexibility Score: inf
ROOT
ATOM      1  C   UNL A   1      45.088  18.465  24.353  1.00  0.00     0.042 C 
ENDROOT
BRANCH   1   2
ATOM      2  C   UNL A   1      44.438  18.467  25.738  1.00  0.00     0.118 C 
BRANCH   2   3
ATOM      3  N   UNL A   1      42.986  18.540  25.675  1.00  0.00    -0.351 N 
ATOM      4  C   UNL A   1      42.105  19.537  25.959  1.00  0.00     0.279 C 
ATOM      5  O   UNL A   1      40.910  19.288  25.751  1.00  0.00    -0.268 OA
ATOM      6  H   UNL A   1      42.559  17.708  25.369  1.00  0.00     0.163 HD
BRANCH   4   7
ATOM      7  C   UNL A   1      42.506  20.942  26.430  1.00  0.00     0.283 C 
ATOM      8  C   UNL A   1      41.592  23.195  26.498  1.00  0.00     0.278 C 
ATOM      9  N   UNL A   1      41.885  22.032  25.646  1.00  0.00    -0.320 N 
ATOM     10  S   UNL A   1      42.324  22.895  28.124  1.00  0.00    -0.087 SA
ATOM     11  H   UNL A   1      42.524  22.314  24.904  1.00  0.00     0.348 HD
ATOM     12  H   UNL A   1      41.008  21.689  25.253  1.00  0.00     0.348 HD
ATOM     13  C   UNL A   1      42.246  21.105  27.916  1.00  0.00     0.151 C 
BRANCH   8  14
ATOM     14  C   UNL A   1      40.096  23.325  26.531  1.00  0.00     0.067 A 
ATOM     15  C   UNL A   1      39.314  24.486  26.830  1.00  0.00     0.103 A 
ATOM     16  N   UNL A   1      38.030  24.291  26.487  1.00  0.00    -0.167 NA
ATOM     17  N   UNL A   1      37.931  23.003  26.104  1.00  0.00    -0.240 N 
ATOM     18  C   UNL A   1      39.139  22.364  26.221  1.00  0.00     0.126 A 
BRANCH  15  19
ATOM     19  C   UNL A   1      39.696  25.806  27.354  1.00  0.00     0.003 A 
ATOM     20  C   UNL A   1      40.625  29.697  29.009  1.00  0.00     0.044 C 
ATOM     21  C   UNL A   1      40.303  28.346  28.443  1.00  0.00    -0.051 A 
ATOM     22  C   UNL A   1      40.695  28.016  27.142  1.00  0.00     0.004 A 
ATOM     23  C   UNL A   1      39.579  27.412  29.187  1.00  0.00     0.004 A 
ATOM     24  C   UNL A   1      40.397  26.757  26.606  1.00  0.00     0.011 A 
ATOM     25  C   UNL A   1      39.278  26.160  28.646  1.00  0.00     0.011 A 
ENDBRANCH  15  19
BRANCH  17  26
ATOM     26  C   UNL A   1      36.718  22.476  25.579  1.00  0.00     0.065 A 
ATOM     27  C   UNL A   1      35.692  23.353  25.204  1.00  0.00     0.028 A 
ATOM     28  C   UNL A   1      36.532  21.098  25.413  1.00  0.00     0.028 A 
ATOM     29  C   UNL A   1      34.500  22.868  24.663  1.00  0.00     0.002 A 
ATOM     30  C   UNL A   1      35.316  20.614  24.919  1.00  0.00     0.002 A 
ATOM     31  C   UNL A   1      34.302  21.497  24.545  1.00  0.00     0.000 A 
ENDBRANCH  17  26
ENDBRANCH   8  14
ENDBRANCH   4   7
ENDBRANCH   2   3
ENDBRANCH   1   2
BRANCH   1  32
ATOM     32  C   UNL A   1      45.643  19.816  23.931  1.00  0.00     0.118 C 
BRANCH  32  33
ATOM     33  N   UNL A   1      44.721  20.855  23.473  1.00  0.00    -0.352 N 
ATOM     34  C   UNL A   1      44.674  22.181  23.914  1.00  0.00     0.251 C 
ATOM     35  H   UNL A   1      44.068  20.595  22.783  1.00  0.00     0.163 HD
ATOM     36  O   UNL A   1      43.868  22.998  23.529  1.00  0.00    -0.269 OA
BRANCH  34  37
ATOM     37  C   UNL A   1      45.772  22.590  24.816  1.00  0.00     0.039 A 
ATOM     38  C   UNL A   1      45.585  22.393  26.194  1.00  0.00     0.014 A 
ATOM     39  C   UNL A   1      46.642  23.547  24.323  1.00  0.00     0.014 A 
ATOM     40  C   UNL A   1      46.093  23.331  27.095  1.00  0.00     0.010 A 
ATOM     41  C   UNL A   1      47.027  24.534  25.198  1.00  0.00     0.010 A 
ATOM     42  C   UNL A   1      46.734  24.451  26.579  1.00  0.00    -0.014 A 
BRANCH  42  43
ATOM     43  C   UNL A   1      47.191  25.616  27.335  1.00  0.00     0.031 A 
ATOM     44  C   UNL A   1      46.157  26.609  27.728  1.00  0.00     0.074 A 
ATOM     45  C   UNL A   1      48.384  25.607  27.974  1.00  0.00     0.049 A 
ATOM     46  N   UNL A   1      46.352  27.619  28.500  1.00  0.00    -0.248 NA
ATOM     47  C   UNL A   1      44.780  26.531  27.243  1.00  0.00     0.031 C 
ATOM     48  C   UNL A   1      48.688  26.286  29.232  1.00  0.00     0.029 A 
ATOM     49  N   UNL A   1      49.628  25.155  27.523  1.00  0.00    -0.354 N 
ATOM     50  C   UNL A   1      45.122  28.108  28.877  1.00  0.00     0.074 A 
ATOM     51  C   UNL A   1      44.187  27.459  27.996  1.00  0.00     0.031 C 
ATOM     52  C   UNL A   1      50.011  26.449  29.342  1.00  0.00     0.029 A 
ATOM     53  C   UNL A   1      50.605  26.017  28.097  1.00  0.00     0.049 A 
ATOM     54  H   UNL A   1      49.796  24.389  26.926  1.00  0.00     0.167 HD
ATOM     55  C   UNL A   1      45.061  28.919  29.972  1.00  0.00     0.037 A 
ATOM     56  C   UNL A   1      51.383  26.821  27.311  1.00  0.00     0.037 A 
ATOM     57  C   UNL A   1      46.402  29.421  30.308  1.00  0.00     0.049 A 
ATOM     58  C   UNL A   1      51.077  28.292  27.385  1.00  0.00     0.074 A 
ATOM     59  C   UNL A   1      47.352  29.168  31.282  1.00  0.00     0.029 A 
ATOM     60  N   UNL A   1      47.045  30.185  29.350  1.00  0.00    -0.354 N 
ATOM     61  N   UNL A   1      50.320  28.846  28.290  1.00  0.00    -0.248 NA
ATOM     62  C   UNL A   1      51.530  29.245  26.369  1.00  0.00     0.031 C 
ATOM     63  C   UNL A   1      48.593  29.734  30.846  1.00  0.00     0.029 A 
ATOM     64  C   UNL A   1      48.388  30.344  29.620  1.00  0.00     0.049 A 
ATOM     65  H   UNL A   1      46.595  30.572  28.564  1.00  0.00     0.167 HD
ATOM     66  C   UNL A   1      50.095  30.150  27.940  1.00  0.00     0.074 A 
ATOM     67  C   UNL A   1      50.896  30.365  26.749  1.00  0.00     0.031 C 
ATOM     68  C   UNL A   1      49.220  30.962  28.600  1.00  0.00     0.037 A 
BRANCH  55  69
ATOM     69  C   UNL A   1      43.830  29.182  30.821  1.00  0.00     0.057 A 
ATOM     70  C   UNL A   1      43.497  30.504  31.184  1.00  0.00     0.134 A 
ATOM     71  C   UNL A   1      42.982  28.214  31.395  1.00  0.00     0.134 A 
ATOM     72  F   UNL A   1      44.185  31.557  30.723  1.00  0.00    -0.206 F 
ATOM     73  C   UNL A   1      42.447  30.823  32.060  1.00  0.00     0.040 A 
ATOM     74  C   UNL A   1      41.925  28.519  32.265  1.00  0.00     0.040 A 
ATOM     75  F   UNL A   1      43.110  26.907  31.168  1.00  0.00    -0.206 F 
ATOM     76  C   UNL A   1      41.659  29.827  32.612  1.00  0.00     0.006 A 
ENDBRANCH  55  69
BRANCH  56  77
ATOM     77  C   UNL A   1      51.908  26.099  26.132  1.00  0.00     0.057 A 
ATOM     78  C   UNL A   1      51.254  26.383  24.923  1.00  0.00     0.134 A 
ATOM     79  C   UNL A   1      53.257  25.736  26.096  1.00  0.00     0.134 A 
ATOM     80  F   UNL A   1      49.947  26.683  24.910  1.00  0.00    -0.206 F 
ATOM     81  C   UNL A   1      51.978  26.562  23.753  1.00  0.00     0.040 A 
ATOM     82  C   UNL A   1      53.992  25.918  24.930  1.00  0.00     0.040 A 
ATOM     83  F   UNL A   1      53.909  25.415  27.223  1.00  0.00    -0.206 F 
ATOM     84  C   UNL A   1      53.357  26.398  23.784  1.00  0.00     0.006 A 
ENDBRANCH  56  77
BRANCH  68  85
ATOM     85  C   UNL A   1      49.083  32.414  28.254  1.00  0.00     0.057 A 
ATOM     86  C   UNL A   1      48.230  32.839  27.223  1.00  0.00     0.134 A 
ATOM     87  C   UNL A   1      49.869  33.415  28.852  1.00  0.00     0.134 A 
ATOM     88  F   UNL A   1      47.469  31.961  26.553  1.00  0.00    -0.206 F 
ATOM     89  C   UNL A   1      48.140  34.180  26.834  1.00  0.00     0.040 A 
ATOM     90  C   UNL A   1      49.823  34.749  28.438  1.00  0.00     0.040 A 
ATOM     91  F   UNL A   1      50.692  33.146  29.874  1.00  0.00    -0.206 F 
ATOM     92  C   UNL A   1      48.949  35.138  27.433  1.00  0.00     0.006 A 
ENDBRANCH  68  85
ENDBRANCH  42  43
ENDBRANCH  34  37
ENDBRANCH  32  33
ENDBRANCH   1  32
TORSDOF 13
ENDMDL
MODEL 3
REMARK VINA RESULT:     -12.4      4.021      9.229
REMARK SMILES Cc1ccc(-c2nn(-c3ccccc3)cc2[C@@H]2[NH2+][C@H](C(=O)NCCCNC(=O)c3ccc(-c4c5nc(c(-c6c(F)cccc6F)c6ccc([nH]6)c(-c6c(F)cccc6F)c6nc(c(-c7c(F)cccc7F)c7ccc4[nH]7)C=C6)C=C5)cc3)CS2)cc1
REMARK SMILES IDX 24 1 23 2 22 3 20 4 21 5 19 7 17 8 18 9 84 10 83 13 16 14
REMARK SMILES IDX 6 15 7 16 8 17 15 18 5 19 1 20 2 21 3 22 86 23 4 24 85 25
REMARK SMILES IDX 9 26 10 27 14 28 11 29 13 30 12 31 25 32 26 33 27 34 28 36
REMARK SMILES IDX 29 37 30 38 82 39 31 40 81 41 32 42 33 43 34 44 75 45 35 46
REMARK SMILES IDX 80 47 74 48 76 49 36 50 79 51 73 52 72 53 37 55 63 56 46 57
REMARK SMILES IDX 62 58 47 59 50 60 61 61 77 62 48 63 49 64 60 66 78 67 51 68
REMARK SMILES IDX 38 69 39 70 44 71 40 72 41 73 43 74 45 75 42 76 64 77 65 78
REMARK SMILES IDX 70 79 66 80 67 81 69 82 71 83 68 84 52 85 53 86 58 87 54 88
REMARK SMILES IDX 55 89 57 90 59 91 56 92
REMARK H PARENT 22 6 18 11 18 12 26 35 76 54 50 65
REMARK Flexibility Score: inf
ROOT
ATOM      1  C   UNL A   1      35.709  32.446  30.117  1.00  0.00     0.042 C 
ENDROOT
BRANCH   1   2
ATOM      2  C   UNL A   1      35.347  31.400  29.061  1.00  0.00     0.118 C 
BRANCH   2   3
ATOM      3  N   UNL A   1      34.190  31.786  28.266  1.00  0.00    -0.351 N 
ATOM      4  C   UNL A   1      33.307  31.065  27.523  1.00  0.00     0.279 C 
ATOM      5  O   UNL A   1      32.386  31.703  26.996  1.00  0.00    -0.268 OA
ATOM      6  H   UNL A   1      34.013  32.754  28.265  1.00  0.00     0.163 HD
BRANCH   4   7
ATOM      7  C   UNL A   1      33.341  29.537  27.375  1.00  0.00     0.283 C 
ATOM      8  C   UNL A   1      32.153  27.773  26.196  1.00  0.00     0.278 C 
ATOM      9  N   UNL A   1      32.020  28.940  27.081  1.00  0.00    -0.320 N 
ATOM     10  S   UNL A   1      33.915  27.411  26.009  1.00  0.00    -0.087 SA
ATOM     11  H   UNL A   1      31.585  28.647  27.956  1.00  0.00     0.348 HD
ATOM     12  H   UNL A   1      31.445  29.639  26.612  1.00  0.00     0.348 HD
ATOM     13  C   UNL A   1      34.382  29.119  26.355  1.00  0.00     0.151 C 
BRANCH   8  14
ATOM     14  C   UNL A   1      31.480  28.146  24.906  1.00  0.00     0.067 A 
ATOM     15  C   UNL A   1      31.076  27.285  23.836  1.00  0.00     0.103 A 
ATOM     16  N   UNL A   1      30.263  27.936  22.988  1.00  0.00    -0.167 NA
ATOM     17  N   UNL A   1      30.238  29.220  23.397  1.00  0.00    -0.240 N 
ATOM     18  C   UNL A   1      31.047  29.401  24.489  1.00  0.00     0.126 A 
BRANCH  15  19
ATOM     19  C   UNL A   1      31.340  25.861  23.582  1.00  0.00     0.003 A 
ATOM     20  C   UNL A   1      32.238  21.728  22.658  1.00  0.00     0.044 C 
ATOM     21  C   UNL A   1      31.934  23.160  22.979  1.00  0.00    -0.051 A 
ATOM     22  C   UNL A   1      30.683  23.518  23.491  1.00  0.00     0.004 A 
ATOM     23  C   UNL A   1      32.876  24.163  22.740  1.00  0.00     0.004 A 
ATOM     24  C   UNL A   1      30.392  24.854  23.793  1.00  0.00     0.011 A 
ATOM     25  C   UNL A   1      32.579  25.496  23.036  1.00  0.00     0.011 A 
ENDBRANCH  15  19
BRANCH  17  26
ATOM     26  C   UNL A   1      29.390  30.180  22.777  1.00  0.00     0.065 A 
ATOM     27  C   UNL A   1      28.774  31.163  23.562  1.00  0.00     0.028 A 
ATOM     28  C   UNL A   1      29.170  30.175  21.394  1.00  0.00     0.028 A 
ATOM     29  C   UNL A   1      27.957  32.134  22.980  1.00  0.00     0.002 A 
ATOM     30  C   UNL A   1      28.309  31.118  20.823  1.00  0.00     0.002 A 
ATOM     31  C   UNL A   1      27.703  32.095  21.614  1.00  0.00     0.000 A 
ENDBRANCH  17  26
ENDBRANCH   8  14
ENDBRANCH   4   7
ENDBRANCH   2   3
ENDBRANCH   1   2
BRANCH   1  32
ATOM     32  C   UNL A   1      34.943  32.295  31.422  1.00  0.00     0.118 C 
BRANCH  32  33
ATOM     33  N   UNL A   1      34.077  33.385  31.872  1.00  0.00    -0.352 N 
ATOM     34  C   UNL A   1      34.398  34.372  32.809  1.00  0.00     0.251 C 
ATOM     35  H   UNL A   1      33.178  33.429  31.473  1.00  0.00     0.163 HD
ATOM     36  O   UNL A   1      33.634  35.236  33.175  1.00  0.00    -0.269 OA
BRANCH  34  37
ATOM     37  C   UNL A   1      35.806  34.387  33.259  1.00  0.00     0.039 A 
ATOM     38  C   UNL A   1      36.765  34.906  32.372  1.00  0.00     0.014 A 
ATOM     39  C   UNL A   1      36.140  33.479  34.249  1.00  0.00     0.014 A 
ATOM     40  C   UNL A   1      38.032  34.326  32.317  1.00  0.00     0.010 A 
ATOM     41  C   UNL A   1      37.341  32.825  34.102  1.00  0.00     0.010 A 
ATOM     42  C   UNL A   1      38.281  33.222  33.123  1.00  0.00    -0.014 A 
BRANCH  42  43
ATOM     43  C   UNL A   1      39.476  32.380  33.099  1.00  0.00     0.031 A 
ATOM     44  C   UNL A   1      39.356  31.064  32.417  1.00  0.00     0.074 A 
ATOM     45  C   UNL A   1      40.702  32.904  33.325  1.00  0.00     0.049 A 
ATOM     46  N   UNL A   1      40.329  30.255  32.186  1.00  0.00    -0.248 NA
ATOM     47  C   UNL A   1      38.073  30.548  31.942  1.00  0.00     0.031 C 
ATOM     48  C   UNL A   1      41.951  32.461  32.710  1.00  0.00     0.029 A 
ATOM     49  N   UNL A   1      41.111  33.812  34.308  1.00  0.00    -0.354 N 
ATOM     50  C   UNL A   1      39.895  29.317  31.278  1.00  0.00     0.074 A 
ATOM     51  C   UNL A   1      38.466  29.489  31.234  1.00  0.00     0.031 C 
ATOM     52  C   UNL A   1      42.984  32.863  33.459  1.00  0.00     0.029 A 
ATOM     53  C   UNL A   1      42.443  33.453  34.663  1.00  0.00     0.049 A 
ATOM     54  H   UNL A   1      40.582  34.555  34.680  1.00  0.00     0.167 HD
ATOM     55  C   UNL A   1      40.833  28.596  30.601  1.00  0.00     0.037 A 
ATOM     56  C   UNL A   1      42.741  33.011  35.922  1.00  0.00     0.037 A 
ATOM     57  C   UNL A   1      42.139  28.705  31.269  1.00  0.00     0.049 A 
ATOM     58  C   UNL A   1      43.076  31.549  36.035  1.00  0.00     0.074 A 
ATOM     59  C   UNL A   1      43.332  29.365  31.035  1.00  0.00     0.029 A 
ATOM     60  N   UNL A   1      42.220  28.238  32.569  1.00  0.00    -0.354 N 
ATOM     61  N   UNL A   1      43.327  30.768  35.022  1.00  0.00    -0.248 NA
ATOM     62  C   UNL A   1      43.053  30.829  37.310  1.00  0.00     0.031 C 
ATOM     63  C   UNL A   1      44.093  29.345  32.248  1.00  0.00     0.029 A 
ATOM     64  C   UNL A   1      43.368  28.659  33.207  1.00  0.00     0.049 A 
ATOM     65  H   UNL A   1      41.536  27.671  32.991  1.00  0.00     0.167 HD
ATOM     66  C   UNL A   1      43.389  29.475  35.466  1.00  0.00     0.074 A 
ATOM     67  C   UNL A   1      43.243  29.563  36.907  1.00  0.00     0.031 C 
ATOM     68  C   UNL A   1      43.489  28.400  34.633  1.00  0.00     0.037 A 
BRANCH  55  69
ATOM     69  C   UNL A   1      40.627  27.882  29.276  1.00  0.00     0.057 A 
ATOM     70  C   UNL A   1      41.247  28.376  28.109  1.00  0.00     0.134 A 
ATOM     71  C   UNL A   1      39.780  26.781  29.037  1.00  0.00     0.134 A 
ATOM     72  F   UNL A   1      42.096  29.411  28.145  1.00  0.00    -0.206 F 
ATOM     73  C   UNL A   1      41.016  27.846  26.829  1.00  0.00     0.040 A 
ATOM     74  C   UNL A   1      39.547  26.237  27.766  1.00  0.00     0.040 A 
ATOM     75  F   UNL A   1      39.113  26.152  30.004  1.00  0.00    -0.206 F 
ATOM     76  C   UNL A   1      40.156  26.775  26.651  1.00  0.00     0.006 A 
ENDBRANCH  55  69
BRANCH  56  77
ATOM     77  C   UNL A   1      42.096  33.839  36.963  1.00  0.00     0.057 A 
ATOM     78  C   UNL A   1      42.645  35.121  37.127  1.00  0.00     0.134 A 
ATOM     79  C   UNL A   1      40.741  33.649  37.248  1.00  0.00     0.134 A 
ATOM     80  F   UNL A   1      43.953  35.333  36.916  1.00  0.00    -0.206 F 
ATOM     81  C   UNL A   1      41.824  36.224  37.306  1.00  0.00     0.040 A 
ATOM     82  C   UNL A   1      39.909  34.750  37.422  1.00  0.00     0.040 A 
ATOM     83  F   UNL A   1      40.185  32.434  37.146  1.00  0.00    -0.206 F 
ATOM     84  C   UNL A   1      40.450  36.035  37.379  1.00  0.00     0.006 A 
ENDBRANCH  56  77
BRANCH  68  85
ATOM     85  C   UNL A   1      43.663  27.009  35.162  1.00  0.00     0.057 A 
ATOM     86  C   UNL A   1      44.938  26.487  35.435  1.00  0.00     0.134 A 
ATOM     87  C   UNL A   1      42.590  26.112  35.308  1.00  0.00     0.134 A 
ATOM     88  F   UNL A   1      46.037  27.242  35.285  1.00  0.00    -0.206 F 
ATOM     89  C   UNL A   1      45.130  25.169  35.860  1.00  0.00     0.040 A 
ATOM     90  C   UNL A   1      42.775  24.778  35.682  1.00  0.00     0.040 A 
ATOM     91  F   UNL A   1      41.321  26.496  35.117  1.00  0.00    -0.206 F 
ATOM     92  C   UNL A   1      44.047  24.305  35.971  1.00  0.00     0.006 A 
ENDBRANCH  68  85
ENDBRANCH  42  43
ENDBRANCH  34  37
ENDBRANCH  32  33
ENDBRANCH   1  32
TORSDOF 13
ENDMDL
