MODEL 1
REMARK VINA RESULT:     -13.5      0.000      0.000
REMARK SMILES CC(=O)Nc1ccc(/C=C2/CCc3oc(C(=O)NCCCNC(=O)c4ccc(-c5c6nc(c(-c7c(F)cccc7F)c7ccc([nH]7)c(-c7c(F)cccc7F)c7nc(c(-c8c(F)cccc8F)c8ccc5[nH]8)C=C7)C=C6)cc4)c(C)c3C2=O)cc1
REMARK SMILES IDX 20 1 19 2 18 3 16 4 17 5 15 7 9 8 10 9 11 10 82 11 12 12
REMARK SMILES IDX 81 13 83 14 13 15 79 16 14 17 80 18 8 19 5 20 6 21 85 22
REMARK SMILES IDX 7 23 84 24 4 25 1 26 2 27 3 28 21 30 22 31 23 32 24 34 25 35
REMARK SMILES IDX 26 36 78 37 27 38 77 39 28 40 29 41 30 42 71 43 31 44 76 45
REMARK SMILES IDX 70 46 72 47 32 48 75 49 69 50 68 51 33 53 59 54 42 55 58 56
REMARK SMILES IDX 43 57 46 58 57 59 73 60 44 61 45 62 56 64 74 65 47 66 34 67
REMARK SMILES IDX 35 68 40 69 36 70 37 71 39 72 41 73 38 74 60 75 61 76 66 77
REMARK SMILES IDX 62 78 63 79 65 80 67 81 64 82 48 83 49 84 54 85 50 86 51 87
REMARK SMILES IDX 53 88 55 89 52 90
REMARK H PARENT 18 6 4 29 22 33 72 52 46 63
REMARK Flexibility Score: inf
ROOT
ATOM      1  C   UNL A   1      33.504  29.509  26.969  1.00  0.00     0.042 C 
ENDROOT
BRANCH   1   2
ATOM      2  C   UNL A   1      33.479  29.625  25.442  1.00  0.00     0.118 C 
BRANCH   2   3
ATOM      3  N   UNL A   1      32.127  29.717  24.912  1.00  0.00    -0.349 N 
ATOM      4  C   UNL A   1      31.338  28.784  24.275  1.00  0.00     0.287 C 
ATOM      5  O   UNL A   1      30.194  29.154  23.996  1.00  0.00    -0.266 OA
ATOM      6  H   UNL A   1      31.704  30.599  25.028  1.00  0.00     0.163 HD
BRANCH   4   7
ATOM      7  C   UNL A   1      31.836  27.450  23.970  1.00  0.00     0.195 A 
ATOM      8  C   UNL A   1      35.178  23.011  22.970  1.00  0.00     0.016 C 
ATOM      9  C   UNL A   1      33.923  23.504  22.965  1.00  0.00     0.001 C 
ATOM     10  C   UNL A   1      33.129  23.673  21.673  1.00  0.00     0.048 C 
ATOM     11  C   UNL A   1      33.196  24.024  24.176  1.00  0.00     0.192 C 
ATOM     12  C   UNL A   1      32.824  25.157  21.384  1.00  0.00     0.081 C 
ATOM     13  C   UNL A   1      32.663  25.349  23.937  1.00  0.00     0.067 A 
ATOM     14  O   UNL A   1      33.025  23.387  25.206  1.00  0.00    -0.289 OA
ATOM     15  C   UNL A   1      32.481  25.819  22.660  1.00  0.00     0.116 A 
ATOM     16  C   UNL A   1      32.262  26.410  24.804  1.00  0.00     0.012 A 
ATOM     17  O   UNL A   1      31.951  27.053  22.661  1.00  0.00    -0.455 OA
ATOM     18  C   UNL A   1      32.360  26.386  26.288  1.00  0.00     0.049 C 
BRANCH   8  19
ATOM     19  C   UNL A   1      36.202  22.875  24.032  1.00  0.00    -0.025 A 
ATOM     20  C   UNL A   1      38.267  22.453  25.938  1.00  0.00     0.041 A 
ATOM     21  C   UNL A   1      37.649  23.693  25.819  1.00  0.00     0.027 A 
ATOM     22  C   UNL A   1      37.827  21.406  25.134  1.00  0.00     0.027 A 
ATOM     23  C   UNL A   1      36.661  23.908  24.852  1.00  0.00     0.010 A 
ATOM     24  C   UNL A   1      36.799  21.614  24.201  1.00  0.00     0.010 A 
BRANCH  20  25
ATOM     25  N   UNL A   1      39.276  22.331  26.901  1.00  0.00    -0.326 N 
ATOM     26  C   UNL A   1      40.310  20.205  26.143  1.00  0.00     0.114 C 
ATOM     27  C   UNL A   1      40.145  21.308  27.153  1.00  0.00     0.221 C 
ATOM     28  O   UNL A   1      40.845  21.349  28.167  1.00  0.00    -0.275 OA
ATOM     29  H   UNL A   1      39.375  23.110  27.494  1.00  0.00     0.169 HD
ENDBRANCH  20  25
ENDBRANCH   8  19
ENDBRANCH   4   7
ENDBRANCH   2   3
ENDBRANCH   1   2
BRANCH   1  30
ATOM     30  C   UNL A   1      34.929  29.379  27.499  1.00  0.00     0.118 C 
BRANCH  30  31
ATOM     31  N   UNL A   1      35.169  30.236  28.662  1.00  0.00    -0.352 N 
ATOM     32  C   UNL A   1      36.253  30.259  29.513  1.00  0.00     0.251 C 
ATOM     33  H   UNL A   1      34.458  30.887  28.863  1.00  0.00     0.163 HD
ATOM     34  O   UNL A   1      36.186  30.840  30.591  1.00  0.00    -0.269 OA
BRANCH  32  35
ATOM     35  C   UNL A   1      37.483  29.545  29.131  1.00  0.00     0.039 A 
ATOM     36  C   UNL A   1      38.162  29.893  27.962  1.00  0.00     0.014 A 
ATOM     37  C   UNL A   1      37.990  28.564  29.979  1.00  0.00     0.014 A 
ATOM     38  C   UNL A   1      39.410  29.327  27.711  1.00  0.00     0.010 A 
ATOM     39  C   UNL A   1      39.276  28.103  29.796  1.00  0.00     0.010 A 
ATOM     40  C   UNL A   1      39.991  28.461  28.655  1.00  0.00    -0.014 A 
BRANCH  40  41
ATOM     41  C   UNL A   1      41.394  28.057  28.503  1.00  0.00     0.031 A 
ATOM     42  C   UNL A   1      41.606  26.761  27.792  1.00  0.00     0.074 A 
ATOM     43  C   UNL A   1      42.457  28.846  28.776  1.00  0.00     0.049 A 
ATOM     44  N   UNL A   1      42.139  25.681  28.259  1.00  0.00    -0.248 NA
ATOM     45  C   UNL A   1      41.084  26.622  26.422  1.00  0.00     0.031 C 
ATOM     46  C   UNL A   1      42.448  30.255  29.189  1.00  0.00     0.029 A 
ATOM     47  N   UNL A   1      43.793  28.576  28.651  1.00  0.00    -0.354 N 
ATOM     48  C   UNL A   1      42.205  24.788  27.190  1.00  0.00     0.074 A 
ATOM     49  C   UNL A   1      41.417  25.362  26.132  1.00  0.00     0.031 C 
ATOM     50  C   UNL A   1      43.687  30.775  29.059  1.00  0.00     0.029 A 
ATOM     51  C   UNL A   1      44.608  29.697  28.754  1.00  0.00     0.049 A 
ATOM     52  H   UNL A   1      44.146  27.669  28.502  1.00  0.00     0.167 HD
ATOM     53  C   UNL A   1      43.111  23.771  27.182  1.00  0.00     0.037 A 
ATOM     54  C   UNL A   1      45.954  29.761  28.642  1.00  0.00     0.037 A 
ATOM     55  C   UNL A   1      43.688  23.573  28.484  1.00  0.00     0.049 A 
ATOM     56  C   UNL A   1      46.504  28.423  28.930  1.00  0.00     0.074 A 
ATOM     57  C   UNL A   1      43.348  22.949  29.662  1.00  0.00     0.029 A 
ATOM     58  N   UNL A   1      44.735  24.411  28.754  1.00  0.00    -0.354 N 
ATOM     59  N   UNL A   1      46.461  27.867  30.108  1.00  0.00    -0.248 NA
ATOM     60  C   UNL A   1      46.883  27.541  27.833  1.00  0.00     0.031 C 
ATOM     61  C   UNL A   1      44.126  23.569  30.687  1.00  0.00     0.029 A 
ATOM     62  C   UNL A   1      44.930  24.542  30.103  1.00  0.00     0.049 A 
ATOM     63  H   UNL A   1      45.278  24.860  28.067  1.00  0.00     0.167 HD
ATOM     64  C   UNL A   1      46.381  26.518  29.838  1.00  0.00     0.074 A 
ATOM     65  C   UNL A   1      46.841  26.366  28.465  1.00  0.00     0.031 C 
ATOM     66  C   UNL A   1      45.628  25.695  30.618  1.00  0.00     0.037 A 
BRANCH  53  67
ATOM     67  C   UNL A   1      43.833  23.262  25.952  1.00  0.00     0.057 A 
ATOM     68  C   UNL A   1      43.985  21.874  25.767  1.00  0.00     0.134 A 
ATOM     69  C   UNL A   1      44.655  24.064  25.135  1.00  0.00     0.134 A 
ATOM     70  F   UNL A   1      43.275  21.000  26.497  1.00  0.00    -0.206 F 
ATOM     71  C   UNL A   1      44.927  21.329  24.884  1.00  0.00     0.040 A 
ATOM     72  C   UNL A   1      45.564  23.531  24.215  1.00  0.00     0.040 A 
ATOM     73  F   UNL A   1      44.700  25.397  25.256  1.00  0.00    -0.206 F 
ATOM     74  C   UNL A   1      45.725  22.158  24.108  1.00  0.00     0.006 A 
ENDBRANCH  53  67
BRANCH  54  75
ATOM     75  C   UNL A   1      46.816  30.881  28.227  1.00  0.00     0.057 A 
ATOM     76  C   UNL A   1      46.741  31.422  26.937  1.00  0.00     0.134 A 
ATOM     77  C   UNL A   1      47.532  31.626  29.178  1.00  0.00     0.134 A 
ATOM     78  F   UNL A   1      46.062  30.789  25.970  1.00  0.00    -0.206 F 
ATOM     79  C   UNL A   1      47.310  32.660  26.620  1.00  0.00     0.040 A 
ATOM     80  C   UNL A   1      48.107  32.862  28.874  1.00  0.00     0.040 A 
ATOM     81  F   UNL A   1      47.614  31.215  30.452  1.00  0.00    -0.206 F 
ATOM     82  C   UNL A   1      47.980  33.393  27.594  1.00  0.00     0.006 A 
ENDBRANCH  54  75
BRANCH  66  83
ATOM     83  C   UNL A   1      45.354  26.142  32.018  1.00  0.00     0.057 A 
ATOM     84  C   UNL A   1      44.200  26.829  32.415  1.00  0.00     0.134 A 
ATOM     85  C   UNL A   1      46.282  25.824  33.013  1.00  0.00     0.134 A 
ATOM     86  F   UNL A   1      43.228  27.114  31.540  1.00  0.00    -0.206 F 
ATOM     87  C   UNL A   1      44.001  27.220  33.742  1.00  0.00     0.040 A 
ATOM     88  C   UNL A   1      46.083  26.182  34.346  1.00  0.00     0.040 A 
ATOM     89  F   UNL A   1      47.392  25.133  32.705  1.00  0.00    -0.206 F 
ATOM     90  C   UNL A   1      44.943  26.893  34.713  1.00  0.00     0.006 A 
ENDBRANCH  66  83
ENDBRANCH  40  41
ENDBRANCH  32  35
ENDBRANCH  30  31
ENDBRANCH   1  30
TORSDOF 12
ENDMDL
MODEL 2
REMARK VINA RESULT:     -13.1      3.875      5.436
REMARK SMILES CC(=O)Nc1ccc(/C=C2/CCc3oc(C(=O)NCCCNC(=O)c4ccc(-c5c6nc(c(-c7c(F)cccc7F)c7ccc([nH]7)c(-c7c(F)cccc7F)c7nc(c(-c8c(F)cccc8F)c8ccc5[nH]8)C=C7)C=C6)cc4)c(C)c3C2=O)cc1
REMARK SMILES IDX 20 1 19 2 18 3 16 4 17 5 15 7 9 8 10 9 11 10 82 11 12 12
REMARK SMILES IDX 81 13 83 14 13 15 79 16 14 17 80 18 8 19 5 20 6 21 85 22
REMARK SMILES IDX 7 23 84 24 4 25 1 26 2 27 3 28 21 30 22 31 23 32 24 34 25 35
REMARK SMILES IDX 26 36 78 37 27 38 77 39 28 40 29 41 30 42 71 43 31 44 76 45
REMARK SMILES IDX 70 46 72 47 32 48 75 49 69 50 68 51 33 53 59 54 42 55 58 56
REMARK SMILES IDX 43 57 46 58 57 59 73 60 44 61 45 62 56 64 74 65 47 66 34 67
REMARK SMILES IDX 35 68 40 69 36 70 37 71 39 72 41 73 38 74 60 75 61 76 66 77
REMARK SMILES IDX 62 78 63 79 65 80 67 81 64 82 48 83 49 84 54 85 50 86 51 87
REMARK SMILES IDX 53 88 55 89 52 90
REMARK H PARENT 18 6 4 29 22 33 72 52 46 63
REMARK Flexibility Score: inf
ROOT
ATOM      1  C   UNL A   1      31.494  31.912  26.493  1.00  0.00     0.042 C 
ENDROOT
BRANCH   1   2
ATOM      2  C   UNL A   1      31.809  30.480  26.052  1.00  0.00     0.118 C 
BRANCH   2   3
ATOM      3  N   UNL A   1      33.031  29.967  26.653  1.00  0.00    -0.349 N 
ATOM      4  C   UNL A   1      33.777  28.842  26.372  1.00  0.00     0.287 C 
ATOM      5  O   UNL A   1      34.814  28.712  27.028  1.00  0.00    -0.266 OA
ATOM      6  H   UNL A   1      33.386  30.519  27.387  1.00  0.00     0.163 HD
BRANCH   4   7
ATOM      7  C   UNL A   1      33.357  27.887  25.357  1.00  0.00     0.195 A 
ATOM      8  C   UNL A   1      32.932  23.337  22.041  1.00  0.00     0.016 C 
ATOM      9  C   UNL A   1      32.520  24.596  22.289  1.00  0.00     0.001 C 
ATOM     10  C   UNL A   1      32.800  25.741  21.319  1.00  0.00     0.048 C 
ATOM     11  C   UNL A   1      31.836  25.048  23.551  1.00  0.00     0.192 C 
ATOM     12  C   UNL A   1      33.722  26.805  21.948  1.00  0.00     0.081 C 
ATOM     13  C   UNL A   1      32.498  26.203  24.120  1.00  0.00     0.067 A 
ATOM     14  O   UNL A   1      30.819  24.542  24.005  1.00  0.00    -0.289 OA
ATOM     15  C   UNL A   1      33.323  26.993  23.359  1.00  0.00     0.116 A 
ATOM     16  C   UNL A   1      32.524  26.764  25.433  1.00  0.00     0.012 A 
ATOM     17  O   UNL A   1      33.810  28.024  24.068  1.00  0.00    -0.455 OA
ATOM     18  C   UNL A   1      31.837  26.193  26.623  1.00  0.00     0.049 C 
BRANCH   8  19
ATOM     19  C   UNL A   1      32.921  22.096  22.851  1.00  0.00    -0.025 A 
ATOM     20  C   UNL A   1      32.869  19.600  24.208  1.00  0.00     0.041 A 
ATOM     21  C   UNL A   1      33.601  20.670  24.712  1.00  0.00     0.027 A 
ATOM     22  C   UNL A   1      32.125  19.785  23.047  1.00  0.00     0.027 A 
ATOM     23  C   UNL A   1      33.657  21.885  24.019  1.00  0.00     0.010 A 
ATOM     24  C   UNL A   1      32.144  21.022  22.385  1.00  0.00     0.010 A 
BRANCH  20  25
ATOM     25  N   UNL A   1      32.899  18.405  24.938  1.00  0.00    -0.326 N 
ATOM     26  C   UNL A   1      34.189  16.993  23.356  1.00  0.00     0.114 C 
ATOM     27  C   UNL A   1      33.344  17.163  24.589  1.00  0.00     0.221 C 
ATOM     28  O   UNL A   1      33.118  16.210  25.338  1.00  0.00    -0.275 OA
ATOM     29  H   UNL A   1      32.538  18.472  25.851  1.00  0.00     0.169 HD
ENDBRANCH  20  25
ENDBRANCH   8  19
ENDBRANCH   4   7
ENDBRANCH   2   3
ENDBRANCH   1   2
BRANCH   1  30
ATOM     30  C   UNL A   1      32.655  32.530  27.264  1.00  0.00     0.118 C 
BRANCH  30  31
ATOM     31  N   UNL A   1      32.331  33.860  27.786  1.00  0.00    -0.352 N 
ATOM     32  C   UNL A   1      33.002  34.608  28.729  1.00  0.00     0.251 C 
ATOM     33  H   UNL A   1      31.522  34.276  27.411  1.00  0.00     0.163 HD
ATOM     34  O   UNL A   1      32.461  35.575  29.256  1.00  0.00    -0.269 OA
BRANCH  32  35
ATOM     35  C   UNL A   1      34.364  34.213  29.127  1.00  0.00     0.039 A 
ATOM     36  C   UNL A   1      34.557  33.360  30.215  1.00  0.00     0.014 A 
ATOM     37  C   UNL A   1      35.446  34.651  28.369  1.00  0.00     0.014 A 
ATOM     38  C   UNL A   1      35.834  32.863  30.465  1.00  0.00     0.010 A 
ATOM     39  C   UNL A   1      36.680  34.061  28.539  1.00  0.00     0.010 A 
ATOM     40  C   UNL A   1      36.894  33.179  29.595  1.00  0.00    -0.014 A 
BRANCH  40  41
ATOM     41  C   UNL A   1      38.173  32.470  29.721  1.00  0.00     0.031 A 
ATOM     42  C   UNL A   1      38.146  31.036  29.307  1.00  0.00     0.074 A 
ATOM     43  C   UNL A   1      39.359  33.063  29.984  1.00  0.00     0.049 A 
ATOM     44  N   UNL A   1      38.370  29.997  30.042  1.00  0.00    -0.248 NA
ATOM     45  C   UNL A   1      37.738  30.713  27.930  1.00  0.00     0.031 C 
ATOM     46  C   UNL A   1      39.637  34.499  30.114  1.00  0.00     0.029 A 
ATOM     47  N   UNL A   1      40.603  32.503  30.100  1.00  0.00    -0.354 N 
ATOM     48  C   UNL A   1      38.327  28.900  29.183  1.00  0.00     0.074 A 
ATOM     49  C   UNL A   1      37.796  29.379  27.935  1.00  0.00     0.031 C 
ATOM     50  C   UNL A   1      40.969  34.712  30.061  1.00  0.00     0.029 A 
ATOM     51  C   UNL A   1      41.640  33.427  30.099  1.00  0.00     0.049 A 
ATOM     52  H   UNL A   1      40.749  31.533  30.177  1.00  0.00     0.167 HD
ATOM     53  C   UNL A   1      38.971  27.740  29.496  1.00  0.00     0.037 A 
ATOM     54  C   UNL A   1      42.969  33.186  30.167  1.00  0.00     0.037 A 
ATOM     55  C   UNL A   1      39.363  27.716  30.880  1.00  0.00     0.049 A 
ATOM     56  C   UNL A   1      43.167  31.859  30.779  1.00  0.00     0.074 A 
ATOM     57  C   UNL A   1      38.778  27.446  32.096  1.00  0.00     0.029 A 
ATOM     58  N   UNL A   1      40.544  28.357  31.127  1.00  0.00    -0.354 N 
ATOM     59  N   UNL A   1      42.886  31.593  32.023  1.00  0.00    -0.248 NA
ATOM     60  C   UNL A   1      43.433  30.700  29.934  1.00  0.00     0.031 C 
ATOM     61  C   UNL A   1      39.579  28.100  33.081  1.00  0.00     0.029 A 
ATOM     62  C   UNL A   1      40.637  28.735  32.440  1.00  0.00     0.049 A 
ATOM     63  H   UNL A   1      41.238  28.524  30.450  1.00  0.00     0.167 HD
ATOM     64  C   UNL A   1      42.523  30.264  32.008  1.00  0.00     0.074 A 
ATOM     65  C   UNL A   1      43.063  29.726  30.767  1.00  0.00     0.031 C 
ATOM     66  C   UNL A   1      41.531  29.803  32.818  1.00  0.00     0.037 A 
BRANCH  53  67
ATOM     67  C   UNL A   1      39.669  26.839  28.499  1.00  0.00     0.057 A 
ATOM     68  C   UNL A   1      40.541  27.407  27.548  1.00  0.00     0.134 A 
ATOM     69  C   UNL A   1      39.274  25.514  28.227  1.00  0.00     0.134 A 
ATOM     70  F   UNL A   1      40.976  28.669  27.681  1.00  0.00    -0.206 F 
ATOM     71  C   UNL A   1      40.934  26.729  26.387  1.00  0.00     0.040 A 
ATOM     72  C   UNL A   1      39.700  24.811  27.094  1.00  0.00     0.040 A 
ATOM     73  F   UNL A   1      38.375  24.867  28.979  1.00  0.00    -0.206 F 
ATOM     74  C   UNL A   1      40.509  25.428  26.153  1.00  0.00     0.006 A 
ENDBRANCH  53  67
BRANCH  54  75
ATOM     75  C   UNL A   1      44.102  33.987  29.670  1.00  0.00     0.057 A 
ATOM     76  C   UNL A   1      44.438  34.012  28.310  1.00  0.00     0.134 A 
ATOM     77  C   UNL A   1      44.701  34.964  30.481  1.00  0.00     0.134 A 
ATOM     78  F   UNL A   1      43.899  33.130  27.457  1.00  0.00    -0.206 F 
ATOM     79  C   UNL A   1      45.290  34.985  27.776  1.00  0.00     0.040 A 
ATOM     80  C   UNL A   1      45.555  35.939  29.962  1.00  0.00     0.040 A 
ATOM     81  F   UNL A   1      44.399  35.052  31.785  1.00  0.00    -0.206 F 
ATOM     82  C   UNL A   1      45.838  35.964  28.600  1.00  0.00     0.006 A 
ENDBRANCH  54  75
BRANCH  66  83
ATOM     83  C   UNL A   1      41.237  30.591  34.054  1.00  0.00     0.057 A 
ATOM     84  C   UNL A   1      40.255  31.584  34.142  1.00  0.00     0.134 A 
ATOM     85  C   UNL A   1      41.955  30.297  35.218  1.00  0.00     0.134 A 
ATOM     86  F   UNL A   1      39.475  31.882  33.096  1.00  0.00    -0.206 F 
ATOM     87  C   UNL A   1      40.027  32.286  35.329  1.00  0.00     0.040 A 
ATOM     88  C   UNL A   1      41.718  30.969  36.416  1.00  0.00     0.040 A 
ATOM     89  F   UNL A   1      42.885  29.328  35.210  1.00  0.00    -0.206 F 
ATOM     90  C   UNL A   1      40.758  31.976  36.472  1.00  0.00     0.006 A 
ENDBRANCH  66  83
ENDBRANCH  40  41
ENDBRANCH  32  35
ENDBRANCH  30  31
ENDBRANCH   1  30
TORSDOF 12
ENDMDL
MODEL 3
REMARK VINA RESULT:     -12.9      1.959      2.781
REMARK SMILES CC(=O)Nc1ccc(/C=C2/CCc3oc(C(=O)NCCCNC(=O)c4ccc(-c5c6nc(c(-c7c(F)cccc7F)c7ccc([nH]7)c(-c7c(F)cccc7F)c7nc(c(-c8c(F)cccc8F)c8ccc5[nH]8)C=C7)C=C6)cc4)c(C)c3C2=O)cc1
REMARK SMILES IDX 20 1 19 2 18 3 16 4 17 5 15 7 9 8 10 9 11 10 82 11 12 12
REMARK SMILES IDX 81 13 83 14 13 15 79 16 14 17 80 18 8 19 5 20 6 21 85 22
REMARK SMILES IDX 7 23 84 24 4 25 1 26 2 27 3 28 21 30 22 31 23 32 24 34 25 35
REMARK SMILES IDX 26 36 78 37 27 38 77 39 28 40 29 41 30 42 71 43 31 44 76 45
REMARK SMILES IDX 70 46 72 47 32 48 75 49 69 50 68 51 33 53 59 54 42 55 58 56
REMARK SMILES IDX 43 57 46 58 57 59 73 60 44 61 45 62 56 64 74 65 47 66 34 67
REMARK SMILES IDX 35 68 40 69 36 70 37 71 39 72 41 73 38 74 60 75 61 76 66 77
REMARK SMILES IDX 62 78 63 79 65 80 67 81 64 82 48 83 49 84 54 85 50 86 51 87
REMARK SMILES IDX 53 88 55 89 52 90
REMARK H PARENT 18 6 4 29 22 33 72 52 46 63
REMARK Flexibility Score: inf
ROOT
ATOM      1  C   UNL A   1      34.156  30.940  27.286  1.00  0.00     0.042 C 
ENDROOT
BRANCH   1   2
ATOM      2  C   UNL A   1      33.758  29.508  26.913  1.00  0.00     0.118 C 
BRANCH   2   3
ATOM      3  N   UNL A   1      32.547  29.071  27.592  1.00  0.00    -0.349 N 
ATOM      4  C   UNL A   1      31.631  28.092  27.271  1.00  0.00     0.287 C 
ATOM      5  O   UNL A   1      30.729  27.916  28.094  1.00  0.00    -0.266 OA
ATOM      6  H   UNL A   1      32.348  29.559  28.424  1.00  0.00     0.163 HD
BRANCH   4   7
ATOM      7  C   UNL A   1      31.745  27.320  26.042  1.00  0.00     0.195 A 
ATOM      8  C   UNL A   1      33.142  23.436  22.190  1.00  0.00     0.016 C 
ATOM      9  C   UNL A   1      32.529  24.611  22.439  1.00  0.00     0.001 C 
ATOM     10  C   UNL A   1      33.033  25.924  21.846  1.00  0.00     0.048 C 
ATOM     11  C   UNL A   1      31.365  24.796  23.375  1.00  0.00     0.192 C 
ATOM     12  C   UNL A   1      33.517  26.894  22.943  1.00  0.00     0.081 C 
ATOM     13  C   UNL A   1      31.624  25.855  24.328  1.00  0.00     0.067 A 
ATOM     14  O   UNL A   1      30.314  24.173  23.302  1.00  0.00    -0.289 OA
ATOM     15  C   UNL A   1      32.585  26.805  24.087  1.00  0.00     0.116 A 
ATOM     16  C   UNL A   1      31.078  26.168  25.609  1.00  0.00     0.012 A 
ATOM     17  O   UNL A   1      32.643  27.709  25.079  1.00  0.00    -0.455 OA
ATOM     18  C   UNL A   1      30.052  25.361  26.324  1.00  0.00     0.049 C 
BRANCH   8  19
ATOM     19  C   UNL A   1      32.957  22.070  22.731  1.00  0.00    -0.025 A 
ATOM     20  C   UNL A   1      32.634  19.537  23.979  1.00  0.00     0.041 A 
ATOM     21  C   UNL A   1      31.985  19.831  22.783  1.00  0.00     0.027 A 
ATOM     22  C   UNL A   1      33.481  20.492  24.533  1.00  0.00     0.027 A 
ATOM     23  C   UNL A   1      32.114  21.093  22.194  1.00  0.00     0.010 A 
ATOM     24  C   UNL A   1      33.647  21.737  23.909  1.00  0.00     0.010 A 
BRANCH  20  25
ATOM     25  N   UNL A   1      32.419  18.266  24.526  1.00  0.00    -0.326 N 
ATOM     26  C   UNL A   1      34.481  17.129  23.742  1.00  0.00     0.114 C 
ATOM     27  C   UNL A   1      33.113  17.102  24.367  1.00  0.00     0.221 C 
ATOM     28  O   UNL A   1      32.643  16.054  24.817  1.00  0.00    -0.275 OA
ATOM     29  H   UNL A   1      31.638  18.202  25.123  1.00  0.00     0.169 HD
ENDBRANCH  20  25
ENDBRANCH   8  19
ENDBRANCH   4   7
ENDBRANCH   2   3
ENDBRANCH   1   2
BRANCH   1  30
ATOM     30  C   UNL A   1      35.565  30.997  27.866  1.00  0.00     0.118 C 
BRANCH  30  31
ATOM     31  N   UNL A   1      35.565  30.975  29.330  1.00  0.00    -0.352 N 
ATOM     32  C   UNL A   1      36.358  30.242  30.187  1.00  0.00     0.251 C 
ATOM     33  H   UNL A   1      34.908  31.567  29.763  1.00  0.00     0.163 HD
ATOM     34  O   UNL A   1      36.056  30.128  31.370  1.00  0.00    -0.269 OA
BRANCH  32  35
ATOM     35  C   UNL A   1      37.553  29.564  29.658  1.00  0.00     0.039 A 
ATOM     36  C   UNL A   1      38.270  30.127  28.600  1.00  0.00     0.014 A 
ATOM     37  C   UNL A   1      37.991  28.389  30.263  1.00  0.00     0.014 A 
ATOM     38  C   UNL A   1      39.489  29.562  28.233  1.00  0.00     0.010 A 
ATOM     39  C   UNL A   1      39.253  27.909  29.985  1.00  0.00     0.010 A 
ATOM     40  C   UNL A   1      40.005  28.474  28.958  1.00  0.00    -0.014 A 
BRANCH  40  41
ATOM     41  C   UNL A   1      41.386  28.035  28.724  1.00  0.00     0.031 A 
ATOM     42  C   UNL A   1      41.524  26.753  27.971  1.00  0.00     0.074 A 
ATOM     43  C   UNL A   1      42.484  28.786  28.961  1.00  0.00     0.049 A 
ATOM     44  N   UNL A   1      42.049  25.646  28.383  1.00  0.00    -0.248 NA
ATOM     45  C   UNL A   1      40.929  26.664  26.627  1.00  0.00     0.031 C 
ATOM     46  C   UNL A   1      42.538  30.184  29.408  1.00  0.00     0.029 A 
ATOM     47  N   UNL A   1      43.804  28.483  28.760  1.00  0.00    -0.354 N 
ATOM     48  C   UNL A   1      42.033  24.780  27.291  1.00  0.00     0.074 A 
ATOM     49  C   UNL A   1      41.209  25.403  26.289  1.00  0.00     0.031 C 
ATOM     50  C   UNL A   1      43.783  30.673  29.227  1.00  0.00     0.029 A 
ATOM     51  C   UNL A   1      44.655  29.577  28.848  1.00  0.00     0.049 A 
ATOM     52  H   UNL A   1      44.122  27.571  28.570  1.00  0.00     0.167 HD
ATOM     53  C   UNL A   1      42.908  23.739  27.210  1.00  0.00     0.037 A 
ATOM     54  C   UNL A   1      45.995  29.607  28.669  1.00  0.00     0.037 A 
ATOM     55  C   UNL A   1      43.545  23.491  28.476  1.00  0.00     0.049 A 
ATOM     56  C   UNL A   1      46.520  28.247  28.895  1.00  0.00     0.074 A 
ATOM     57  C   UNL A   1      43.247  22.846  29.654  1.00  0.00     0.029 A 
ATOM     58  N   UNL A   1      44.628  24.291  28.711  1.00  0.00    -0.354 N 
ATOM     59  N   UNL A   1      46.521  27.661  30.059  1.00  0.00    -0.248 NA
ATOM     60  C   UNL A   1      46.816  27.384  27.758  1.00  0.00     0.031 C 
ATOM     61  C   UNL A   1      44.094  23.417  30.652  1.00  0.00     0.029 A 
ATOM     62  C   UNL A   1      44.895  24.382  30.051  1.00  0.00     0.049 A 
ATOM     63  H   UNL A   1      45.148  24.743  28.008  1.00  0.00     0.167 HD
ATOM     64  C   UNL A   1      46.388  26.323  29.760  1.00  0.00     0.074 A 
ATOM     65  C   UNL A   1      46.773  26.194  28.362  1.00  0.00     0.031 C 
ATOM     66  C   UNL A   1      45.652  25.501  30.558  1.00  0.00     0.037 A 
BRANCH  53  67
ATOM     67  C   UNL A   1      43.551  23.242  25.933  1.00  0.00     0.057 A 
ATOM     68  C   UNL A   1      43.497  21.869  25.622  1.00  0.00     0.134 A 
ATOM     69  C   UNL A   1      44.484  23.985  25.182  1.00  0.00     0.134 A 
ATOM     70  F   UNL A   1      42.664  21.047  26.278  1.00  0.00    -0.206 F 
ATOM     71  C   UNL A   1      44.352  21.274  24.685  1.00  0.00     0.040 A 
ATOM     72  C   UNL A   1      45.309  23.409  24.209  1.00  0.00     0.040 A 
ATOM     73  F   UNL A   1      44.725  25.280  25.422  1.00  0.00    -0.206 F 
ATOM     74  C   UNL A   1      45.266  22.043  23.978  1.00  0.00     0.006 A 
ENDBRANCH  53  67
BRANCH  54  75
ATOM     75  C   UNL A   1      46.867  30.713  28.237  1.00  0.00     0.057 A 
ATOM     76  C   UNL A   1      46.786  31.246  26.945  1.00  0.00     0.134 A 
ATOM     77  C   UNL A   1      47.603  31.455  29.176  1.00  0.00     0.134 A 
ATOM     78  F   UNL A   1      46.088  30.617  25.989  1.00  0.00    -0.206 F 
ATOM     79  C   UNL A   1      47.367  32.475  26.613  1.00  0.00     0.040 A 
ATOM     80  C   UNL A   1      48.190  32.681  28.857  1.00  0.00     0.040 A 
ATOM     81  F   UNL A   1      47.693  31.051  30.452  1.00  0.00    -0.206 F 
ATOM     82  C   UNL A   1      48.057  33.206  27.575  1.00  0.00     0.006 A 
ENDBRANCH  54  75
BRANCH  66  83
ATOM     83  C   UNL A   1      45.463  25.919  31.981  1.00  0.00     0.057 A 
ATOM     84  C   UNL A   1      46.416  25.738  32.990  1.00  0.00     0.134 A 
ATOM     85  C   UNL A   1      44.278  26.574  32.331  1.00  0.00     0.134 A 
ATOM     86  F   UNL A   1      47.606  25.183  32.728  1.00  0.00    -0.206 F 
ATOM     87  C   UNL A   1      46.181  26.154  34.303  1.00  0.00     0.040 A 
ATOM     88  C   UNL A   1      44.042  27.019  33.631  1.00  0.00     0.040 A 
ATOM     89  F   UNL A   1      43.339  26.812  31.401  1.00  0.00    -0.206 F 
ATOM     90  C   UNL A   1      44.990  26.799  34.626  1.00  0.00     0.006 A 
ENDBRANCH  66  83
ENDBRANCH  40  41
ENDBRANCH  32  35
ENDBRANCH  30  31
ENDBRANCH   1  30
TORSDOF 12
ENDMDL
