MODEL 1
REMARK VINA RESULT:     -13.0      0.000      0.000
REMARK SMILES COc1ccccc1C(=O)N1[C@@H](C(=O)NCCCNC(=O)c2ccc(-c3c4nc(c(-c5c(F)cccc5F)c5ccc([nH]5)c(-c5c(F)cccc5F)c5nc(c(-c6c(F)cccc6F)c6ccc3[nH]6)C=C5)C=C4)cc2)COC12CC[NH+](Cc1ccccc1)CC2
REMARK SMILES IDX 16 1 15 2 13 3 14 4 12 6 11 7 78 8 76 9 77 10 79 11 90 12
REMARK SMILES IDX 80 13 89 14 81 15 9 17 10 18 8 19 3 20 4 21 5 22 7 23 6 24
REMARK SMILES IDX 2 25 1 26 82 27 83 28 84 29 88 30 85 31 87 32 86 33 17 34
REMARK SMILES IDX 18 35 19 36 20 37 21 39 22 40 23 41 75 42 24 43 74 44 25 45
REMARK SMILES IDX 26 46 27 47 68 48 28 49 73 50 67 51 69 52 29 53 72 54 66 55
REMARK SMILES IDX 65 56 30 58 56 59 39 60 55 61 40 62 43 63 54 64 70 65 41 66
REMARK SMILES IDX 42 67 53 69 71 70 44 71 31 72 32 73 37 74 33 75 34 76 36 77
REMARK SMILES IDX 38 78 35 79 57 80 58 81 63 82 59 83 60 84 62 85 64 86 61 87
REMARK SMILES IDX 45 88 46 89 51 90 47 91 48 92 50 93 52 94 49 95
REMARK H PARENT 15 5 81 16 19 38 69 57 43 68
REMARK Flexibility Score: inf
ROOT
ATOM      1  C   UNL A   1      36.054  22.713  25.661  1.00  0.00     0.117 C 
ENDROOT
BRANCH   1   2
ATOM      2  N   UNL A   1      35.779  22.881  24.259  1.00  0.00    -0.354 N 
ATOM      3  C   UNL A   1      34.916  23.755  23.661  1.00  0.00     0.245 C 
ATOM      4  O   UNL A   1      34.999  23.849  22.432  1.00  0.00    -0.273 OA
ATOM      5  H   UNL A   1      36.277  22.288  23.650  1.00  0.00     0.163 HD
BRANCH   3   6
ATOM      6  C   UNL A   1      33.812  24.505  24.442  1.00  0.00     0.203 C 
ATOM      7  N   UNL A   1      32.586  24.816  23.711  1.00  0.00    -0.295 N 
ATOM      8  C   UNL A   1      32.327  26.267  23.784  1.00  0.00     0.155 C 
ATOM      9  C   UNL A   1      34.312  25.844  24.937  1.00  0.00     0.198 C 
ATOM     10  O   UNL A   1      33.631  26.824  24.130  1.00  0.00    -0.352 OA
ATOM     11  C   UNL A   1      31.838  26.926  22.488  1.00  0.00     0.120 C 
ATOM     12  C   UNL A   1      31.396  26.666  24.939  1.00  0.00     0.120 C 
ATOM     13  C   UNL A   1      31.667  28.435  22.633  1.00  0.00     0.267 C 
ATOM     14  C   UNL A   1      31.234  28.197  25.007  1.00  0.00     0.267 C 
ATOM     15  N   UNL A   1      30.827  28.829  23.756  1.00  0.00    -0.331 N 
ATOM     16  H   UNL A   1      31.024  29.818  23.909  1.00  0.00     0.348 HD
BRANCH   7  17
ATOM     17  C   UNL A   1      31.658  23.784  23.575  1.00  0.00     0.260 C 
ATOM     18  O   UNL A   1      30.471  24.041  23.362  1.00  0.00    -0.269 OA
BRANCH  17  19
ATOM     19  C   UNL A   1      31.985  22.342  23.775  1.00  0.00     0.082 A 
ATOM     20  C   UNL A   1      31.926  21.671  25.000  1.00  0.00     0.131 A 
ATOM     21  C   UNL A   1      32.194  20.295  25.095  1.00  0.00     0.047 A 
ATOM     22  C   UNL A   1      32.351  19.534  23.941  1.00  0.00     0.004 A 
ATOM     23  C   UNL A   1      32.114  21.548  22.619  1.00  0.00     0.018 A 
ATOM     24  C   UNL A   1      32.269  20.157  22.699  1.00  0.00     0.001 A 
BRANCH  20  25
ATOM     25  O   UNL A   1      31.485  22.276  26.147  1.00  0.00    -0.496 OA
ATOM     26  C   UNL A   1      32.622  22.539  26.982  1.00  0.00     0.278 C 
ENDBRANCH  20  25
ENDBRANCH  17  19
ENDBRANCH   7  17
BRANCH  15  27
ATOM     27  C   UNL A   1      29.389  28.942  23.487  1.00  0.00     0.299 C 
BRANCH  27  28
ATOM     28  C   UNL A   1      28.891  30.228  22.866  1.00  0.00     0.006 A 
ATOM     29  C   UNL A   1      28.914  31.431  23.577  1.00  0.00     0.009 A 
ATOM     30  C   UNL A   1      28.406  30.236  21.546  1.00  0.00     0.009 A 
ATOM     31  C   UNL A   1      28.509  32.617  22.964  1.00  0.00     0.001 A 
ATOM     32  C   UNL A   1      28.063  31.430  20.916  1.00  0.00     0.001 A 
ATOM     33  C   UNL A   1      28.119  32.624  21.626  1.00  0.00     0.000 A 
ENDBRANCH  27  28
ENDBRANCH  15  27
ENDBRANCH   3   6
ENDBRANCH   1   2
BRANCH   1  34
ATOM     34  C   UNL A   1      36.854  21.476  26.008  1.00  0.00     0.042 C 
BRANCH  34  35
ATOM     35  C   UNL A   1      38.299  21.618  25.562  1.00  0.00     0.118 C 
BRANCH  35  36
ATOM     36  N   UNL A   1      39.025  20.346  25.495  1.00  0.00    -0.352 N 
ATOM     37  C   UNL A   1      40.295  20.027  25.920  1.00  0.00     0.251 C 
ATOM     38  H   UNL A   1      38.526  19.604  25.083  1.00  0.00     0.163 HD
ATOM     39  O   UNL A   1      40.758  18.915  25.726  1.00  0.00    -0.269 OA
BRANCH  37  40
ATOM     40  C   UNL A   1      41.111  21.078  26.558  1.00  0.00     0.039 A 
ATOM     41  C   UNL A   1      41.853  21.939  25.749  1.00  0.00     0.014 A 
ATOM     42  C   UNL A   1      41.030  21.284  27.934  1.00  0.00     0.014 A 
ATOM     43  C   UNL A   1      42.412  23.087  26.310  1.00  0.00     0.010 A 
ATOM     44  C   UNL A   1      41.471  22.485  28.461  1.00  0.00     0.010 A 
ATOM     45  C   UNL A   1      42.160  23.405  27.654  1.00  0.00    -0.014 A 
BRANCH  45  46
ATOM     46  C   UNL A   1      42.587  24.693  28.254  1.00  0.00     0.031 A 
ATOM     47  C   UNL A   1      41.565  25.768  28.497  1.00  0.00     0.074 A 
ATOM     48  C   UNL A   1      43.895  24.937  28.465  1.00  0.00     0.049 A 
ATOM     49  N   UNL A   1      41.743  27.020  28.832  1.00  0.00    -0.248 NA
ATOM     50  C   UNL A   1      40.155  25.401  28.274  1.00  0.00     0.031 C 
ATOM     51  C   UNL A   1      44.993  24.001  28.202  1.00  0.00     0.029 A 
ATOM     52  N   UNL A   1      44.528  26.061  28.933  1.00  0.00    -0.354 N 
ATOM     53  C   UNL A   1      40.479  27.594  28.814  1.00  0.00     0.074 A 
ATOM     54  C   UNL A   1      39.552  26.575  28.376  1.00  0.00     0.031 C 
ATOM     55  C   UNL A   1      46.156  24.577  28.547  1.00  0.00     0.029 A 
ATOM     56  C   UNL A   1      45.895  25.934  29.008  1.00  0.00     0.049 A 
ATOM     57  H   UNL A   1      44.048  26.881  29.192  1.00  0.00     0.167 HD
ATOM     58  C   UNL A   1      40.116  28.850  29.162  1.00  0.00     0.037 A 
ATOM     59  C   UNL A   1      46.830  26.821  29.400  1.00  0.00     0.037 A 
ATOM     60  C   UNL A   1      41.032  29.836  29.665  1.00  0.00     0.049 A 
ATOM     61  C   UNL A   1      46.398  28.195  29.829  1.00  0.00     0.074 A 
ATOM     62  C   UNL A   1      40.758  31.108  30.135  1.00  0.00     0.029 A 
ATOM     63  N   UNL A   1      42.402  29.649  29.781  1.00  0.00    -0.354 N 
ATOM     64  N   UNL A   1      45.192  28.707  29.865  1.00  0.00    -0.248 NA
ATOM     65  C   UNL A   1      47.456  29.113  30.273  1.00  0.00     0.031 C 
ATOM     66  C   UNL A   1      41.967  31.702  30.510  1.00  0.00     0.029 A 
ATOM     67  C   UNL A   1      42.989  30.787  30.307  1.00  0.00     0.049 A 
ATOM     68  H   UNL A   1      42.884  28.829  29.528  1.00  0.00     0.167 HD
ATOM     69  C   UNL A   1      45.342  29.997  30.356  1.00  0.00     0.074 A 
ATOM     70  C   UNL A   1      46.754  30.184  30.616  1.00  0.00     0.031 C 
ATOM     71  C   UNL A   1      44.395  30.943  30.570  1.00  0.00     0.037 A 
BRANCH  58  72
ATOM     72  C   UNL A   1      38.667  29.211  29.028  1.00  0.00     0.057 A 
ATOM     73  C   UNL A   1      37.782  29.131  30.112  1.00  0.00     0.134 A 
ATOM     74  C   UNL A   1      38.149  29.651  27.803  1.00  0.00     0.134 A 
ATOM     75  F   UNL A   1      38.211  28.700  31.308  1.00  0.00    -0.206 F 
ATOM     76  C   UNL A   1      36.429  29.442  29.975  1.00  0.00     0.040 A 
ATOM     77  C   UNL A   1      36.803  29.993  27.661  1.00  0.00     0.040 A 
ATOM     78  F   UNL A   1      38.941  29.753  26.726  1.00  0.00    -0.206 F 
ATOM     79  C   UNL A   1      35.937  29.881  28.748  1.00  0.00     0.006 A 
ENDBRANCH  58  72
BRANCH  59  80
ATOM     80  C   UNL A   1      48.261  26.428  29.436  1.00  0.00     0.057 A 
ATOM     81  C   UNL A   1      48.804  25.805  30.565  1.00  0.00     0.134 A 
ATOM     82  C   UNL A   1      49.118  26.664  28.354  1.00  0.00     0.134 A 
ATOM     83  F   UNL A   1      48.036  25.568  31.638  1.00  0.00    -0.206 F 
ATOM     84  C   UNL A   1      50.151  25.448  30.628  1.00  0.00     0.040 A 
ATOM     85  C   UNL A   1      50.464  26.293  28.394  1.00  0.00     0.040 A 
ATOM     86  F   UNL A   1      48.658  27.250  27.240  1.00  0.00    -0.206 F 
ATOM     87  C   UNL A   1      50.985  25.687  29.537  1.00  0.00     0.006 A 
ENDBRANCH  59  80
BRANCH  71  88
ATOM     88  C   UNL A   1      44.852  32.250  31.141  1.00  0.00     0.057 A 
ATOM     89  C   UNL A   1      44.955  32.453  32.522  1.00  0.00     0.134 A 
ATOM     90  C   UNL A   1      45.246  33.296  30.297  1.00  0.00     0.134 A 
ATOM     91  F   UNL A   1      44.578  31.492  33.380  1.00  0.00    -0.206 F 
ATOM     92  C   UNL A   1      45.422  33.659  33.046  1.00  0.00     0.040 A 
ATOM     93  C   UNL A   1      45.737  34.497  30.808  1.00  0.00     0.040 A 
ATOM     94  F   UNL A   1      45.179  33.158  28.964  1.00  0.00    -0.206 F 
ATOM     95  C   UNL A   1      45.823  34.681  32.187  1.00  0.00     0.006 A 
ENDBRANCH  71  88
ENDBRANCH  45  46
ENDBRANCH  37  40
ENDBRANCH  35  36
ENDBRANCH  34  35
ENDBRANCH   1  34
TORSDOF 15
ENDMDL
MODEL 2
REMARK VINA RESULT:     -13.0      2.488      8.373
REMARK SMILES COc1ccccc1C(=O)N1[C@@H](C(=O)NCCCNC(=O)c2ccc(-c3c4nc(c(-c5c(F)cccc5F)c5ccc([nH]5)c(-c5c(F)cccc5F)c5nc(c(-c6c(F)cccc6F)c6ccc3[nH]6)C=C5)C=C4)cc2)COC12CC[NH+](Cc1ccccc1)CC2
REMARK SMILES IDX 16 1 15 2 13 3 14 4 12 6 11 7 78 8 76 9 77 10 79 11 90 12
REMARK SMILES IDX 80 13 89 14 81 15 9 17 10 18 8 19 3 20 4 21 5 22 7 23 6 24
REMARK SMILES IDX 2 25 1 26 82 27 83 28 84 29 88 30 85 31 87 32 86 33 17 34
REMARK SMILES IDX 18 35 19 36 20 37 21 39 22 40 23 41 75 42 24 43 74 44 25 45
REMARK SMILES IDX 26 46 27 47 68 48 28 49 73 50 67 51 69 52 29 53 72 54 66 55
REMARK SMILES IDX 65 56 30 58 56 59 39 60 55 61 40 62 43 63 54 64 70 65 41 66
REMARK SMILES IDX 42 67 53 69 71 70 44 71 31 72 32 73 37 74 33 75 34 76 36 77
REMARK SMILES IDX 38 78 35 79 57 80 58 81 63 82 59 83 60 84 62 85 64 86 61 87
REMARK SMILES IDX 45 88 46 89 51 90 47 91 48 92 50 93 52 94 49 95
REMARK H PARENT 15 5 81 16 19 38 69 57 43 68
REMARK Flexibility Score: inf
ROOT
ATOM      1  C   UNL A   1      33.053  29.286  25.673  1.00  0.00     0.117 C 
ENDROOT
BRANCH   1   2
ATOM      2  N   UNL A   1      32.007  28.564  26.348  1.00  0.00    -0.354 N 
ATOM      3  C   UNL A   1      31.792  27.216  26.383  1.00  0.00     0.245 C 
ATOM      4  O   UNL A   1      30.946  26.819  27.192  1.00  0.00    -0.273 OA
ATOM      5  H   UNL A   1      31.362  29.114  26.850  1.00  0.00     0.163 HD
BRANCH   3   6
ATOM      6  C   UNL A   1      32.468  26.236  25.396  1.00  0.00     0.203 C 
ATOM      7  N   UNL A   1      31.673  25.091  24.959  1.00  0.00    -0.295 N 
ATOM      8  C   UNL A   1      32.409  23.845  25.250  1.00  0.00     0.155 C 
ATOM      9  C   UNL A   1      33.713  25.628  26.002  1.00  0.00     0.198 C 
ATOM     10  O   UNL A   1      33.373  24.253  26.266  1.00  0.00    -0.352 OA
ATOM     11  C   UNL A   1      31.570  22.686  25.802  1.00  0.00     0.120 C 
ATOM     12  C   UNL A   1      33.253  23.342  24.068  1.00  0.00     0.120 C 
ATOM     13  C   UNL A   1      32.420  21.466  26.144  1.00  0.00     0.267 C 
ATOM     14  C   UNL A   1      34.055  22.088  24.465  1.00  0.00     0.267 C 
ATOM     15  N   UNL A   1      33.263  21.009  25.047  1.00  0.00    -0.331 N 
ATOM     16  H   UNL A   1      33.961  20.400  25.477  1.00  0.00     0.348 HD
BRANCH   7  17
ATOM     17  C   UNL A   1      30.744  25.323  23.946  1.00  0.00     0.260 C 
ATOM     18  O   UNL A   1      30.263  24.377  23.316  1.00  0.00    -0.269 OA
BRANCH  17  19
ATOM     19  C   UNL A   1      30.346  26.683  23.479  1.00  0.00     0.082 A 
ATOM     20  C   UNL A   1      31.098  27.484  22.615  1.00  0.00     0.131 A 
ATOM     21  C   UNL A   1      30.625  28.733  22.177  1.00  0.00     0.047 A 
ATOM     22  C   UNL A   1      29.319  29.120  22.454  1.00  0.00     0.004 A 
ATOM     23  C   UNL A   1      29.016  27.080  23.720  1.00  0.00     0.018 A 
ATOM     24  C   UNL A   1      28.500  28.272  23.193  1.00  0.00     0.001 A 
BRANCH  20  25
ATOM     25  O   UNL A   1      32.268  27.053  22.048  1.00  0.00    -0.496 OA
ATOM     26  C   UNL A   1      33.284  28.029  22.316  1.00  0.00     0.278 C 
ENDBRANCH  20  25
ENDBRANCH  17  19
ENDBRANCH   7  17
BRANCH  15  27
ATOM     27  C   UNL A   1      32.669  20.029  24.131  1.00  0.00     0.299 C 
BRANCH  27  28
ATOM     28  C   UNL A   1      32.990  18.570  24.361  1.00  0.00     0.006 A 
ATOM     29  C   UNL A   1      32.558  17.907  25.514  1.00  0.00     0.009 A 
ATOM     30  C   UNL A   1      33.722  17.846  23.404  1.00  0.00     0.009 A 
ATOM     31  C   UNL A   1      32.811  16.545  25.677  1.00  0.00     0.001 A 
ATOM     32  C   UNL A   1      33.917  16.472  23.539  1.00  0.00     0.001 A 
ATOM     33  C   UNL A   1      33.456  15.820  24.676  1.00  0.00     0.000 A 
ENDBRANCH  27  28
ENDBRANCH  15  27
ENDBRANCH   3   6
ENDBRANCH   1   2
BRANCH   1  34
ATOM     34  C   UNL A   1      33.760  30.322  26.522  1.00  0.00     0.042 C 
BRANCH  34  35
ATOM     35  C   UNL A   1      34.502  29.667  27.675  1.00  0.00     0.118 C 
BRANCH  35  36
ATOM     36  N   UNL A   1      34.772  30.575  28.794  1.00  0.00    -0.352 N 
ATOM     37  C   UNL A   1      35.915  30.743  29.543  1.00  0.00     0.251 C 
ATOM     38  H   UNL A   1      34.019  31.155  29.050  1.00  0.00     0.163 HD
ATOM     39  O   UNL A   1      35.936  31.517  30.487  1.00  0.00    -0.269 OA
BRANCH  37  40
ATOM     40  C   UNL A   1      37.096  29.919  29.223  1.00  0.00     0.039 A 
ATOM     41  C   UNL A   1      37.636  29.985  27.937  1.00  0.00     0.014 A 
ATOM     42  C   UNL A   1      37.734  29.195  30.228  1.00  0.00     0.014 A 
ATOM     43  C   UNL A   1      38.890  29.426  27.696  1.00  0.00     0.010 A 
ATOM     44  C   UNL A   1      39.031  28.758  30.021  1.00  0.00     0.010 A 
ATOM     45  C   UNL A   1      39.628  28.875  28.755  1.00  0.00    -0.014 A 
BRANCH  45  46
ATOM     46  C   UNL A   1      41.030  28.421  28.590  1.00  0.00     0.031 A 
ATOM     47  C   UNL A   1      42.147  29.423  28.686  1.00  0.00     0.074 A 
ATOM     48  C   UNL A   1      41.288  27.147  28.235  1.00  0.00     0.049 A 
ATOM     49  N   UNL A   1      43.413  29.283  28.392  1.00  0.00    -0.248 NA
ATOM     50  C   UNL A   1      41.777  30.783  29.115  1.00  0.00     0.031 C 
ATOM     51  C   UNL A   1      40.286  26.095  28.038  1.00  0.00     0.029 A 
ATOM     52  N   UNL A   1      42.478  26.522  27.957  1.00  0.00    -0.354 N 
ATOM     53  C   UNL A   1      43.975  30.542  28.556  1.00  0.00     0.074 A 
ATOM     54  C   UNL A   1      42.905  31.445  28.913  1.00  0.00     0.031 C 
ATOM     55  C   UNL A   1      40.906  24.950  27.707  1.00  0.00     0.029 A 
ATOM     56  C   UNL A   1      42.340  25.196  27.622  1.00  0.00     0.049 A 
ATOM     57  H   UNL A   1      43.348  26.981  27.994  1.00  0.00     0.167 HD
ATOM     58  C   UNL A   1      45.274  30.908  28.449  1.00  0.00     0.037 A 
ATOM     59  C   UNL A   1      43.270  24.285  27.277  1.00  0.00     0.037 A 
ATOM     60  C   UNL A   1      46.342  29.991  28.164  1.00  0.00     0.049 A 
ATOM     61  C   UNL A   1      44.712  24.704  27.213  1.00  0.00     0.074 A 
ATOM     62  C   UNL A   1      47.703  30.237  28.125  1.00  0.00     0.029 A 
ATOM     63  N   UNL A   1      46.167  28.642  27.888  1.00  0.00    -0.354 N 
ATOM     64  N   UNL A   1      45.239  25.884  27.430  1.00  0.00    -0.248 NA
ATOM     65  C   UNL A   1      45.689  23.664  26.859  1.00  0.00     0.031 C 
ATOM     66  C   UNL A   1      48.351  29.041  27.798  1.00  0.00     0.029 A 
ATOM     67  C   UNL A   1      47.396  28.045  27.668  1.00  0.00     0.049 A 
ATOM     68  H   UNL A   1      45.299  28.180  27.854  1.00  0.00     0.167 HD
ATOM     69  C   UNL A   1      46.608  25.726  27.261  1.00  0.00     0.074 A 
ATOM     70  C   UNL A   1      46.831  24.332  26.937  1.00  0.00     0.031 C 
ATOM     71  C   UNL A   1      47.592  26.652  27.362  1.00  0.00     0.037 A 
BRANCH  58  72
ATOM     72  C   UNL A   1      45.601  32.355  28.664  1.00  0.00     0.057 A 
ATOM     73  C   UNL A   1      45.933  32.858  29.929  1.00  0.00     0.134 A 
ATOM     74  C   UNL A   1      45.593  33.258  27.593  1.00  0.00     0.134 A 
ATOM     75  F   UNL A   1      45.942  32.049  31.000  1.00  0.00    -0.206 F 
ATOM     76  C   UNL A   1      46.210  34.211  30.130  1.00  0.00     0.040 A 
ATOM     77  C   UNL A   1      45.898  34.608  27.775  1.00  0.00     0.040 A 
ATOM     78  F   UNL A   1      45.287  32.843  26.355  1.00  0.00    -0.206 F 
ATOM     79  C   UNL A   1      46.199  35.089  29.048  1.00  0.00     0.006 A 
ENDBRANCH  58  72
BRANCH  59  80
ATOM     80  C   UNL A   1      42.873  22.882  26.998  1.00  0.00     0.057 A 
ATOM     81  C   UNL A   1      42.847  22.393  25.686  1.00  0.00     0.134 A 
ATOM     82  C   UNL A   1      42.511  22.000  28.023  1.00  0.00     0.134 A 
ATOM     83  F   UNL A   1      43.168  23.196  24.662  1.00  0.00    -0.206 F 
ATOM     84  C   UNL A   1      42.457  21.084  25.401  1.00  0.00     0.040 A 
ATOM     85  C   UNL A   1      42.139  20.681  27.754  1.00  0.00     0.040 A 
ATOM     86  F   UNL A   1      42.524  22.405  29.301  1.00  0.00    -0.206 F 
ATOM     87  C   UNL A   1      42.105  20.222  26.438  1.00  0.00     0.006 A 
ENDBRANCH  59  80
BRANCH  71  88
ATOM     88  C   UNL A   1      48.999  26.181  27.153  1.00  0.00     0.057 A 
ATOM     89  C   UNL A   1      49.608  26.221  25.893  1.00  0.00     0.134 A 
ATOM     90  C   UNL A   1      49.767  25.735  28.235  1.00  0.00     0.134 A 
ATOM     91  F   UNL A   1      48.917  26.626  24.816  1.00  0.00    -0.206 F 
ATOM     92  C   UNL A   1      50.933  25.821  25.715  1.00  0.00     0.040 A 
ATOM     93  C   UNL A   1      51.099  25.355  28.074  1.00  0.00     0.040 A 
ATOM     94  F   UNL A   1      49.241  25.682  29.468  1.00  0.00    -0.206 F 
ATOM     95  C   UNL A   1      51.684  25.395  26.809  1.00  0.00     0.006 A 
ENDBRANCH  71  88
ENDBRANCH  45  46
ENDBRANCH  37  40
ENDBRANCH  35  36
ENDBRANCH  34  35
ENDBRANCH   1  34
TORSDOF 15
ENDMDL
MODEL 3
REMARK VINA RESULT:     -13.0      2.126      8.083
REMARK SMILES COc1ccccc1C(=O)N1[C@@H](C(=O)NCCCNC(=O)c2ccc(-c3c4nc(c(-c5c(F)cccc5F)c5ccc([nH]5)c(-c5c(F)cccc5F)c5nc(c(-c6c(F)cccc6F)c6ccc3[nH]6)C=C5)C=C4)cc2)COC12CC[NH+](Cc1ccccc1)CC2
REMARK SMILES IDX 16 1 15 2 13 3 14 4 12 6 11 7 78 8 76 9 77 10 79 11 90 12
REMARK SMILES IDX 80 13 89 14 81 15 9 17 10 18 8 19 3 20 4 21 5 22 7 23 6 24
REMARK SMILES IDX 2 25 1 26 82 27 83 28 84 29 88 30 85 31 87 32 86 33 17 34
REMARK SMILES IDX 18 35 19 36 20 37 21 39 22 40 23 41 75 42 24 43 74 44 25 45
REMARK SMILES IDX 26 46 27 47 68 48 28 49 73 50 67 51 69 52 29 53 72 54 66 55
REMARK SMILES IDX 65 56 30 58 56 59 39 60 55 61 40 62 43 63 54 64 70 65 41 66
REMARK SMILES IDX 42 67 53 69 71 70 44 71 31 72 32 73 37 74 33 75 34 76 36 77
REMARK SMILES IDX 38 78 35 79 57 80 58 81 63 82 59 83 60 84 62 85 64 86 61 87
REMARK SMILES IDX 45 88 46 89 51 90 47 91 48 92 50 93 52 94 49 95
REMARK H PARENT 15 5 81 16 19 38 69 57 43 68
REMARK Flexibility Score: inf
ROOT
ATOM      1  C   UNL A   1      32.262  29.353  25.263  1.00  0.00     0.117 C 
ENDROOT
BRANCH   1   2
ATOM      2  N   UNL A   1      31.488  28.522  26.147  1.00  0.00    -0.354 N 
ATOM      3  C   UNL A   1      31.579  27.174  26.342  1.00  0.00     0.245 C 
ATOM      4  O   UNL A   1      30.944  26.716  27.298  1.00  0.00    -0.273 OA
ATOM      5  H   UNL A   1      30.803  28.986  26.681  1.00  0.00     0.163 HD
BRANCH   3   6
ATOM      6  C   UNL A   1      32.330  26.237  25.368  1.00  0.00     0.203 C 
ATOM      7  N   UNL A   1      31.591  25.080  24.866  1.00  0.00    -0.295 N 
ATOM      8  C   UNL A   1      32.349  23.849  25.165  1.00  0.00     0.155 C 
ATOM      9  C   UNL A   1      33.562  25.650  26.020  1.00  0.00     0.198 C 
ATOM     10  O   UNL A   1      33.250  24.260  26.236  1.00  0.00    -0.352 OA
ATOM     11  C   UNL A   1      31.519  22.654  25.650  1.00  0.00     0.120 C 
ATOM     12  C   UNL A   1      33.263  23.398  24.015  1.00  0.00     0.120 C 
ATOM     13  C   UNL A   1      32.386  21.450  26.005  1.00  0.00     0.267 C 
ATOM     14  C   UNL A   1      34.082  22.158  24.422  1.00  0.00     0.267 C 
ATOM     15  N   UNL A   1      33.295  21.044  24.941  1.00  0.00    -0.331 N 
ATOM     16  H   UNL A   1      33.988  20.445  25.390  1.00  0.00     0.348 HD
BRANCH   7  17
ATOM     17  C   UNL A   1      30.706  25.311  23.814  1.00  0.00     0.260 C 
ATOM     18  O   UNL A   1      30.278  24.366  23.146  1.00  0.00    -0.269 OA
BRANCH  17  19
ATOM     19  C   UNL A   1      30.299  26.670  23.353  1.00  0.00     0.082 A 
ATOM     20  C   UNL A   1      31.012  27.452  22.441  1.00  0.00     0.131 A 
ATOM     21  C   UNL A   1      30.531  28.701  22.013  1.00  0.00     0.047 A 
ATOM     22  C   UNL A   1      29.246  29.106  22.355  1.00  0.00     0.004 A 
ATOM     23  C   UNL A   1      28.989  27.085  23.660  1.00  0.00     0.018 A 
ATOM     24  C   UNL A   1      28.458  28.277  23.147  1.00  0.00     0.001 A 
BRANCH  20  25
ATOM     25  O   UNL A   1      32.145  27.000  21.817  1.00  0.00    -0.496 OA
ATOM     26  C   UNL A   1      33.257  27.772  22.291  1.00  0.00     0.278 C 
ENDBRANCH  20  25
ENDBRANCH  17  19
ENDBRANCH   7  17
BRANCH  15  27
ATOM     27  C   UNL A   1      32.774  20.070  23.975  1.00  0.00     0.299 C 
BRANCH  27  28
ATOM     28  C   UNL A   1      33.007  18.604  24.263  1.00  0.00     0.006 A 
ATOM     29  C   UNL A   1      32.544  18.017  25.444  1.00  0.00     0.009 A 
ATOM     30  C   UNL A   1      33.686  17.799  23.333  1.00  0.00     0.009 A 
ATOM     31  C   UNL A   1      32.714  16.649  25.661  1.00  0.00     0.001 A 
ATOM     32  C   UNL A   1      33.798  16.422  23.522  1.00  0.00     0.001 A 
ATOM     33  C   UNL A   1      33.306  15.846  24.688  1.00  0.00     0.000 A 
ENDBRANCH  27  28
ENDBRANCH  15  27
ENDBRANCH   3   6
ENDBRANCH   1   2
BRANCH   1  34
ATOM     34  C   UNL A   1      33.655  29.679  25.756  1.00  0.00     0.042 C 
BRANCH  34  35
ATOM     35  C   UNL A   1      33.784  29.406  27.245  1.00  0.00     0.118 C 
BRANCH  35  36
ATOM     36  N   UNL A   1      33.971  30.616  28.053  1.00  0.00    -0.352 N 
ATOM     37  C   UNL A   1      35.075  31.055  28.748  1.00  0.00     0.251 C 
ATOM     38  H   UNL A   1      33.184  31.205  28.106  1.00  0.00     0.163 HD
ATOM     39  O   UNL A   1      35.025  32.072  29.421  1.00  0.00    -0.269 OA
BRANCH  37  40
ATOM     40  C   UNL A   1      36.301  30.236  28.717  1.00  0.00     0.039 A 
ATOM     41  C   UNL A   1      37.083  30.237  27.560  1.00  0.00     0.014 A 
ATOM     42  C   UNL A   1      36.734  29.585  29.870  1.00  0.00     0.014 A 
ATOM     43  C   UNL A   1      38.364  29.687  27.604  1.00  0.00     0.010 A 
ATOM     44  C   UNL A   1      38.049  29.160  29.948  1.00  0.00     0.010 A 
ATOM     45  C   UNL A   1      38.882  29.214  28.819  1.00  0.00    -0.014 A 
BRANCH  45  46
ATOM     46  C   UNL A   1      40.293  28.777  28.959  1.00  0.00     0.031 A 
ATOM     47  C   UNL A   1      41.325  29.758  29.443  1.00  0.00     0.074 A 
ATOM     48  C   UNL A   1      40.663  27.550  28.541  1.00  0.00     0.049 A 
ATOM     49  N   UNL A   1      42.628  29.648  29.461  1.00  0.00    -0.248 NA
ATOM     50  C   UNL A   1      40.826  31.061  29.914  1.00  0.00     0.031 C 
ATOM     51  C   UNL A   1      39.768  26.531  27.984  1.00  0.00     0.029 A 
ATOM     52  N   UNL A   1      41.900  26.958  28.501  1.00  0.00    -0.354 N 
ATOM     53  C   UNL A   1      43.099  30.878  29.899  1.00  0.00     0.074 A 
ATOM     54  C   UNL A   1      41.951  31.738  30.076  1.00  0.00     0.031 C 
ATOM     55  C   UNL A   1      40.480  25.430  27.694  1.00  0.00     0.029 A 
ATOM     56  C   UNL A   1      41.883  25.679  27.997  1.00  0.00     0.049 A 
ATOM     57  H   UNL A   1      42.722  27.406  28.806  1.00  0.00     0.167 HD
ATOM     58  C   UNL A   1      44.374  31.250  30.161  1.00  0.00     0.037 A 
ATOM     59  C   UNL A   1      42.893  24.810  27.796  1.00  0.00     0.037 A 
ATOM     60  C   UNL A   1      45.502  30.367  30.053  1.00  0.00     0.049 A 
ATOM     61  C   UNL A   1      44.294  25.229  28.142  1.00  0.00     0.074 A 
ATOM     62  C   UNL A   1      46.824  30.612  30.382  1.00  0.00     0.029 A 
ATOM     63  N   UNL A   1      45.436  29.060  29.593  1.00  0.00    -0.354 N 
ATOM     64  N   UNL A   1      44.721  26.375  28.613  1.00  0.00    -0.248 NA
ATOM     65  C   UNL A   1      45.354  24.233  27.929  1.00  0.00     0.031 C 
ATOM     66  C   UNL A   1      47.562  29.459  30.096  1.00  0.00     0.029 A 
ATOM     67  C   UNL A   1      46.695  28.487  29.622  1.00  0.00     0.049 A 
ATOM     68  H   UNL A   1      44.615  28.607  29.292  1.00  0.00     0.167 HD
ATOM     69  C   UNL A   1      46.092  26.232  28.775  1.00  0.00     0.074 A 
ATOM     70  C   UNL A   1      46.423  24.883  28.365  1.00  0.00     0.031 C 
ATOM     71  C   UNL A   1      46.997  27.138  29.221  1.00  0.00     0.037 A 
BRANCH  58  72
ATOM     72  C   UNL A   1      44.601  32.662  30.611  1.00  0.00     0.057 A 
ATOM     73  C   UNL A   1      44.569  33.020  31.966  1.00  0.00     0.134 A 
ATOM     74  C   UNL A   1      44.862  33.676  29.681  1.00  0.00     0.134 A 
ATOM     75  F   UNL A   1      44.306  32.099  32.906  1.00  0.00    -0.206 F 
ATOM     76  C   UNL A   1      44.753  34.340  32.377  1.00  0.00     0.040 A 
ATOM     77  C   UNL A   1      45.078  34.996  30.083  1.00  0.00     0.040 A 
ATOM     78  F   UNL A   1      44.909  33.402  28.369  1.00  0.00    -0.206 F 
ATOM     79  C   UNL A   1      45.015  35.332  31.434  1.00  0.00     0.006 A 
ENDBRANCH  58  72
BRANCH  59  80
ATOM     80  C   UNL A   1      42.613  23.450  27.272  1.00  0.00     0.057 A 
ATOM     81  C   UNL A   1      42.705  23.178  25.902  1.00  0.00     0.134 A 
ATOM     82  C   UNL A   1      42.249  22.395  28.117  1.00  0.00     0.134 A 
ATOM     83  F   UNL A   1      43.034  24.152  25.043  1.00  0.00    -0.206 F 
ATOM     84  C   UNL A   1      42.426  21.911  25.388  1.00  0.00     0.040 A 
ATOM     85  C   UNL A   1      41.987  21.117  27.619  1.00  0.00     0.040 A 
ATOM     86  F   UNL A   1      42.152  22.588  29.441  1.00  0.00    -0.206 F 
ATOM     87  C   UNL A   1      42.070  20.874  26.248  1.00  0.00     0.006 A 
ENDBRANCH  59  80
BRANCH  71  88
ATOM     88  C   UNL A   1      48.422  26.688  29.319  1.00  0.00     0.057 A 
ATOM     89  C   UNL A   1      48.904  26.012  30.446  1.00  0.00     0.134 A 
ATOM     90  C   UNL A   1      49.305  26.886  28.250  1.00  0.00     0.134 A 
ATOM     91  F   UNL A   1      48.108  25.806  31.507  1.00  0.00    -0.206 F 
ATOM     92  C   UNL A   1      50.222  25.558  30.512  1.00  0.00     0.040 A 
ATOM     93  C   UNL A   1      50.617  26.417  28.295  1.00  0.00     0.040 A 
ATOM     94  F   UNL A   1      48.899  27.521  27.140  1.00  0.00    -0.206 F 
ATOM     95  C   UNL A   1      51.080  25.753  29.430  1.00  0.00     0.006 A 
ENDBRANCH  71  88
ENDBRANCH  45  46
ENDBRANCH  37  40
ENDBRANCH  35  36
ENDBRANCH  34  35
ENDBRANCH   1  34
TORSDOF 15
ENDMDL
