MODEL 1
REMARK VINA RESULT:      -9.7      0.000      0.000
REMARK SMILES COc1ccc(-c2noc(CC(=O)NCCCNC(=O)c3ccc(-c4c5nc(c(-c6c(F)cccc6F)c6ccc([nH]6)c(-c6c(F)cccc6F)c6nc(c(-c7c(F)cccc7F)c7ccc4[nH]7)C=C6)C=C5)cc3)c2-c2ccc(OC)cc2)cc1
REMARK SMILES IDX 15 1 14 2 12 3 13 4 11 6 10 7 7 8 8 9 75 10 9 11 6 12 3 13
REMARK SMILES IDX 4 14 85 15 5 16 84 17 2 18 1 19 76 20 77 21 83 22 78 23
REMARK SMILES IDX 82 24 79 25 80 26 81 27 16 28 17 29 18 30 19 31 20 33 21 34
REMARK SMILES IDX 22 35 74 36 23 37 73 38 24 39 25 40 26 41 67 42 27 43 72 44
REMARK SMILES IDX 66 45 68 46 28 47 71 48 65 49 64 50 29 52 55 53 38 54 54 55
REMARK SMILES IDX 39 56 42 57 53 58 69 59 40 60 41 61 52 63 70 64 43 65 30 66
REMARK SMILES IDX 31 67 36 68 32 69 33 70 35 71 37 72 34 73 56 74 57 75 62 76
REMARK SMILES IDX 58 77 59 78 61 79 63 80 60 81 44 82 45 83 50 84 46 85 47 86
REMARK SMILES IDX 49 87 51 88 48 89
REMARK H PARENT 14 5 18 32 68 51 42 62
REMARK Flexibility Score: inf
ROOT
ATOM      1  C   UNL A   1      33.995  35.073  29.277  1.00  0.00     0.117 C 
ENDROOT
BRANCH   1   2
ATOM      2  N   UNL A   1      33.099  34.990  30.415  1.00  0.00    -0.356 N 
ATOM      3  C   UNL A   1      33.382  35.118  31.745  1.00  0.00     0.227 C 
ATOM      4  O   UNL A   1      32.463  34.959  32.550  1.00  0.00    -0.275 OA
ATOM      5  H   UNL A   1      32.154  34.817  30.198  1.00  0.00     0.163 HD
BRANCH   3   6
ATOM      6  C   UNL A   1      34.769  35.529  32.198  1.00  0.00     0.179 C 
BRANCH   6   7
ATOM      7  C   UNL A   1      35.502  34.409  32.835  1.00  0.00     0.154 A 
ATOM      8  C   UNL A   1      36.774  32.765  33.608  1.00  0.00     0.122 A 
ATOM      9  N   UNL A   1      35.680  32.791  34.381  1.00  0.00    -0.079 NA
ATOM     10  C   UNL A   1      36.700  33.769  32.597  1.00  0.00     0.053 A 
ATOM     11  O   UNL A   1      34.903  33.832  33.914  1.00  0.00    -0.360 OA
BRANCH   8  12
ATOM     12  C   UNL A   1      37.851  31.809  33.827  1.00  0.00     0.005 A 
ATOM     13  C   UNL A   1      40.003  30.037  34.152  1.00  0.00     0.118 A 
ATOM     14  C   UNL A   1      38.891  29.666  33.392  1.00  0.00     0.047 A 
ATOM     15  C   UNL A   1      40.045  31.300  34.740  1.00  0.00     0.047 A 
ATOM     16  C   UNL A   1      37.810  30.540  33.240  1.00  0.00     0.014 A 
ATOM     17  C   UNL A   1      38.974  32.181  34.579  1.00  0.00     0.014 A 
BRANCH  13  18
ATOM     18  O   UNL A   1      41.005  29.108  34.222  1.00  0.00    -0.497 OA
ATOM     19  C   UNL A   1      40.813  27.950  33.415  1.00  0.00     0.278 C 
ENDBRANCH  13  18
ENDBRANCH   8  12
BRANCH  10  20
ATOM     20  C   UNL A   1      37.593  34.038  31.486  1.00  0.00    -0.012 A 
ATOM     21  C   UNL A   1      38.817  34.674  31.724  1.00  0.00     0.013 A 
ATOM     22  C   UNL A   1      37.248  33.693  30.177  1.00  0.00     0.013 A 
ATOM     23  C   UNL A   1      39.685  34.949  30.667  1.00  0.00     0.047 A 
ATOM     24  C   UNL A   1      38.123  33.973  29.117  1.00  0.00     0.047 A 
ATOM     25  C   UNL A   1      39.344  34.602  29.360  1.00  0.00     0.118 A 
BRANCH  25  26
ATOM     26  O   UNL A   1      40.284  34.933  28.424  1.00  0.00    -0.497 OA
ATOM     27  C   UNL A   1      41.533  35.409  28.905  1.00  0.00     0.278 C 
ENDBRANCH  25  26
ENDBRANCH  10  20
ENDBRANCH   6   7
ENDBRANCH   3   6
ENDBRANCH   1   2
BRANCH   1  28
ATOM     28  C   UNL A   1      33.840  33.874  28.343  1.00  0.00     0.042 C 
BRANCH  28  29
ATOM     29  C   UNL A   1      34.444  32.583  28.889  1.00  0.00     0.118 C 
BRANCH  29  30
ATOM     30  N   UNL A   1      33.862  31.398  28.274  1.00  0.00    -0.352 N 
ATOM     31  C   UNL A   1      34.450  30.228  27.870  1.00  0.00     0.251 C 
ATOM     32  H   UNL A   1      32.889  31.445  28.125  1.00  0.00     0.163 HD
ATOM     33  O   UNL A   1      33.799  29.427  27.199  1.00  0.00    -0.269 OA
BRANCH  31  34
ATOM     34  C   UNL A   1      35.855  29.917  28.214  1.00  0.00     0.039 A 
ATOM     35  C   UNL A   1      36.135  29.415  29.489  1.00  0.00     0.014 A 
ATOM     36  C   UNL A   1      36.900  30.164  27.319  1.00  0.00     0.014 A 
ATOM     37  C   UNL A   1      37.451  29.111  29.846  1.00  0.00     0.010 A 
ATOM     38  C   UNL A   1      38.204  29.801  27.653  1.00  0.00     0.010 A 
ATOM     39  C   UNL A   1      38.493  29.275  28.920  1.00  0.00    -0.014 A 
BRANCH  39  40
ATOM     40  C   UNL A   1      39.888  28.896  29.260  1.00  0.00     0.031 A 
ATOM     41  C   UNL A   1      40.764  29.836  30.041  1.00  0.00     0.074 A 
ATOM     42  C   UNL A   1      40.386  27.727  28.811  1.00  0.00     0.049 A 
ATOM     43  N   UNL A   1      42.026  29.711  30.367  1.00  0.00    -0.248 NA
ATOM     44  C   UNL A   1      40.147  31.091  30.496  1.00  0.00     0.031 C 
ATOM     45  C   UNL A   1      39.653  26.747  28.008  1.00  0.00     0.029 A 
ATOM     46  N   UNL A   1      41.633  27.172  28.956  1.00  0.00    -0.354 N 
ATOM     47  C   UNL A   1      42.358  30.877  31.047  1.00  0.00     0.074 A 
ATOM     48  C   UNL A   1      41.177  31.713  31.054  1.00  0.00     0.031 C 
ATOM     49  C   UNL A   1      40.457  25.705  27.744  1.00  0.00     0.029 A 
ATOM     50  C   UNL A   1      41.771  25.958  28.327  1.00  0.00     0.049 A 
ATOM     51  H   UNL A   1      42.360  27.603  29.462  1.00  0.00     0.167 HD
ATOM     52  C   UNL A   1      43.534  31.210  31.628  1.00  0.00     0.037 A 
ATOM     53  C   UNL A   1      42.839  25.145  28.225  1.00  0.00     0.037 A 
ATOM     54  C   UNL A   1      44.700  30.366  31.648  1.00  0.00     0.049 A 
ATOM     55  C   UNL A   1      44.131  25.538  28.885  1.00  0.00     0.074 A 
ATOM     56  C   UNL A   1      45.918  30.592  32.266  1.00  0.00     0.029 A 
ATOM     57  N   UNL A   1      44.792  29.133  31.022  1.00  0.00    -0.354 N 
ATOM     58  N   UNL A   1      44.411  26.614  29.577  1.00  0.00    -0.248 NA
ATOM     59  C   UNL A   1      45.254  24.599  28.753  1.00  0.00     0.031 C 
ATOM     60  C   UNL A   1      46.759  29.510  31.985  1.00  0.00     0.029 A 
ATOM     61  C   UNL A   1      46.052  28.594  31.225  1.00  0.00     0.049 A 
ATOM     62  H   UNL A   1      44.069  28.705  30.509  1.00  0.00     0.167 HD
ATOM     63  C   UNL A   1      45.731  26.471  29.985  1.00  0.00     0.074 A 
ATOM     64  C   UNL A   1      46.191  25.197  29.474  1.00  0.00     0.031 C 
ATOM     65  C   UNL A   1      46.492  27.320  30.717  1.00  0.00     0.037 A 
BRANCH  52  66
ATOM     66  C   UNL A   1      43.620  32.550  32.300  1.00  0.00     0.057 A 
ATOM     67  C   UNL A   1      43.455  32.691  33.685  1.00  0.00     0.134 A 
ATOM     68  C   UNL A   1      43.916  33.702  31.563  1.00  0.00     0.134 A 
ATOM     69  F   UNL A   1      43.161  31.627  34.446  1.00  0.00    -0.206 F 
ATOM     70  C   UNL A   1      43.561  33.936  34.308  1.00  0.00     0.040 A 
ATOM     71  C   UNL A   1      44.047  34.949  32.179  1.00  0.00     0.040 A 
ATOM     72  F   UNL A   1      44.092  33.636  30.235  1.00  0.00    -0.206 F 
ATOM     73  C   UNL A   1      43.866  35.068  33.555  1.00  0.00     0.006 A 
ENDBRANCH  52  66
BRANCH  53  74
ATOM     74  C   UNL A   1      42.728  23.866  27.481  1.00  0.00     0.057 A 
ATOM     75  C   UNL A   1      42.936  23.818  26.097  1.00  0.00     0.134 A 
ATOM     76  C   UNL A   1      42.404  22.669  28.128  1.00  0.00     0.134 A 
ATOM     77  F   UNL A   1      43.231  24.936  25.419  1.00  0.00    -0.206 F 
ATOM     78  C   UNL A   1      42.808  22.626  25.381  1.00  0.00     0.040 A 
ATOM     79  C   UNL A   1      42.294  21.467  27.428  1.00  0.00     0.040 A 
ATOM     80  F   UNL A   1      42.199  22.650  29.454  1.00  0.00    -0.206 F 
ATOM     81  C   UNL A   1      42.489  21.445  26.049  1.00  0.00     0.006 A 
ENDBRANCH  53  74
BRANCH  65  82
ATOM     82  C   UNL A   1      47.890  26.882  31.036  1.00  0.00     0.057 A 
ATOM     83  C   UNL A   1      48.178  26.088  32.153  1.00  0.00     0.134 A 
ATOM     84  C   UNL A   1      48.956  27.231  30.195  1.00  0.00     0.134 A 
ATOM     85  F   UNL A   1      47.203  25.733  33.003  1.00  0.00    -0.206 F 
ATOM     86  C   UNL A   1      49.481  25.673  32.434  1.00  0.00     0.040 A 
ATOM     87  C   UNL A   1      50.258  26.803  30.454  1.00  0.00     0.040 A 
ATOM     88  F   UNL A   1      48.746  27.984  29.105  1.00  0.00    -0.206 F 
ATOM     89  C   UNL A   1      50.523  26.026  31.581  1.00  0.00     0.006 A 
ENDBRANCH  65  82
ENDBRANCH  39  40
ENDBRANCH  31  34
ENDBRANCH  29  30
ENDBRANCH  28  29
ENDBRANCH   1  28
TORSDOF 15
ENDMDL
MODEL 2
REMARK VINA RESULT:      -9.6      5.055     10.337
REMARK SMILES COc1ccc(-c2noc(CC(=O)NCCCNC(=O)c3ccc(-c4c5nc(c(-c6c(F)cccc6F)c6ccc([nH]6)c(-c6c(F)cccc6F)c6nc(c(-c7c(F)cccc7F)c7ccc4[nH]7)C=C6)C=C5)cc3)c2-c2ccc(OC)cc2)cc1
REMARK SMILES IDX 15 1 14 2 12 3 13 4 11 6 10 7 7 8 8 9 75 10 9 11 6 12 3 13
REMARK SMILES IDX 4 14 85 15 5 16 84 17 2 18 1 19 76 20 77 21 83 22 78 23
REMARK SMILES IDX 82 24 79 25 80 26 81 27 16 28 17 29 18 30 19 31 20 33 21 34
REMARK SMILES IDX 22 35 74 36 23 37 73 38 24 39 25 40 26 41 67 42 27 43 72 44
REMARK SMILES IDX 66 45 68 46 28 47 71 48 65 49 64 50 29 52 55 53 38 54 54 55
REMARK SMILES IDX 39 56 42 57 53 58 69 59 40 60 41 61 52 63 70 64 43 65 30 66
REMARK SMILES IDX 31 67 36 68 32 69 33 70 35 71 37 72 34 73 56 74 57 75 62 76
REMARK SMILES IDX 58 77 59 78 61 79 63 80 60 81 44 82 45 83 50 84 46 85 47 86
REMARK SMILES IDX 49 87 51 88 48 89
REMARK H PARENT 14 5 18 32 68 51 42 62
REMARK Flexibility Score: inf
ROOT
ATOM      1  C   UNL A   1      32.135  28.566  22.844  1.00  0.00     0.117 C 
ENDROOT
BRANCH   1   2
ATOM      2  N   UNL A   1      32.701  27.567  21.958  1.00  0.00    -0.356 N 
ATOM      3  C   UNL A   1      33.168  26.318  22.254  1.00  0.00     0.227 C 
ATOM      4  O   UNL A   1      33.657  25.652  21.339  1.00  0.00    -0.275 OA
ATOM      5  H   UNL A   1      32.755  27.826  21.009  1.00  0.00     0.163 HD
BRANCH   3   6
ATOM      6  C   UNL A   1      33.005  25.749  23.649  1.00  0.00     0.179 C 
BRANCH   6   7
ATOM      7  C   UNL A   1      32.668  24.306  23.626  1.00  0.00     0.154 A 
ATOM      8  C   UNL A   1      32.395  22.106  23.689  1.00  0.00     0.122 A 
ATOM      9  N   UNL A   1      31.285  22.608  23.132  1.00  0.00    -0.079 NA
ATOM     10  C   UNL A   1      33.314  23.149  24.008  1.00  0.00     0.053 A 
ATOM     11  O   UNL A   1      31.447  23.979  23.118  1.00  0.00    -0.360 OA
BRANCH   8  12
ATOM     12  C   UNL A   1      32.571  20.676  23.904  1.00  0.00     0.005 A 
ATOM     13  C   UNL A   1      32.768  17.906  24.310  1.00  0.00     0.118 A 
ATOM     14  C   UNL A   1      32.895  18.789  25.385  1.00  0.00     0.047 A 
ATOM     15  C   UNL A   1      32.530  18.408  23.031  1.00  0.00     0.047 A 
ATOM     16  C   UNL A   1      32.812  20.170  25.185  1.00  0.00     0.014 A 
ATOM     17  C   UNL A   1      32.433  19.786  22.830  1.00  0.00     0.014 A 
BRANCH  13  18
ATOM     18  O   UNL A   1      32.854  16.577  24.624  1.00  0.00    -0.497 OA
ATOM     19  C   UNL A   1      34.177  16.085  24.812  1.00  0.00     0.278 C 
ENDBRANCH  13  18
ENDBRANCH   8  12
BRANCH  10  20
ATOM     20  C   UNL A   1      34.669  23.070  24.519  1.00  0.00    -0.012 A 
ATOM     21  C   UNL A   1      34.940  23.504  25.822  1.00  0.00     0.013 A 
ATOM     22  C   UNL A   1      35.718  22.589  23.730  1.00  0.00     0.013 A 
ATOM     23  C   UNL A   1      36.239  23.444  26.329  1.00  0.00     0.047 A 
ATOM     24  C   UNL A   1      37.021  22.533  24.243  1.00  0.00     0.047 A 
ATOM     25  C   UNL A   1      37.285  22.960  25.544  1.00  0.00     0.118 A 
BRANCH  25  26
ATOM     26  O   UNL A   1      38.503  22.962  26.164  1.00  0.00    -0.497 OA
ATOM     27  C   UNL A   1      39.268  21.767  26.087  1.00  0.00     0.278 C 
ENDBRANCH  25  26
ENDBRANCH  10  20
ENDBRANCH   6   7
ENDBRANCH   3   6
ENDBRANCH   1   2
BRANCH   1  28
ATOM     28  C   UNL A   1      33.215  29.309  23.628  1.00  0.00     0.042 C 
BRANCH  28  29
ATOM     29  C   UNL A   1      33.049  29.223  25.142  1.00  0.00     0.118 C 
BRANCH  29  30
ATOM     30  N   UNL A   1      32.505  30.450  25.709  1.00  0.00    -0.352 N 
ATOM     31  C   UNL A   1      32.895  31.168  26.809  1.00  0.00     0.251 C 
ATOM     32  H   UNL A   1      31.734  30.823  25.224  1.00  0.00     0.163 HD
ATOM     33  O   UNL A   1      32.174  32.078  27.220  1.00  0.00    -0.269 OA
BRANCH  31  34
ATOM     34  C   UNL A   1      34.156  30.861  27.518  1.00  0.00     0.039 A 
ATOM     35  C   UNL A   1      35.090  31.888  27.695  1.00  0.00     0.014 A 
ATOM     36  C   UNL A   1      34.452  29.569  27.961  1.00  0.00     0.014 A 
ATOM     37  C   UNL A   1      36.291  31.632  28.361  1.00  0.00     0.010 A 
ATOM     38  C   UNL A   1      35.622  29.329  28.680  1.00  0.00     0.010 A 
ATOM     39  C   UNL A   1      36.554  30.357  28.884  1.00  0.00    -0.014 A 
BRANCH  39  40
ATOM     40  C   UNL A   1      37.797  30.084  29.651  1.00  0.00     0.031 A 
ATOM     41  C   UNL A   1      38.853  29.174  29.089  1.00  0.00     0.074 A 
ATOM     42  C   UNL A   1      37.945  30.610  30.883  1.00  0.00     0.049 A 
ATOM     43  N   UNL A   1      39.966  28.760  29.642  1.00  0.00    -0.248 NA
ATOM     44  C   UNL A   1      38.619  28.640  27.738  1.00  0.00     0.031 C 
ATOM     45  C   UNL A   1      36.974  31.473  31.557  1.00  0.00     0.029 A 
ATOM     46  N   UNL A   1      38.965  30.482  31.792  1.00  0.00    -0.354 N 
ATOM     47  C   UNL A   1      40.553  27.905  28.716  1.00  0.00     0.074 A 
ATOM     48  C   UNL A   1      39.656  27.830  27.583  1.00  0.00     0.031 C 
ATOM     49  C   UNL A   1      37.451  31.810  32.766  1.00  0.00     0.029 A 
ATOM     50  C   UNL A   1      38.743  31.159  32.966  1.00  0.00     0.049 A 
ATOM     51  H   UNL A   1      39.779  29.955  31.619  1.00  0.00     0.167 HD
ATOM     52  C   UNL A   1      41.739  27.258  28.796  1.00  0.00     0.037 A 
ATOM     53  C   UNL A   1      39.490  31.239  34.082  1.00  0.00     0.037 A 
ATOM     54  C   UNL A   1      42.647  27.357  29.910  1.00  0.00     0.049 A 
ATOM     55  C   UNL A   1      40.807  30.516  34.142  1.00  0.00     0.074 A 
ATOM     56  C   UNL A   1      43.899  26.789  30.054  1.00  0.00     0.029 A 
ATOM     57  N   UNL A   1      42.396  28.074  31.069  1.00  0.00    -0.354 N 
ATOM     58  N   UNL A   1      41.376  29.762  33.234  1.00  0.00    -0.248 NA
ATOM     59  C   UNL A   1      41.585  30.659  35.380  1.00  0.00     0.031 C 
ATOM     60  C   UNL A   1      44.394  27.133  31.317  1.00  0.00     0.029 A 
ATOM     61  C   UNL A   1      43.465  27.948  31.942  1.00  0.00     0.049 A 
ATOM     62  H   UNL A   1      41.580  28.595  31.247  1.00  0.00     0.167 HD
ATOM     63  C   UNL A   1      42.590  29.363  33.780  1.00  0.00     0.074 A 
ATOM     64  C   UNL A   1      42.679  29.968  35.092  1.00  0.00     0.031 C 
ATOM     65  C   UNL A   1      43.542  28.565  33.241  1.00  0.00     0.037 A 
BRANCH  52  66
ATOM     66  C   UNL A   1      42.132  26.385  27.640  1.00  0.00     0.057 A 
ATOM     67  C   UNL A   1      41.798  25.025  27.598  1.00  0.00     0.134 A 
ATOM     68  C   UNL A   1      42.812  26.918  26.540  1.00  0.00     0.134 A 
ATOM     69  F   UNL A   1      41.155  24.450  28.627  1.00  0.00    -0.206 F 
ATOM     70  C   UNL A   1      42.144  24.222  26.509  1.00  0.00     0.040 A 
ATOM     71  C   UNL A   1      43.143  26.131  25.434  1.00  0.00     0.040 A 
ATOM     72  F   UNL A   1      43.157  28.214  26.513  1.00  0.00    -0.206 F 
ATOM     73  C   UNL A   1      42.812  24.777  25.420  1.00  0.00     0.006 A 
ENDBRANCH  52  66
BRANCH  53  74
ATOM     74  C   UNL A   1      39.022  32.052  35.233  1.00  0.00     0.057 A 
ATOM     75  C   UNL A   1      38.320  31.464  36.291  1.00  0.00     0.134 A 
ATOM     76  C   UNL A   1      39.254  33.430  35.297  1.00  0.00     0.134 A 
ATOM     77  F   UNL A   1      38.052  30.150  36.276  1.00  0.00    -0.206 F 
ATOM     78  C   UNL A   1      37.850  32.221  37.366  1.00  0.00     0.040 A 
ATOM     79  C   UNL A   1      38.808  34.196  36.375  1.00  0.00     0.040 A 
ATOM     80  F   UNL A   1      39.926  34.050  34.315  1.00  0.00    -0.206 F 
ATOM     81  C   UNL A   1      38.097  33.592  37.410  1.00  0.00     0.006 A 
ENDBRANCH  53  74
BRANCH  65  82
ATOM     82  C   UNL A   1      44.779  28.329  34.057  1.00  0.00     0.057 A 
ATOM     83  C   UNL A   1      45.876  29.199  34.001  1.00  0.00     0.134 A 
ATOM     84  C   UNL A   1      44.858  27.239  34.933  1.00  0.00     0.134 A 
ATOM     85  F   UNL A   1      45.866  30.252  33.173  1.00  0.00    -0.206 F 
ATOM     86  C   UNL A   1      47.016  28.980  34.776  1.00  0.00     0.040 A 
ATOM     87  C   UNL A   1      45.984  27.024  35.728  1.00  0.00     0.040 A 
ATOM     88  F   UNL A   1      43.838  26.373  35.037  1.00  0.00    -0.206 F 
ATOM     89  C   UNL A   1      47.070  27.893  35.646  1.00  0.00     0.006 A 
ENDBRANCH  65  82
ENDBRANCH  39  40
ENDBRANCH  31  34
ENDBRANCH  29  30
ENDBRANCH  28  29
ENDBRANCH   1  28
TORSDOF 15
ENDMDL
MODEL 3
REMARK VINA RESULT:      -9.5      4.639      7.974
REMARK SMILES COc1ccc(-c2noc(CC(=O)NCCCNC(=O)c3ccc(-c4c5nc(c(-c6c(F)cccc6F)c6ccc([nH]6)c(-c6c(F)cccc6F)c6nc(c(-c7c(F)cccc7F)c7ccc4[nH]7)C=C6)C=C5)cc3)c2-c2ccc(OC)cc2)cc1
REMARK SMILES IDX 15 1 14 2 12 3 13 4 11 6 10 7 7 8 8 9 75 10 9 11 6 12 3 13
REMARK SMILES IDX 4 14 85 15 5 16 84 17 2 18 1 19 76 20 77 21 83 22 78 23
REMARK SMILES IDX 82 24 79 25 80 26 81 27 16 28 17 29 18 30 19 31 20 33 21 34
REMARK SMILES IDX 22 35 74 36 23 37 73 38 24 39 25 40 26 41 67 42 27 43 72 44
REMARK SMILES IDX 66 45 68 46 28 47 71 48 65 49 64 50 29 52 55 53 38 54 54 55
REMARK SMILES IDX 39 56 42 57 53 58 69 59 40 60 41 61 52 63 70 64 43 65 30 66
REMARK SMILES IDX 31 67 36 68 32 69 33 70 35 71 37 72 34 73 56 74 57 75 62 76
REMARK SMILES IDX 58 77 59 78 61 79 63 80 60 81 44 82 45 83 50 84 46 85 47 86
REMARK SMILES IDX 49 87 51 88 48 89
REMARK H PARENT 14 5 18 32 68 51 42 62
REMARK Flexibility Score: inf
ROOT
ATOM      1  C   UNL A   1      31.472  27.073  26.429  1.00  0.00     0.117 C 
ENDROOT
BRANCH   1   2
ATOM      2  N   UNL A   1      31.147  27.573  25.107  1.00  0.00    -0.356 N 
ATOM      3  C   UNL A   1      31.807  27.380  23.927  1.00  0.00     0.227 C 
ATOM      4  O   UNL A   1      31.375  27.948  22.922  1.00  0.00    -0.275 OA
ATOM      5  H   UNL A   1      30.337  28.130  25.052  1.00  0.00     0.163 HD
BRANCH   3   6
ATOM      6  C   UNL A   1      32.982  26.425  23.853  1.00  0.00     0.179 C 
BRANCH   6   7
ATOM      7  C   UNL A   1      32.547  25.010  23.793  1.00  0.00     0.154 A 
ATOM      8  C   UNL A   1      32.131  22.831  23.776  1.00  0.00     0.122 A 
ATOM      9  N   UNL A   1      31.008  23.433  23.362  1.00  0.00    -0.079 NA
ATOM     10  C   UNL A   1      33.147  23.794  24.048  1.00  0.00     0.053 A 
ATOM     11  O   UNL A   1      31.262  24.790  23.400  1.00  0.00    -0.360 OA
BRANCH   8  12
ATOM     12  C   UNL A   1      32.229  21.383  23.899  1.00  0.00     0.005 A 
ATOM     13  C   UNL A   1      32.561  18.607  24.147  1.00  0.00     0.118 A 
ATOM     14  C   UNL A   1      32.307  19.180  22.899  1.00  0.00     0.047 A 
ATOM     15  C   UNL A   1      32.663  19.425  25.272  1.00  0.00     0.047 A 
ATOM     16  C   UNL A   1      32.126  20.560  22.773  1.00  0.00     0.014 A 
ATOM     17  C   UNL A   1      32.497  20.806  25.148  1.00  0.00     0.014 A 
BRANCH  13  18
ATOM     18  O   UNL A   1      32.733  17.250  24.150  1.00  0.00    -0.497 OA
ATOM     19  C   UNL A   1      33.042  16.682  25.419  1.00  0.00     0.278 C 
ENDBRANCH  13  18
ENDBRANCH   8  12
BRANCH  10  20
ATOM     20  C   UNL A   1      34.538  23.602  24.411  1.00  0.00    -0.012 A 
ATOM     21  C   UNL A   1      34.954  23.881  25.718  1.00  0.00     0.013 A 
ATOM     22  C   UNL A   1      35.480  23.162  23.476  1.00  0.00     0.013 A 
ATOM     23  C   UNL A   1      36.290  23.710  26.084  1.00  0.00     0.047 A 
ATOM     24  C   UNL A   1      36.821  22.993  23.847  1.00  0.00     0.047 A 
ATOM     25  C   UNL A   1      37.230  23.267  25.153  1.00  0.00     0.118 A 
BRANCH  25  26
ATOM     26  O   UNL A   1      38.499  23.149  25.645  1.00  0.00    -0.497 OA
ATOM     27  C   UNL A   1      38.920  21.850  26.037  1.00  0.00     0.278 C 
ENDBRANCH  25  26
ENDBRANCH  10  20
ENDBRANCH   6   7
ENDBRANCH   3   6
ENDBRANCH   1   2
BRANCH   1  28
ATOM     28  C   UNL A   1      31.900  28.195  27.373  1.00  0.00     0.042 C 
BRANCH  28  29
ATOM     29  C   UNL A   1      33.351  28.632  27.196  1.00  0.00     0.118 C 
BRANCH  29  30
ATOM     30  N   UNL A   1      33.494  30.081  27.187  1.00  0.00    -0.352 N 
ATOM     31  C   UNL A   1      34.473  30.880  27.718  1.00  0.00     0.251 C 
ATOM     32  H   UNL A   1      32.772  30.566  26.725  1.00  0.00     0.163 HD
ATOM     33  O   UNL A   1      34.301  32.098  27.759  1.00  0.00    -0.269 OA
BRANCH  31  34
ATOM     34  C   UNL A   1      35.726  30.303  28.256  1.00  0.00     0.039 A 
ATOM     35  C   UNL A   1      36.861  30.294  27.438  1.00  0.00     0.014 A 
ATOM     36  C   UNL A   1      35.780  29.726  29.527  1.00  0.00     0.014 A 
ATOM     37  C   UNL A   1      38.060  29.757  27.914  1.00  0.00     0.010 A 
ATOM     38  C   UNL A   1      36.992  29.248  30.024  1.00  0.00     0.010 A 
ATOM     39  C   UNL A   1      38.142  29.256  29.223  1.00  0.00    -0.014 A 
BRANCH  39  40
ATOM     40  C   UNL A   1      39.424  28.741  29.767  1.00  0.00     0.031 A 
ATOM     41  C   UNL A   1      40.063  29.397  30.961  1.00  0.00     0.074 A 
ATOM     42  C   UNL A   1      40.045  27.718  29.147  1.00  0.00     0.049 A 
ATOM     43  N   UNL A   1      41.213  29.136  31.530  1.00  0.00    -0.248 NA
ATOM     44  C   UNL A   1      39.323  30.506  31.582  1.00  0.00     0.031 C 
ATOM     45  C   UNL A   1      39.551  27.025  27.957  1.00  0.00     0.029 A 
ATOM     46  N   UNL A   1      41.235  27.094  29.427  1.00  0.00    -0.354 N 
ATOM     47  C   UNL A   1      41.342  30.058  32.561  1.00  0.00     0.074 A 
ATOM     48  C   UNL A   1      40.172  30.909  32.516  1.00  0.00     0.031 C 
ATOM     49  C   UNL A   1      40.422  26.061  27.616  1.00  0.00     0.029 A 
ATOM     50  C   UNL A   1      41.551  26.092  28.541  1.00  0.00     0.049 A 
ATOM     51  H   UNL A   1      41.808  27.341  30.189  1.00  0.00     0.167 HD
ATOM     52  C   UNL A   1      42.336  30.172  33.473  1.00  0.00     0.037 A 
ATOM     53  C   UNL A   1      42.633  25.294  28.476  1.00  0.00     0.037 A 
ATOM     54  C   UNL A   1      43.485  29.307  33.538  1.00  0.00     0.049 A 
ATOM     55  C   UNL A   1      43.719  25.439  29.506  1.00  0.00     0.074 A 
ATOM     56  C   UNL A   1      44.512  29.305  34.464  1.00  0.00     0.029 A 
ATOM     57  N   UNL A   1      43.755  28.287  32.639  1.00  0.00    -0.354 N 
ATOM     58  N   UNL A   1      43.796  26.274  30.512  1.00  0.00    -0.248 NA
ATOM     59  C   UNL A   1      44.864  24.525  29.393  1.00  0.00     0.031 C 
ATOM     60  C   UNL A   1      45.424  28.307  34.106  1.00  0.00     0.029 A 
ATOM     61  C   UNL A   1      44.943  27.661  32.979  1.00  0.00     0.049 A 
ATOM     62  H   UNL A   1      43.188  28.045  31.871  1.00  0.00     0.167 HD
ATOM     63  C   UNL A   1      44.984  25.970  31.167  1.00  0.00     0.074 A 
ATOM     64  C   UNL A   1      45.586  24.866  30.451  1.00  0.00     0.031 C 
ATOM     65  C   UNL A   1      45.525  26.557  32.261  1.00  0.00     0.037 A 
BRANCH  52  66
ATOM     66  C   UNL A   1      42.224  31.274  34.487  1.00  0.00     0.057 A 
ATOM     67  C   UNL A   1      42.777  32.541  34.261  1.00  0.00     0.134 A 
ATOM     68  C   UNL A   1      41.518  31.079  35.680  1.00  0.00     0.134 A 
ATOM     69  F   UNL A   1      43.474  32.789  33.141  1.00  0.00    -0.206 F 
ATOM     70  C   UNL A   1      42.648  33.570  35.196  1.00  0.00     0.040 A 
ATOM     71  C   UNL A   1      41.363  32.108  36.612  1.00  0.00     0.040 A 
ATOM     72  F   UNL A   1      40.958  29.892  35.956  1.00  0.00    -0.206 F 
ATOM     73  C   UNL A   1      41.933  33.356  36.372  1.00  0.00     0.006 A 
ENDBRANCH  52  66
BRANCH  53  74
ATOM     74  C   UNL A   1      42.737  24.271  27.406  1.00  0.00     0.057 A 
ATOM     75  C   UNL A   1      43.247  24.598  26.145  1.00  0.00     0.134 A 
ATOM     76  C   UNL A   1      42.322  22.951  27.614  1.00  0.00     0.134 A 
ATOM     77  F   UNL A   1      43.642  25.852  25.881  1.00  0.00    -0.206 F 
ATOM     78  C   UNL A   1      43.324  23.652  25.121  1.00  0.00     0.040 A 
ATOM     79  C   UNL A   1      42.415  21.990  26.607  1.00  0.00     0.040 A 
ATOM     80  F   UNL A   1      41.831  22.575  28.805  1.00  0.00    -0.206 F 
ATOM     81  C   UNL A   1      42.910  22.342  25.353  1.00  0.00     0.006 A 
ENDBRANCH  53  74
BRANCH  65  82
ATOM     82  C   UNL A   1      46.817  25.991  32.771  1.00  0.00     0.057 A 
ATOM     83  C   UNL A   1      46.848  24.964  33.722  1.00  0.00     0.134 A 
ATOM     84  C   UNL A   1      48.043  26.457  32.278  1.00  0.00     0.134 A 
ATOM     85  F   UNL A   1      45.709  24.485  34.242  1.00  0.00    -0.206 F 
ATOM     86  C   UNL A   1      48.056  24.433  34.180  1.00  0.00     0.040 A 
ATOM     87  C   UNL A   1      49.255  25.918  32.711  1.00  0.00     0.040 A 
ATOM     88  F   UNL A   1      48.081  27.435  31.360  1.00  0.00    -0.206 F 
ATOM     89  C   UNL A   1      49.263  24.907  33.670  1.00  0.00     0.006 A 
ENDBRANCH  65  82
ENDBRANCH  39  40
ENDBRANCH  31  34
ENDBRANCH  29  30
ENDBRANCH  28  29
ENDBRANCH   1  28
TORSDOF 15
ENDMDL
