MODEL 1
REMARK VINA RESULT:     -11.7      0.000      0.000
REMARK SMILES Nc1ccc2[nH]cc(C(=O)NCCCNC(=O)c3ccc(-c4c5nc(c(-c6c(F)cccc6F)c6ccc([nH]6)c(-c6c(F)cccc6F)c6nc(c(-c7c(F)cccc7F)c7ccc4[nH]7)C=C6)C=C5)cc3)c2c1
REMARK SMILES IDX 13 1 12 2 11 3 9 4 10 5 8 7 2 8 3 9 73 10 4 11 72 12 5 13
REMARK SMILES IDX 6 14 7 15 1 17 14 20 15 21 16 22 17 24 18 25 19 26 71 27
REMARK SMILES IDX 20 28 70 29 21 30 22 31 23 32 64 33 24 34 69 35 63 36 65 37
REMARK SMILES IDX 25 38 68 39 62 40 61 41 26 43 52 44 35 45 51 46 36 47 39 48
REMARK SMILES IDX 50 49 66 50 37 51 38 52 49 54 67 55 40 56 27 57 28 58 33 59
REMARK SMILES IDX 29 60 30 61 32 62 34 63 31 64 53 65 54 66 59 67 55 68 56 69
REMARK SMILES IDX 58 70 60 71 57 72 41 73 42 74 47 75 43 76 44 77 46 78 48 79
REMARK SMILES IDX 45 80
REMARK H PARENT 11 6 6 16 1 18 1 19 15 23 65 42 39 53
REMARK Flexibility Score: inf
ROOT
ATOM      1  C   UNL A   1      37.246  32.568  29.495  1.00  0.00     0.042 C 
ENDROOT
BRANCH   1   2
ATOM      2  C   UNL A   1      36.633  33.748  28.729  1.00  0.00     0.118 C 
BRANCH   2   3
ATOM      3  N   UNL A   1      35.262  33.502  28.377  1.00  0.00    -0.352 N 
ATOM      4  C   UNL A   1      34.083  34.145  28.631  1.00  0.00     0.253 C 
ATOM      5  O   UNL A   1      33.135  33.693  27.988  1.00  0.00    -0.269 OA
ATOM      6  H   UNL A   1      35.146  32.690  27.832  1.00  0.00     0.163 HD
BRANCH   4   7
ATOM      7  C   UNL A   1      33.876  35.266  29.568  1.00  0.00     0.065 A 
ATOM      8  C   UNL A   1      34.326  35.436  33.447  1.00  0.00     0.032 A 
ATOM      9  C   UNL A   1      33.873  36.740  33.576  1.00  0.00     0.027 A 
ATOM     10  C   UNL A   1      34.370  34.847  32.171  1.00  0.00     0.036 A 
ATOM     11  C   UNL A   1      33.465  37.469  32.461  1.00  0.00     0.029 A 
ATOM     12  C   UNL A   1      33.979  35.538  30.995  1.00  0.00     0.014 A 
ATOM     13  C   UNL A   1      33.538  36.856  31.203  1.00  0.00     0.046 A 
ATOM     14  N   UNL A   1      33.203  37.382  29.986  1.00  0.00    -0.360 N 
ATOM     15  C   UNL A   1      33.403  36.458  29.016  1.00  0.00     0.097 A 
ATOM     16  H   UNL A   1      32.868  38.296  29.838  1.00  0.00     0.166 HD
BRANCH   8  17
ATOM     17  N   UNL A   1      34.781  34.740  34.555  1.00  0.00    -0.399 N 
ATOM     18  H   UNL A   1      34.323  33.915  34.840  1.00  0.00     0.156 HD
ATOM     19  H   UNL A   1      35.561  35.068  35.057  1.00  0.00     0.156 HD
ENDBRANCH   8  17
ENDBRANCH   4   7
ENDBRANCH   2   3
ENDBRANCH   1   2
BRANCH   1  20
ATOM     20  C   UNL A   1      36.192  31.703  30.193  1.00  0.00     0.118 C 
BRANCH  20  21
ATOM     21  N   UNL A   1      35.577  30.739  29.299  1.00  0.00    -0.352 N 
ATOM     22  C   UNL A   1      36.000  29.668  28.569  1.00  0.00     0.251 C 
ATOM     23  H   UNL A   1      34.612  30.897  29.194  1.00  0.00     0.163 HD
ATOM     24  O   UNL A   1      35.145  29.141  27.853  1.00  0.00    -0.269 OA
BRANCH  22  25
ATOM     25  C   UNL A   1      37.384  29.125  28.536  1.00  0.00     0.039 A 
ATOM     26  C   UNL A   1      37.974  28.311  29.504  1.00  0.00     0.014 A 
ATOM     27  C   UNL A   1      38.157  29.518  27.424  1.00  0.00     0.014 A 
ATOM     28  C   UNL A   1      39.321  27.971  29.410  1.00  0.00     0.010 A 
ATOM     29  C   UNL A   1      39.495  29.172  27.318  1.00  0.00     0.010 A 
ATOM     30  C   UNL A   1      40.087  28.441  28.341  1.00  0.00    -0.014 A 
BRANCH  30  31
ATOM     31  C   UNL A   1      41.507  28.113  28.305  1.00  0.00     0.031 A 
ATOM     32  C   UNL A   1      41.868  26.850  27.604  1.00  0.00     0.074 A 
ATOM     33  C   UNL A   1      42.451  28.955  28.773  1.00  0.00     0.049 A 
ATOM     34  N   UNL A   1      42.453  25.807  28.097  1.00  0.00    -0.248 NA
ATOM     35  C   UNL A   1      41.446  26.692  26.204  1.00  0.00     0.031 C 
ATOM     36  C   UNL A   1      42.289  30.332  29.244  1.00  0.00     0.029 A 
ATOM     37  N   UNL A   1      43.798  28.770  28.828  1.00  0.00    -0.354 N 
ATOM     38  C   UNL A   1      42.623  24.917  27.036  1.00  0.00     0.074 A 
ATOM     39  C   UNL A   1      41.877  25.459  25.931  1.00  0.00     0.031 C 
ATOM     40  C   UNL A   1      43.502  30.924  29.312  1.00  0.00     0.029 A 
ATOM     41  C   UNL A   1      44.525  29.937  29.012  1.00  0.00     0.049 A 
ATOM     42  H   UNL A   1      44.220  27.885  28.744  1.00  0.00     0.167 HD
ATOM     43  C   UNL A   1      43.518  23.890  27.098  1.00  0.00     0.037 A 
ATOM     44  C   UNL A   1      45.864  30.087  28.856  1.00  0.00     0.037 A 
ATOM     45  C   UNL A   1      43.920  23.623  28.454  1.00  0.00     0.049 A 
ATOM     46  C   UNL A   1      46.482  28.738  28.950  1.00  0.00     0.074 A 
ATOM     47  C   UNL A   1      43.261  23.235  29.605  1.00  0.00     0.029 A 
ATOM     48  N   UNL A   1      45.149  24.076  28.867  1.00  0.00    -0.354 N 
ATOM     49  N   UNL A   1      46.534  28.046  30.055  1.00  0.00    -0.248 NA
ATOM     50  C   UNL A   1      46.618  27.963  27.724  1.00  0.00     0.031 C 
ATOM     51  C   UNL A   1      43.912  23.948  30.655  1.00  0.00     0.029 A 
ATOM     52  C   UNL A   1      44.955  24.676  30.083  1.00  0.00     0.049 A 
ATOM     53  H   UNL A   1      46.002  23.988  28.383  1.00  0.00     0.167 HD
ATOM     54  C   UNL A   1      46.269  26.739  29.667  1.00  0.00     0.074 A 
ATOM     55  C   UNL A   1      46.420  26.735  28.212  1.00  0.00     0.031 C 
ATOM     56  C   UNL A   1      45.670  25.853  30.515  1.00  0.00     0.037 A 
BRANCH  43  57
ATOM     57  C   UNL A   1      44.301  23.350  25.925  1.00  0.00     0.057 A 
ATOM     58  C   UNL A   1      45.282  24.083  25.229  1.00  0.00     0.134 A 
ATOM     59  C   UNL A   1      44.314  21.961  25.690  1.00  0.00     0.134 A 
ATOM     60  F   UNL A   1      45.434  25.403  25.383  1.00  0.00    -0.206 F 
ATOM     61  C   UNL A   1      46.238  23.476  24.408  1.00  0.00     0.040 A 
ATOM     62  C   UNL A   1      45.297  21.339  24.909  1.00  0.00     0.040 A 
ATOM     63  F   UNL A   1      43.425  21.151  26.284  1.00  0.00    -0.206 F 
ATOM     64  C   UNL A   1      46.274  22.098  24.279  1.00  0.00     0.006 A 
ENDBRANCH  43  57
BRANCH  44  65
ATOM     65  C   UNL A   1      46.588  31.279  28.358  1.00  0.00     0.057 A 
ATOM     66  C   UNL A   1      47.186  32.199  29.242  1.00  0.00     0.134 A 
ATOM     67  C   UNL A   1      46.515  31.682  27.019  1.00  0.00     0.134 A 
ATOM     68  F   UNL A   1      47.228  31.967  30.562  1.00  0.00    -0.206 F 
ATOM     69  C   UNL A   1      47.687  33.434  28.822  1.00  0.00     0.040 A 
ATOM     70  C   UNL A   1      47.004  32.924  26.585  1.00  0.00     0.040 A 
ATOM     71  F   UNL A   1      45.916  30.904  26.104  1.00  0.00    -0.206 F 
ATOM     72  C   UNL A   1      47.589  33.806  27.489  1.00  0.00     0.006 A 
ENDBRANCH  44  65
BRANCH  56  73
ATOM     73  C   UNL A   1      45.495  26.257  31.952  1.00  0.00     0.057 A 
ATOM     74  C   UNL A   1      46.440  25.840  32.894  1.00  0.00     0.134 A 
ATOM     75  C   UNL A   1      44.349  26.899  32.445  1.00  0.00     0.134 A 
ATOM     76  F   UNL A   1      47.530  25.159  32.506  1.00  0.00    -0.206 F 
ATOM     77  C   UNL A   1      46.263  26.063  34.262  1.00  0.00     0.040 A 
ATOM     78  C   UNL A   1      44.177  27.160  33.807  1.00  0.00     0.040 A 
ATOM     79  F   UNL A   1      43.337  27.229  31.636  1.00  0.00    -0.206 F 
ATOM     80  C   UNL A   1      45.134  26.737  34.722  1.00  0.00     0.006 A 
ENDBRANCH  56  73
ENDBRANCH  30  31
ENDBRANCH  22  25
ENDBRANCH  20  21
ENDBRANCH   1  20
TORSDOF 11
ENDMDL
MODEL 2
REMARK VINA RESULT:     -11.7      4.141      8.111
REMARK SMILES Nc1ccc2[nH]cc(C(=O)NCCCNC(=O)c3ccc(-c4c5nc(c(-c6c(F)cccc6F)c6ccc([nH]6)c(-c6c(F)cccc6F)c6nc(c(-c7c(F)cccc7F)c7ccc4[nH]7)C=C6)C=C5)cc3)c2c1
REMARK SMILES IDX 13 1 12 2 11 3 9 4 10 5 8 7 2 8 3 9 73 10 4 11 72 12 5 13
REMARK SMILES IDX 6 14 7 15 1 17 14 20 15 21 16 22 17 24 18 25 19 26 71 27
REMARK SMILES IDX 20 28 70 29 21 30 22 31 23 32 64 33 24 34 69 35 63 36 65 37
REMARK SMILES IDX 25 38 68 39 62 40 61 41 26 43 52 44 35 45 51 46 36 47 39 48
REMARK SMILES IDX 50 49 66 50 37 51 38 52 49 54 67 55 40 56 27 57 28 58 33 59
REMARK SMILES IDX 29 60 30 61 32 62 34 63 31 64 53 65 54 66 59 67 55 68 56 69
REMARK SMILES IDX 58 70 60 71 57 72 41 73 42 74 47 75 43 76 44 77 46 78 48 79
REMARK SMILES IDX 45 80
REMARK H PARENT 11 6 6 16 1 18 1 19 15 23 65 42 39 53
REMARK Flexibility Score: inf
ROOT
ATOM      1  C   UNL A   1      31.829  29.565  26.593  1.00  0.00     0.042 C 
ENDROOT
BRANCH   1   2
ATOM      2  C   UNL A   1      31.695  28.081  26.955  1.00  0.00     0.118 C 
BRANCH   2   3
ATOM      3  N   UNL A   1      32.122  27.227  25.881  1.00  0.00    -0.352 N 
ATOM      4  C   UNL A   1      31.614  26.919  24.650  1.00  0.00     0.253 C 
ATOM      5  O   UNL A   1      32.392  26.266  23.954  1.00  0.00    -0.269 OA
ATOM      6  H   UNL A   1      32.967  26.761  26.074  1.00  0.00     0.163 HD
BRANCH   4   7
ATOM      7  C   UNL A   1      30.282  27.284  24.130  1.00  0.00     0.065 A 
ATOM      8  C   UNL A   1      29.034  30.602  22.483  1.00  0.00     0.032 A 
ATOM      9  C   UNL A   1      27.713  30.200  22.358  1.00  0.00     0.027 A 
ATOM     10  C   UNL A   1      29.970  29.721  23.053  1.00  0.00     0.036 A 
ATOM     11  C   UNL A   1      27.306  28.938  22.789  1.00  0.00     0.029 A 
ATOM     12  C   UNL A   1      29.623  28.420  23.501  1.00  0.00     0.014 A 
ATOM     13  C   UNL A   1      28.269  28.081  23.338  1.00  0.00     0.046 A 
ATOM     14  N   UNL A   1      28.097  26.809  23.809  1.00  0.00    -0.360 N 
ATOM     15  C   UNL A   1      29.276  26.328  24.274  1.00  0.00     0.097 A 
ATOM     16  H   UNL A   1      27.244  26.317  23.811  1.00  0.00     0.166 HD
BRANCH   8  17
ATOM     17  N   UNL A   1      29.438  31.836  22.001  1.00  0.00    -0.399 N 
ATOM     18  H   UNL A   1      28.945  32.261  21.261  1.00  0.00     0.156 HD
ATOM     19  H   UNL A   1      30.217  32.289  22.397  1.00  0.00     0.156 HD
ENDBRANCH   8  17
ENDBRANCH   4   7
ENDBRANCH   2   3
ENDBRANCH   1   2
BRANCH   1  20
ATOM     20  C   UNL A   1      33.285  30.038  26.561  1.00  0.00     0.118 C 
BRANCH  20  21
ATOM     21  N   UNL A   1      33.553  31.091  27.525  1.00  0.00    -0.352 N 
ATOM     22  C   UNL A   1      34.596  31.443  28.329  1.00  0.00     0.251 C 
ATOM     23  H   UNL A   1      32.790  31.705  27.621  1.00  0.00     0.163 HD
ATOM     24  O   UNL A   1      34.386  32.397  29.084  1.00  0.00    -0.269 OA
BRANCH  22  25
ATOM     25  C   UNL A   1      35.916  30.762  28.398  1.00  0.00     0.039 A 
ATOM     26  C   UNL A   1      36.167  29.419  28.114  1.00  0.00     0.014 A 
ATOM     27  C   UNL A   1      36.987  31.572  28.829  1.00  0.00     0.014 A 
ATOM     28  C   UNL A   1      37.431  28.879  28.338  1.00  0.00     0.010 A 
ATOM     29  C   UNL A   1      38.251  31.043  29.041  1.00  0.00     0.010 A 
ATOM     30  C   UNL A   1      38.455  29.683  28.843  1.00  0.00    -0.014 A 
BRANCH  30  31
ATOM     31  C   UNL A   1      39.749  29.071  29.118  1.00  0.00     0.031 A 
ATOM     32  C   UNL A   1      40.092  28.887  30.555  1.00  0.00     0.074 A 
ATOM     33  C   UNL A   1      40.540  28.592  28.137  1.00  0.00     0.049 A 
ATOM     34  N   UNL A   1      41.088  29.396  31.206  1.00  0.00    -0.248 NA
ATOM     35  C   UNL A   1      39.164  28.114  31.394  1.00  0.00     0.031 C 
ATOM     36  C   UNL A   1      40.239  28.453  26.710  1.00  0.00     0.029 A 
ATOM     37  N   UNL A   1      41.773  28.025  28.244  1.00  0.00    -0.354 N 
ATOM     38  C   UNL A   1      41.011  28.883  32.501  1.00  0.00     0.074 A 
ATOM     39  C   UNL A   1      39.745  28.203  32.591  1.00  0.00     0.031 C 
ATOM     40  C   UNL A   1      41.155  27.641  26.140  1.00  0.00     0.029 A 
ATOM     41  C   UNL A   1      42.169  27.307  27.125  1.00  0.00     0.049 A 
ATOM     42  H   UNL A   1      42.336  28.117  29.047  1.00  0.00     0.167 HD
ATOM     43  C   UNL A   1      42.082  28.903  33.345  1.00  0.00     0.037 A 
ATOM     44  C   UNL A   1      43.213  26.446  27.046  1.00  0.00     0.037 A 
ATOM     45  C   UNL A   1      43.086  29.831  32.898  1.00  0.00     0.049 A 
ATOM     46  C   UNL A   1      44.145  26.766  28.159  1.00  0.00     0.074 A 
ATOM     47  C   UNL A   1      43.122  31.195  32.678  1.00  0.00     0.029 A 
ATOM     48  N   UNL A   1      44.203  29.328  32.276  1.00  0.00    -0.354 N 
ATOM     49  N   UNL A   1      44.853  27.861  28.213  1.00  0.00    -0.248 NA
ATOM     50  C   UNL A   1      43.937  26.098  29.436  1.00  0.00     0.031 C 
ATOM     51  C   UNL A   1      43.948  31.357  31.527  1.00  0.00     0.029 A 
ATOM     52  C   UNL A   1      44.404  30.092  31.157  1.00  0.00     0.049 A 
ATOM     53  H   UNL A   1      44.750  28.567  32.576  1.00  0.00     0.167 HD
ATOM     54  C   UNL A   1      44.805  28.249  29.545  1.00  0.00     0.074 A 
ATOM     55  C   UNL A   1      44.305  27.078  30.266  1.00  0.00     0.031 C 
ATOM     56  C   UNL A   1      44.893  29.562  29.907  1.00  0.00     0.037 A 
BRANCH  43  57
ATOM     57  C   UNL A   1      42.391  27.847  34.380  1.00  0.00     0.057 A 
ATOM     58  C   UNL A   1      41.922  27.886  35.708  1.00  0.00     0.134 A 
ATOM     59  C   UNL A   1      42.892  26.600  33.960  1.00  0.00     0.134 A 
ATOM     60  F   UNL A   1      41.369  28.982  36.241  1.00  0.00    -0.206 F 
ATOM     61  C   UNL A   1      41.899  26.759  36.534  1.00  0.00     0.040 A 
ATOM     62  C   UNL A   1      42.828  25.454  34.763  1.00  0.00     0.040 A 
ATOM     63  F   UNL A   1      43.378  26.433  32.721  1.00  0.00    -0.206 F 
ATOM     64  C   UNL A   1      42.315  25.529  36.050  1.00  0.00     0.006 A 
ENDBRANCH  43  57
BRANCH  44  65
ATOM     65  C   UNL A   1      43.303  25.205  26.243  1.00  0.00     0.057 A 
ATOM     66  C   UNL A   1      42.511  24.078  26.538  1.00  0.00     0.134 A 
ATOM     67  C   UNL A   1      44.330  25.000  25.313  1.00  0.00     0.134 A 
ATOM     68  F   UNL A   1      41.558  24.126  27.481  1.00  0.00    -0.206 F 
ATOM     69  C   UNL A   1      42.718  22.832  25.942  1.00  0.00     0.040 A 
ATOM     70  C   UNL A   1      44.557  23.751  24.715  1.00  0.00     0.040 A 
ATOM     71  F   UNL A   1      45.176  25.993  25.001  1.00  0.00    -0.206 F 
ATOM     72  C   UNL A   1      43.752  22.661  25.032  1.00  0.00     0.006 A 
ENDBRANCH  44  65
BRANCH  56  73
ATOM     73  C   UNL A   1      45.258  30.564  28.848  1.00  0.00     0.057 A 
ATOM     74  C   UNL A   1      46.563  31.064  28.806  1.00  0.00     0.134 A 
ATOM     75  C   UNL A   1      44.324  31.160  27.987  1.00  0.00     0.134 A 
ATOM     76  F   UNL A   1      47.497  30.591  29.649  1.00  0.00    -0.206 F 
ATOM     77  C   UNL A   1      46.929  32.096  27.939  1.00  0.00     0.040 A 
ATOM     78  C   UNL A   1      44.685  32.168  27.089  1.00  0.00     0.040 A 
ATOM     79  F   UNL A   1      43.029  30.833  28.035  1.00  0.00    -0.206 F 
ATOM     80  C   UNL A   1      45.991  32.643  27.067  1.00  0.00     0.006 A 
ENDBRANCH  56  73
ENDBRANCH  30  31
ENDBRANCH  22  25
ENDBRANCH  20  21
ENDBRANCH   1  20
TORSDOF 11
ENDMDL
MODEL 3
REMARK VINA RESULT:     -11.6      2.910      7.036
REMARK SMILES Nc1ccc2[nH]cc(C(=O)NCCCNC(=O)c3ccc(-c4c5nc(c(-c6c(F)cccc6F)c6ccc([nH]6)c(-c6c(F)cccc6F)c6nc(c(-c7c(F)cccc7F)c7ccc4[nH]7)C=C6)C=C5)cc3)c2c1
REMARK SMILES IDX 13 1 12 2 11 3 9 4 10 5 8 7 2 8 3 9 73 10 4 11 72 12 5 13
REMARK SMILES IDX 6 14 7 15 1 17 14 20 15 21 16 22 17 24 18 25 19 26 71 27
REMARK SMILES IDX 20 28 70 29 21 30 22 31 23 32 64 33 24 34 69 35 63 36 65 37
REMARK SMILES IDX 25 38 68 39 62 40 61 41 26 43 52 44 35 45 51 46 36 47 39 48
REMARK SMILES IDX 50 49 66 50 37 51 38 52 49 54 67 55 40 56 27 57 28 58 33 59
REMARK SMILES IDX 29 60 30 61 32 62 34 63 31 64 53 65 54 66 59 67 55 68 56 69
REMARK SMILES IDX 58 70 60 71 57 72 41 73 42 74 47 75 43 76 44 77 46 78 48 79
REMARK SMILES IDX 45 80
REMARK H PARENT 11 6 6 16 1 18 1 19 15 23 65 42 39 53
REMARK Flexibility Score: inf
ROOT
ATOM      1  C   UNL A   1      34.877  34.109  32.248  1.00  0.00     0.042 C 
ENDROOT
BRANCH   1   2
ATOM      2  C   UNL A   1      36.269  34.487  32.770  1.00  0.00     0.118 C 
BRANCH   2   3
ATOM      3  N   UNL A   1      37.171  34.814  31.700  1.00  0.00    -0.352 N 
ATOM      4  C   UNL A   1      38.485  34.540  31.445  1.00  0.00     0.253 C 
ATOM      5  O   UNL A   1      38.838  34.866  30.311  1.00  0.00    -0.269 OA
ATOM      6  H   UNL A   1      36.748  35.356  30.996  1.00  0.00     0.163 HD
BRANCH   4   7
ATOM      7  C   UNL A   1      39.454  33.927  32.374  1.00  0.00     0.065 A 
ATOM      8  C   UNL A   1      38.967  31.101  35.030  1.00  0.00     0.032 A 
ATOM      9  C   UNL A   1      40.262  31.156  35.522  1.00  0.00     0.027 A 
ATOM     10  C   UNL A   1      38.589  31.968  33.990  1.00  0.00     0.036 A 
ATOM     11  C   UNL A   1      41.188  32.057  34.999  1.00  0.00     0.029 A 
ATOM     12  C   UNL A   1      39.485  32.901  33.407  1.00  0.00     0.014 A 
ATOM     13  C   UNL A   1      40.780  32.896  33.953  1.00  0.00     0.046 A 
ATOM     14  N   UNL A   1      41.517  33.838  33.290  1.00  0.00    -0.360 N 
ATOM     15  C   UNL A   1      40.749  34.447  32.355  1.00  0.00     0.097 A 
ATOM     16  H   UNL A   1      42.465  34.042  33.465  1.00  0.00     0.166 HD
BRANCH   8  17
ATOM     17  N   UNL A   1      38.072  30.163  35.519  1.00  0.00    -0.399 N 
ATOM     18  H   UNL A   1      37.764  29.428  34.940  1.00  0.00     0.156 HD
ATOM     19  H   UNL A   1      37.744  30.231  36.444  1.00  0.00     0.156 HD
ENDBRANCH   8  17
ENDBRANCH   4   7
ENDBRANCH   2   3
ENDBRANCH   1   2
BRANCH   1  20
ATOM     20  C   UNL A   1      34.783  32.641  31.820  1.00  0.00     0.118 C 
BRANCH  20  21
ATOM     21  N   UNL A   1      34.376  32.487  30.434  1.00  0.00    -0.352 N 
ATOM     22  C   UNL A   1      34.899  31.906  29.317  1.00  0.00     0.251 C 
ATOM     23  H   UNL A   1      33.505  32.907  30.257  1.00  0.00     0.163 HD
ATOM     24  O   UNL A   1      34.251  32.070  28.280  1.00  0.00    -0.269 OA
BRANCH  22  25
ATOM     25  C   UNL A   1      36.175  31.146  29.242  1.00  0.00     0.039 A 
ATOM     26  C   UNL A   1      36.305  29.769  29.056  1.00  0.00     0.014 A 
ATOM     27  C   UNL A   1      37.344  31.916  29.416  1.00  0.00     0.014 A 
ATOM     28  C   UNL A   1      37.558  29.166  29.128  1.00  0.00     0.010 A 
ATOM     29  C   UNL A   1      38.595  31.323  29.475  1.00  0.00     0.010 A 
ATOM     30  C   UNL A   1      38.693  29.940  29.382  1.00  0.00    -0.014 A 
BRANCH  30  31
ATOM     31  C   UNL A   1      39.980  29.268  29.507  1.00  0.00     0.031 A 
ATOM     32  C   UNL A   1      40.489  29.086  30.895  1.00  0.00     0.074 A 
ATOM     33  C   UNL A   1      40.619  28.737  28.446  1.00  0.00     0.049 A 
ATOM     34  N   UNL A   1      41.581  29.553  31.408  1.00  0.00    -0.248 NA
ATOM     35  C   UNL A   1      39.637  28.371  31.856  1.00  0.00     0.031 C 
ATOM     36  C   UNL A   1      40.137  28.595  27.070  1.00  0.00     0.029 A 
ATOM     37  N   UNL A   1      41.827  28.112  28.411  1.00  0.00    -0.354 N 
ATOM     38  C   UNL A   1      41.641  29.062  32.712  1.00  0.00     0.074 A 
ATOM     39  C   UNL A   1      40.365  28.447  32.971  1.00  0.00     0.031 C 
ATOM     40  C   UNL A   1      40.936  27.731  26.406  1.00  0.00     0.029 A 
ATOM     41  C   UNL A   1      42.047  27.360  27.266  1.00  0.00     0.049 A 
ATOM     42  H   UNL A   1      42.489  28.186  29.136  1.00  0.00     0.167 HD
ATOM     43  C   UNL A   1      42.808  29.039  33.418  1.00  0.00     0.037 A 
ATOM     44  C   UNL A   1      43.031  26.447  27.075  1.00  0.00     0.037 A 
ATOM     45  C   UNL A   1      43.793  29.911  32.832  1.00  0.00     0.049 A 
ATOM     46  C   UNL A   1      44.108  26.735  28.058  1.00  0.00     0.074 A 
ATOM     47  C   UNL A   1      43.866  31.268  32.583  1.00  0.00     0.029 A 
ATOM     48  N   UNL A   1      44.798  29.344  32.087  1.00  0.00    -0.354 N 
ATOM     49  N   UNL A   1      44.869  27.794  28.004  1.00  0.00    -0.248 NA
ATOM     50  C   UNL A   1      44.028  26.094  29.364  1.00  0.00     0.031 C 
ATOM     51  C   UNL A   1      44.549  31.374  31.336  1.00  0.00     0.029 A 
ATOM     52  C   UNL A   1      44.895  30.083  30.937  1.00  0.00     0.049 A 
ATOM     53  H   UNL A   1      45.342  28.561  32.331  1.00  0.00     0.167 HD
ATOM     54  C   UNL A   1      45.005  28.201  29.324  1.00  0.00     0.074 A 
ATOM     55  C   UNL A   1      44.543  27.066  30.123  1.00  0.00     0.031 C 
ATOM     56  C   UNL A   1      45.199  29.513  29.647  1.00  0.00     0.037 A 
BRANCH  43  57
ATOM     57  C   UNL A   1      43.192  27.984  34.426  1.00  0.00     0.057 A 
ATOM     58  C   UNL A   1      43.092  28.154  35.821  1.00  0.00     0.134 A 
ATOM     59  C   UNL A   1      43.356  26.652  33.998  1.00  0.00     0.134 A 
ATOM     60  F   UNL A   1      42.882  29.350  36.384  1.00  0.00    -0.206 F 
ATOM     61  C   UNL A   1      43.094  27.080  36.716  1.00  0.00     0.040 A 
ATOM     62  C   UNL A   1      43.311  25.566  34.882  1.00  0.00     0.040 A 
ATOM     63  F   UNL A   1      43.475  26.355  32.695  1.00  0.00    -0.206 F 
ATOM     64  C   UNL A   1      43.163  25.779  36.245  1.00  0.00     0.006 A 
ENDBRANCH  43  57
BRANCH  44  65
ATOM     65  C   UNL A   1      42.961  25.193  26.291  1.00  0.00     0.057 A 
ATOM     66  C   UNL A   1      42.150  24.115  26.696  1.00  0.00     0.134 A 
ATOM     67  C   UNL A   1      43.861  24.920  25.252  1.00  0.00     0.134 A 
ATOM     68  F   UNL A   1      41.317  24.227  27.742  1.00  0.00    -0.206 F 
ATOM     69  C   UNL A   1      42.220  22.851  26.105  1.00  0.00     0.040 A 
ATOM     70  C   UNL A   1      43.950  23.652  24.657  1.00  0.00     0.040 A 
ATOM     71  F   UNL A   1      44.716  25.861  24.826  1.00  0.00    -0.206 F 
ATOM     72  C   UNL A   1      43.131  22.613  25.085  1.00  0.00     0.006 A 
ENDBRANCH  44  65
BRANCH  56  73
ATOM     73  C   UNL A   1      45.477  30.481  28.532  1.00  0.00     0.057 A 
ATOM     74  C   UNL A   1      46.796  30.880  28.291  1.00  0.00     0.134 A 
ATOM     75  C   UNL A   1      44.474  31.145  27.810  1.00  0.00     0.134 A 
ATOM     76  F   UNL A   1      47.806  30.340  28.993  1.00  0.00    -0.206 F 
ATOM     77  C   UNL A   1      47.105  31.879  27.365  1.00  0.00     0.040 A 
ATOM     78  C   UNL A   1      44.772  32.120  26.855  1.00  0.00     0.040 A 
ATOM     79  F   UNL A   1      43.179  30.918  28.054  1.00  0.00    -0.206 F 
ATOM     80  C   UNL A   1      46.093  32.494  26.633  1.00  0.00     0.006 A 
ENDBRANCH  56  73
ENDBRANCH  30  31
ENDBRANCH  22  25
ENDBRANCH  20  21
ENDBRANCH   1  20
TORSDOF 11
ENDMDL
