MODEL 1
REMARK VINA RESULT:     -10.6      0.000      0.000
REMARK SMILES [NH3+]CC1([C@H](O)C(=O)NCCCNC(=O)c2ccc(-c3c4nc(c(-c5c(F)cccc5F)c5ccc([nH]5)c(-c5c(F)cccc5F)c5nc(c(-c6c(F)cccc6F)c6ccc3[nH]6)C=C5)C=C4)cc2)Cc2ccccc2C1
REMARK SMILES IDX 9 1 8 2 6 3 7 4 4 6 3 7 69 8 76 9 70 10 75 11 71 12 74 13
REMARK SMILES IDX 72 14 73 15 2 16 1 17 5 21 10 23 11 24 12 25 13 26 14 28
REMARK SMILES IDX 15 29 16 30 68 31 17 32 67 33 18 34 19 35 20 36 61 37 21 38
REMARK SMILES IDX 66 39 60 40 62 41 22 42 65 43 59 44 58 45 23 47 49 48 32 49
REMARK SMILES IDX 48 50 33 51 36 52 47 53 63 54 34 55 35 56 46 58 64 59 37 60
REMARK SMILES IDX 24 61 25 62 30 63 26 64 27 65 29 66 31 67 28 68 50 69 51 70
REMARK SMILES IDX 56 71 52 72 53 73 55 74 57 75 54 76 38 77 39 78 44 79 40 80
REMARK SMILES IDX 41 81 43 82 45 83 42 84
REMARK H PARENT 8 5 1 18 1 19 1 20 5 22 12 27 62 46 36 57
REMARK Flexibility Score: inf
ROOT
ATOM      1  C   UNL A   1      33.744  35.132  29.256  1.00  0.00     0.117 C 
ENDROOT
BRANCH   1   2
ATOM      2  N   UNL A   1      32.886  34.962  30.400  1.00  0.00    -0.354 N 
ATOM      3  C   UNL A   1      33.135  35.267  31.705  1.00  0.00     0.249 C 
ATOM      4  O   UNL A   1      32.163  35.351  32.461  1.00  0.00    -0.272 OA
ATOM      5  H   UNL A   1      32.000  34.576  30.215  1.00  0.00     0.163 HD
BRANCH   3   6
ATOM      6  C   UNL A   1      34.584  35.435  32.244  1.00  0.00     0.215 C 
BRANCH   6   7
ATOM      7  C   UNL A   1      35.439  34.173  32.623  1.00  0.00     0.062 C 
ATOM      8  C   UNL A   1      36.910  34.569  32.960  1.00  0.00     0.052 C 
ATOM      9  C   UNL A   1      35.574  33.079  31.518  1.00  0.00     0.052 C 
ATOM     10  C   UNL A   1      37.625  34.281  31.674  1.00  0.00    -0.044 A 
ATOM     11  C   UNL A   1      36.878  33.425  30.864  1.00  0.00    -0.044 A 
ATOM     12  C   UNL A   1      38.876  34.725  31.277  1.00  0.00     0.004 A 
ATOM     13  C   UNL A   1      37.363  32.996  29.636  1.00  0.00     0.004 A 
ATOM     14  C   UNL A   1      39.364  34.318  30.033  1.00  0.00     0.000 A 
ATOM     15  C   UNL A   1      38.610  33.463  29.215  1.00  0.00     0.000 A 
BRANCH   7  16
ATOM     16  C   UNL A   1      34.792  33.509  33.877  1.00  0.00     0.269 C 
BRANCH  16  17
ATOM     17  N   UNL A   1      35.062  34.192  35.144  1.00  0.00    -0.357 N 
ATOM     18  H   UNL A   1      35.210  35.186  34.970  1.00  0.00     0.344 HD
ATOM     19  H   UNL A   1      35.895  33.793  35.575  1.00  0.00     0.344 HD
ATOM     20  H   UNL A   1      34.265  34.072  35.771  1.00  0.00     0.344 HD
ENDBRANCH  16  17
ENDBRANCH   7  16
ENDBRANCH   6   7
BRANCH   6  21
ATOM     21  O   UNL A   1      34.722  36.473  33.220  1.00  0.00    -0.382 OA
ATOM     22  H   UNL A   1      33.844  36.792  33.479  1.00  0.00     0.211 HD
ENDBRANCH   6  21
ENDBRANCH   3   6
ENDBRANCH   1   2
BRANCH   1  23
ATOM     23  C   UNL A   1      33.466  34.180  28.118  1.00  0.00     0.042 C 
BRANCH  23  24
ATOM     24  C   UNL A   1      34.394  32.983  28.096  1.00  0.00     0.118 C 
BRANCH  24  25
ATOM     25  N   UNL A   1      33.730  31.760  27.659  1.00  0.00    -0.352 N 
ATOM     26  C   UNL A   1      34.201  30.477  27.539  1.00  0.00     0.251 C 
ATOM     27  H   UNL A   1      32.786  31.876  27.406  1.00  0.00     0.163 HD
ATOM     28  O   UNL A   1      33.531  29.638  26.948  1.00  0.00    -0.269 OA
BRANCH  26  29
ATOM     29  C   UNL A   1      35.515  30.111  28.105  1.00  0.00     0.039 A 
ATOM     30  C   UNL A   1      35.589  29.698  29.436  1.00  0.00     0.014 A 
ATOM     31  C   UNL A   1      36.675  30.189  27.333  1.00  0.00     0.014 A 
ATOM     32  C   UNL A   1      36.818  29.306  29.967  1.00  0.00     0.010 A 
ATOM     33  C   UNL A   1      37.867  29.674  27.817  1.00  0.00     0.010 A 
ATOM     34  C   UNL A   1      37.959  29.255  29.149  1.00  0.00    -0.014 A 
BRANCH  34  35
ATOM     35  C   UNL A   1      39.266  28.802  29.679  1.00  0.00     0.031 A 
ATOM     36  C   UNL A   1      39.854  29.465  30.895  1.00  0.00     0.074 A 
ATOM     37  C   UNL A   1      39.941  27.833  29.033  1.00  0.00     0.049 A 
ATOM     38  N   UNL A   1      40.994  29.231  31.493  1.00  0.00    -0.248 NA
ATOM     39  C   UNL A   1      39.078  30.562  31.500  1.00  0.00     0.031 C 
ATOM     40  C   UNL A   1      39.502  27.168  27.804  1.00  0.00     0.029 A 
ATOM     41  N   UNL A   1      41.142  27.238  29.322  1.00  0.00    -0.354 N 
ATOM     42  C   UNL A   1      41.075  30.156  32.526  1.00  0.00     0.074 A 
ATOM     43  C   UNL A   1      39.908  31.003  32.431  1.00  0.00     0.031 C 
ATOM     44  C   UNL A   1      40.399  26.227  27.469  1.00  0.00     0.029 A 
ATOM     45  C   UNL A   1      41.490  26.247  28.437  1.00  0.00     0.049 A 
ATOM     46  H   UNL A   1      41.700  27.495  30.090  1.00  0.00     0.167 HD
ATOM     47  C   UNL A   1      42.018  30.268  33.491  1.00  0.00     0.037 A 
ATOM     48  C   UNL A   1      42.569  25.443  28.415  1.00  0.00     0.037 A 
ATOM     49  C   UNL A   1      43.158  29.399  33.597  1.00  0.00     0.049 A 
ATOM     50  C   UNL A   1      43.594  25.574  29.506  1.00  0.00     0.074 A 
ATOM     51  C   UNL A   1      44.141  29.381  34.570  1.00  0.00     0.029 A 
ATOM     52  N   UNL A   1      43.467  28.391  32.695  1.00  0.00    -0.354 N 
ATOM     53  N   UNL A   1      43.617  26.401  30.525  1.00  0.00    -0.248 NA
ATOM     54  C   UNL A   1      44.737  24.653  29.453  1.00  0.00     0.031 C 
ATOM     55  C   UNL A   1      45.070  28.391  34.230  1.00  0.00     0.029 A 
ATOM     56  C   UNL A   1      44.636  27.758  33.076  1.00  0.00     0.049 A 
ATOM     57  H   UNL A   1      42.933  28.161  31.900  1.00  0.00     0.167 HD
ATOM     58  C   UNL A   1      44.759  26.082  31.248  1.00  0.00     0.074 A 
ATOM     59  C   UNL A   1      45.390  24.974  30.561  1.00  0.00     0.031 C 
ATOM     60  C   UNL A   1      45.244  26.654  32.377  1.00  0.00     0.037 A 
BRANCH  47  61
ATOM     61  C   UNL A   1      41.844  31.360  34.507  1.00  0.00     0.057 A 
ATOM     62  C   UNL A   1      42.400  32.634  34.329  1.00  0.00     0.134 A 
ATOM     63  C   UNL A   1      41.091  31.143  35.669  1.00  0.00     0.134 A 
ATOM     64  F   UNL A   1      43.146  32.905  33.247  1.00  0.00    -0.206 F 
ATOM     65  C   UNL A   1      42.241  33.642  35.282  1.00  0.00     0.040 A 
ATOM     66  C   UNL A   1      40.900  32.152  36.614  1.00  0.00     0.040 A 
ATOM     67  F   UNL A   1      40.527  29.949  35.903  1.00  0.00    -0.206 F 
ATOM     68  C   UNL A   1      41.483  33.405  36.425  1.00  0.00     0.006 A 
ENDBRANCH  47  61
BRANCH  48  69
ATOM     69  C   UNL A   1      42.715  24.420  27.348  1.00  0.00     0.057 A 
ATOM     70  C   UNL A   1      42.263  23.108  27.540  1.00  0.00     0.134 A 
ATOM     71  C   UNL A   1      43.305  24.724  26.117  1.00  0.00     0.134 A 
ATOM     72  F   UNL A   1      41.700  22.752  28.704  1.00  0.00    -0.206 F 
ATOM     73  C   UNL A   1      42.416  22.131  26.557  1.00  0.00     0.040 A 
ATOM     74  C   UNL A   1      43.439  23.763  25.113  1.00  0.00     0.040 A 
ATOM     75  F   UNL A   1      43.745  25.965  25.865  1.00  0.00    -0.206 F 
ATOM     76  C   UNL A   1      43.002  22.459  25.336  1.00  0.00     0.006 A 
ENDBRANCH  48  69
BRANCH  60  77
ATOM     77  C   UNL A   1      46.500  26.066  32.952  1.00  0.00     0.057 A 
ATOM     78  C   UNL A   1      46.468  25.049  33.914  1.00  0.00     0.134 A 
ATOM     79  C   UNL A   1      47.755  26.506  32.515  1.00  0.00     0.134 A 
ATOM     80  F   UNL A   1      45.296  24.592  34.383  1.00  0.00    -0.206 F 
ATOM     81  C   UNL A   1      47.641  24.513  34.446  1.00  0.00     0.040 A 
ATOM     82  C   UNL A   1      48.935  25.956  33.015  1.00  0.00     0.040 A 
ATOM     83  F   UNL A   1      47.856  27.469  31.586  1.00  0.00    -0.206 F 
ATOM     84  C   UNL A   1      48.880  24.962  33.991  1.00  0.00     0.006 A 
ENDBRANCH  60  77
ENDBRANCH  34  35
ENDBRANCH  26  29
ENDBRANCH  24  25
ENDBRANCH  23  24
ENDBRANCH   1  23
TORSDOF 14
ENDMDL
MODEL 2
REMARK VINA RESULT:     -10.1      5.057     10.396
REMARK SMILES [NH3+]CC1([C@H](O)C(=O)NCCCNC(=O)c2ccc(-c3c4nc(c(-c5c(F)cccc5F)c5ccc([nH]5)c(-c5c(F)cccc5F)c5nc(c(-c6c(F)cccc6F)c6ccc3[nH]6)C=C5)C=C4)cc2)Cc2ccccc2C1
REMARK SMILES IDX 9 1 8 2 6 3 7 4 4 6 3 7 69 8 76 9 70 10 75 11 71 12 74 13
REMARK SMILES IDX 72 14 73 15 2 16 1 17 5 21 10 23 11 24 12 25 13 26 14 28
REMARK SMILES IDX 15 29 16 30 68 31 17 32 67 33 18 34 19 35 20 36 61 37 21 38
REMARK SMILES IDX 66 39 60 40 62 41 22 42 65 43 59 44 58 45 23 47 49 48 32 49
REMARK SMILES IDX 48 50 33 51 36 52 47 53 63 54 34 55 35 56 46 58 64 59 37 60
REMARK SMILES IDX 24 61 25 62 30 63 26 64 27 65 29 66 31 67 28 68 50 69 51 70
REMARK SMILES IDX 56 71 52 72 53 73 55 74 57 75 54 76 38 77 39 78 44 79 40 80
REMARK SMILES IDX 41 81 43 82 45 83 42 84
REMARK H PARENT 8 5 1 18 1 19 1 20 5 22 12 27 62 46 36 57
REMARK Flexibility Score: inf
ROOT
ATOM      1  C   UNL A   1      36.012  19.911  25.324  1.00  0.00     0.117 C 
ENDROOT
BRANCH   1   2
ATOM      2  N   UNL A   1      34.961  19.173  24.673  1.00  0.00    -0.354 N 
ATOM      3  C   UNL A   1      33.634  19.474  24.588  1.00  0.00     0.249 C 
ATOM      4  O   UNL A   1      32.978  18.895  23.719  1.00  0.00    -0.272 OA
ATOM      5  H   UNL A   1      35.237  18.341  24.227  1.00  0.00     0.163 HD
BRANCH   3   6
ATOM      6  C   UNL A   1      32.952  20.453  25.586  1.00  0.00     0.215 C 
BRANCH   6   7
ATOM      7  C   UNL A   1      32.843  21.983  25.244  1.00  0.00     0.062 C 
ATOM      8  C   UNL A   1      33.420  22.285  23.825  1.00  0.00     0.052 C 
ATOM      9  C   UNL A   1      33.616  22.954  26.191  1.00  0.00     0.052 C 
ATOM     10  C   UNL A   1      34.803  22.771  24.135  1.00  0.00    -0.044 A 
ATOM     11  C   UNL A   1      34.912  23.166  25.469  1.00  0.00    -0.044 A 
ATOM     12  C   UNL A   1      35.878  22.888  23.269  1.00  0.00     0.004 A 
ATOM     13  C   UNL A   1      36.099  23.682  25.969  1.00  0.00     0.004 A 
ATOM     14  C   UNL A   1      37.086  23.385  23.767  1.00  0.00     0.000 A 
ATOM     15  C   UNL A   1      37.197  23.775  25.110  1.00  0.00     0.000 A 
BRANCH   7  16
ATOM     16  C   UNL A   1      31.336  22.380  25.275  1.00  0.00     0.269 C 
BRANCH  16  17
ATOM     17  N   UNL A   1      30.656  22.119  26.545  1.00  0.00    -0.357 N 
ATOM     18  H   UNL A   1      30.942  22.815  27.233  1.00  0.00     0.344 HD
ATOM     19  H   UNL A   1      30.904  21.189  26.879  1.00  0.00     0.344 HD
ATOM     20  H   UNL A   1      29.646  22.172  26.407  1.00  0.00     0.344 HD
ENDBRANCH  16  17
ENDBRANCH   7  16
ENDBRANCH   6   7
BRANCH   6  21
ATOM     21  O   UNL A   1      33.331  20.248  26.950  1.00  0.00    -0.382 OA
ATOM     22  H   UNL A   1      32.954  19.413  27.268  1.00  0.00     0.211 HD
ENDBRANCH   6  21
ENDBRANCH   3   6
ENDBRANCH   1   2
BRANCH   1  23
ATOM     23  C   UNL A   1      37.387  19.692  24.740  1.00  0.00     0.042 C 
BRANCH  23  24
ATOM     24  C   UNL A   1      38.503  20.218  25.618  1.00  0.00     0.118 C 
BRANCH  24  25
ATOM     25  N   UNL A   1      39.634  19.302  25.707  1.00  0.00    -0.352 N 
ATOM     26  C   UNL A   1      40.951  19.528  26.017  1.00  0.00     0.251 C 
ATOM     27  H   UNL A   1      39.415  18.362  25.512  1.00  0.00     0.163 HD
ATOM     28  O   UNL A   1      41.780  18.645  25.826  1.00  0.00    -0.269 OA
BRANCH  26  29
ATOM     29  C   UNL A   1      41.373  20.835  26.561  1.00  0.00     0.039 A 
ATOM     30  C   UNL A   1      41.901  21.793  25.694  1.00  0.00     0.014 A 
ATOM     31  C   UNL A   1      41.266  21.111  27.925  1.00  0.00     0.014 A 
ATOM     32  C   UNL A   1      42.260  23.046  26.190  1.00  0.00     0.010 A 
ATOM     33  C   UNL A   1      41.495  22.396  28.392  1.00  0.00     0.010 A 
ATOM     34  C   UNL A   1      42.023  23.369  27.536  1.00  0.00    -0.014 A 
BRANCH  34  35
ATOM     35  C   UNL A   1      42.355  24.707  28.077  1.00  0.00     0.031 A 
ATOM     36  C   UNL A   1      43.774  25.030  28.463  1.00  0.00     0.074 A 
ATOM     37  C   UNL A   1      41.372  25.607  28.267  1.00  0.00     0.049 A 
ATOM     38  N   UNL A   1      44.260  26.130  28.978  1.00  0.00    -0.248 NA
ATOM     39  C   UNL A   1      44.775  23.963  28.284  1.00  0.00     0.031 C 
ATOM     40  C   UNL A   1      39.951  25.380  27.997  1.00  0.00     0.029 A 
ATOM     41  N   UNL A   1      41.420  26.895  28.733  1.00  0.00    -0.354 N 
ATOM     42  C   UNL A   1      45.609  25.882  29.194  1.00  0.00     0.074 A 
ATOM     43  C   UNL A   1      45.853  24.506  28.827  1.00  0.00     0.031 C 
ATOM     44  C   UNL A   1      39.268  26.506  28.259  1.00  0.00     0.029 A 
ATOM     45  C   UNL A   1      40.196  27.518  28.750  1.00  0.00     0.049 A 
ATOM     46  H   UNL A   1      42.252  27.333  29.026  1.00  0.00     0.167 HD
ATOM     47  C   UNL A   1      46.569  26.734  29.625  1.00  0.00     0.037 A 
ATOM     48  C   UNL A   1      39.865  28.770  29.116  1.00  0.00     0.037 A 
ATOM     49  C   UNL A   1      46.323  28.111  29.956  1.00  0.00     0.049 A 
ATOM     50  C   UNL A   1      40.950  29.703  29.575  1.00  0.00     0.074 A 
ATOM     51  C   UNL A   1      47.231  29.081  30.342  1.00  0.00     0.029 A 
ATOM     52  N   UNL A   1      45.074  28.714  29.939  1.00  0.00    -0.354 N 
ATOM     53  N   UNL A   1      42.237  29.479  29.698  1.00  0.00    -0.248 NA
ATOM     54  C   UNL A   1      40.539  31.067  29.935  1.00  0.00     0.031 C 
ATOM     55  C   UNL A   1      46.523  30.259  30.604  1.00  0.00     0.029 A 
ATOM     56  C   UNL A   1      45.183  30.038  30.328  1.00  0.00     0.049 A 
ATOM     57  H   UNL A   1      44.233  28.267  29.689  1.00  0.00     0.167 HD
ATOM     58  C   UNL A   1      42.793  30.679  30.122  1.00  0.00     0.074 A 
ATOM     59  C   UNL A   1      41.705  31.631  30.215  1.00  0.00     0.031 C 
ATOM     60  C   UNL A   1      44.086  30.968  30.411  1.00  0.00     0.037 A 
BRANCH  47  61
ATOM     61  C   UNL A   1      47.966  26.198  29.750  1.00  0.00     0.057 A 
ATOM     62  C   UNL A   1      48.458  25.682  30.957  1.00  0.00     0.134 A 
ATOM     63  C   UNL A   1      48.826  26.177  28.644  1.00  0.00     0.134 A 
ATOM     64  F   UNL A   1      47.693  25.687  32.060  1.00  0.00    -0.206 F 
ATOM     65  C   UNL A   1      49.760  25.193  31.068  1.00  0.00     0.040 A 
ATOM     66  C   UNL A   1      50.120  25.663  28.735  1.00  0.00     0.040 A 
ATOM     67  F   UNL A   1      48.421  26.652  27.456  1.00  0.00    -0.206 F 
ATOM     68  C   UNL A   1      50.594  25.176  29.953  1.00  0.00     0.006 A 
ENDBRANCH  47  61
BRANCH  48  69
ATOM     69  C   UNL A   1      38.453  29.224  29.026  1.00  0.00     0.057 A 
ATOM     70  C   UNL A   1      37.604  29.166  30.137  1.00  0.00     0.134 A 
ATOM     71  C   UNL A   1      37.919  29.724  27.833  1.00  0.00     0.134 A 
ATOM     72  F   UNL A   1      38.054  28.684  31.305  1.00  0.00    -0.206 F 
ATOM     73  C   UNL A   1      36.270  29.565  30.061  1.00  0.00     0.040 A 
ATOM     74  C   UNL A   1      36.594  30.153  27.749  1.00  0.00     0.040 A 
ATOM     75  F   UNL A   1      38.684  29.819  26.735  1.00  0.00    -0.206 F 
ATOM     76  C   UNL A   1      35.762  30.065  28.863  1.00  0.00     0.006 A 
ENDBRANCH  48  69
BRANCH  60  77
ATOM     77  C   UNL A   1      44.392  32.379  30.821  1.00  0.00     0.057 A 
ATOM     78  C   UNL A   1      44.409  32.772  32.165  1.00  0.00     0.134 A 
ATOM     79  C   UNL A   1      44.702  33.347  29.859  1.00  0.00     0.134 A 
ATOM     80  F   UNL A   1      44.110  31.893  33.135  1.00  0.00    -0.206 F 
ATOM     81  C   UNL A   1      44.691  34.088  32.535  1.00  0.00     0.040 A 
ATOM     82  C   UNL A   1      45.015  34.658  30.218  1.00  0.00     0.040 A 
ATOM     83  F   UNL A   1      44.714  33.033  28.554  1.00  0.00    -0.206 F 
ATOM     84  C   UNL A   1      45.001  35.033  31.560  1.00  0.00     0.006 A 
ENDBRANCH  60  77
ENDBRANCH  34  35
ENDBRANCH  26  29
ENDBRANCH  24  25
ENDBRANCH  23  24
ENDBRANCH   1  23
TORSDOF 14
ENDMDL
MODEL 3
REMARK VINA RESULT:     -10.0      3.078      6.220
REMARK SMILES [NH3+]CC1([C@H](O)C(=O)NCCCNC(=O)c2ccc(-c3c4nc(c(-c5c(F)cccc5F)c5ccc([nH]5)c(-c5c(F)cccc5F)c5nc(c(-c6c(F)cccc6F)c6ccc3[nH]6)C=C5)C=C4)cc2)Cc2ccccc2C1
REMARK SMILES IDX 9 1 8 2 6 3 7 4 4 6 3 7 69 8 76 9 70 10 75 11 71 12 74 13
REMARK SMILES IDX 72 14 73 15 2 16 1 17 5 21 10 23 11 24 12 25 13 26 14 28
REMARK SMILES IDX 15 29 16 30 68 31 17 32 67 33 18 34 19 35 20 36 61 37 21 38
REMARK SMILES IDX 66 39 60 40 62 41 22 42 65 43 59 44 58 45 23 47 49 48 32 49
REMARK SMILES IDX 48 50 33 51 36 52 47 53 63 54 34 55 35 56 46 58 64 59 37 60
REMARK SMILES IDX 24 61 25 62 30 63 26 64 27 65 29 66 31 67 28 68 50 69 51 70
REMARK SMILES IDX 56 71 52 72 53 73 55 74 57 75 54 76 38 77 39 78 44 79 40 80
REMARK SMILES IDX 41 81 43 82 45 83 42 84
REMARK H PARENT 8 5 1 18 1 19 1 20 5 22 12 27 62 46 36 57
REMARK Flexibility Score: inf
ROOT
ATOM      1  C   UNL A   1      31.364  30.927  25.751  1.00  0.00     0.117 C 
ENDROOT
BRANCH   1   2
ATOM      2  N   UNL A   1      32.391  30.039  26.230  1.00  0.00    -0.354 N 
ATOM      3  C   UNL A   1      33.326  29.352  25.515  1.00  0.00     0.249 C 
ATOM      4  O   UNL A   1      34.303  28.918  26.131  1.00  0.00    -0.272 OA
ATOM      5  H   UNL A   1      32.424  29.911  27.205  1.00  0.00     0.163 HD
BRANCH   3   6
ATOM      6  C   UNL A   1      33.145  29.062  23.997  1.00  0.00     0.215 C 
BRANCH   6   7
ATOM      7  C   UNL A   1      32.321  27.811  23.524  1.00  0.00     0.062 C 
ATOM      8  C   UNL A   1      31.695  27.056  24.738  1.00  0.00     0.052 C 
ATOM      9  C   UNL A   1      33.123  26.713  22.756  1.00  0.00     0.052 C 
ATOM     10  C   UNL A   1      32.670  25.940  24.963  1.00  0.00    -0.044 A 
ATOM     11  C   UNL A   1      33.467  25.733  23.837  1.00  0.00    -0.044 A 
ATOM     12  C   UNL A   1      32.804  25.141  26.087  1.00  0.00     0.004 A 
ATOM     13  C   UNL A   1      34.420  24.724  23.810  1.00  0.00     0.004 A 
ATOM     14  C   UNL A   1      33.776  24.137  26.079  1.00  0.00     0.000 A 
ATOM     15  C   UNL A   1      34.583  23.933  24.949  1.00  0.00     0.000 A 
BRANCH   7  16
ATOM     16  C   UNL A   1      31.177  28.310  22.591  1.00  0.00     0.269 C 
BRANCH  16  17
ATOM     17  N   UNL A   1      31.400  29.625  21.989  1.00  0.00    -0.357 N 
ATOM     18  H   UNL A   1      31.986  29.526  21.160  1.00  0.00     0.344 HD
ATOM     19  H   UNL A   1      31.866  30.233  22.663  1.00  0.00     0.344 HD
ATOM     20  H   UNL A   1      30.504  30.036  21.725  1.00  0.00     0.344 HD
ENDBRANCH  16  17
ENDBRANCH   7  16
ENDBRANCH   6   7
BRANCH   6  21
ATOM     21  O   UNL A   1      34.342  29.221  23.231  1.00  0.00    -0.382 OA
ATOM     22  H   UNL A   1      35.064  28.730  23.653  1.00  0.00     0.211 HD
ENDBRANCH   6  21
ENDBRANCH   3   6
ENDBRANCH   1   2
BRANCH   1  23
ATOM     23  C   UNL A   1      31.242  32.219  26.523  1.00  0.00     0.042 C 
BRANCH  23  24
ATOM     24  C   UNL A   1      32.520  32.620  27.229  1.00  0.00     0.118 C 
BRANCH  24  25
ATOM     25  N   UNL A   1      32.530  34.022  27.630  1.00  0.00    -0.352 N 
ATOM     26  C   UNL A   1      33.282  34.682  28.568  1.00  0.00     0.251 C 
ATOM     27  H   UNL A   1      31.887  34.590  27.146  1.00  0.00     0.163 HD
ATOM     28  O   UNL A   1      32.980  35.824  28.894  1.00  0.00    -0.269 OA
BRANCH  26  29
ATOM     29  C   UNL A   1      34.441  34.015  29.196  1.00  0.00     0.039 A 
ATOM     30  C   UNL A   1      34.218  32.987  30.113  1.00  0.00     0.014 A 
ATOM     31  C   UNL A   1      35.745  34.412  28.895  1.00  0.00     0.014 A 
ATOM     32  C   UNL A   1      35.306  32.320  30.676  1.00  0.00     0.010 A 
ATOM     33  C   UNL A   1      36.820  33.664  29.349  1.00  0.00     0.010 A 
ATOM     34  C   UNL A   1      36.614  32.629  30.268  1.00  0.00    -0.014 A 
BRANCH  34  35
ATOM     35  C   UNL A   1      37.783  31.905  30.820  1.00  0.00     0.031 A 
ATOM     36  C   UNL A   1      38.283  32.229  32.202  1.00  0.00     0.074 A 
ATOM     37  C   UNL A   1      38.421  30.998  30.056  1.00  0.00     0.049 A 
ATOM     38  N   UNL A   1      39.304  31.729  32.850  1.00  0.00    -0.248 NA
ATOM     39  C   UNL A   1      37.566  33.283  32.942  1.00  0.00     0.031 C 
ATOM     40  C   UNL A   1      38.069  30.654  28.677  1.00  0.00     0.029 A 
ATOM     41  N   UNL A   1      39.499  30.200  30.333  1.00  0.00    -0.354 N 
ATOM     42  C   UNL A   1      39.357  32.413  34.057  1.00  0.00     0.074 A 
ATOM     43  C   UNL A   1      38.316  33.414  34.025  1.00  0.00     0.031 C 
ATOM     44  C   UNL A   1      38.889  29.683  28.244  1.00  0.00     0.029 A 
ATOM     45  C   UNL A   1      39.843  29.363  29.299  1.00  0.00     0.049 A 
ATOM     46  H   UNL A   1      39.981  30.222  31.191  1.00  0.00     0.167 HD
ATOM     47  C   UNL A   1      40.176  32.203  35.114  1.00  0.00     0.037 A 
ATOM     48  C   UNL A   1      40.817  28.439  29.218  1.00  0.00     0.037 A 
ATOM     49  C   UNL A   1      41.187  31.182  35.150  1.00  0.00     0.049 A 
ATOM     50  C   UNL A   1      41.703  28.211  30.410  1.00  0.00     0.074 A 
ATOM     51  C   UNL A   1      42.030  30.838  36.191  1.00  0.00     0.029 A 
ATOM     52  N   UNL A   1      41.491  30.338  34.092  1.00  0.00    -0.354 N 
ATOM     53  N   UNL A   1      41.690  28.811  31.578  1.00  0.00    -0.248 NA
ATOM     54  C   UNL A   1      42.731  27.171  30.280  1.00  0.00     0.031 C 
ATOM     55  C   UNL A   1      42.876  29.817  35.747  1.00  0.00     0.029 A 
ATOM     56  C   UNL A   1      42.524  29.488  34.448  1.00  0.00     0.049 A 
ATOM     57  H   UNL A   1      41.041  30.344  33.216  1.00  0.00     0.167 HD
ATOM     58  C   UNL A   1      42.687  28.203  32.329  1.00  0.00     0.074 A 
ATOM     59  C   UNL A   1      43.270  27.175  31.491  1.00  0.00     0.031 C 
ATOM     60  C   UNL A   1      43.086  28.470  33.597  1.00  0.00     0.037 A 
BRANCH  47  61
ATOM     61  C   UNL A   1      39.999  33.087  36.315  1.00  0.00     0.057 A 
ATOM     62  C   UNL A   1      39.086  32.781  37.333  1.00  0.00     0.134 A 
ATOM     63  C   UNL A   1      40.765  34.250  36.467  1.00  0.00     0.134 A 
ATOM     64  F   UNL A   1      38.308  31.690  37.243  1.00  0.00    -0.206 F 
ATOM     65  C   UNL A   1      38.920  33.611  38.443  1.00  0.00     0.040 A 
ATOM     66  C   UNL A   1      40.629  35.072  37.587  1.00  0.00     0.040 A 
ATOM     67  F   UNL A   1      41.660  34.604  35.533  1.00  0.00    -0.206 F 
ATOM     68  C   UNL A   1      39.699  34.758  38.576  1.00  0.00     0.006 A 
ENDBRANCH  47  61
BRANCH  48  69
ATOM     69  C   UNL A   1      40.980  27.635  27.980  1.00  0.00     0.057 A 
ATOM     70  C   UNL A   1      41.785  28.086  26.926  1.00  0.00     0.134 A 
ATOM     71  C   UNL A   1      40.340  26.401  27.818  1.00  0.00     0.134 A 
ATOM     72  F   UNL A   1      42.414  29.267  27.017  1.00  0.00    -0.206 F 
ATOM     73  C   UNL A   1      41.926  27.354  25.748  1.00  0.00     0.040 A 
ATOM     74  C   UNL A   1      40.495  25.644  26.655  1.00  0.00     0.040 A 
ATOM     75  F   UNL A   1      39.567  25.905  28.795  1.00  0.00    -0.206 F 
ATOM     76  C   UNL A   1      41.283  26.125  25.612  1.00  0.00     0.006 A 
ENDBRANCH  48  69
BRANCH  60  77
ATOM     77  C   UNL A   1      44.183  27.614  34.159  1.00  0.00     0.057 A 
ATOM     78  C   UNL A   1      43.919  26.395  34.795  1.00  0.00     0.134 A 
ATOM     79  C   UNL A   1      45.523  28.003  34.036  1.00  0.00     0.134 A 
ATOM     80  F   UNL A   1      42.655  25.971  34.955  1.00  0.00    -0.206 F 
ATOM     81  C   UNL A   1      44.946  25.609  35.319  1.00  0.00     0.040 A 
ATOM     82  C   UNL A   1      46.560  27.212  34.527  1.00  0.00     0.040 A 
ATOM     83  F   UNL A   1      45.845  29.155  33.426  1.00  0.00    -0.206 F 
ATOM     84  C   UNL A   1      46.272  26.014  35.179  1.00  0.00     0.006 A 
ENDBRANCH  60  77
ENDBRANCH  34  35
ENDBRANCH  26  29
ENDBRANCH  24  25
ENDBRANCH  23  24
ENDBRANCH   1  23
TORSDOF 14
ENDMDL
