MODEL 1
REMARK VINA RESULT:     -10.6      0.000      0.000
REMARK SMILES NC(=O)CC[C@H](NC(=O)CC1CC1)C(=O)NCCCNC(=O)c1ccc(-c2c3nc(c(-c4c(F)cccc4F)c4ccc([nH]4)c(-c4c(F)cccc4F)c4nc(c(-c5c(F)cccc5F)c5ccc2[nH]5)C=C4)C=C3)cc1
REMARK SMILES IDX 17 1 16 2 14 3 15 4 6 6 5 7 4 8 2 9 1 10 3 13 7 14 8 15 9 17
REMARK SMILES IDX 10 18 11 19 12 20 13 21 18 22 19 23 20 24 21 25 22 27 23 28
REMARK SMILES IDX 24 29 76 30 25 31 75 32 26 33 27 34 28 35 69 36 29 37 74 38
REMARK SMILES IDX 68 39 70 40 30 41 73 42 67 43 66 44 31 46 57 47 40 48 56 49
REMARK SMILES IDX 41 50 44 51 55 52 71 53 42 54 43 55 54 57 72 58 45 59 32 60
REMARK SMILES IDX 33 61 38 62 34 63 35 64 37 65 39 66 36 67 58 68 59 69 64 70
REMARK SMILES IDX 60 71 61 72 63 73 65 74 62 75 46 76 47 77 52 78 48 79 49 80
REMARK SMILES IDX 51 81 53 82 50 83
REMARK H PARENT 16 5 1 11 1 12 7 16 20 26 70 45 44 56
REMARK Flexibility Score: inf
ROOT
ATOM      1  C   UNL A   1      36.432  20.641  25.123  1.00  0.00     0.117 C 
ENDROOT
BRANCH   1   2
ATOM      2  N   UNL A   1      35.300  19.729  25.096  1.00  0.00    -0.354 N 
ATOM      3  C   UNL A   1      33.997  19.943  24.754  1.00  0.00     0.242 C 
ATOM      4  O   UNL A   1      33.310  18.926  24.598  1.00  0.00    -0.273 OA
ATOM      5  H   UNL A   1      35.507  18.806  25.370  1.00  0.00     0.163 HD
BRANCH   3   6
ATOM      6  C   UNL A   1      33.336  21.355  24.697  1.00  0.00     0.171 C 
BRANCH   6   7
ATOM      7  C   UNL A   1      31.881  21.305  25.200  1.00  0.00     0.045 C 
BRANCH   7   8
ATOM      8  C   UNL A   1      31.127  22.632  25.334  1.00  0.00     0.102 C 
BRANCH   8   9
ATOM      9  C   UNL A   1      30.683  23.014  26.725  1.00  0.00     0.217 C 
ATOM     10  N   UNL A   1      29.441  22.577  27.078  1.00  0.00    -0.370 N 
ATOM     11  H   UNL A   1      29.080  22.784  27.970  1.00  0.00     0.159 HD
ATOM     12  H   UNL A   1      28.905  22.052  26.440  1.00  0.00     0.159 HD
ATOM     13  O   UNL A   1      31.382  23.649  27.506  1.00  0.00    -0.275 OA
ENDBRANCH   8   9
ENDBRANCH   7   8
ENDBRANCH   6   7
BRANCH   6  14
ATOM     14  N   UNL A   1      33.592  22.142  23.493  1.00  0.00    -0.344 N 
ATOM     15  C   UNL A   1      33.987  23.418  23.249  1.00  0.00     0.220 C 
ATOM     16  H   UNL A   1      33.443  21.627  22.667  1.00  0.00     0.164 HD
ATOM     17  O   UNL A   1      33.767  23.853  22.114  1.00  0.00    -0.275 OA
BRANCH  15  18
ATOM     18  C   UNL A   1      34.655  24.276  24.295  1.00  0.00     0.103 C 
BRANCH  18  19
ATOM     19  C   UNL A   1      33.734  25.085  25.160  1.00  0.00    -0.002 C 
ATOM     20  C   UNL A   1      34.032  26.456  25.719  1.00  0.00     0.004 C 
ATOM     21  C   UNL A   1      33.110  26.316  24.547  1.00  0.00     0.004 C 
ENDBRANCH  18  19
ENDBRANCH  15  18
ENDBRANCH   6  14
ENDBRANCH   3   6
ENDBRANCH   1   2
BRANCH   1  22
ATOM     22  C   UNL A   1      37.771  19.995  24.800  1.00  0.00     0.042 C 
BRANCH  22  23
ATOM     23  C   UNL A   1      38.891  20.349  25.765  1.00  0.00     0.118 C 
BRANCH  23  24
ATOM     24  N   UNL A   1      40.013  19.420  25.762  1.00  0.00    -0.352 N 
ATOM     25  C   UNL A   1      41.338  19.561  26.107  1.00  0.00     0.251 C 
ATOM     26  H   UNL A   1      39.778  18.515  25.454  1.00  0.00     0.163 HD
ATOM     27  O   UNL A   1      42.104  18.613  25.947  1.00  0.00    -0.269 OA
BRANCH  25  28
ATOM     28  C   UNL A   1      41.874  20.850  26.605  1.00  0.00     0.039 A 
ATOM     29  C   UNL A   1      42.309  21.810  25.684  1.00  0.00     0.014 A 
ATOM     30  C   UNL A   1      41.947  21.135  27.964  1.00  0.00     0.014 A 
ATOM     31  C   UNL A   1      42.695  23.080  26.126  1.00  0.00     0.010 A 
ATOM     32  C   UNL A   1      42.177  22.436  28.389  1.00  0.00     0.010 A 
ATOM     33  C   UNL A   1      42.561  23.430  27.479  1.00  0.00    -0.014 A 
BRANCH  33  34
ATOM     34  C   UNL A   1      42.820  24.807  27.982  1.00  0.00     0.031 A 
ATOM     35  C   UNL A   1      44.216  25.212  28.385  1.00  0.00     0.074 A 
ATOM     36  C   UNL A   1      41.793  25.656  28.186  1.00  0.00     0.049 A 
ATOM     37  N   UNL A   1      44.621  26.287  29.014  1.00  0.00    -0.248 NA
ATOM     38  C   UNL A   1      45.293  24.252  28.095  1.00  0.00     0.031 C 
ATOM     39  C   UNL A   1      40.384  25.375  27.903  1.00  0.00     0.029 A 
ATOM     40  N   UNL A   1      41.776  26.932  28.693  1.00  0.00    -0.354 N 
ATOM     41  C   UNL A   1      45.980  26.105  29.236  1.00  0.00     0.074 A 
ATOM     42  C   UNL A   1      46.316  24.789  28.741  1.00  0.00     0.031 C 
ATOM     43  C   UNL A   1      39.649  26.460  28.192  1.00  0.00     0.029 A 
ATOM     44  C   UNL A   1      40.524  27.496  28.729  1.00  0.00     0.049 A 
ATOM     45  H   UNL A   1      42.587  27.400  29.000  1.00  0.00     0.167 HD
ATOM     46  C   UNL A   1      46.880  26.966  29.768  1.00  0.00     0.037 A 
ATOM     47  C   UNL A   1      40.124  28.710  29.151  1.00  0.00     0.037 A 
ATOM     48  C   UNL A   1      46.559  28.302  30.193  1.00  0.00     0.049 A 
ATOM     49  C   UNL A   1      41.145  29.666  29.702  1.00  0.00     0.074 A 
ATOM     50  C   UNL A   1      47.407  29.284  30.675  1.00  0.00     0.029 A 
ATOM     51  N   UNL A   1      45.285  28.850  30.169  1.00  0.00    -0.354 N 
ATOM     52  N   UNL A   1      42.435  29.498  29.862  1.00  0.00    -0.248 NA
ATOM     53  C   UNL A   1      40.652  30.983  30.131  1.00  0.00     0.031 C 
ATOM     54  C   UNL A   1      46.641  30.418  30.966  1.00  0.00     0.029 A 
ATOM     55  C   UNL A   1      45.322  30.154  30.632  1.00  0.00     0.049 A 
ATOM     56  H   UNL A   1      44.474  28.379  29.868  1.00  0.00     0.167 HD
ATOM     57  C   UNL A   1      42.913  30.694  30.379  1.00  0.00     0.074 A 
ATOM     58  C   UNL A   1      41.776  31.584  30.497  1.00  0.00     0.031 C 
ATOM     59  C   UNL A   1      44.180  31.027  30.726  1.00  0.00     0.037 A 
BRANCH  46  60
ATOM     60  C   UNL A   1      48.299  26.488  29.894  1.00  0.00     0.057 A 
ATOM     61  C   UNL A   1      48.753  25.809  31.033  1.00  0.00     0.134 A 
ATOM     62  C   UNL A   1      49.226  26.711  28.867  1.00  0.00     0.134 A 
ATOM     63  F   UNL A   1      47.922  25.573  32.060  1.00  0.00    -0.206 F 
ATOM     64  C   UNL A   1      50.084  25.411  31.169  1.00  0.00     0.040 A 
ATOM     65  C   UNL A   1      50.553  26.290  28.976  1.00  0.00     0.040 A 
ATOM     66  F   UNL A   1      48.860  27.347  27.743  1.00  0.00    -0.206 F 
ATOM     67  C   UNL A   1      50.988  25.649  30.134  1.00  0.00     0.006 A 
ENDBRANCH  46  60
BRANCH  47  68
ATOM     68  C   UNL A   1      38.702  29.113  29.021  1.00  0.00     0.057 A 
ATOM     69  C   UNL A   1      37.843  29.060  30.125  1.00  0.00     0.134 A 
ATOM     70  C   UNL A   1      38.166  29.560  27.808  1.00  0.00     0.134 A 
ATOM     71  F   UNL A   1      38.296  28.624  31.310  1.00  0.00    -0.206 F 
ATOM     72  C   UNL A   1      36.498  29.418  30.026  1.00  0.00     0.040 A 
ATOM     73  C   UNL A   1      36.827  29.944  27.700  1.00  0.00     0.040 A 
ATOM     74  F   UNL A   1      38.938  29.643  26.715  1.00  0.00    -0.206 F 
ATOM     75  C   UNL A   1      35.988  29.866  28.810  1.00  0.00     0.006 A 
ENDBRANCH  47  68
BRANCH  59  76
ATOM     76  C   UNL A   1      44.409  32.423  31.224  1.00  0.00     0.057 A 
ATOM     77  C   UNL A   1      44.362  32.738  32.586  1.00  0.00     0.134 A 
ATOM     78  C   UNL A   1      44.718  33.455  30.328  1.00  0.00     0.134 A 
ATOM     79  F   UNL A   1      44.058  31.796  33.493  1.00  0.00    -0.206 F 
ATOM     80  C   UNL A   1      44.595  34.037  33.041  1.00  0.00     0.040 A 
ATOM     81  C   UNL A   1      44.977  34.751  30.773  1.00  0.00     0.040 A 
ATOM     82  F   UNL A   1      44.785  33.215  29.010  1.00  0.00    -0.206 F 
ATOM     83  C   UNL A   1      44.911  35.046  32.133  1.00  0.00     0.006 A 
ENDBRANCH  59  76
ENDBRANCH  33  34
ENDBRANCH  25  28
ENDBRANCH  23  24
ENDBRANCH  22  23
ENDBRANCH   1  22
TORSDOF 16
ENDMDL
MODEL 2
REMARK VINA RESULT:     -10.3      4.611      9.692
REMARK SMILES NC(=O)CC[C@H](NC(=O)CC1CC1)C(=O)NCCCNC(=O)c1ccc(-c2c3nc(c(-c4c(F)cccc4F)c4ccc([nH]4)c(-c4c(F)cccc4F)c4nc(c(-c5c(F)cccc5F)c5ccc2[nH]5)C=C4)C=C3)cc1
REMARK SMILES IDX 17 1 16 2 14 3 15 4 6 6 5 7 4 8 2 9 1 10 3 13 7 14 8 15 9 17
REMARK SMILES IDX 10 18 11 19 12 20 13 21 18 22 19 23 20 24 21 25 22 27 23 28
REMARK SMILES IDX 24 29 76 30 25 31 75 32 26 33 27 34 28 35 69 36 29 37 74 38
REMARK SMILES IDX 68 39 70 40 30 41 73 42 67 43 66 44 31 46 57 47 40 48 56 49
REMARK SMILES IDX 41 50 44 51 55 52 71 53 42 54 43 55 54 57 72 58 45 59 32 60
REMARK SMILES IDX 33 61 38 62 34 63 35 64 37 65 39 66 36 67 58 68 59 69 64 70
REMARK SMILES IDX 60 71 61 72 63 73 65 74 62 75 46 76 47 77 52 78 48 79 49 80
REMARK SMILES IDX 51 81 53 82 50 83
REMARK H PARENT 16 5 1 11 1 12 7 16 20 26 70 45 44 56
REMARK Flexibility Score: inf
ROOT
ATOM      1  C   UNL A   1      31.498  30.902  25.808  1.00  0.00     0.117 C 
ENDROOT
BRANCH   1   2
ATOM      2  N   UNL A   1      30.678  30.668  24.630  1.00  0.00    -0.354 N 
ATOM      3  C   UNL A   1      30.428  29.520  23.938  1.00  0.00     0.242 C 
ATOM      4  O   UNL A   1      29.502  29.579  23.119  1.00  0.00    -0.273 OA
ATOM      5  H   UNL A   1      30.230  31.470  24.274  1.00  0.00     0.163 HD
BRANCH   3   6
ATOM      6  C   UNL A   1      31.316  28.241  24.029  1.00  0.00     0.171 C 
BRANCH   6   7
ATOM      7  C   UNL A   1      31.700  27.733  22.627  1.00  0.00     0.045 C 
BRANCH   7   8
ATOM      8  C   UNL A   1      31.396  26.270  22.290  1.00  0.00     0.102 C 
BRANCH   8   9
ATOM      9  C   UNL A   1      32.499  25.495  21.612  1.00  0.00     0.217 C 
ATOM     10  N   UNL A   1      32.515  24.157  21.875  1.00  0.00    -0.370 N 
ATOM     11  H   UNL A   1      33.203  23.583  21.468  1.00  0.00     0.159 HD
ATOM     12  H   UNL A   1      31.835  23.765  22.470  1.00  0.00     0.159 HD
ATOM     13  O   UNL A   1      33.318  26.006  20.857  1.00  0.00    -0.275 OA
ENDBRANCH   8   9
ENDBRANCH   7   8
ENDBRANCH   6   7
BRANCH   6  14
ATOM     14  N   UNL A   1      30.905  27.236  25.006  1.00  0.00    -0.344 N 
ATOM     15  C   UNL A   1      31.288  26.915  26.269  1.00  0.00     0.220 C 
ATOM     16  H   UNL A   1      30.182  26.657  24.672  1.00  0.00     0.164 HD
ATOM     17  O   UNL A   1      30.971  25.790  26.670  1.00  0.00    -0.275 OA
BRANCH  15  18
ATOM     18  C   UNL A   1      32.066  27.863  27.148  1.00  0.00     0.103 C 
BRANCH  18  19
ATOM     19  C   UNL A   1      33.548  27.901  26.915  1.00  0.00    -0.002 C 
ATOM     20  C   UNL A   1      34.271  28.875  26.014  1.00  0.00     0.004 C 
ATOM     21  C   UNL A   1      34.312  29.066  27.499  1.00  0.00     0.004 C 
ENDBRANCH  18  19
ENDBRANCH  15  18
ENDBRANCH   6  14
ENDBRANCH   3   6
ENDBRANCH   1   2
BRANCH   1  22
ATOM     22  C   UNL A   1      31.215  32.214  26.523  1.00  0.00     0.042 C 
BRANCH  22  23
ATOM     23  C   UNL A   1      32.423  32.831  27.211  1.00  0.00     0.118 C 
BRANCH  23  24
ATOM     24  N   UNL A   1      32.237  34.209  27.646  1.00  0.00    -0.352 N 
ATOM     25  C   UNL A   1      32.930  35.006  28.528  1.00  0.00     0.251 C 
ATOM     26  H   UNL A   1      31.468  34.657  27.227  1.00  0.00     0.163 HD
ATOM     27  O   UNL A   1      32.514  36.139  28.767  1.00  0.00    -0.269 OA
BRANCH  25  28
ATOM     28  C   UNL A   1      34.126  34.507  29.246  1.00  0.00     0.039 A 
ATOM     29  C   UNL A   1      33.974  33.945  30.519  1.00  0.00     0.014 A 
ATOM     30  C   UNL A   1      35.396  34.573  28.684  1.00  0.00     0.014 A 
ATOM     31  C   UNL A   1      35.068  33.350  31.157  1.00  0.00     0.010 A 
ATOM     32  C   UNL A   1      36.441  33.849  29.241  1.00  0.00     0.010 A 
ATOM     33  C   UNL A   1      36.297  33.230  30.491  1.00  0.00    -0.014 A 
BRANCH  33  34
ATOM     34  C   UNL A   1      37.452  32.484  31.062  1.00  0.00     0.031 A 
ATOM     35  C   UNL A   1      38.082  32.941  32.353  1.00  0.00     0.074 A 
ATOM     36  C   UNL A   1      38.008  31.468  30.371  1.00  0.00     0.049 A 
ATOM     37  N   UNL A   1      39.195  32.551  32.920  1.00  0.00    -0.248 NA
ATOM     38  C   UNL A   1      37.397  34.027  33.074  1.00  0.00     0.031 C 
ATOM     39  C   UNL A   1      37.544  30.961  29.078  1.00  0.00     0.029 A 
ATOM     40  N   UNL A   1      39.098  30.684  30.657  1.00  0.00    -0.354 N 
ATOM     41  C   UNL A   1      39.365  33.374  34.027  1.00  0.00     0.074 A 
ATOM     42  C   UNL A   1      38.281  34.330  34.011  1.00  0.00     0.031 C 
ATOM     43  C   UNL A   1      38.311  29.923  28.709  1.00  0.00     0.029 A 
ATOM     44  C   UNL A   1      39.352  29.723  29.710  1.00  0.00     0.049 A 
ATOM     45  H   UNL A   1      39.646  30.800  31.467  1.00  0.00     0.167 HD
ATOM     46  C   UNL A   1      40.313  33.318  34.993  1.00  0.00     0.037 A 
ATOM     47  C   UNL A   1      40.318  28.786  29.653  1.00  0.00     0.037 A 
ATOM     48  C   UNL A   1      41.348  32.321  35.047  1.00  0.00     0.049 A 
ATOM     49  C   UNL A   1      41.337  28.717  30.755  1.00  0.00     0.074 A 
ATOM     50  C   UNL A   1      42.312  32.126  36.020  1.00  0.00     0.029 A 
ATOM     51  N   UNL A   1      41.540  31.335  34.090  1.00  0.00    -0.354 N 
ATOM     52  N   UNL A   1      41.457  29.471  31.820  1.00  0.00    -0.248 NA
ATOM     53  C   UNL A   1      42.355  27.662  30.646  1.00  0.00     0.031 C 
ATOM     54  C   UNL A   1      43.104  31.038  35.639  1.00  0.00     0.029 A 
ATOM     55  C   UNL A   1      42.610  30.533  34.447  1.00  0.00     0.049 A 
ATOM     56  H   UNL A   1      40.996  31.224  33.277  1.00  0.00     0.167 HD
ATOM     57  C   UNL A   1      42.541  28.966  32.524  1.00  0.00     0.074 A 
ATOM     58  C   UNL A   1      43.039  27.834  31.770  1.00  0.00     0.031 C 
ATOM     59  C   UNL A   1      43.079  29.401  33.689  1.00  0.00     0.037 A 
BRANCH  46  60
ATOM     60  C   UNL A   1      40.251  34.357  36.077  1.00  0.00     0.057 A 
ATOM     61  C   UNL A   1      40.925  35.581  35.969  1.00  0.00     0.134 A 
ATOM     62  C   UNL A   1      39.513  34.131  37.247  1.00  0.00     0.134 A 
ATOM     63  F   UNL A   1      41.661  35.857  34.882  1.00  0.00    -0.206 F 
ATOM     64  C   UNL A   1      40.907  36.522  36.999  1.00  0.00     0.040 A 
ATOM     65  C   UNL A   1      39.460  35.078  38.271  1.00  0.00     0.040 A 
ATOM     66  F   UNL A   1      38.835  32.985  37.415  1.00  0.00    -0.206 F 
ATOM     67  C   UNL A   1      40.169  36.272  38.155  1.00  0.00     0.006 A 
ENDBRANCH  46  60
BRANCH  47  68
ATOM     68  C   UNL A   1      40.337  27.803  28.541  1.00  0.00     0.057 A 
ATOM     69  C   UNL A   1      39.650  26.588  28.653  1.00  0.00     0.134 A 
ATOM     70  C   UNL A   1      41.029  28.044  27.349  1.00  0.00     0.134 A 
ATOM     71  F   UNL A   1      38.982  26.293  29.779  1.00  0.00    -0.206 F 
ATOM     72  C   UNL A   1      39.665  25.640  27.630  1.00  0.00     0.040 A 
ATOM     73  C   UNL A   1      41.033  27.114  26.307  1.00  0.00     0.040 A 
ATOM     74  F   UNL A   1      41.699  29.192  27.175  1.00  0.00    -0.206 F 
ATOM     75  C   UNL A   1      40.355  25.905  26.449  1.00  0.00     0.006 A 
ENDBRANCH  47  68
BRANCH  59  76
ATOM     76  C   UNL A   1      44.236  28.624  34.241  1.00  0.00     0.057 A 
ATOM     77  C   UNL A   1      45.562  28.969  33.953  1.00  0.00     0.134 A 
ATOM     78  C   UNL A   1      44.019  27.540  35.102  1.00  0.00     0.134 A 
ATOM     79  F   UNL A   1      45.835  29.989  33.124  1.00  0.00    -0.206 F 
ATOM     80  C   UNL A   1      46.633  28.250  34.487  1.00  0.00     0.040 A 
ATOM     81  C   UNL A   1      45.081  26.830  35.661  1.00  0.00     0.040 A 
ATOM     82  F   UNL A   1      42.772  27.164  35.422  1.00  0.00    -0.206 F 
ATOM     83  C   UNL A   1      46.393  27.182  35.350  1.00  0.00     0.006 A 
ENDBRANCH  59  76
ENDBRANCH  33  34
ENDBRANCH  25  28
ENDBRANCH  23  24
ENDBRANCH  22  23
ENDBRANCH   1  22
TORSDOF 16
ENDMDL
MODEL 3
REMARK VINA RESULT:     -10.3      4.827      9.475
REMARK SMILES NC(=O)CC[C@H](NC(=O)CC1CC1)C(=O)NCCCNC(=O)c1ccc(-c2c3nc(c(-c4c(F)cccc4F)c4ccc([nH]4)c(-c4c(F)cccc4F)c4nc(c(-c5c(F)cccc5F)c5ccc2[nH]5)C=C4)C=C3)cc1
REMARK SMILES IDX 17 1 16 2 14 3 15 4 6 6 5 7 4 8 2 9 1 10 3 13 7 14 8 15 9 17
REMARK SMILES IDX 10 18 11 19 12 20 13 21 18 22 19 23 20 24 21 25 22 27 23 28
REMARK SMILES IDX 24 29 76 30 25 31 75 32 26 33 27 34 28 35 69 36 29 37 74 38
REMARK SMILES IDX 68 39 70 40 30 41 73 42 67 43 66 44 31 46 57 47 40 48 56 49
REMARK SMILES IDX 41 50 44 51 55 52 71 53 42 54 43 55 54 57 72 58 45 59 32 60
REMARK SMILES IDX 33 61 38 62 34 63 35 64 37 65 39 66 36 67 58 68 59 69 64 70
REMARK SMILES IDX 60 71 61 72 63 73 65 74 62 75 46 76 47 77 52 78 48 79 49 80
REMARK SMILES IDX 51 81 53 82 50 83
REMARK H PARENT 16 5 1 11 1 12 7 16 20 26 70 45 44 56
REMARK Flexibility Score: inf
ROOT
ATOM      1  C   UNL A   1      31.813  30.430  25.832  1.00  0.00     0.117 C 
ENDROOT
BRANCH   1   2
ATOM      2  N   UNL A   1      31.024  30.361  24.611  1.00  0.00    -0.354 N 
ATOM      3  C   UNL A   1      30.568  29.284  23.910  1.00  0.00     0.242 C 
ATOM      4  O   UNL A   1      29.722  29.529  23.042  1.00  0.00    -0.273 OA
ATOM      5  H   UNL A   1      30.781  31.235  24.228  1.00  0.00     0.163 HD
BRANCH   3   6
ATOM      6  C   UNL A   1      31.152  27.844  24.054  1.00  0.00     0.171 C 
BRANCH   6   7
ATOM      7  C   UNL A   1      31.231  27.140  22.687  1.00  0.00     0.045 C 
BRANCH   7   8
ATOM      8  C   UNL A   1      32.622  26.875  22.101  1.00  0.00     0.102 C 
BRANCH   8   9
ATOM      9  C   UNL A   1      32.778  25.611  21.292  1.00  0.00     0.217 C 
ATOM     10  N   UNL A   1      32.175  25.627  20.069  1.00  0.00    -0.370 N 
ATOM     11  H   UNL A   1      32.233  24.840  19.481  1.00  0.00     0.159 HD
ATOM     12  H   UNL A   1      31.683  26.427  19.774  1.00  0.00     0.159 HD
ATOM     13  O   UNL A   1      33.417  24.638  21.676  1.00  0.00    -0.275 OA
ENDBRANCH   8   9
ENDBRANCH   7   8
ENDBRANCH   6   7
BRANCH   6  14
ATOM     14  N   UNL A   1      30.654  27.053  25.177  1.00  0.00    -0.344 N 
ATOM     15  C   UNL A   1      31.189  26.112  25.997  1.00  0.00     0.220 C 
ATOM     16  H   UNL A   1      29.712  27.249  25.388  1.00  0.00     0.164 HD
ATOM     17  O   UNL A   1      30.388  25.402  26.613  1.00  0.00    -0.275 OA
BRANCH  15  18
ATOM     18  C   UNL A   1      32.677  25.922  26.155  1.00  0.00     0.103 C 
BRANCH  18  19
ATOM     19  C   UNL A   1      33.299  24.877  25.277  1.00  0.00    -0.002 C 
ATOM     20  C   UNL A   1      34.775  24.737  24.986  1.00  0.00     0.004 C 
ATOM     21  C   UNL A   1      34.115  23.800  25.951  1.00  0.00     0.004 C 
ENDBRANCH  18  19
ENDBRANCH  15  18
ENDBRANCH   6  14
ENDBRANCH   3   6
ENDBRANCH   1   2
BRANCH   1  22
ATOM     22  C   UNL A   1      31.469  31.601  26.739  1.00  0.00     0.042 C 
BRANCH  22  23
ATOM     23  C   UNL A   1      32.672  32.386  27.239  1.00  0.00     0.118 C 
BRANCH  23  24
ATOM     24  N   UNL A   1      32.402  33.786  27.538  1.00  0.00    -0.352 N 
ATOM     25  C   UNL A   1      33.008  34.689  28.381  1.00  0.00     0.251 C 
ATOM     26  H   UNL A   1      31.640  34.159  27.040  1.00  0.00     0.163 HD
ATOM     27  O   UNL A   1      32.531  35.817  28.494  1.00  0.00    -0.269 OA
BRANCH  25  28
ATOM     28  C   UNL A   1      34.180  34.312  29.205  1.00  0.00     0.039 A 
ATOM     29  C   UNL A   1      33.974  33.709  30.451  1.00  0.00     0.014 A 
ATOM     30  C   UNL A   1      35.482  34.532  28.767  1.00  0.00     0.014 A 
ATOM     31  C   UNL A   1      35.064  33.227  31.184  1.00  0.00     0.010 A 
ATOM     32  C   UNL A   1      36.545  33.919  29.415  1.00  0.00     0.010 A 
ATOM     33  C   UNL A   1      36.356  33.261  30.638  1.00  0.00    -0.014 A 
BRANCH  33  34
ATOM     34  C   UNL A   1      37.529  32.636  31.309  1.00  0.00     0.031 A 
ATOM     35  C   UNL A   1      38.264  31.500  30.641  1.00  0.00     0.074 A 
ATOM     36  C   UNL A   1      37.867  33.006  32.560  1.00  0.00     0.049 A 
ATOM     37  N   UNL A   1      39.183  30.704  31.128  1.00  0.00    -0.248 NA
ATOM     38  C   UNL A   1      37.869  31.179  29.260  1.00  0.00     0.031 C 
ATOM     39  C   UNL A   1      37.204  34.045  33.352  1.00  0.00     0.029 A 
ATOM     40  N   UNL A   1      38.853  32.539  33.394  1.00  0.00    -0.354 N 
ATOM     41  C   UNL A   1      39.433  29.765  30.134  1.00  0.00     0.074 A 
ATOM     42  C   UNL A   1      38.521  30.046  29.049  1.00  0.00     0.031 C 
ATOM     43  C   UNL A   1      37.831  34.169  34.532  1.00  0.00     0.029 A 
ATOM     44  C   UNL A   1      38.906  33.186  34.604  1.00  0.00     0.049 A 
ATOM     45  H   UNL A   1      39.466  31.808  33.147  1.00  0.00     0.167 HD
ATOM     46  C   UNL A   1      40.363  28.781  30.107  1.00  0.00     0.037 A 
ATOM     47  C   UNL A   1      39.727  33.007  35.656  1.00  0.00     0.037 A 
ATOM     48  C   UNL A   1      41.319  28.550  31.156  1.00  0.00     0.049 A 
ATOM     49  C   UNL A   1      40.778  31.935  35.590  1.00  0.00     0.074 A 
ATOM     50  C   UNL A   1      42.353  27.631  31.197  1.00  0.00     0.029 A 
ATOM     51  N   UNL A   1      41.367  29.261  32.346  1.00  0.00    -0.354 N 
ATOM     52  N   UNL A   1      41.035  31.086  34.625  1.00  0.00    -0.248 NA
ATOM     53  C   UNL A   1      41.656  31.798  36.761  1.00  0.00     0.031 C 
ATOM     54  C   UNL A   1      43.012  27.769  32.424  1.00  0.00     0.029 A 
ATOM     55  C   UNL A   1      42.410  28.798  33.131  1.00  0.00     0.049 A 
ATOM     56  H   UNL A   1      40.751  29.987  32.596  1.00  0.00     0.167 HD
ATOM     57  C   UNL A   1      42.120  30.336  35.057  1.00  0.00     0.074 A 
ATOM     58  C   UNL A   1      42.480  30.837  36.367  1.00  0.00     0.031 C 
ATOM     59  C   UNL A   1      42.761  29.322  34.426  1.00  0.00     0.037 A 
BRANCH  46  60
ATOM     60  C   UNL A   1      40.398  27.902  28.889  1.00  0.00     0.057 A 
ATOM     61  C   UNL A   1      41.162  28.231  27.761  1.00  0.00     0.134 A 
ATOM     62  C   UNL A   1      39.657  26.714  28.839  1.00  0.00     0.134 A 
ATOM     63  F   UNL A   1      41.886  29.360  27.736  1.00  0.00    -0.206 F 
ATOM     64  C   UNL A   1      41.153  27.438  26.612  1.00  0.00     0.040 A 
ATOM     65  C   UNL A   1      39.664  25.895  27.708  1.00  0.00     0.040 A 
ATOM     66  F   UNL A   1      38.909  26.331  29.886  1.00  0.00    -0.206 F 
ATOM     67  C   UNL A   1      40.403  26.263  26.585  1.00  0.00     0.006 A 
ENDBRANCH  46  60
BRANCH  47  68
ATOM     68  C   UNL A   1      39.626  33.895  36.841  1.00  0.00     0.057 A 
ATOM     69  C   UNL A   1      40.295  35.125  36.868  1.00  0.00     0.134 A 
ATOM     70  C   UNL A   1      38.867  33.550  37.964  1.00  0.00     0.134 A 
ATOM     71  F   UNL A   1      41.052  35.503  35.827  1.00  0.00    -0.206 F 
ATOM     72  C   UNL A   1      40.229  35.971  37.975  1.00  0.00     0.040 A 
ATOM     73  C   UNL A   1      38.773  34.398  39.071  1.00  0.00     0.040 A 
ATOM     74  F   UNL A   1      38.195  32.391  37.998  1.00  0.00    -0.206 F 
ATOM     75  C   UNL A   1      39.462  35.610  39.080  1.00  0.00     0.006 A 
ENDBRANCH  47  68
BRANCH  59  76
ATOM     76  C   UNL A   1      43.942  28.719  35.126  1.00  0.00     0.057 A 
ATOM     77  C   UNL A   1      45.226  29.262  35.008  1.00  0.00     0.134 A 
ATOM     78  C   UNL A   1      43.781  27.603  35.957  1.00  0.00     0.134 A 
ATOM     79  F   UNL A   1      45.447  30.323  34.216  1.00  0.00    -0.206 F 
ATOM     80  C   UNL A   1      46.316  28.704  35.678  1.00  0.00     0.040 A 
ATOM     81  C   UNL A   1      44.858  27.051  36.651  1.00  0.00     0.040 A 
ATOM     82  F   UNL A   1      42.574  27.040  36.116  1.00  0.00    -0.206 F 
ATOM     83  C   UNL A   1      46.132  27.599  36.508  1.00  0.00     0.006 A 
ENDBRANCH  59  76
ENDBRANCH  33  34
ENDBRANCH  25  28
ENDBRANCH  23  24
ENDBRANCH  22  23
ENDBRANCH   1  22
TORSDOF 16
ENDMDL
