MODEL 1
REMARK VINA RESULT:     -13.0      0.000      0.000
REMARK SMILES O=C(NCCCNC(=O)[C@H]1C[C@](O)(c2ccc(Cl)cc2)[C@@H](c2ccc(Cl)cc2)O1)c1ccc(-c2c3nc(c(-c4c(F)cccc4F)c4ccc([nH]4)c(-c4c(F)cccc4F)c4nc(c(-c5c(F)cccc5F)c5ccc2[nH]5)C=C4)C=C3)cc1
REMARK SMILES IDX 4 1 3 2 1 3 2 4 30 6 31 7 83 8 32 9 82 10 33 11 34 12 35 13
REMARK SMILES IDX 76 14 36 15 81 16 75 17 77 18 37 19 80 20 74 21 73 22 38 24
REMARK SMILES IDX 64 25 47 26 63 27 48 28 51 29 62 30 78 31 49 32 50 33 61 35
REMARK SMILES IDX 79 36 52 37 39 38 40 39 45 40 41 41 42 42 44 43 46 44 43 45
REMARK SMILES IDX 65 46 66 47 71 48 67 49 68 50 70 51 72 52 69 53 53 54 54 55
REMARK SMILES IDX 59 56 55 57 56 58 58 59 60 60 57 61 5 62 6 63 7 64 8 65 9 67
REMARK SMILES IDX 10 68 11 69 29 70 12 71 21 72 14 73 15 74 20 75 16 76 19 77
REMARK SMILES IDX 17 78 18 79 13 80 22 82 23 83 28 84 24 85 27 86 25 87 26 88
REMARK H PARENT 3 5 77 23 51 34 7 66 13 81
REMARK Flexibility Score: inf
ROOT
ATOM      1  C   UNL A   1      35.609  31.155  27.910  1.00  0.00     0.118 C 
ENDROOT
BRANCH   1   2
ATOM      2  N   UNL A   1      35.452  30.920  29.341  1.00  0.00    -0.352 N 
ATOM      3  O   UNL A   1      35.861  30.053  31.375  1.00  0.00    -0.269 OA
ATOM      4  C   UNL A   1      36.276  30.291  30.242  1.00  0.00     0.251 C 
ATOM      5  H   UNL A   1      34.617  31.272  29.725  1.00  0.00     0.163 HD
BRANCH   4   6
ATOM      6  C   UNL A   1      37.645  29.879  29.864  1.00  0.00     0.039 A 
ATOM      7  C   UNL A   1      38.064  29.901  28.533  1.00  0.00     0.014 A 
ATOM      8  C   UNL A   1      38.543  29.505  30.869  1.00  0.00     0.014 A 
ATOM      9  C   UNL A   1      39.319  29.408  28.192  1.00  0.00     0.010 A 
ATOM     10  C   UNL A   1      39.839  29.100  30.534  1.00  0.00     0.010 A 
ATOM     11  C   UNL A   1      40.228  29.017  29.189  1.00  0.00    -0.014 A 
BRANCH  11  12
ATOM     12  C   UNL A   1      41.596  28.589  28.798  1.00  0.00     0.031 A 
ATOM     13  C   UNL A   1      41.880  27.179  28.363  1.00  0.00     0.074 A 
ATOM     14  C   UNL A   1      42.587  29.502  28.813  1.00  0.00     0.049 A 
ATOM     15  N   UNL A   1      43.010  26.652  27.962  1.00  0.00    -0.248 NA
ATOM     16  C   UNL A   1      40.755  26.231  28.387  1.00  0.00     0.031 C 
ATOM     17  C   UNL A   1      42.438  30.898  29.232  1.00  0.00     0.029 A 
ATOM     18  N   UNL A   1      43.907  29.402  28.455  1.00  0.00    -0.354 N 
ATOM     19  C   UNL A   1      42.738  25.316  27.698  1.00  0.00     0.074 A 
ATOM     20  C   UNL A   1      41.343  25.102  28.018  1.00  0.00     0.031 C 
ATOM     21  C   UNL A   1      43.607  31.534  29.065  1.00  0.00     0.029 A 
ATOM     22  C   UNL A   1      44.600  30.580  28.589  1.00  0.00     0.049 A 
ATOM     23  H   UNL A   1      44.317  28.567  28.134  1.00  0.00     0.167 HD
ATOM     24  C   UNL A   1      43.575  24.359  27.225  1.00  0.00     0.037 A 
ATOM     25  C   UNL A   1      45.898  30.861  28.369  1.00  0.00     0.037 A 
ATOM     26  C   UNL A   1      44.962  24.580  26.905  1.00  0.00     0.049 A 
ATOM     27  C   UNL A   1      46.808  29.774  27.876  1.00  0.00     0.074 A 
ATOM     28  C   UNL A   1      45.881  23.683  26.385  1.00  0.00     0.029 A 
ATOM     29  N   UNL A   1      45.636  25.780  27.082  1.00  0.00    -0.354 N 
ATOM     30  N   UNL A   1      46.524  28.527  27.588  1.00  0.00    -0.248 NA
ATOM     31  C   UNL A   1      48.218  30.133  27.679  1.00  0.00     0.031 C 
ATOM     32  C   UNL A   1      47.121  24.323  26.300  1.00  0.00     0.029 A 
ATOM     33  C   UNL A   1      46.965  25.638  26.709  1.00  0.00     0.049 A 
ATOM     34  H   UNL A   1      45.232  26.610  27.424  1.00  0.00     0.167 HD
ATOM     35  C   UNL A   1      47.713  27.958  27.154  1.00  0.00     0.074 A 
ATOM     36  C   UNL A   1      48.716  29.004  27.198  1.00  0.00     0.031 C 
ATOM     37  C   UNL A   1      47.954  26.685  26.757  1.00  0.00     0.037 A 
BRANCH  24  38
ATOM     38  C   UNL A   1      43.019  22.975  27.040  1.00  0.00     0.057 A 
ATOM     39  C   UNL A   1      42.745  22.133  28.126  1.00  0.00     0.134 A 
ATOM     40  C   UNL A   1      42.703  22.498  25.761  1.00  0.00     0.134 A 
ATOM     41  F   UNL A   1      43.031  22.522  29.378  1.00  0.00    -0.206 F 
ATOM     42  C   UNL A   1      42.197  20.860  27.945  1.00  0.00     0.040 A 
ATOM     43  C   UNL A   1      42.131  21.239  25.569  1.00  0.00     0.040 A 
ATOM     44  F   UNL A   1      42.930  23.255  24.677  1.00  0.00    -0.206 F 
ATOM     45  C   UNL A   1      41.882  20.413  26.662  1.00  0.00     0.006 A 
ENDBRANCH  24  38
BRANCH  25  46
ATOM     46  C   UNL A   1      46.410  32.232  28.623  1.00  0.00     0.057 A 
ATOM     47  C   UNL A   1      46.881  32.610  29.885  1.00  0.00     0.134 A 
ATOM     48  C   UNL A   1      46.441  33.196  27.607  1.00  0.00     0.134 A 
ATOM     49  F   UNL A   1      46.860  31.737  30.902  1.00  0.00    -0.206 F 
ATOM     50  C   UNL A   1      47.347  33.902  30.133  1.00  0.00     0.040 A 
ATOM     51  C   UNL A   1      46.933  34.481  27.832  1.00  0.00     0.040 A 
ATOM     52  F   UNL A   1      46.012  32.893  26.373  1.00  0.00    -0.206 F 
ATOM     53  C   UNL A   1      47.380  34.840  29.102  1.00  0.00     0.006 A 
ENDBRANCH  25  46
BRANCH  37  54
ATOM     54  C   UNL A   1      49.348  26.362  26.304  1.00  0.00     0.057 A 
ATOM     55  C   UNL A   1      50.269  25.719  27.140  1.00  0.00     0.134 A 
ATOM     56  C   UNL A   1      49.767  26.682  25.006  1.00  0.00     0.134 A 
ATOM     57  F   UNL A   1      49.938  25.399  28.400  1.00  0.00    -0.206 F 
ATOM     58  C   UNL A   1      51.567  25.431  26.711  1.00  0.00     0.040 A 
ATOM     59  C   UNL A   1      51.051  26.372  24.556  1.00  0.00     0.040 A 
ATOM     60  F   UNL A   1      48.932  27.291  24.151  1.00  0.00    -0.206 F 
ATOM     61  C   UNL A   1      51.958  25.753  25.413  1.00  0.00     0.006 A 
ENDBRANCH  37  54
ENDBRANCH  11  12
ENDBRANCH   4   6
ENDBRANCH   1   2
BRANCH   1  62
ATOM     62  C   UNL A   1      34.408  30.687  27.095  1.00  0.00     0.042 C 
BRANCH  62  63
ATOM     63  C   UNL A   1      34.102  29.197  27.218  1.00  0.00     0.117 C 
BRANCH  63  64
ATOM     64  N   UNL A   1      32.755  28.933  27.679  1.00  0.00    -0.354 N 
ATOM     65  C   UNL A   1      31.945  27.868  27.411  1.00  0.00     0.249 C 
ATOM     66  H   UNL A   1      32.369  29.619  28.271  1.00  0.00     0.163 HD
ATOM     67  O   UNL A   1      30.840  27.849  27.961  1.00  0.00    -0.272 OA
BRANCH  65  68
ATOM     68  C   UNL A   1      32.450  26.727  26.497  1.00  0.00     0.211 C 
ATOM     69  C   UNL A   1      31.577  25.480  26.583  1.00  0.00     0.085 C 
ATOM     70  O   UNL A   1      32.561  27.093  25.123  1.00  0.00    -0.357 OA
ATOM     71  C   UNL A   1      30.993  25.257  25.185  1.00  0.00     0.123 C 
ATOM     72  C   UNL A   1      31.480  26.497  24.382  1.00  0.00     0.186 C 
BRANCH  71  73
ATOM     73  C   UNL A   1      31.410  23.863  24.681  1.00  0.00    -0.013 A 
ATOM     74  C   UNL A   1      31.417  22.793  25.607  1.00  0.00     0.008 A 
ATOM     75  C   UNL A   1      31.808  23.576  23.366  1.00  0.00     0.008 A 
ATOM     76  C   UNL A   1      31.793  21.500  25.236  1.00  0.00     0.021 A 
ATOM     77  C   UNL A   1      32.173  22.276  22.988  1.00  0.00     0.021 A 
ATOM     78  C   UNL A   1      32.165  21.246  23.923  1.00  0.00     0.041 A 
ATOM     79  Cl  UNL A   1      32.625  19.657  23.451  1.00  0.00    -0.084 Cl
ENDBRANCH  71  73
BRANCH  71  80
ATOM     80  O   UNL A   1      29.562  25.227  25.278  1.00  0.00    -0.382 OA
ATOM     81  H   UNL A   1      29.298  24.596  25.967  1.00  0.00     0.212 HD
ENDBRANCH  71  80
BRANCH  72  82
ATOM     82  C   UNL A   1      30.498  27.604  24.017  1.00  0.00    -0.016 A 
ATOM     83  C   UNL A   1      30.815  28.966  24.128  1.00  0.00     0.008 A 
ATOM     84  C   UNL A   1      29.246  27.258  23.474  1.00  0.00     0.008 A 
ATOM     85  C   UNL A   1      29.942  29.949  23.654  1.00  0.00     0.021 A 
ATOM     86  C   UNL A   1      28.361  28.242  23.021  1.00  0.00     0.021 A 
ATOM     87  C   UNL A   1      28.721  29.582  23.095  1.00  0.00     0.041 A 
ATOM     88  Cl  UNL A   1      27.665  30.790  22.477  1.00  0.00    -0.084 Cl
ENDBRANCH  72  82
ENDBRANCH  65  68
ENDBRANCH  63  64
ENDBRANCH  62  63
ENDBRANCH   1  62
TORSDOF 13
ENDMDL
MODEL 2
REMARK VINA RESULT:     -12.9      5.360     10.553
REMARK SMILES O=C(NCCCNC(=O)[C@H]1C[C@](O)(c2ccc(Cl)cc2)[C@@H](c2ccc(Cl)cc2)O1)c1ccc(-c2c3nc(c(-c4c(F)cccc4F)c4ccc([nH]4)c(-c4c(F)cccc4F)c4nc(c(-c5c(F)cccc5F)c5ccc2[nH]5)C=C4)C=C3)cc1
REMARK SMILES IDX 4 1 3 2 1 3 2 4 30 6 31 7 83 8 32 9 82 10 33 11 34 12 35 13
REMARK SMILES IDX 76 14 36 15 81 16 75 17 77 18 37 19 80 20 74 21 73 22 38 24
REMARK SMILES IDX 64 25 47 26 63 27 48 28 51 29 62 30 78 31 49 32 50 33 61 35
REMARK SMILES IDX 79 36 52 37 39 38 40 39 45 40 41 41 42 42 44 43 46 44 43 45
REMARK SMILES IDX 65 46 66 47 71 48 67 49 68 50 70 51 72 52 69 53 53 54 54 55
REMARK SMILES IDX 59 56 55 57 56 58 58 59 60 60 57 61 5 62 6 63 7 64 8 65 9 67
REMARK SMILES IDX 10 68 11 69 29 70 12 71 21 72 14 73 15 74 20 75 16 76 19 77
REMARK SMILES IDX 17 78 18 79 13 80 22 82 23 83 28 84 24 85 27 86 25 87 26 88
REMARK H PARENT 3 5 77 23 51 34 7 66 13 81
REMARK Flexibility Score: inf
ROOT
ATOM      1  C   UNL A   1      39.625  23.465  26.892  1.00  0.00     0.118 C 
ENDROOT
BRANCH   1   2
ATOM      2  N   UNL A   1      40.755  23.930  26.095  1.00  0.00    -0.352 N 
ATOM      3  O   UNL A   1      42.287  25.355  25.269  1.00  0.00    -0.269 OA
ATOM      4  C   UNL A   1      41.479  25.095  26.161  1.00  0.00     0.251 C 
ATOM      5  H   UNL A   1      41.048  23.304  25.394  1.00  0.00     0.163 HD
BRANCH   4   6
ATOM      6  C   UNL A   1      41.289  26.049  27.275  1.00  0.00     0.039 A 
ATOM      7  C   UNL A   1      40.476  25.734  28.363  1.00  0.00     0.014 A 
ATOM      8  C   UNL A   1      41.977  27.267  27.250  1.00  0.00     0.014 A 
ATOM      9  C   UNL A   1      40.229  26.689  29.344  1.00  0.00     0.010 A 
ATOM     10  C   UNL A   1      41.803  28.190  28.286  1.00  0.00     0.010 A 
ATOM     11  C   UNL A   1      40.901  27.922  29.328  1.00  0.00    -0.014 A 
BRANCH  11  12
ATOM     12  C   UNL A   1      40.692  28.880  30.444  1.00  0.00     0.031 A 
ATOM     13  C   UNL A   1      39.600  29.911  30.393  1.00  0.00     0.074 A 
ATOM     14  C   UNL A   1      41.488  28.794  31.527  1.00  0.00     0.049 A 
ATOM     15  N   UNL A   1      39.265  30.801  31.295  1.00  0.00    -0.248 NA
ATOM     16  C   UNL A   1      38.781  29.960  29.172  1.00  0.00     0.031 C 
ATOM     17  C   UNL A   1      42.593  27.845  31.685  1.00  0.00     0.029 A 
ATOM     18  N   UNL A   1      41.484  29.497  32.704  1.00  0.00    -0.354 N 
ATOM     19  C   UNL A   1      38.209  31.520  30.750  1.00  0.00     0.074 A 
ATOM     20  C   UNL A   1      37.980  30.987  29.424  1.00  0.00     0.031 C 
ATOM     21  C   UNL A   1      43.131  27.994  32.905  1.00  0.00     0.029 A 
ATOM     22  C   UNL A   1      42.453  29.088  33.588  1.00  0.00     0.049 A 
ATOM     23  H   UNL A   1      40.849  30.224  32.896  1.00  0.00     0.167 HD
ATOM     24  C   UNL A   1      37.492  32.526  31.309  1.00  0.00     0.037 A 
ATOM     25  C   UNL A   1      42.773  29.553  34.810  1.00  0.00     0.037 A 
ATOM     26  C   UNL A   1      37.723  33.049  32.632  1.00  0.00     0.049 A 
ATOM     27  C   UNL A   1      41.983  30.689  35.391  1.00  0.00     0.074 A 
ATOM     28  C   UNL A   1      37.027  34.042  33.300  1.00  0.00     0.029 A 
ATOM     29  N   UNL A   1      38.733  32.630  33.486  1.00  0.00    -0.354 N 
ATOM     30  N   UNL A   1      40.958  31.328  34.881  1.00  0.00    -0.248 NA
ATOM     31  C   UNL A   1      42.395  31.170  36.715  1.00  0.00     0.031 C 
ATOM     32  C   UNL A   1      37.647  34.261  34.534  1.00  0.00     0.029 A 
ATOM     33  C   UNL A   1      38.695  33.364  34.662  1.00  0.00     0.049 A 
ATOM     34  H   UNL A   1      39.382  31.917  33.287  1.00  0.00     0.167 HD
ATOM     35  C   UNL A   1      40.587  32.269  35.830  1.00  0.00     0.074 A 
ATOM     36  C   UNL A   1      41.486  32.103  36.955  1.00  0.00     0.031 C 
ATOM     37  C   UNL A   1      39.594  33.190  35.775  1.00  0.00     0.037 A 
BRANCH  24  38
ATOM     38  C   UNL A   1      36.398  33.145  30.486  1.00  0.00     0.057 A 
ATOM     39  C   UNL A   1      36.669  34.033  29.437  1.00  0.00     0.134 A 
ATOM     40  C   UNL A   1      35.057  32.806  30.710  1.00  0.00     0.134 A 
ATOM     41  F   UNL A   1      37.929  34.409  29.172  1.00  0.00    -0.206 F 
ATOM     42  C   UNL A   1      35.646  34.578  28.656  1.00  0.00     0.040 A 
ATOM     43  C   UNL A   1      34.028  33.323  29.920  1.00  0.00     0.040 A 
ATOM     44  F   UNL A   1      34.726  31.953  31.692  1.00  0.00    -0.206 F 
ATOM     45  C   UNL A   1      34.321  34.216  28.893  1.00  0.00     0.006 A 
ENDBRANCH  24  38
BRANCH  25  46
ATOM     46  C   UNL A   1      43.902  28.943  35.559  1.00  0.00     0.057 A 
ATOM     47  C   UNL A   1      43.693  27.898  36.465  1.00  0.00     0.134 A 
ATOM     48  C   UNL A   1      45.217  29.392  35.383  1.00  0.00     0.134 A 
ATOM     49  F   UNL A   1      42.454  27.437  36.689  1.00  0.00    -0.206 F 
ATOM     50  C   UNL A   1      44.747  27.333  37.183  1.00  0.00     0.040 A 
ATOM     51  C   UNL A   1      46.285  28.816  36.070  1.00  0.00     0.040 A 
ATOM     52  F   UNL A   1      45.485  30.385  34.522  1.00  0.00    -0.206 F 
ATOM     53  C   UNL A   1      46.050  27.787  36.981  1.00  0.00     0.006 A 
ENDBRANCH  25  46
BRANCH  37  54
ATOM     54  C   UNL A   1      39.405  34.064  36.981  1.00  0.00     0.057 A 
ATOM     55  C   UNL A   1      39.891  35.378  37.028  1.00  0.00     0.134 A 
ATOM     56  C   UNL A   1      38.710  33.592  38.101  1.00  0.00     0.134 A 
ATOM     57  F   UNL A   1      40.579  35.886  35.996  1.00  0.00    -0.206 F 
ATOM     58  C   UNL A   1      39.716  36.179  38.158  1.00  0.00     0.040 A 
ATOM     59  C   UNL A   1      38.503  34.393  39.224  1.00  0.00     0.040 A 
ATOM     60  F   UNL A   1      38.211  32.345  38.118  1.00  0.00    -0.206 F 
ATOM     61  C   UNL A   1      39.016  35.688  39.259  1.00  0.00     0.006 A 
ENDBRANCH  37  54
ENDBRANCH  11  12
ENDBRANCH   4   6
ENDBRANCH   1   2
BRANCH   1  62
ATOM     62  C   UNL A   1      38.278  23.878  26.310  1.00  0.00     0.042 C 
BRANCH  62  63
ATOM     63  C   UNL A   1      37.378  22.714  25.909  1.00  0.00     0.117 C 
BRANCH  63  64
ATOM     64  N   UNL A   1      37.350  22.489  24.478  1.00  0.00    -0.354 N 
ATOM     65  C   UNL A   1      36.437  22.910  23.556  1.00  0.00     0.249 C 
ATOM     66  H   UNL A   1      38.096  21.955  24.120  1.00  0.00     0.163 HD
ATOM     67  O   UNL A   1      36.653  22.621  22.376  1.00  0.00    -0.272 OA
BRANCH  65  68
ATOM     68  C   UNL A   1      35.225  23.761  24.005  1.00  0.00     0.211 C 
ATOM     69  C   UNL A   1      34.335  24.171  22.838  1.00  0.00     0.085 C 
ATOM     70  O   UNL A   1      34.403  23.124  24.982  1.00  0.00    -0.357 OA
ATOM     71  C   UNL A   1      32.963  23.539  23.089  1.00  0.00     0.123 C 
ATOM     72  C   UNL A   1      33.186  22.672  24.361  1.00  0.00     0.186 C 
BRANCH  71  73
ATOM     73  C   UNL A   1      31.899  24.650  23.151  1.00  0.00    -0.013 A 
ATOM     74  C   UNL A   1      32.153  25.857  22.457  1.00  0.00     0.008 A 
ATOM     75  C   UNL A   1      30.696  24.564  23.869  1.00  0.00     0.008 A 
ATOM     76  C   UNL A   1      31.246  26.919  22.472  1.00  0.00     0.021 A 
ATOM     77  C   UNL A   1      29.779  25.624  23.874  1.00  0.00     0.021 A 
ATOM     78  C   UNL A   1      30.057  26.796  23.178  1.00  0.00     0.041 A 
ATOM     79  Cl  UNL A   1      28.930  28.095  23.199  1.00  0.00    -0.084 Cl
ENDBRANCH  71  73
BRANCH  71  80
ATOM     80  O   UNL A   1      32.613  22.726  21.960  1.00  0.00    -0.382 OA
ATOM     81  H   UNL A   1      32.367  23.298  21.215  1.00  0.00     0.212 HD
ENDBRANCH  71  80
BRANCH  72  82
ATOM     82  C   UNL A   1      33.255  21.154  24.247  1.00  0.00    -0.016 A 
ATOM     83  C   UNL A   1      32.306  20.403  23.538  1.00  0.00     0.008 A 
ATOM     84  C   UNL A   1      34.354  20.473  24.805  1.00  0.00     0.008 A 
ATOM     85  C   UNL A   1      32.478  19.030  23.338  1.00  0.00     0.021 A 
ATOM     86  C   UNL A   1      34.515  19.096  24.626  1.00  0.00     0.021 A 
ATOM     87  C   UNL A   1      33.587  18.384  23.875  1.00  0.00     0.041 A 
ATOM     88  Cl  UNL A   1      33.818  16.703  23.595  1.00  0.00    -0.084 Cl
ENDBRANCH  72  82
ENDBRANCH  65  68
ENDBRANCH  63  64
ENDBRANCH  62  63
ENDBRANCH   1  62
TORSDOF 13
ENDMDL
MODEL 3
REMARK VINA RESULT:     -12.8      0.234      1.076
REMARK SMILES O=C(NCCCNC(=O)[C@H]1C[C@](O)(c2ccc(Cl)cc2)[C@@H](c2ccc(Cl)cc2)O1)c1ccc(-c2c3nc(c(-c4c(F)cccc4F)c4ccc([nH]4)c(-c4c(F)cccc4F)c4nc(c(-c5c(F)cccc5F)c5ccc2[nH]5)C=C4)C=C3)cc1
REMARK SMILES IDX 4 1 3 2 1 3 2 4 30 6 31 7 83 8 32 9 82 10 33 11 34 12 35 13
REMARK SMILES IDX 76 14 36 15 81 16 75 17 77 18 37 19 80 20 74 21 73 22 38 24
REMARK SMILES IDX 64 25 47 26 63 27 48 28 51 29 62 30 78 31 49 32 50 33 61 35
REMARK SMILES IDX 79 36 52 37 39 38 40 39 45 40 41 41 42 42 44 43 46 44 43 45
REMARK SMILES IDX 65 46 66 47 71 48 67 49 68 50 70 51 72 52 69 53 53 54 54 55
REMARK SMILES IDX 59 56 55 57 56 58 58 59 60 60 57 61 5 62 6 63 7 64 8 65 9 67
REMARK SMILES IDX 10 68 11 69 29 70 12 71 21 72 14 73 15 74 20 75 16 76 19 77
REMARK SMILES IDX 17 78 18 79 13 80 22 82 23 83 28 84 24 85 27 86 25 87 26 88
REMARK H PARENT 3 5 77 23 51 34 7 66 13 81
REMARK Flexibility Score: inf
ROOT
ATOM      1  C   UNL A   1      35.558  30.771  28.095  1.00  0.00     0.118 C 
ENDROOT
BRANCH   1   2
ATOM      2  N   UNL A   1      35.528  30.782  29.553  1.00  0.00    -0.352 N 
ATOM      3  O   UNL A   1      36.129  30.281  31.661  1.00  0.00    -0.269 OA
ATOM      4  C   UNL A   1      36.441  30.328  30.472  1.00  0.00     0.251 C 
ATOM      5  H   UNL A   1      34.718  31.182  29.943  1.00  0.00     0.163 HD
BRANCH   4   6
ATOM      6  C   UNL A   1      37.785  29.876  30.051  1.00  0.00     0.039 A 
ATOM      7  C   UNL A   1      38.628  29.200  30.934  1.00  0.00     0.014 A 
ATOM      8  C   UNL A   1      38.192  30.092  28.730  1.00  0.00     0.014 A 
ATOM      9  C   UNL A   1      39.925  28.880  30.547  1.00  0.00     0.010 A 
ATOM     10  C   UNL A   1      39.463  29.685  28.314  1.00  0.00     0.010 A 
ATOM     11  C   UNL A   1      40.354  29.103  29.228  1.00  0.00    -0.014 A 
BRANCH  11  12
ATOM     12  C   UNL A   1      41.712  28.659  28.820  1.00  0.00     0.031 A 
ATOM     13  C   UNL A   1      41.973  27.243  28.388  1.00  0.00     0.074 A 
ATOM     14  C   UNL A   1      42.712  29.561  28.816  1.00  0.00     0.049 A 
ATOM     15  N   UNL A   1      43.092  26.702  27.973  1.00  0.00    -0.248 NA
ATOM     16  C   UNL A   1      40.839  26.308  28.434  1.00  0.00     0.031 C 
ATOM     17  C   UNL A   1      42.584  30.961  29.229  1.00  0.00     0.029 A 
ATOM     18  N   UNL A   1      44.026  29.445  28.438  1.00  0.00    -0.354 N 
ATOM     19  C   UNL A   1      42.802  25.368  27.721  1.00  0.00     0.074 A 
ATOM     20  C   UNL A   1      41.409  25.171  28.062  1.00  0.00     0.031 C 
ATOM     21  C   UNL A   1      43.757  31.584  29.041  1.00  0.00     0.029 A 
ATOM     22  C   UNL A   1      44.733  30.617  28.555  1.00  0.00     0.049 A 
ATOM     23  H   UNL A   1      44.422  28.604  28.116  1.00  0.00     0.167 HD
ATOM     24  C   UNL A   1      43.621  24.400  27.241  1.00  0.00     0.037 A 
ATOM     25  C   UNL A   1      46.031  30.882  28.315  1.00  0.00     0.037 A 
ATOM     26  C   UNL A   1      45.006  24.604  26.899  1.00  0.00     0.049 A 
ATOM     27  C   UNL A   1      46.921  29.783  27.815  1.00  0.00     0.074 A 
ATOM     28  C   UNL A   1      45.907  23.695  26.371  1.00  0.00     0.029 A 
ATOM     29  N   UNL A   1      45.696  25.797  27.060  1.00  0.00    -0.354 N 
ATOM     30  N   UNL A   1      46.620  28.538  27.538  1.00  0.00    -0.248 NA
ATOM     31  C   UNL A   1      48.332  30.125  27.595  1.00  0.00     0.031 C 
ATOM     32  C   UNL A   1      47.153  24.321  26.264  1.00  0.00     0.029 A 
ATOM     33  C   UNL A   1      47.017  25.639  26.668  1.00  0.00     0.049 A 
ATOM     34  H   UNL A   1      45.305  26.634  27.403  1.00  0.00     0.167 HD
ATOM     35  C   UNL A   1      47.796  27.954  27.089  1.00  0.00     0.074 A 
ATOM     36  C   UNL A   1      48.811  28.989  27.112  1.00  0.00     0.031 C 
ATOM     37  C   UNL A   1      48.017  26.676  26.695  1.00  0.00     0.037 A 
BRANCH  24  38
ATOM     38  C   UNL A   1      43.048  23.020  27.071  1.00  0.00     0.057 A 
ATOM     39  C   UNL A   1      42.782  22.187  28.165  1.00  0.00     0.134 A 
ATOM     40  C   UNL A   1      42.706  22.541  25.800  1.00  0.00     0.134 A 
ATOM     41  F   UNL A   1      43.092  22.578  29.411  1.00  0.00    -0.206 F 
ATOM     42  C   UNL A   1      42.218  20.919  27.999  1.00  0.00     0.040 A 
ATOM     43  C   UNL A   1      42.118  21.287  25.623  1.00  0.00     0.040 A 
ATOM     44  F   UNL A   1      42.924  23.290  24.708  1.00  0.00    -0.206 F 
ATOM     45  C   UNL A   1      41.878  20.470  26.725  1.00  0.00     0.006 A 
ENDBRANCH  24  38
BRANCH  25  46
ATOM     46  C   UNL A   1      46.560  32.249  28.554  1.00  0.00     0.057 A 
ATOM     47  C   UNL A   1      47.068  32.624  29.803  1.00  0.00     0.134 A 
ATOM     48  C   UNL A   1      46.574  33.211  27.537  1.00  0.00     0.134 A 
ATOM     49  F   UNL A   1      47.066  31.752  30.821  1.00  0.00    -0.206 F 
ATOM     50  C   UNL A   1      47.551  33.912  30.037  1.00  0.00     0.040 A 
ATOM     51  C   UNL A   1      47.083  34.493  27.747  1.00  0.00     0.040 A 
ATOM     52  F   UNL A   1      46.110  32.912  26.314  1.00  0.00    -0.206 F 
ATOM     53  C   UNL A   1      47.566  34.848  29.005  1.00  0.00     0.006 A 
ENDBRANCH  25  46
BRANCH  37  54
ATOM     54  C   UNL A   1      49.401  26.336  26.223  1.00  0.00     0.057 A 
ATOM     55  C   UNL A   1      49.846  26.658  24.935  1.00  0.00     0.134 A 
ATOM     56  C   UNL A   1      50.307  25.695  27.078  1.00  0.00     0.134 A 
ATOM     57  F   UNL A   1      49.024  27.257  24.061  1.00  0.00    -0.206 F 
ATOM     58  C   UNL A   1      51.133  26.328  24.503  1.00  0.00     0.040 A 
ATOM     59  C   UNL A   1      51.605  25.388  26.669  1.00  0.00     0.040 A 
ATOM     60  F   UNL A   1      49.948  25.366  28.329  1.00  0.00    -0.206 F 
ATOM     61  C   UNL A   1      52.018  25.696  25.375  1.00  0.00     0.006 A 
ENDBRANCH  37  54
ENDBRANCH  11  12
ENDBRANCH   4   6
ENDBRANCH   1   2
BRANCH   1  62
ATOM     62  C   UNL A   1      35.174  29.419  27.502  1.00  0.00     0.042 C 
BRANCH  62  63
ATOM     63  C   UNL A   1      33.934  29.446  26.615  1.00  0.00     0.117 C 
BRANCH  63  64
ATOM     64  N   UNL A   1      32.724  29.081  27.323  1.00  0.00    -0.354 N 
ATOM     65  C   UNL A   1      32.016  27.916  27.278  1.00  0.00     0.249 C 
ATOM     66  H   UNL A   1      32.360  29.773  27.923  1.00  0.00     0.163 HD
ATOM     67  O   UNL A   1      31.028  27.829  28.012  1.00  0.00    -0.272 OA
BRANCH  65  68
ATOM     68  C   UNL A   1      32.498  26.757  26.374  1.00  0.00     0.211 C 
ATOM     69  C   UNL A   1      31.633  25.509  26.513  1.00  0.00     0.085 C 
ATOM     70  O   UNL A   1      32.564  27.094  24.989  1.00  0.00    -0.357 OA
ATOM     71  C   UNL A   1      31.007  25.255  25.139  1.00  0.00     0.123 C 
ATOM     72  C   UNL A   1      31.464  26.478  24.295  1.00  0.00     0.186 C 
BRANCH  71  73
ATOM     73  C   UNL A   1      31.414  23.851  24.653  1.00  0.00    -0.013 A 
ATOM     74  C   UNL A   1      31.423  22.795  25.594  1.00  0.00     0.008 A 
ATOM     75  C   UNL A   1      31.801  23.543  23.339  1.00  0.00     0.008 A 
ATOM     76  C   UNL A   1      31.792  21.495  25.239  1.00  0.00     0.021 A 
ATOM     77  C   UNL A   1      32.157  22.236  22.977  1.00  0.00     0.021 A 
ATOM     78  C   UNL A   1      32.152  21.219  23.927  1.00  0.00     0.041 A 
ATOM     79  Cl  UNL A   1      32.602  19.622  23.476  1.00  0.00    -0.084 Cl
ENDBRANCH  71  73
BRANCH  71  80
ATOM     80  O   UNL A   1      29.580  25.221  25.278  1.00  0.00    -0.382 OA
ATOM     81  H   UNL A   1      29.241  26.128  25.350  1.00  0.00     0.212 HD
ENDBRANCH  71  80
BRANCH  72  82
ATOM     82  C   UNL A   1      30.465  27.573  23.937  1.00  0.00    -0.016 A 
ATOM     83  C   UNL A   1      30.798  28.936  23.949  1.00  0.00     0.008 A 
ATOM     84  C   UNL A   1      29.176  27.211  23.501  1.00  0.00     0.008 A 
ATOM     85  C   UNL A   1      29.901  29.900  23.483  1.00  0.00     0.021 A 
ATOM     86  C   UNL A   1      28.269  28.177  23.056  1.00  0.00     0.021 A 
ATOM     87  C   UNL A   1      28.642  29.516  23.029  1.00  0.00     0.041 A 
ATOM     88  Cl  UNL A   1      27.554  30.699  22.419  1.00  0.00    -0.084 Cl
ENDBRANCH  72  82
ENDBRANCH  65  68
ENDBRANCH  63  64
ENDBRANCH  62  63
ENDBRANCH   1  62
TORSDOF 13
ENDMDL
