MODEL 1
REMARK VINA RESULT:     -12.6      0.000      0.000
REMARK SMILES Nc1nc(N2CCCCC2)nc2c1[C@H](C(=O)NCCCNC(=O)c1ccc(-c3c4nc(c(-c5c(F)cccc5F)c5ccc([nH]5)c(-c5c(F)cccc5F)c5nc(c(-c6c(F)cccc6F)c6ccc3[nH]6)C=C5)C=C4)cc1)CC(=O)N2
REMARK SMILES IDX 19 1 18 2 17 3 15 4 16 5 14 7 2 8 3 9 13 10 4 11 12 12 11 13
REMARK SMILES IDX 81 14 78 15 79 16 80 18 1 19 5 22 6 23 10 24 7 25 9 26 8 27
REMARK SMILES IDX 20 28 21 29 22 30 23 32 24 33 25 34 77 35 26 36 76 37 27 38
REMARK SMILES IDX 28 39 29 40 70 41 30 42 75 43 69 44 71 45 31 46 74 47 68 48
REMARK SMILES IDX 67 49 32 51 58 52 41 53 57 54 42 55 45 56 56 57 72 58 43 59
REMARK SMILES IDX 44 60 55 62 73 63 46 64 33 65 34 66 39 67 35 68 36 69 38 70
REMARK SMILES IDX 40 71 37 72 59 73 60 74 65 75 61 76 62 77 64 78 66 79 63 80
REMARK SMILES IDX 47 81 48 82 53 83 49 84 50 85 52 86 54 87 51 88
REMARK H PARENT 17 6 81 17 1 20 1 21 21 31 71 50 45 61
REMARK Flexibility Score: inf
ROOT
ATOM      1  C   UNL A   1      32.736  27.828  26.148  1.00  0.00     0.042 C 
ENDROOT
BRANCH   1   2
ATOM      2  C   UNL A   1      33.109  26.522  25.462  1.00  0.00     0.117 C 
BRANCH   2   3
ATOM      3  N   UNL A   1      32.057  25.525  25.580  1.00  0.00    -0.355 N 
ATOM      4  C   UNL A   1      31.125  24.997  24.759  1.00  0.00     0.228 C 
ATOM      5  O   UNL A   1      30.408  24.137  25.297  1.00  0.00    -0.274 OA
ATOM      6  H   UNL A   1      32.013  25.139  26.485  1.00  0.00     0.163 HD
BRANCH   4   7
ATOM      7  C   UNL A   1      30.870  25.354  23.289  1.00  0.00     0.125 C 
ATOM      8  C   UNL A   1      29.080  27.161  23.539  1.00  0.00     0.135 A 
ATOM      9  N   UNL A   1      28.625  28.400  23.330  1.00  0.00    -0.196 NA
ATOM     10  C   UNL A   1      30.330  26.754  23.128  1.00  0.00     0.050 A 
ATOM     11  C   UNL A   1      29.412  29.267  22.679  1.00  0.00     0.229 A 
ATOM     12  C   UNL A   1      31.087  27.739  22.535  1.00  0.00     0.144 A 
ATOM     13  N   UNL A   1      30.661  28.983  22.297  1.00  0.00    -0.195 NA
ATOM     14  N   UNL A   1      32.389  27.452  22.143  1.00  0.00    -0.310 N 
ATOM     15  C   UNL A   1      31.921  25.063  22.234  1.00  0.00     0.119 C 
ATOM     16  C   UNL A   1      32.912  26.194  22.086  1.00  0.00     0.226 C 
ATOM     17  H   UNL A   1      32.971  28.204  21.889  1.00  0.00     0.171 HD
ATOM     18  O   UNL A   1      34.098  26.001  21.835  1.00  0.00    -0.275 OA
BRANCH   8  19
ATOM     19  N   UNL A   1      28.182  26.289  24.125  1.00  0.00    -0.383 N 
ATOM     20  H   UNL A   1      28.037  26.311  25.099  1.00  0.00     0.158 HD
ATOM     21  H   UNL A   1      27.688  25.643  23.569  1.00  0.00     0.158 HD
ENDBRANCH   8  19
BRANCH  11  22
ATOM     22  N   UNL A   1      28.845  30.461  22.313  1.00  0.00    -0.341 N 
ATOM     23  C   UNL A   1      28.021  30.474  21.121  1.00  0.00     0.119 C 
ATOM     24  C   UNL A   1      28.598  31.461  23.331  1.00  0.00     0.119 C 
ATOM     25  C   UNL A   1      28.115  31.847  20.457  1.00  0.00     0.022 C 
ATOM     26  C   UNL A   1      28.759  32.842  22.688  1.00  0.00     0.022 C 
ATOM     27  C   UNL A   1      27.872  32.985  21.451  1.00  0.00     0.004 C 
ENDBRANCH  11  22
ENDBRANCH   4   7
ENDBRANCH   2   3
ENDBRANCH   1   2
BRANCH   1  28
ATOM     28  C   UNL A   1      33.760  28.259  27.193  1.00  0.00     0.118 C 
BRANCH  28  29
ATOM     29  N   UNL A   1      33.680  29.685  27.489  1.00  0.00    -0.352 N 
ATOM     30  C   UNL A   1      34.575  30.513  28.121  1.00  0.00     0.251 C 
ATOM     31  H   UNL A   1      32.852  30.124  27.187  1.00  0.00     0.163 HD
ATOM     32  O   UNL A   1      34.211  31.619  28.506  1.00  0.00    -0.269 OA
BRANCH  30  33
ATOM     33  C   UNL A   1      35.971  30.084  28.342  1.00  0.00     0.039 A 
ATOM     34  C   UNL A   1      36.334  29.564  29.587  1.00  0.00     0.014 A 
ATOM     35  C   UNL A   1      36.939  30.256  27.349  1.00  0.00     0.014 A 
ATOM     36  C   UNL A   1      37.656  29.174  29.817  1.00  0.00     0.010 A 
ATOM     37  C   UNL A   1      38.233  29.787  27.548  1.00  0.00     0.010 A 
ATOM     38  C   UNL A   1      38.611  29.264  28.793  1.00  0.00    -0.014 A 
BRANCH  38  39
ATOM     39  C   UNL A   1      40.021  28.866  29.024  1.00  0.00     0.031 A 
ATOM     40  C   UNL A   1      40.957  29.802  29.741  1.00  0.00     0.074 A 
ATOM     41  C   UNL A   1      40.467  27.681  28.567  1.00  0.00     0.049 A 
ATOM     42  N   UNL A   1      42.223  29.642  30.031  1.00  0.00    -0.248 NA
ATOM     43  C   UNL A   1      40.405  31.099  30.168  1.00  0.00     0.031 C 
ATOM     44  C   UNL A   1      39.668  26.709  27.819  1.00  0.00     0.029 A 
ATOM     45  N   UNL A   1      41.701  27.089  28.669  1.00  0.00    -0.354 N 
ATOM     46  C   UNL A   1      42.614  30.813  30.666  1.00  0.00     0.074 A 
ATOM     47  C   UNL A   1      41.476  31.704  30.659  1.00  0.00     0.031 C 
ATOM     48  C   UNL A   1      40.420  25.625  27.567  1.00  0.00     0.029 A 
ATOM     49  C   UNL A   1      41.759  25.836  28.107  1.00  0.00     0.049 A 
ATOM     50  H   UNL A   1      42.471  27.521  29.104  1.00  0.00     0.167 HD
ATOM     51  C   UNL A   1      43.804  31.108  31.239  1.00  0.00     0.037 A 
ATOM     52  C   UNL A   1      42.777  24.957  28.043  1.00  0.00     0.037 A 
ATOM     53  C   UNL A   1      44.922  30.205  31.281  1.00  0.00     0.049 A 
ATOM     54  C   UNL A   1      44.097  25.315  28.666  1.00  0.00     0.074 A 
ATOM     55  C   UNL A   1      46.146  30.379  31.900  1.00  0.00     0.029 A 
ATOM     56  N   UNL A   1      44.947  28.956  30.678  1.00  0.00    -0.354 N 
ATOM     57  N   UNL A   1      44.430  26.397  29.328  1.00  0.00    -0.248 NA
ATOM     58  C   UNL A   1      45.186  24.336  28.529  1.00  0.00     0.031 C 
ATOM     59  C   UNL A   1      46.928  29.251  31.640  1.00  0.00     0.029 A 
ATOM     60  C   UNL A   1      46.178  28.360  30.887  1.00  0.00     0.049 A 
ATOM     61  H   UNL A   1      44.201  28.555  30.177  1.00  0.00     0.167 HD
ATOM     62  C   UNL A   1      45.757  26.224  29.698  1.00  0.00     0.074 A 
ATOM     63  C   UNL A   1      46.166  24.927  29.201  1.00  0.00     0.031 C 
ATOM     64  C   UNL A   1      46.565  27.068  30.384  1.00  0.00     0.037 A 
BRANCH  51  65
ATOM     65  C   UNL A   1      43.948  32.448  31.894  1.00  0.00     0.057 A 
ATOM     66  C   UNL A   1      43.621  32.642  33.244  1.00  0.00     0.134 A 
ATOM     67  C   UNL A   1      44.460  33.544  31.189  1.00  0.00     0.134 A 
ATOM     68  F   UNL A   1      43.117  31.634  33.972  1.00  0.00    -0.206 F 
ATOM     69  C   UNL A   1      43.780  33.882  33.862  1.00  0.00     0.040 A 
ATOM     70  C   UNL A   1      44.645  34.784  31.804  1.00  0.00     0.040 A 
ATOM     71  F   UNL A   1      44.798  33.426  29.897  1.00  0.00    -0.206 F 
ATOM     72  C   UNL A   1      44.300  34.956  33.143  1.00  0.00     0.006 A 
ENDBRANCH  51  65
BRANCH  52  73
ATOM     73  C   UNL A   1      42.570  23.635  27.402  1.00  0.00     0.057 A 
ATOM     74  C   UNL A   1      42.159  22.529  28.155  1.00  0.00     0.134 A 
ATOM     75  C   UNL A   1      42.757  23.445  26.028  1.00  0.00     0.134 A 
ATOM     76  F   UNL A   1      41.980  22.644  29.479  1.00  0.00    -0.206 F 
ATOM     77  C   UNL A   1      41.948  21.281  27.567  1.00  0.00     0.040 A 
ATOM     78  C   UNL A   1      42.528  22.208  25.422  1.00  0.00     0.040 A 
ATOM     79  F   UNL A   1      43.145  24.467  25.249  1.00  0.00    -0.206 F 
ATOM     80  C   UNL A   1      42.126  21.120  26.195  1.00  0.00     0.006 A 
ENDBRANCH  52  73
BRANCH  64  81
ATOM     81  C   UNL A   1      47.976  26.632  30.635  1.00  0.00     0.057 A 
ATOM     82  C   UNL A   1      48.310  25.864  31.757  1.00  0.00     0.134 A 
ATOM     83  C   UNL A   1      48.982  26.883  29.694  1.00  0.00     0.134 A 
ATOM     84  F   UNL A   1      47.391  25.599  32.697  1.00  0.00    -0.206 F 
ATOM     85  C   UNL A   1      49.597  25.356  31.932  1.00  0.00     0.040 A 
ATOM     86  C   UNL A   1      50.267  26.362  29.847  1.00  0.00     0.040 A 
ATOM     87  F   UNL A   1      48.721  27.603  28.592  1.00  0.00    -0.206 F 
ATOM     88  C   UNL A   1      50.577  25.594  30.968  1.00  0.00     0.006 A 
ENDBRANCH  64  81
ENDBRANCH  38  39
ENDBRANCH  30  33
ENDBRANCH  28  29
ENDBRANCH   1  28
TORSDOF 12
ENDMDL
MODEL 2
REMARK VINA RESULT:     -12.6      1.632      2.128
REMARK SMILES Nc1nc(N2CCCCC2)nc2c1[C@H](C(=O)NCCCNC(=O)c1ccc(-c3c4nc(c(-c5c(F)cccc5F)c5ccc([nH]5)c(-c5c(F)cccc5F)c5nc(c(-c6c(F)cccc6F)c6ccc3[nH]6)C=C5)C=C4)cc1)CC(=O)N2
REMARK SMILES IDX 19 1 18 2 17 3 15 4 16 5 14 7 2 8 3 9 13 10 4 11 12 12 11 13
REMARK SMILES IDX 81 14 78 15 79 16 80 18 1 19 5 22 6 23 10 24 7 25 9 26 8 27
REMARK SMILES IDX 20 28 21 29 22 30 23 32 24 33 25 34 77 35 26 36 76 37 27 38
REMARK SMILES IDX 28 39 29 40 70 41 30 42 75 43 69 44 71 45 31 46 74 47 68 48
REMARK SMILES IDX 67 49 32 51 58 52 41 53 57 54 42 55 45 56 56 57 72 58 43 59
REMARK SMILES IDX 44 60 55 62 73 63 46 64 33 65 34 66 39 67 35 68 36 69 38 70
REMARK SMILES IDX 40 71 37 72 59 73 60 74 65 75 61 76 62 77 64 78 66 79 63 80
REMARK SMILES IDX 47 81 48 82 53 83 49 84 50 85 52 86 54 87 51 88
REMARK H PARENT 17 6 81 17 1 20 1 21 21 31 71 50 45 61
REMARK Flexibility Score: inf
ROOT
ATOM      1  C   UNL A   1      32.887  27.784  26.005  1.00  0.00     0.042 C 
ENDROOT
BRANCH   1   2
ATOM      2  C   UNL A   1      33.225  26.380  25.524  1.00  0.00     0.117 C 
BRANCH   2   3
ATOM      3  N   UNL A   1      32.091  25.477  25.642  1.00  0.00    -0.355 N 
ATOM      4  C   UNL A   1      31.123  25.022  24.819  1.00  0.00     0.228 C 
ATOM      5  O   UNL A   1      30.333  24.230  25.359  1.00  0.00    -0.274 OA
ATOM      6  H   UNL A   1      32.008  25.105  26.550  1.00  0.00     0.163 HD
BRANCH   4   7
ATOM      7  C   UNL A   1      30.909  25.386  23.344  1.00  0.00     0.125 C 
ATOM      8  C   UNL A   1      29.088  27.167  23.550  1.00  0.00     0.135 A 
ATOM      9  N   UNL A   1      28.624  28.401  23.334  1.00  0.00    -0.196 NA
ATOM     10  C   UNL A   1      30.356  26.780  23.175  1.00  0.00     0.050 A 
ATOM     11  C   UNL A   1      29.418  29.283  22.713  1.00  0.00     0.229 A 
ATOM     12  C   UNL A   1      31.118  27.778  22.612  1.00  0.00     0.144 A 
ATOM     13  N   UNL A   1      30.683  29.018  22.369  1.00  0.00    -0.195 NA
ATOM     14  N   UNL A   1      32.435  27.510  22.259  1.00  0.00    -0.310 N 
ATOM     15  C   UNL A   1      31.997  25.115  22.320  1.00  0.00     0.119 C 
ATOM     16  C   UNL A   1      32.976  26.261  22.211  1.00  0.00     0.226 C 
ATOM     17  H   UNL A   1      33.015  28.272  22.028  1.00  0.00     0.171 HD
ATOM     18  O   UNL A   1      34.172  26.084  21.996  1.00  0.00    -0.275 OA
BRANCH   8  19
ATOM     19  N   UNL A   1      28.184  26.279  24.102  1.00  0.00    -0.383 N 
ATOM     20  H   UNL A   1      28.411  25.323  24.170  1.00  0.00     0.158 HD
ATOM     21  H   UNL A   1      27.312  26.602  24.428  1.00  0.00     0.158 HD
ENDBRANCH   8  19
BRANCH  11  22
ATOM     22  N   UNL A   1      28.847  30.472  22.337  1.00  0.00    -0.341 N 
ATOM     23  C   UNL A   1      28.049  30.479  21.128  1.00  0.00     0.119 C 
ATOM     24  C   UNL A   1      28.569  31.468  23.352  1.00  0.00     0.119 C 
ATOM     25  C   UNL A   1      28.143  31.854  20.468  1.00  0.00     0.022 C 
ATOM     26  C   UNL A   1      28.730  32.851  22.715  1.00  0.00     0.022 C 
ATOM     27  C   UNL A   1      27.867  32.987  21.459  1.00  0.00     0.004 C 
ENDBRANCH  11  22
ENDBRANCH   4   7
ENDBRANCH   2   3
ENDBRANCH   1   2
BRANCH   1  28
ATOM     28  C   UNL A   1      34.026  28.774  25.779  1.00  0.00     0.118 C 
BRANCH  28  29
ATOM     29  N   UNL A   1      33.764  30.067  26.401  1.00  0.00    -0.352 N 
ATOM     30  C   UNL A   1      34.366  30.676  27.474  1.00  0.00     0.251 C 
ATOM     31  H   UNL A   1      33.039  30.587  25.983  1.00  0.00     0.163 HD
ATOM     32  O   UNL A   1      33.829  31.642  28.005  1.00  0.00    -0.269 OA
BRANCH  30  33
ATOM     33  C   UNL A   1      35.655  30.176  27.997  1.00  0.00     0.039 A 
ATOM     34  C   UNL A   1      35.680  29.514  29.227  1.00  0.00     0.014 A 
ATOM     35  C   UNL A   1      36.848  30.419  27.311  1.00  0.00     0.014 A 
ATOM     36  C   UNL A   1      36.894  29.056  29.744  1.00  0.00     0.010 A 
ATOM     37  C   UNL A   1      38.043  29.886  27.782  1.00  0.00     0.010 A 
ATOM     38  C   UNL A   1      38.083  29.220  29.015  1.00  0.00    -0.014 A 
BRANCH  38  39
ATOM     39  C   UNL A   1      39.381  28.751  29.555  1.00  0.00     0.031 A 
ATOM     40  C   UNL A   1      39.970  29.409  30.773  1.00  0.00     0.074 A 
ATOM     41  C   UNL A   1      40.044  27.756  28.936  1.00  0.00     0.049 A 
ATOM     42  N   UNL A   1      41.095  29.151  31.389  1.00  0.00    -0.248 NA
ATOM     43  C   UNL A   1      39.207  30.522  31.365  1.00  0.00     0.031 C 
ATOM     44  C   UNL A   1      39.598  27.070  27.722  1.00  0.00     0.029 A 
ATOM     45  N   UNL A   1      41.233  27.143  29.246  1.00  0.00    -0.354 N 
ATOM     46  C   UNL A   1      41.173  30.066  32.431  1.00  0.00     0.074 A 
ATOM     47  C   UNL A   1      40.021  30.933  32.325  1.00  0.00     0.031 C 
ATOM     48  C   UNL A   1      40.479  26.104  27.415  1.00  0.00     0.029 A 
ATOM     49  C   UNL A   1      41.566  26.121  28.389  1.00  0.00     0.049 A 
ATOM     50  H   UNL A   1      41.793  27.410  30.010  1.00  0.00     0.167 HD
ATOM     51  C   UNL A   1      42.101  30.154  33.412  1.00  0.00     0.037 A 
ATOM     52  C   UNL A   1      42.624  25.289  28.397  1.00  0.00     0.037 A 
ATOM     53  C   UNL A   1      43.224  29.267  33.539  1.00  0.00     0.049 A 
ATOM     54  C   UNL A   1      43.655  25.421  29.483  1.00  0.00     0.074 A 
ATOM     55  C   UNL A   1      44.180  29.225  34.538  1.00  0.00     0.029 A 
ATOM     56  N   UNL A   1      43.537  28.261  32.637  1.00  0.00    -0.354 N 
ATOM     57  N   UNL A   1      43.677  26.244  30.503  1.00  0.00    -0.248 NA
ATOM     58  C   UNL A   1      44.812  24.515  29.417  1.00  0.00     0.031 C 
ATOM     59  C   UNL A   1      45.096  28.220  34.220  1.00  0.00     0.029 A 
ATOM     60  C   UNL A   1      44.691  27.612  33.041  1.00  0.00     0.049 A 
ATOM     61  H   UNL A   1      43.018  28.042  31.831  1.00  0.00     0.167 HD
ATOM     62  C   UNL A   1      44.836  25.947  31.207  1.00  0.00     0.074 A 
ATOM     63  C   UNL A   1      45.485  24.858  30.507  1.00  0.00     0.031 C 
ATOM     64  C   UNL A   1      45.320  26.530  32.331  1.00  0.00     0.037 A 
BRANCH  51  65
ATOM     65  C   UNL A   1      41.924  31.228  34.442  1.00  0.00     0.057 A 
ATOM     66  C   UNL A   1      42.496  32.499  34.281  1.00  0.00     0.134 A 
ATOM     67  C   UNL A   1      41.140  31.013  35.581  1.00  0.00     0.134 A 
ATOM     68  F   UNL A   1      43.267  32.766  33.215  1.00  0.00    -0.206 F 
ATOM     69  C   UNL A   1      42.310  33.508  35.226  1.00  0.00     0.040 A 
ATOM     70  C   UNL A   1      40.927  32.022  36.522  1.00  0.00     0.040 A 
ATOM     71  F   UNL A   1      40.559  29.822  35.794  1.00  0.00    -0.206 F 
ATOM     72  C   UNL A   1      41.517  33.273  36.348  1.00  0.00     0.006 A 
ENDBRANCH  51  65
BRANCH  52  73
ATOM     73  C   UNL A   1      42.736  24.229  27.364  1.00  0.00     0.057 A 
ATOM     74  C   UNL A   1      42.238  22.943  27.601  1.00  0.00     0.134 A 
ATOM     75  C   UNL A   1      43.320  24.474  26.117  1.00  0.00     0.134 A 
ATOM     76  F   UNL A   1      41.682  22.642  28.783  1.00  0.00    -0.206 F 
ATOM     77  C   UNL A   1      42.323  21.936  26.637  1.00  0.00     0.040 A 
ATOM     78  C   UNL A   1      43.393  23.484  25.135  1.00  0.00     0.040 A 
ATOM     79  F   UNL A   1      43.813  25.688  25.826  1.00  0.00    -0.206 F 
ATOM     80  C   UNL A   1      42.896  22.208  25.396  1.00  0.00     0.006 A 
ENDBRANCH  52  73
BRANCH  64  81
ATOM     81  C   UNL A   1      46.618  26.018  32.877  1.00  0.00     0.057 A 
ATOM     82  C   UNL A   1      46.651  24.981  33.816  1.00  0.00     0.134 A 
ATOM     83  C   UNL A   1      47.840  26.484  32.377  1.00  0.00     0.134 A 
ATOM     84  F   UNL A   1      45.513  24.500  34.339  1.00  0.00    -0.206 F 
ATOM     85  C   UNL A   1      47.858  24.421  34.237  1.00  0.00     0.040 A 
ATOM     86  C   UNL A   1      49.052  25.917  32.773  1.00  0.00     0.040 A 
ATOM     87  F   UNL A   1      47.873  27.468  31.465  1.00  0.00    -0.206 F 
ATOM     88  C   UNL A   1      49.062  24.881  33.706  1.00  0.00     0.006 A 
ENDBRANCH  64  81
ENDBRANCH  38  39
ENDBRANCH  30  33
ENDBRANCH  28  29
ENDBRANCH   1  28
TORSDOF 12
ENDMDL
MODEL 3
REMARK VINA RESULT:     -12.5      2.794      6.649
REMARK SMILES Nc1nc(N2CCCCC2)nc2c1[C@H](C(=O)NCCCNC(=O)c1ccc(-c3c4nc(c(-c5c(F)cccc5F)c5ccc([nH]5)c(-c5c(F)cccc5F)c5nc(c(-c6c(F)cccc6F)c6ccc3[nH]6)C=C5)C=C4)cc1)CC(=O)N2
REMARK SMILES IDX 19 1 18 2 17 3 15 4 16 5 14 7 2 8 3 9 13 10 4 11 12 12 11 13
REMARK SMILES IDX 81 14 78 15 79 16 80 18 1 19 5 22 6 23 10 24 7 25 9 26 8 27
REMARK SMILES IDX 20 28 21 29 22 30 23 32 24 33 25 34 77 35 26 36 76 37 27 38
REMARK SMILES IDX 28 39 29 40 70 41 30 42 75 43 69 44 71 45 31 46 74 47 68 48
REMARK SMILES IDX 67 49 32 51 58 52 41 53 57 54 42 55 45 56 56 57 72 58 43 59
REMARK SMILES IDX 44 60 55 62 73 63 46 64 33 65 34 66 39 67 35 68 36 69 38 70
REMARK SMILES IDX 40 71 37 72 59 73 60 74 65 75 61 76 62 77 64 78 66 79 63 80
REMARK SMILES IDX 47 81 48 82 53 83 49 84 50 85 52 86 54 87 51 88
REMARK H PARENT 17 6 81 17 1 20 1 21 21 31 71 50 45 61
REMARK Flexibility Score: inf
ROOT
ATOM      1  C   UNL A   1      32.288  27.979  25.784  1.00  0.00     0.042 C 
ENDROOT
BRANCH   1   2
ATOM      2  C   UNL A   1      32.920  26.629  25.476  1.00  0.00     0.117 C 
BRANCH   2   3
ATOM      3  N   UNL A   1      31.954  25.545  25.559  1.00  0.00    -0.355 N 
ATOM      4  C   UNL A   1      31.084  24.955  24.713  1.00  0.00     0.228 C 
ATOM      5  O   UNL A   1      30.435  24.027  25.225  1.00  0.00    -0.274 OA
ATOM      6  H   UNL A   1      31.929  25.141  26.457  1.00  0.00     0.163 HD
BRANCH   4   7
ATOM      7  C   UNL A   1      30.823  25.314  23.245  1.00  0.00     0.125 C 
ATOM      8  C   UNL A   1      29.043  27.129  23.506  1.00  0.00     0.135 A 
ATOM      9  N   UNL A   1      28.592  28.370  23.300  1.00  0.00    -0.196 NA
ATOM     10  C   UNL A   1      30.289  26.717  23.088  1.00  0.00     0.050 A 
ATOM     11  C   UNL A   1      29.379  29.234  22.646  1.00  0.00     0.229 A 
ATOM     12  C   UNL A   1      31.048  27.699  22.493  1.00  0.00     0.144 A 
ATOM     13  N   UNL A   1      30.626  28.946  22.258  1.00  0.00    -0.195 NA
ATOM     14  N   UNL A   1      32.347  27.407  22.094  1.00  0.00    -0.310 N 
ATOM     15  C   UNL A   1      31.869  25.020  22.184  1.00  0.00     0.119 C 
ATOM     16  C   UNL A   1      32.864  26.147  22.034  1.00  0.00     0.226 C 
ATOM     17  H   UNL A   1      32.931  28.157  21.838  1.00  0.00     0.171 HD
ATOM     18  O   UNL A   1      34.048  25.949  21.777  1.00  0.00    -0.275 OA
BRANCH   8  19
ATOM     19  N   UNL A   1      28.144  26.259  24.095  1.00  0.00    -0.383 N 
ATOM     20  H   UNL A   1      27.750  25.527  23.569  1.00  0.00     0.158 HD
ATOM     21  H   UNL A   1      27.897  26.374  25.042  1.00  0.00     0.158 HD
ENDBRANCH   8  19
BRANCH  11  22
ATOM     22  N   UNL A   1      28.816  30.431  22.284  1.00  0.00    -0.341 N 
ATOM     23  C   UNL A   1      27.980  30.447  21.101  1.00  0.00     0.119 C 
ATOM     24  C   UNL A   1      28.586  31.434  23.303  1.00  0.00     0.119 C 
ATOM     25  C   UNL A   1      28.076  31.819  20.434  1.00  0.00     0.022 C 
ATOM     26  C   UNL A   1      28.748  32.813  22.657  1.00  0.00     0.022 C 
ATOM     27  C   UNL A   1      27.850  32.959  21.429  1.00  0.00     0.004 C 
ENDBRANCH  11  22
ENDBRANCH   4   7
ENDBRANCH   2   3
ENDBRANCH   1   2
BRANCH   1  28
ATOM     28  C   UNL A   1      33.124  29.150  25.275  1.00  0.00     0.118 C 
BRANCH  28  29
ATOM     29  N   UNL A   1      32.569  30.439  25.676  1.00  0.00    -0.352 N 
ATOM     30  C   UNL A   1      32.873  31.241  26.749  1.00  0.00     0.251 C 
ATOM     31  H   UNL A   1      31.866  30.788  25.084  1.00  0.00     0.163 HD
ATOM     32  O   UNL A   1      32.114  32.154  27.057  1.00  0.00    -0.269 OA
BRANCH  30  33
ATOM     33  C   UNL A   1      34.104  31.014  27.534  1.00  0.00     0.039 A 
ATOM     34  C   UNL A   1      34.961  32.089  27.781  1.00  0.00     0.014 A 
ATOM     35  C   UNL A   1      34.448  29.732  27.971  1.00  0.00     0.014 A 
ATOM     36  C   UNL A   1      36.139  31.886  28.504  1.00  0.00     0.010 A 
ATOM     37  C   UNL A   1      35.575  29.546  28.764  1.00  0.00     0.010 A 
ATOM     38  C   UNL A   1      36.445  30.616  29.019  1.00  0.00    -0.014 A 
BRANCH  38  39
ATOM     39  C   UNL A   1      37.697  30.379  29.777  1.00  0.00     0.031 A 
ATOM     40  C   UNL A   1      38.824  29.609  29.145  1.00  0.00     0.074 A 
ATOM     41  C   UNL A   1      37.811  30.831  31.041  1.00  0.00     0.049 A 
ATOM     42  N   UNL A   1      39.990  29.290  29.646  1.00  0.00    -0.248 NA
ATOM     43  C   UNL A   1      38.604  29.108  27.777  1.00  0.00     0.031 C 
ATOM     44  C   UNL A   1      36.771  31.551  31.777  1.00  0.00     0.029 A 
ATOM     45  N   UNL A   1      38.855  30.757  31.928  1.00  0.00    -0.354 N 
ATOM     46  C   UNL A   1      40.634  28.553  28.661  1.00  0.00     0.074 A 
ATOM     47  C   UNL A   1      39.708  28.409  27.560  1.00  0.00     0.031 C 
ATOM     48  C   UNL A   1      37.245  31.889  32.989  1.00  0.00     0.029 A 
ATOM     49  C   UNL A   1      38.607  31.384  33.125  1.00  0.00     0.049 A 
ATOM     50  H   UNL A   1      39.702  30.297  31.725  1.00  0.00     0.167 HD
ATOM     51  C   UNL A   1      41.899  28.071  28.656  1.00  0.00     0.037 A 
ATOM     52  C   UNL A   1      39.396  31.540  34.206  1.00  0.00     0.037 A 
ATOM     53  C   UNL A   1      42.831  28.250  29.734  1.00  0.00     0.049 A 
ATOM     54  C   UNL A   1      40.789  30.975  34.187  1.00  0.00     0.074 A 
ATOM     55  C   UNL A   1      44.158  27.865  29.797  1.00  0.00     0.029 A 
ATOM     56  N   UNL A   1      42.533  28.870  30.938  1.00  0.00    -0.354 N 
ATOM     57  N   UNL A   1      41.409  30.345  33.219  1.00  0.00    -0.248 NA
ATOM     58  C   UNL A   1      41.590  31.136  35.410  1.00  0.00     0.031 C 
ATOM     59  C   UNL A   1      44.653  28.217  31.055  1.00  0.00     0.029 A 
ATOM     60  C   UNL A   1      43.643  28.852  31.763  1.00  0.00     0.049 A 
ATOM     61  H   UNL A   1      41.661  29.264  31.170  1.00  0.00     0.167 HD
ATOM     62  C   UNL A   1      42.674  30.047  33.709  1.00  0.00     0.074 A 
ATOM     63  C   UNL A   1      42.740  30.579  35.054  1.00  0.00     0.031 C 
ATOM     64  C   UNL A   1      43.688  29.388  33.098  1.00  0.00     0.037 A 
BRANCH  51  65
ATOM     65  C   UNL A   1      42.356  27.331  27.435  1.00  0.00     0.057 A 
ATOM     66  C   UNL A   1      42.238  25.938  27.337  1.00  0.00     0.134 A 
ATOM     67  C   UNL A   1      42.875  28.016  26.330  1.00  0.00     0.134 A 
ATOM     68  F   UNL A   1      41.758  25.222  28.366  1.00  0.00    -0.206 F 
ATOM     69  C   UNL A   1      42.639  25.251  26.191  1.00  0.00     0.040 A 
ATOM     70  C   UNL A   1      43.258  27.341  25.169  1.00  0.00     0.040 A 
ATOM     71  F   UNL A   1      43.009  29.350  26.355  1.00  0.00    -0.206 F 
ATOM     72  C   UNL A   1      43.144  25.954  25.099  1.00  0.00     0.006 A 
ENDBRANCH  51  65
BRANCH  52  73
ATOM     73  C   UNL A   1      38.897  32.301  35.378  1.00  0.00     0.057 A 
ATOM     74  C   UNL A   1      38.262  31.648  36.440  1.00  0.00     0.134 A 
ATOM     75  C   UNL A   1      39.057  33.688  35.477  1.00  0.00     0.134 A 
ATOM     76  F   UNL A   1      38.065  30.322  36.395  1.00  0.00    -0.206 F 
ATOM     77  C   UNL A   1      37.798  32.346  37.556  1.00  0.00     0.040 A 
ATOM     78  C   UNL A   1      38.616  34.397  36.596  1.00  0.00     0.040 A 
ATOM     79  F   UNL A   1      39.661  34.373  34.494  1.00  0.00    -0.206 F 
ATOM     80  C   UNL A   1      37.980  33.725  37.639  1.00  0.00     0.006 A 
ENDBRANCH  52  73
BRANCH  64  81
ATOM     81  C   UNL A   1      44.956  29.188  33.872  1.00  0.00     0.057 A 
ATOM     82  C   UNL A   1      45.957  30.166  33.888  1.00  0.00     0.134 A 
ATOM     83  C   UNL A   1      45.125  28.068  34.694  1.00  0.00     0.134 A 
ATOM     84  F   UNL A   1      45.855  31.257  33.113  1.00  0.00    -0.206 F 
ATOM     85  C   UNL A   1      47.084  30.038  34.700  1.00  0.00     0.040 A 
ATOM     86  C   UNL A   1      46.237  27.939  35.527  1.00  0.00     0.040 A 
ATOM     87  F   UNL A   1      44.194  27.102  34.731  1.00  0.00    -0.206 F 
ATOM     88  C   UNL A   1      47.220  28.928  35.533  1.00  0.00     0.006 A 
ENDBRANCH  64  81
ENDBRANCH  38  39
ENDBRANCH  30  33
ENDBRANCH  28  29
ENDBRANCH   1  28
TORSDOF 12
ENDMDL
