MODEL 1
REMARK VINA RESULT:     -13.0      0.000      0.000
REMARK SMILES CC1(C)[C@@]2(C(=O)NCCCNC(=O)c3ccc(-c4c5nc(c(-c6c(F)cccc6F)c6ccc([nH]6)c(-c6c(F)cccc6F)c6nc(c(-c7c(F)cccc7F)c7ccc4[nH]7)C=C6)C=C5)cc3)CC[C@]1(C)/C(=N/NC(=O)c1ccc(Cl)cc1)C2
REMARK SMILES IDX 9 1 8 2 7 3 5 4 6 5 4 7 1 8 2 9 3 10 70 11 68 12 84 13 69 14
REMARK SMILES IDX 71 15 72 16 73 17 74 18 75 19 76 21 77 22 78 23 83 24 79 25
REMARK SMILES IDX 82 26 80 27 81 28 10 29 11 30 12 31 13 33 14 34 15 35 67 36
REMARK SMILES IDX 16 37 66 38 17 39 18 40 19 41 60 42 20 43 65 44 59 45 61 46
REMARK SMILES IDX 21 47 64 48 58 49 57 50 22 52 48 53 31 54 47 55 32 56 35 57
REMARK SMILES IDX 46 58 62 59 33 60 34 61 45 63 63 64 36 65 23 66 24 67 29 68
REMARK SMILES IDX 25 69 26 70 28 71 30 72 27 73 49 74 50 75 55 76 51 77 52 78
REMARK SMILES IDX 54 79 56 80 53 81 37 82 38 83 43 84 39 85 40 86 42 87 44 88
REMARK SMILES IDX 41 89
REMARK H PARENT 7 6 74 20 11 32 61 51 35 62
REMARK Flexibility Score: inf
ROOT
ATOM      1  C   UNL A   1      34.391  29.676  27.533  1.00  0.00     0.042 C 
ENDROOT
BRANCH   1   2
ATOM      2  C   UNL A   1      33.686  29.819  26.175  1.00  0.00     0.117 C 
BRANCH   2   3
ATOM      3  N   UNL A   1      34.227  29.023  25.087  1.00  0.00    -0.356 N 
ATOM      4  C   UNL A   1      33.605  28.301  24.111  1.00  0.00     0.227 C 
ATOM      5  O   UNL A   1      34.182  28.294  23.019  1.00  0.00    -0.274 OA
ATOM      6  H   UNL A   1      35.210  29.000  25.047  1.00  0.00     0.163 HD
BRANCH   4   7
ATOM      7  C   UNL A   1      32.384  27.413  24.365  1.00  0.00     0.060 C 
ATOM      8  C   UNL A   1      30.552  29.275  24.548  1.00  0.00     0.013 C 
ATOM      9  C   UNL A   1      31.012  27.984  23.828  1.00  0.00    -0.010 C 
ATOM     10  C   UNL A   1      30.889  28.258  22.313  1.00  0.00     0.013 C 
ATOM     11  C   UNL A   1      30.235  26.704  24.249  1.00  0.00     0.014 C 
ATOM     12  C   UNL A   1      32.028  27.037  25.831  1.00  0.00     0.019 C 
ATOM     13  C   UNL A   1      32.536  26.076  23.592  1.00  0.00     0.071 C 
ATOM     14  C   UNL A   1      30.551  26.586  25.754  1.00  0.00     0.014 C 
ATOM     15  C   UNL A   1      28.758  26.627  23.915  1.00  0.00     0.018 C 
ATOM     16  C   UNL A   1      31.115  25.599  23.610  1.00  0.00     0.046 C 
ATOM     17  N   UNL A   1      30.578  24.468  23.308  1.00  0.00    -0.181 NA
BRANCH  17  18
ATOM     18  N   UNL A   1      31.095  23.303  22.852  1.00  0.00    -0.243 N 
ATOM     19  C   UNL A   1      32.214  22.524  22.989  1.00  0.00     0.271 C 
ATOM     20  H   UNL A   1      30.467  22.881  22.221  1.00  0.00     0.194 HD
ATOM     21  O   UNL A   1      32.266  21.437  22.397  1.00  0.00    -0.267 OA
BRANCH  19  22
ATOM     22  C   UNL A   1      33.394  22.883  23.761  1.00  0.00     0.041 A 
ATOM     23  C   UNL A   1      34.617  23.062  23.105  1.00  0.00     0.015 A 
ATOM     24  C   UNL A   1      33.334  22.857  25.157  1.00  0.00     0.015 A 
ATOM     25  C   UNL A   1      35.763  23.344  23.852  1.00  0.00     0.021 A 
ATOM     26  C   UNL A   1      34.478  23.162  25.897  1.00  0.00     0.021 A 
ATOM     27  C   UNL A   1      35.681  23.428  25.241  1.00  0.00     0.041 A 
ATOM     28  Cl  UNL A   1      37.070  23.865  26.156  1.00  0.00    -0.084 Cl
ENDBRANCH  19  22
ENDBRANCH  17  18
ENDBRANCH   4   7
ENDBRANCH   2   3
ENDBRANCH   1   2
BRANCH   1  29
ATOM     29  C   UNL A   1      35.093  30.921  28.096  1.00  0.00     0.118 C 
BRANCH  29  30
ATOM     30  N   UNL A   1      35.261  30.850  29.543  1.00  0.00    -0.352 N 
ATOM     31  C   UNL A   1      36.242  30.307  30.322  1.00  0.00     0.251 C 
ATOM     32  H   UNL A   1      34.532  31.273  30.053  1.00  0.00     0.163 HD
ATOM     33  O   UNL A   1      36.032  30.225  31.547  1.00  0.00    -0.269 OA
BRANCH  31  34
ATOM     34  C   UNL A   1      37.537  29.805  29.803  1.00  0.00     0.039 A 
ATOM     35  C   UNL A   1      38.515  29.424  30.735  1.00  0.00     0.014 A 
ATOM     36  C   UNL A   1      37.876  29.843  28.447  1.00  0.00     0.014 A 
ATOM     37  C   UNL A   1      39.803  29.062  30.319  1.00  0.00     0.010 A 
ATOM     38  C   UNL A   1      39.161  29.455  28.027  1.00  0.00     0.010 A 
ATOM     39  C   UNL A   1      40.141  29.068  28.958  1.00  0.00    -0.014 A 
BRANCH  39  40
ATOM     40  C   UNL A   1      41.501  28.653  28.514  1.00  0.00     0.031 A 
ATOM     41  C   UNL A   1      41.798  27.230  28.122  1.00  0.00     0.074 A 
ATOM     42  C   UNL A   1      42.497  29.559  28.481  1.00  0.00     0.049 A 
ATOM     43  N   UNL A   1      42.938  26.693  27.757  1.00  0.00    -0.248 NA
ATOM     44  C   UNL A   1      40.672  26.287  28.145  1.00  0.00     0.031 C 
ATOM     45  C   UNL A   1      42.363  30.971  28.835  1.00  0.00     0.029 A 
ATOM     46  N   UNL A   1      43.825  29.421  28.149  1.00  0.00    -0.354 N 
ATOM     47  C   UNL A   1      42.672  25.351  27.521  1.00  0.00     0.074 A 
ATOM     48  C   UNL A   1      41.265  25.151  27.800  1.00  0.00     0.031 C 
ATOM     49  C   UNL A   1      43.561  31.566  28.718  1.00  0.00     0.029 A 
ATOM     50  C   UNL A   1      44.553  30.574  28.308  1.00  0.00     0.049 A 
ATOM     51  H   UNL A   1      44.215  28.576  27.829  1.00  0.00     0.167 HD
ATOM     52  C   UNL A   1      43.519  24.377  27.103  1.00  0.00     0.037 A 
ATOM     53  C   UNL A   1      45.871  30.809  28.171  1.00  0.00     0.037 A 
ATOM     54  C   UNL A   1      44.914  24.567  26.798  1.00  0.00     0.049 A 
ATOM     55  C   UNL A   1      46.799  29.702  27.756  1.00  0.00     0.074 A 
ATOM     56  C   UNL A   1      45.814  23.654  26.271  1.00  0.00     0.029 A 
ATOM     57  N   UNL A   1      45.619  25.741  27.010  1.00  0.00    -0.354 N 
ATOM     58  N   UNL A   1      46.518  28.456  27.471  1.00  0.00    -0.248 NA
ATOM     59  C   UNL A   1      48.228  30.036  27.652  1.00  0.00     0.031 C 
ATOM     60  C   UNL A   1      47.074  24.261  26.208  1.00  0.00     0.029 A 
ATOM     61  C   UNL A   1      46.950  25.562  26.666  1.00  0.00     0.049 A 
ATOM     62  H   UNL A   1      45.232  26.578  27.354  1.00  0.00     0.167 HD
ATOM     63  C   UNL A   1      47.729  27.857  27.151  1.00  0.00     0.074 A 
ATOM     64  C   UNL A   1      48.747  28.880  27.259  1.00  0.00     0.031 C 
ATOM     65  C   UNL A   1      47.970  26.571  26.799  1.00  0.00     0.037 A 
BRANCH  52  66
ATOM     66  C   UNL A   1      42.964  22.991  26.960  1.00  0.00     0.057 A 
ATOM     67  C   UNL A   1      42.712  22.423  25.705  1.00  0.00     0.134 A 
ATOM     68  C   UNL A   1      42.738  22.194  28.090  1.00  0.00     0.134 A 
ATOM     69  F   UNL A   1      42.907  23.135  24.585  1.00  0.00    -0.206 F 
ATOM     70  C   UNL A   1      42.237  21.116  25.581  1.00  0.00     0.040 A 
ATOM     71  C   UNL A   1      42.280  20.882  27.977  1.00  0.00     0.040 A 
ATOM     72  F   UNL A   1      42.971  22.677  29.320  1.00  0.00    -0.206 F 
ATOM     73  C   UNL A   1      42.024  20.340  26.720  1.00  0.00     0.006 A 
ENDBRANCH  52  66
BRANCH  53  74
ATOM     74  C   UNL A   1      46.402  32.161  28.466  1.00  0.00     0.057 A 
ATOM     75  C   UNL A   1      46.509  33.132  27.467  1.00  0.00     0.134 A 
ATOM     76  C   UNL A   1      46.800  32.511  29.762  1.00  0.00     0.134 A 
ATOM     77  F   UNL A   1      46.165  32.843  26.204  1.00  0.00    -0.206 F 
ATOM     78  C   UNL A   1      46.995  34.410  27.745  1.00  0.00     0.040 A 
ATOM     79  C   UNL A   1      47.269  33.790  30.058  1.00  0.00     0.040 A 
ATOM     80  F   UNL A   1      46.721  31.619  30.759  1.00  0.00    -0.206 F 
ATOM     81  C   UNL A   1      47.369  34.745  29.046  1.00  0.00     0.006 A 
ENDBRANCH  53  74
BRANCH  65  82
ATOM     82  C   UNL A   1      49.392  26.188  26.519  1.00  0.00     0.057 A 
ATOM     83  C   UNL A   1      49.964  26.386  25.255  1.00  0.00     0.134 A 
ATOM     84  C   UNL A   1      50.207  25.650  27.522  1.00  0.00     0.134 A 
ATOM     85  F   UNL A   1      49.231  26.883  24.248  1.00  0.00    -0.206 F 
ATOM     86  C   UNL A   1      51.294  26.052  24.997  1.00  0.00     0.040 A 
ATOM     87  C   UNL A   1      51.544  25.328  27.280  1.00  0.00     0.040 A 
ATOM     88  F   UNL A   1      49.720  25.438  28.754  1.00  0.00    -0.206 F 
ATOM     89  C   UNL A   1      52.091  25.527  26.014  1.00  0.00     0.006 A 
ENDBRANCH  65  82
ENDBRANCH  39  40
ENDBRANCH  31  34
ENDBRANCH  29  30
ENDBRANCH   1  29
TORSDOF 12
ENDMDL
MODEL 2
REMARK VINA RESULT:     -13.0      2.787      7.616
REMARK SMILES CC1(C)[C@@]2(C(=O)NCCCNC(=O)c3ccc(-c4c5nc(c(-c6c(F)cccc6F)c6ccc([nH]6)c(-c6c(F)cccc6F)c6nc(c(-c7c(F)cccc7F)c7ccc4[nH]7)C=C6)C=C5)cc3)CC[C@]1(C)/C(=N/NC(=O)c1ccc(Cl)cc1)C2
REMARK SMILES IDX 9 1 8 2 7 3 5 4 6 5 4 7 1 8 2 9 3 10 70 11 68 12 84 13 69 14
REMARK SMILES IDX 71 15 72 16 73 17 74 18 75 19 76 21 77 22 78 23 83 24 79 25
REMARK SMILES IDX 82 26 80 27 81 28 10 29 11 30 12 31 13 33 14 34 15 35 67 36
REMARK SMILES IDX 16 37 66 38 17 39 18 40 19 41 60 42 20 43 65 44 59 45 61 46
REMARK SMILES IDX 21 47 64 48 58 49 57 50 22 52 48 53 31 54 47 55 32 56 35 57
REMARK SMILES IDX 46 58 62 59 33 60 34 61 45 63 63 64 36 65 23 66 24 67 29 68
REMARK SMILES IDX 25 69 26 70 28 71 30 72 27 73 49 74 50 75 55 76 51 77 52 78
REMARK SMILES IDX 54 79 56 80 53 81 37 82 38 83 43 84 39 85 40 86 42 87 44 88
REMARK SMILES IDX 41 89
REMARK H PARENT 7 6 74 20 11 32 61 51 35 62
REMARK Flexibility Score: inf
ROOT
ATOM      1  C   UNL A   1      37.742  19.261  25.001  1.00  0.00     0.042 C 
ENDROOT
BRANCH   1   2
ATOM      2  C   UNL A   1      36.425  20.038  24.852  1.00  0.00     0.117 C 
BRANCH   2   3
ATOM      3  N   UNL A   1      36.547  21.437  24.478  1.00  0.00    -0.356 N 
ATOM      4  C   UNL A   1      35.729  22.502  24.715  1.00  0.00     0.227 C 
ATOM      5  O   UNL A   1      36.310  23.576  24.897  1.00  0.00    -0.274 OA
ATOM      6  H   UNL A   1      37.359  21.653  23.965  1.00  0.00     0.163 HD
BRANCH   4   7
ATOM      7  C   UNL A   1      34.204  22.439  24.594  1.00  0.00     0.060 C 
ATOM      8  C   UNL A   1      33.664  21.218  26.847  1.00  0.00     0.013 C 
ATOM      9  C   UNL A   1      33.418  22.466  25.965  1.00  0.00    -0.010 C 
ATOM     10  C   UNL A   1      33.608  23.696  26.880  1.00  0.00     0.013 C 
ATOM     11  C   UNL A   1      32.036  22.485  25.252  1.00  0.00     0.014 C 
ATOM     12  C   UNL A   1      33.563  21.218  23.876  1.00  0.00     0.019 C 
ATOM     13  C   UNL A   1      33.682  23.704  23.863  1.00  0.00     0.071 C 
ATOM     14  C   UNL A   1      32.092  21.232  24.353  1.00  0.00     0.014 C 
ATOM     15  C   UNL A   1      30.792  22.578  26.113  1.00  0.00     0.018 C 
ATOM     16  C   UNL A   1      32.235  23.653  24.251  1.00  0.00     0.046 C 
ATOM     17  N   UNL A   1      31.203  24.300  23.831  1.00  0.00    -0.181 NA
BRANCH  17  18
ATOM     18  N   UNL A   1      31.048  25.268  22.899  1.00  0.00    -0.243 N 
ATOM     19  C   UNL A   1      31.289  26.606  22.720  1.00  0.00     0.271 C 
ATOM     20  H   UNL A   1      30.627  24.893  22.091  1.00  0.00     0.194 HD
ATOM     21  O   UNL A   1      31.027  27.123  21.626  1.00  0.00    -0.267 OA
BRANCH  19  22
ATOM     22  C   UNL A   1      31.809  27.505  23.740  1.00  0.00     0.041 A 
ATOM     23  C   UNL A   1      31.046  28.608  24.137  1.00  0.00     0.015 A 
ATOM     24  C   UNL A   1      33.132  27.366  24.167  1.00  0.00     0.015 A 
ATOM     25  C   UNL A   1      31.569  29.507  25.069  1.00  0.00     0.021 A 
ATOM     26  C   UNL A   1      33.642  28.254  25.115  1.00  0.00     0.021 A 
ATOM     27  C   UNL A   1      32.851  29.306  25.580  1.00  0.00     0.041 A 
ATOM     28  Cl  UNL A   1      33.463  30.359  26.793  1.00  0.00    -0.084 Cl
ENDBRANCH  19  22
ENDBRANCH  17  18
ENDBRANCH   4   7
ENDBRANCH   2   3
ENDBRANCH   1   2
BRANCH   1  29
ATOM     29  C   UNL A   1      38.953  20.028  25.553  1.00  0.00     0.118 C 
BRANCH  29  30
ATOM     30  N   UNL A   1      40.102  19.157  25.774  1.00  0.00    -0.352 N 
ATOM     31  C   UNL A   1      41.397  19.424  26.112  1.00  0.00     0.251 C 
ATOM     32  H   UNL A   1      39.907  18.198  25.659  1.00  0.00     0.163 HD
ATOM     33  O   UNL A   1      42.219  18.489  26.049  1.00  0.00    -0.269 OA
BRANCH  31  34
ATOM     34  C   UNL A   1      41.890  20.755  26.543  1.00  0.00     0.039 A 
ATOM     35  C   UNL A   1      41.779  21.087  27.902  1.00  0.00     0.014 A 
ATOM     36  C   UNL A   1      42.310  21.736  25.640  1.00  0.00     0.014 A 
ATOM     37  C   UNL A   1      42.106  22.371  28.357  1.00  0.00     0.010 A 
ATOM     38  C   UNL A   1      42.663  23.017  26.102  1.00  0.00     0.010 A 
ATOM     39  C   UNL A   1      42.557  23.352  27.463  1.00  0.00    -0.014 A 
BRANCH  39  40
ATOM     40  C   UNL A   1      42.934  24.708  27.952  1.00  0.00     0.031 A 
ATOM     41  C   UNL A   1      41.891  25.751  28.254  1.00  0.00     0.074 A 
ATOM     42  C   UNL A   1      44.234  25.023  28.109  1.00  0.00     0.049 A 
ATOM     43  N   UNL A   1      42.052  26.993  28.642  1.00  0.00    -0.248 NA
ATOM     44  C   UNL A   1      40.487  25.350  28.096  1.00  0.00     0.031 C 
ATOM     45  C   UNL A   1      45.355  24.119  27.854  1.00  0.00     0.029 A 
ATOM     46  N   UNL A   1      44.831  26.196  28.505  1.00  0.00    -0.354 N 
ATOM     47  C   UNL A   1      40.776  27.527  28.762  1.00  0.00     0.074 A 
ATOM     48  C   UNL A   1      39.850  26.477  28.389  1.00  0.00     0.031 C 
ATOM     49  C   UNL A   1      46.504  24.775  28.084  1.00  0.00     0.029 A 
ATOM     50  C   UNL A   1      46.203  26.151  28.475  1.00  0.00     0.049 A 
ATOM     51  H   UNL A   1      44.324  26.992  28.783  1.00  0.00     0.167 HD
ATOM     52  C   UNL A   1      40.407  28.772  29.154  1.00  0.00     0.037 A 
ATOM     53  C   UNL A   1      47.121  27.108  28.704  1.00  0.00     0.037 A 
ATOM     54  C   UNL A   1      41.316  29.817  29.551  1.00  0.00     0.049 A 
ATOM     55  C   UNL A   1      46.690  28.495  29.089  1.00  0.00     0.074 A 
ATOM     56  C   UNL A   1      41.017  31.072  30.060  1.00  0.00     0.029 A 
ATOM     57  N   UNL A   1      42.697  29.742  29.469  1.00  0.00    -0.354 N 
ATOM     58  N   UNL A   1      45.479  28.962  29.263  1.00  0.00    -0.248 NA
ATOM     59  C   UNL A   1      47.754  29.489  29.299  1.00  0.00     0.031 C 
ATOM     60  C   UNL A   1      42.216  31.772  30.240  1.00  0.00     0.029 A 
ATOM     61  C   UNL A   1      43.261  30.942  29.874  1.00  0.00     0.049 A 
ATOM     62  H   UNL A   1      43.202  28.953  29.167  1.00  0.00     0.167 HD
ATOM     63  C   UNL A   1      45.633  30.298  29.607  1.00  0.00     0.074 A 
ATOM     64  C   UNL A   1      47.055  30.566  29.633  1.00  0.00     0.031 C 
ATOM     65  C   UNL A   1      44.675  31.218  29.875  1.00  0.00     0.037 A 
BRANCH  52  66
ATOM     66  C   UNL A   1      38.942  29.091  29.161  1.00  0.00     0.057 A 
ATOM     67  C   UNL A   1      38.170  28.986  30.325  1.00  0.00     0.134 A 
ATOM     68  C   UNL A   1      38.312  29.568  28.005  1.00  0.00     0.134 A 
ATOM     69  F   UNL A   1      38.715  28.534  31.464  1.00  0.00    -0.206 F 
ATOM     70  C   UNL A   1      36.817  29.328  30.333  1.00  0.00     0.040 A 
ATOM     71  C   UNL A   1      36.964  29.930  28.005  1.00  0.00     0.040 A 
ATOM     72  F   UNL A   1      39.000  29.703  26.861  1.00  0.00    -0.206 F 
ATOM     73  C   UNL A   1      36.211  29.806  29.171  1.00  0.00     0.006 A 
ENDBRANCH  52  66
BRANCH  53  74
ATOM     74  C   UNL A   1      48.559  26.789  28.542  1.00  0.00     0.057 A 
ATOM     75  C   UNL A   1      49.310  26.264  29.597  1.00  0.00     0.134 A 
ATOM     76  C   UNL A   1      49.208  26.992  27.317  1.00  0.00     0.134 A 
ATOM     77  F   UNL A   1      48.745  26.073  30.798  1.00  0.00    -0.206 F 
ATOM     78  C   UNL A   1      50.660  25.949  29.442  1.00  0.00     0.040 A 
ATOM     79  C   UNL A   1      50.552  26.664  27.143  1.00  0.00     0.040 A 
ATOM     80  F   UNL A   1      48.538  27.495  26.271  1.00  0.00    -0.206 F 
ATOM     81  C   UNL A   1      51.283  26.141  28.209  1.00  0.00     0.006 A 
ENDBRANCH  53  74
BRANCH  65  82
ATOM     82  C   UNL A   1      45.129  32.608  30.207  1.00  0.00     0.057 A 
ATOM     83  C   UNL A   1      45.225  33.598  29.220  1.00  0.00     0.134 A 
ATOM     84  C   UNL A   1      45.438  32.973  31.523  1.00  0.00     0.134 A 
ATOM     85  F   UNL A   1      44.957  33.308  27.939  1.00  0.00    -0.206 F 
ATOM     86  C   UNL A   1      45.624  34.899  29.530  1.00  0.00     0.040 A 
ATOM     87  C   UNL A   1      45.823  34.275  31.847  1.00  0.00     0.040 A 
ATOM     88  F   UNL A   1      45.363  32.072  32.514  1.00  0.00    -0.206 F 
ATOM     89  C   UNL A   1      45.918  35.242  30.849  1.00  0.00     0.006 A 
ENDBRANCH  65  82
ENDBRANCH  39  40
ENDBRANCH  31  34
ENDBRANCH  29  30
ENDBRANCH   1  29
TORSDOF 12
ENDMDL
MODEL 3
REMARK VINA RESULT:     -13.0      2.766      7.599
REMARK SMILES CC1(C)[C@@]2(C(=O)NCCCNC(=O)c3ccc(-c4c5nc(c(-c6c(F)cccc6F)c6ccc([nH]6)c(-c6c(F)cccc6F)c6nc(c(-c7c(F)cccc7F)c7ccc4[nH]7)C=C6)C=C5)cc3)CC[C@]1(C)/C(=N/NC(=O)c1ccc(Cl)cc1)C2
REMARK SMILES IDX 9 1 8 2 7 3 5 4 6 5 4 7 1 8 2 9 3 10 70 11 68 12 84 13 69 14
REMARK SMILES IDX 71 15 72 16 73 17 74 18 75 19 76 21 77 22 78 23 83 24 79 25
REMARK SMILES IDX 82 26 80 27 81 28 10 29 11 30 12 31 13 33 14 34 15 35 67 36
REMARK SMILES IDX 16 37 66 38 17 39 18 40 19 41 60 42 20 43 65 44 59 45 61 46
REMARK SMILES IDX 21 47 64 48 58 49 57 50 22 52 48 53 31 54 47 55 32 56 35 57
REMARK SMILES IDX 46 58 62 59 33 60 34 61 45 63 63 64 36 65 23 66 24 67 29 68
REMARK SMILES IDX 25 69 26 70 28 71 30 72 27 73 49 74 50 75 55 76 51 77 52 78
REMARK SMILES IDX 54 79 56 80 53 81 37 82 38 83 43 84 39 85 40 86 42 87 44 88
REMARK SMILES IDX 41 89
REMARK H PARENT 7 6 74 20 11 32 61 51 35 62
REMARK Flexibility Score: inf
ROOT
ATOM      1  C   UNL A   1      37.710  19.253  25.072  1.00  0.00     0.042 C 
ENDROOT
BRANCH   1   2
ATOM      2  C   UNL A   1      36.402  20.053  24.961  1.00  0.00     0.117 C 
BRANCH   2   3
ATOM      3  N   UNL A   1      36.532  21.434  24.531  1.00  0.00    -0.356 N 
ATOM      4  C   UNL A   1      35.719  22.513  24.723  1.00  0.00     0.227 C 
ATOM      5  O   UNL A   1      36.305  23.590  24.863  1.00  0.00    -0.274 OA
ATOM      6  H   UNL A   1      37.347  21.626  24.012  1.00  0.00     0.163 HD
BRANCH   4   7
ATOM      7  C   UNL A   1      34.195  22.452  24.601  1.00  0.00     0.060 C 
ATOM      8  C   UNL A   1      33.651  21.220  26.847  1.00  0.00     0.013 C 
ATOM      9  C   UNL A   1      33.408  22.473  25.971  1.00  0.00    -0.010 C 
ATOM     10  C   UNL A   1      33.599  23.698  26.894  1.00  0.00     0.013 C 
ATOM     11  C   UNL A   1      32.026  22.498  25.257  1.00  0.00     0.014 C 
ATOM     12  C   UNL A   1      33.552  21.236  23.876  1.00  0.00     0.019 C 
ATOM     13  C   UNL A   1      33.674  23.722  23.876  1.00  0.00     0.071 C 
ATOM     14  C   UNL A   1      32.081  21.250  24.353  1.00  0.00     0.014 C 
ATOM     15  C   UNL A   1      30.782  22.588  26.119  1.00  0.00     0.018 C 
ATOM     16  C   UNL A   1      32.227  23.671  24.263  1.00  0.00     0.046 C 
ATOM     17  N   UNL A   1      31.197  24.321  23.846  1.00  0.00    -0.181 NA
BRANCH  17  18
ATOM     18  N   UNL A   1      31.043  25.295  22.919  1.00  0.00    -0.243 N 
ATOM     19  C   UNL A   1      31.287  26.633  22.747  1.00  0.00     0.271 C 
ATOM     20  H   UNL A   1      30.622  24.924  22.109  1.00  0.00     0.194 HD
ATOM     21  O   UNL A   1      31.026  27.157  21.656  1.00  0.00    -0.267 OA
BRANCH  19  22
ATOM     22  C   UNL A   1      31.807  27.526  23.772  1.00  0.00     0.041 A 
ATOM     23  C   UNL A   1      31.026  28.602  24.208  1.00  0.00     0.015 A 
ATOM     24  C   UNL A   1      33.143  27.413  24.166  1.00  0.00     0.015 A 
ATOM     25  C   UNL A   1      31.549  29.496  25.145  1.00  0.00     0.021 A 
ATOM     26  C   UNL A   1      33.653  28.296  25.119  1.00  0.00     0.021 A 
ATOM     27  C   UNL A   1      32.847  29.319  25.622  1.00  0.00     0.041 A 
ATOM     28  Cl  UNL A   1      33.460  30.364  26.841  1.00  0.00    -0.084 Cl
ENDBRANCH  19  22
ENDBRANCH  17  18
ENDBRANCH   4   7
ENDBRANCH   2   3
ENDBRANCH   1   2
BRANCH   1  29
ATOM     29  C   UNL A   1      38.981  20.031  25.444  1.00  0.00     0.118 C 
BRANCH  29  30
ATOM     30  N   UNL A   1      40.098  19.145  25.750  1.00  0.00    -0.352 N 
ATOM     31  C   UNL A   1      41.381  19.397  26.145  1.00  0.00     0.251 C 
ATOM     32  H   UNL A   1      39.889  18.187  25.655  1.00  0.00     0.163 HD
ATOM     33  O   UNL A   1      42.184  18.445  26.153  1.00  0.00    -0.269 OA
BRANCH  31  34
ATOM     34  C   UNL A   1      41.879  20.731  26.561  1.00  0.00     0.039 A 
ATOM     35  C   UNL A   1      41.792  21.070  27.920  1.00  0.00     0.014 A 
ATOM     36  C   UNL A   1      42.280  21.709  25.646  1.00  0.00     0.014 A 
ATOM     37  C   UNL A   1      42.125  22.357  28.363  1.00  0.00     0.010 A 
ATOM     38  C   UNL A   1      42.639  22.993  26.094  1.00  0.00     0.010 A 
ATOM     39  C   UNL A   1      42.558  23.334  27.455  1.00  0.00    -0.014 A 
BRANCH  39  40
ATOM     40  C   UNL A   1      42.941  24.693  27.931  1.00  0.00     0.031 A 
ATOM     41  C   UNL A   1      41.903  25.740  28.234  1.00  0.00     0.074 A 
ATOM     42  C   UNL A   1      44.243  25.007  28.072  1.00  0.00     0.049 A 
ATOM     43  N   UNL A   1      42.069  26.985  28.612  1.00  0.00    -0.248 NA
ATOM     44  C   UNL A   1      40.496  25.339  28.094  1.00  0.00     0.031 C 
ATOM     45  C   UNL A   1      45.360  24.101  27.812  1.00  0.00     0.029 A 
ATOM     46  N   UNL A   1      44.846  26.183  28.453  1.00  0.00    -0.354 N 
ATOM     47  C   UNL A   1      40.795  27.521  28.741  1.00  0.00     0.074 A 
ATOM     48  C   UNL A   1      39.864  26.469  28.385  1.00  0.00     0.031 C 
ATOM     49  C   UNL A   1      46.513  24.756  28.025  1.00  0.00     0.029 A 
ATOM     50  C   UNL A   1      46.217  26.136  28.409  1.00  0.00     0.049 A 
ATOM     51  H   UNL A   1      44.342  26.982  28.730  1.00  0.00     0.167 HD
ATOM     52  C   UNL A   1      40.432  28.769  29.127  1.00  0.00     0.037 A 
ATOM     53  C   UNL A   1      47.139  27.094  28.622  1.00  0.00     0.037 A 
ATOM     54  C   UNL A   1      41.346  29.816  29.508  1.00  0.00     0.049 A 
ATOM     55  C   UNL A   1      46.713  28.484  29.001  1.00  0.00     0.074 A 
ATOM     56  C   UNL A   1      41.054  31.075  30.010  1.00  0.00     0.029 A 
ATOM     57  N   UNL A   1      42.725  29.739  29.412  1.00  0.00    -0.354 N 
ATOM     58  N   UNL A   1      45.505  28.953  29.184  1.00  0.00    -0.248 NA
ATOM     59  C   UNL A   1      47.780  29.478  29.192  1.00  0.00     0.031 C 
ATOM     60  C   UNL A   1      42.255  31.775  30.172  1.00  0.00     0.029 A 
ATOM     61  C   UNL A   1      43.296  30.941  29.802  1.00  0.00     0.049 A 
ATOM     62  H   UNL A   1      43.227  28.947  29.110  1.00  0.00     0.167 HD
ATOM     63  C   UNL A   1      45.664  30.292  29.516  1.00  0.00     0.074 A 
ATOM     64  C   UNL A   1      47.086  30.559  29.526  1.00  0.00     0.031 C 
ATOM     65  C   UNL A   1      44.710  31.215  29.787  1.00  0.00     0.037 A 
BRANCH  52  66
ATOM     66  C   UNL A   1      38.967  29.090  29.147  1.00  0.00     0.057 A 
ATOM     67  C   UNL A   1      38.204  28.986  30.317  1.00  0.00     0.134 A 
ATOM     68  C   UNL A   1      38.328  29.569  27.996  1.00  0.00     0.134 A 
ATOM     69  F   UNL A   1      38.759  28.533  31.451  1.00  0.00    -0.206 F 
ATOM     70  C   UNL A   1      36.852  29.330  30.336  1.00  0.00     0.040 A 
ATOM     71  C   UNL A   1      36.981  29.932  28.008  1.00  0.00     0.040 A 
ATOM     72  F   UNL A   1      39.007  29.703  26.847  1.00  0.00    -0.206 F 
ATOM     73  C   UNL A   1      36.237  29.808  29.179  1.00  0.00     0.006 A 
ENDBRANCH  52  66
BRANCH  53  74
ATOM     74  C   UNL A   1      48.575  26.772  28.447  1.00  0.00     0.057 A 
ATOM     75  C   UNL A   1      49.226  26.999  27.231  1.00  0.00     0.134 A 
ATOM     76  C   UNL A   1      49.328  26.241  29.502  1.00  0.00     0.134 A 
ATOM     77  F   UNL A   1      48.547  27.482  26.182  1.00  0.00    -0.206 F 
ATOM     78  C   UNL A   1      50.582  26.710  27.069  1.00  0.00     0.040 A 
ATOM     79  C   UNL A   1      50.687  25.966  29.359  1.00  0.00     0.040 A 
ATOM     80  F   UNL A   1      48.754  26.001  30.689  1.00  0.00    -0.206 F 
ATOM     81  C   UNL A   1      51.318  26.199  28.137  1.00  0.00     0.006 A 
ENDBRANCH  53  74
BRANCH  65  82
ATOM     82  C   UNL A   1      45.168  32.607  30.104  1.00  0.00     0.057 A 
ATOM     83  C   UNL A   1      45.531  32.976  31.406  1.00  0.00     0.134 A 
ATOM     84  C   UNL A   1      45.281  33.577  29.101  1.00  0.00     0.134 A 
ATOM     85  F   UNL A   1      45.430  32.096  32.414  1.00  0.00    -0.206 F 
ATOM     86  C   UNL A   1      45.981  34.264  31.700  1.00  0.00     0.040 A 
ATOM     87  C   UNL A   1      45.745  34.864  29.380  1.00  0.00     0.040 A 
ATOM     88  F   UNL A   1      44.952  33.287  27.833  1.00  0.00    -0.206 F 
ATOM     89  C   UNL A   1      46.094  35.211  30.683  1.00  0.00     0.006 A 
ENDBRANCH  65  82
ENDBRANCH  39  40
ENDBRANCH  31  34
ENDBRANCH  29  30
ENDBRANCH   1  29
TORSDOF 12
ENDMDL
