MODEL 1
REMARK VINA RESULT:     -13.1      0.000      0.000
REMARK SMILES Cc1cc(NC(=O)c2ccc(Br)cc2N)ccc1C(=O)NCCCNC(=O)c1ccc(-c2c3nc(c(-c4c(F)cccc4F)c4ccc([nH]4)c(-c4c(F)cccc4F)c4nc(c(-c5c(F)cccc5F)c5ccc2[nH]5)C=C4)C=C3)cc1
REMARK SMILES IDX 22 1 21 2 19 3 20 4 18 6 1 7 2 8 3 9 4 10 17 11 16 12 5 13
REMARK SMILES IDX 6 14 7 16 8 17 9 18 14 19 10 20 13 21 11 22 12 23 15 24
REMARK SMILES IDX 23 27 24 28 25 29 26 30 27 32 28 33 29 34 81 35 30 36 80 37
REMARK SMILES IDX 31 38 32 39 33 40 74 41 34 42 79 43 73 44 75 45 35 46 78 47
REMARK SMILES IDX 72 48 71 49 36 51 62 52 45 53 61 54 46 55 49 56 60 57 76 58
REMARK SMILES IDX 47 59 48 60 59 62 77 63 50 64 37 65 38 66 43 67 39 68 40 69
REMARK SMILES IDX 42 70 44 71 41 72 63 73 64 74 69 75 65 76 66 77 68 78 70 79
REMARK SMILES IDX 67 80 51 81 52 82 57 83 53 84 54 85 56 86 58 87 55 88
REMARK H PARENT 21 5 5 15 15 25 15 26 25 31 75 50 49 61
REMARK Flexibility Score: inf
ROOT
ATOM      1  C   UNL A   1      32.260  30.802  26.698  1.00  0.00     0.118 C 
ENDROOT
BRANCH   1   2
ATOM      2  N   UNL A   1      32.795  30.356  25.421  1.00  0.00    -0.352 N 
ATOM      3  C   UNL A   1      32.731  29.189  24.698  1.00  0.00     0.251 C 
ATOM      4  O   UNL A   1      33.307  29.209  23.607  1.00  0.00    -0.269 OA
ATOM      5  H   UNL A   1      33.325  31.052  24.969  1.00  0.00     0.163 HD
BRANCH   3   6
ATOM      6  C   UNL A   1      31.967  27.948  25.056  1.00  0.00     0.042 A 
ATOM      7  C   UNL A   1      29.973  28.065  23.406  1.00  0.00     0.045 C 
ATOM      8  C   UNL A   1      30.782  27.450  24.493  1.00  0.00    -0.036 A 
ATOM      9  C   UNL A   1      30.247  26.242  24.972  1.00  0.00     0.030 A 
ATOM     10  C   UNL A   1      30.820  25.538  26.022  1.00  0.00     0.041 A 
ATOM     11  C   UNL A   1      32.466  27.279  26.204  1.00  0.00     0.016 A 
ATOM     12  C   UNL A   1      31.882  26.105  26.705  1.00  0.00     0.027 A 
BRANCH  10  13
ATOM     13  N   UNL A   1      30.353  24.261  26.367  1.00  0.00    -0.322 N 
ATOM     14  C   UNL A   1      30.815  23.041  25.890  1.00  0.00     0.257 C 
ATOM     15  H   UNL A   1      29.617  24.226  27.019  1.00  0.00     0.170 HD
ATOM     16  O   UNL A   1      30.110  22.037  25.974  1.00  0.00    -0.269 OA
BRANCH  14  17
ATOM     17  C   UNL A   1      32.200  22.916  25.331  1.00  0.00     0.063 A 
ATOM     18  C   UNL A   1      33.244  22.743  26.258  1.00  0.00     0.017 A 
ATOM     19  C   UNL A   1      32.482  22.960  23.946  1.00  0.00     0.045 A 
ATOM     20  C   UNL A   1      34.561  22.597  25.820  1.00  0.00     0.016 A 
ATOM     21  C   UNL A   1      33.816  22.829  23.530  1.00  0.00     0.042 A 
ATOM     22  C   UNL A   1      34.840  22.638  24.458  1.00  0.00     0.020 A 
ATOM     23  Br  UNL A   1      36.623  22.461  23.853  1.00  0.00    -0.051 Br
BRANCH  19  24
ATOM     24  N   UNL A   1      31.531  23.277  22.976  1.00  0.00    -0.398 N 
ATOM     25  H   UNL A   1      31.517  22.786  22.122  1.00  0.00     0.156 HD
ATOM     26  H   UNL A   1      30.875  23.990  23.145  1.00  0.00     0.156 HD
ENDBRANCH  19  24
ENDBRANCH  14  17
ENDBRANCH  10  13
ENDBRANCH   3   6
ENDBRANCH   1   2
BRANCH   1  27
ATOM     27  C   UNL A   1      33.336  31.497  27.534  1.00  0.00     0.042 C 
BRANCH  27  28
ATOM     28  C   UNL A   1      34.389  30.621  28.182  1.00  0.00     0.118 C 
BRANCH  28  29
ATOM     29  N   UNL A   1      35.305  31.395  29.030  1.00  0.00    -0.352 N 
ATOM     30  C   UNL A   1      36.539  31.020  29.538  1.00  0.00     0.251 C 
ATOM     31  H   UNL A   1      35.001  32.300  29.271  1.00  0.00     0.163 HD
ATOM     32  O   UNL A   1      37.256  31.808  30.127  1.00  0.00    -0.269 OA
BRANCH  30  33
ATOM     33  C   UNL A   1      37.006  29.656  29.214  1.00  0.00     0.039 A 
ATOM     34  C   UNL A   1      37.453  28.894  30.293  1.00  0.00     0.014 A 
ATOM     35  C   UNL A   1      37.421  29.394  27.911  1.00  0.00     0.014 A 
ATOM     36  C   UNL A   1      38.561  28.079  30.112  1.00  0.00     0.010 A 
ATOM     37  C   UNL A   1      38.571  28.642  27.748  1.00  0.00     0.010 A 
ATOM     38  C   UNL A   1      39.189  28.066  28.866  1.00  0.00    -0.014 A 
BRANCH  38  39
ATOM     39  C   UNL A   1      40.541  27.545  28.692  1.00  0.00     0.031 A 
ATOM     40  C   UNL A   1      40.724  26.125  28.352  1.00  0.00     0.074 A 
ATOM     41  C   UNL A   1      41.636  28.313  28.897  1.00  0.00     0.049 A 
ATOM     42  N   UNL A   1      41.717  25.409  28.759  1.00  0.00    -0.248 NA
ATOM     43  C   UNL A   1      39.757  25.387  27.553  1.00  0.00     0.031 C 
ATOM     44  C   UNL A   1      43.028  27.942  28.651  1.00  0.00     0.029 A 
ATOM     45  N   UNL A   1      41.719  29.519  29.604  1.00  0.00    -0.354 N 
ATOM     46  C   UNL A   1      41.670  24.217  28.082  1.00  0.00     0.074 A 
ATOM     47  C   UNL A   1      40.398  24.227  27.393  1.00  0.00     0.031 C 
ATOM     48  C   UNL A   1      43.819  28.687  29.438  1.00  0.00     0.029 A 
ATOM     49  C   UNL A   1      42.964  29.502  30.279  1.00  0.00     0.049 A 
ATOM     50  H   UNL A   1      41.046  30.237  29.626  1.00  0.00     0.167 HD
ATOM     51  C   UNL A   1      42.765  23.403  28.072  1.00  0.00     0.037 A 
ATOM     52  C   UNL A   1      43.027  29.593  31.638  1.00  0.00     0.037 A 
ATOM     53  C   UNL A   1      43.863  23.952  28.870  1.00  0.00     0.049 A 
ATOM     54  C   UNL A   1      43.581  28.360  32.320  1.00  0.00     0.074 A 
ATOM     55  C   UNL A   1      45.021  24.651  28.567  1.00  0.00     0.029 A 
ATOM     56  N   UNL A   1      43.706  24.066  30.240  1.00  0.00    -0.354 N 
ATOM     57  N   UNL A   1      44.050  27.314  31.696  1.00  0.00    -0.248 NA
ATOM     58  C   UNL A   1      43.541  28.170  33.772  1.00  0.00     0.031 C 
ATOM     59  C   UNL A   1      45.561  25.173  29.777  1.00  0.00     0.029 A 
ATOM     60  C   UNL A   1      44.732  24.794  30.815  1.00  0.00     0.049 A 
ATOM     61  H   UNL A   1      42.954  23.677  30.745  1.00  0.00     0.167 HD
ATOM     62  C   UNL A   1      44.288  26.315  32.606  1.00  0.00     0.074 A 
ATOM     63  C   UNL A   1      43.960  26.901  33.891  1.00  0.00     0.031 C 
ATOM     64  C   UNL A   1      44.686  25.060  32.244  1.00  0.00     0.037 A 
BRANCH  51  65
ATOM     65  C   UNL A   1      42.910  22.250  27.111  1.00  0.00     0.057 A 
ATOM     66  C   UNL A   1      42.139  21.082  27.254  1.00  0.00     0.134 A 
ATOM     67  C   UNL A   1      43.835  22.206  26.053  1.00  0.00     0.134 A 
ATOM     68  F   UNL A   1      41.124  21.009  28.125  1.00  0.00    -0.206 F 
ATOM     69  C   UNL A   1      42.374  19.919  26.510  1.00  0.00     0.040 A 
ATOM     70  C   UNL A   1      44.127  21.033  25.343  1.00  0.00     0.040 A 
ATOM     71  F   UNL A   1      44.460  23.313  25.626  1.00  0.00    -0.206 F 
ATOM     72  C   UNL A   1      43.406  19.875  25.584  1.00  0.00     0.006 A 
ENDBRANCH  51  65
BRANCH  52  73
ATOM     73  C   UNL A   1      41.970  30.484  32.182  1.00  0.00     0.057 A 
ATOM     74  C   UNL A   1      42.125  31.872  32.005  1.00  0.00     0.134 A 
ATOM     75  C   UNL A   1      40.684  30.013  32.450  1.00  0.00     0.134 A 
ATOM     76  F   UNL A   1      43.340  32.390  31.760  1.00  0.00    -0.206 F 
ATOM     77  C   UNL A   1      41.027  32.730  31.931  1.00  0.00     0.040 A 
ATOM     78  C   UNL A   1      39.581  30.868  32.405  1.00  0.00     0.040 A 
ATOM     79  F   UNL A   1      40.460  28.704  32.632  1.00  0.00    -0.206 F 
ATOM     80  C   UNL A   1      39.744  32.216  32.087  1.00  0.00     0.006 A 
ENDBRANCH  52  73
BRANCH  64  81
ATOM     81  C   UNL A   1      45.034  23.977  33.233  1.00  0.00     0.057 A 
ATOM     82  C   UNL A   1      44.126  22.976  33.610  1.00  0.00     0.134 A 
ATOM     83  C   UNL A   1      46.259  23.969  33.931  1.00  0.00     0.134 A 
ATOM     84  F   UNL A   1      42.885  22.938  33.103  1.00  0.00    -0.206 F 
ATOM     85  C   UNL A   1      44.444  21.987  34.551  1.00  0.00     0.040 A 
ATOM     86  C   UNL A   1      46.568  23.019  34.909  1.00  0.00     0.040 A 
ATOM     87  F   UNL A   1      47.218  24.873  33.689  1.00  0.00    -0.206 F 
ATOM     88  C   UNL A   1      45.667  22.008  35.207  1.00  0.00     0.006 A 
ENDBRANCH  64  81
ENDBRANCH  38  39
ENDBRANCH  30  33
ENDBRANCH  28  29
ENDBRANCH  27  28
ENDBRANCH   1  27
TORSDOF 13
ENDMDL
MODEL 2
REMARK VINA RESULT:     -12.9      1.319      2.069
REMARK SMILES Cc1cc(NC(=O)c2ccc(Br)cc2N)ccc1C(=O)NCCCNC(=O)c1ccc(-c2c3nc(c(-c4c(F)cccc4F)c4ccc([nH]4)c(-c4c(F)cccc4F)c4nc(c(-c5c(F)cccc5F)c5ccc2[nH]5)C=C4)C=C3)cc1
REMARK SMILES IDX 22 1 21 2 19 3 20 4 18 6 1 7 2 8 3 9 4 10 17 11 16 12 5 13
REMARK SMILES IDX 6 14 7 16 8 17 9 18 14 19 10 20 13 21 11 22 12 23 15 24
REMARK SMILES IDX 23 27 24 28 25 29 26 30 27 32 28 33 29 34 81 35 30 36 80 37
REMARK SMILES IDX 31 38 32 39 33 40 74 41 34 42 79 43 73 44 75 45 35 46 78 47
REMARK SMILES IDX 72 48 71 49 36 51 62 52 45 53 61 54 46 55 49 56 60 57 76 58
REMARK SMILES IDX 47 59 48 60 59 62 77 63 50 64 37 65 38 66 43 67 39 68 40 69
REMARK SMILES IDX 42 70 44 71 41 72 63 73 64 74 69 75 65 76 66 77 68 78 70 79
REMARK SMILES IDX 67 80 51 81 52 82 57 83 53 84 54 85 56 86 58 87 55 88
REMARK H PARENT 21 5 5 15 15 25 15 26 25 31 75 50 49 61
REMARK Flexibility Score: inf
ROOT
ATOM      1  C   UNL A   1      32.400  31.185  26.971  1.00  0.00     0.118 C 
ENDROOT
BRANCH   1   2
ATOM      2  N   UNL A   1      31.939  29.934  27.552  1.00  0.00    -0.352 N 
ATOM      3  C   UNL A   1      31.740  28.661  27.077  1.00  0.00     0.251 C 
ATOM      4  O   UNL A   1      31.357  27.837  27.912  1.00  0.00    -0.269 OA
ATOM      5  H   UNL A   1      31.718  30.020  28.508  1.00  0.00     0.163 HD
BRANCH   3   6
ATOM      6  C   UNL A   1      32.024  28.161  25.690  1.00  0.00     0.042 A 
ATOM      7  C   UNL A   1      34.603  28.379  25.573  1.00  0.00     0.045 C 
ATOM      8  C   UNL A   1      33.260  28.024  25.040  1.00  0.00    -0.036 A 
ATOM      9  C   UNL A   1      33.297  27.507  23.733  1.00  0.00     0.030 A 
ATOM     10  C   UNL A   1      32.147  27.167  23.035  1.00  0.00     0.041 A 
ATOM     11  C   UNL A   1      30.859  27.924  24.917  1.00  0.00     0.016 A 
ATOM     12  C   UNL A   1      30.915  27.463  23.592  1.00  0.00     0.027 A 
BRANCH  10  13
ATOM     13  N   UNL A   1      32.229  26.507  21.800  1.00  0.00    -0.322 N 
ATOM     14  C   UNL A   1      32.812  25.273  21.544  1.00  0.00     0.257 C 
ATOM     15  H   UNL A   1      31.828  26.970  21.029  1.00  0.00     0.170 HD
ATOM     16  O   UNL A   1      33.145  24.971  20.400  1.00  0.00    -0.269 OA
BRANCH  14  17
ATOM     17  C   UNL A   1      32.980  24.268  22.642  1.00  0.00     0.063 A 
ATOM     18  C   UNL A   1      34.299  23.967  23.030  1.00  0.00     0.017 A 
ATOM     19  C   UNL A   1      31.891  23.634  23.285  1.00  0.00     0.045 A 
ATOM     20  C   UNL A   1      34.542  23.057  24.061  1.00  0.00     0.016 A 
ATOM     21  C   UNL A   1      32.161  22.710  24.306  1.00  0.00     0.042 A 
ATOM     22  C   UNL A   1      33.471  22.436  24.695  1.00  0.00     0.020 A 
ATOM     23  Br  UNL A   1      33.789  21.187  26.079  1.00  0.00    -0.051 Br
BRANCH  19  24
ATOM     24  N   UNL A   1      30.568  23.762  22.862  1.00  0.00    -0.398 N 
ATOM     25  H   UNL A   1      29.832  23.671  23.511  1.00  0.00     0.156 HD
ATOM     26  H   UNL A   1      30.369  23.942  21.915  1.00  0.00     0.156 HD
ENDBRANCH  19  24
ENDBRANCH  14  17
ENDBRANCH  10  13
ENDBRANCH   3   6
ENDBRANCH   1   2
BRANCH   1  27
ATOM     27  C   UNL A   1      33.817  31.522  27.438  1.00  0.00     0.042 C 
BRANCH  27  28
ATOM     28  C   UNL A   1      34.395  30.691  28.565  1.00  0.00     0.118 C 
BRANCH  28  29
ATOM     29  N   UNL A   1      35.401  31.432  29.337  1.00  0.00    -0.352 N 
ATOM     30  C   UNL A   1      36.691  31.049  29.672  1.00  0.00     0.251 C 
ATOM     31  H   UNL A   1      35.121  32.319  29.661  1.00  0.00     0.163 HD
ATOM     32  O   UNL A   1      37.467  31.814  30.211  1.00  0.00    -0.269 OA
BRANCH  30  33
ATOM     33  C   UNL A   1      37.125  29.711  29.222  1.00  0.00     0.039 A 
ATOM     34  C   UNL A   1      37.492  28.819  30.229  1.00  0.00     0.014 A 
ATOM     35  C   UNL A   1      37.593  29.574  27.917  1.00  0.00     0.014 A 
ATOM     36  C   UNL A   1      38.580  27.985  30.009  1.00  0.00     0.010 A 
ATOM     37  C   UNL A   1      38.722  28.798  27.724  1.00  0.00     0.010 A 
ATOM     38  C   UNL A   1      39.266  28.082  28.798  1.00  0.00    -0.014 A 
BRANCH  38  39
ATOM     39  C   UNL A   1      40.606  27.529  28.628  1.00  0.00     0.031 A 
ATOM     40  C   UNL A   1      40.757  26.099  28.314  1.00  0.00     0.074 A 
ATOM     41  C   UNL A   1      41.717  28.278  28.814  1.00  0.00     0.049 A 
ATOM     42  N   UNL A   1      41.737  25.371  28.730  1.00  0.00    -0.248 NA
ATOM     43  C   UNL A   1      39.771  25.367  27.534  1.00  0.00     0.031 C 
ATOM     44  C   UNL A   1      43.100  27.873  28.568  1.00  0.00     0.029 A 
ATOM     45  N   UNL A   1      41.829  29.495  29.497  1.00  0.00    -0.354 N 
ATOM     46  C   UNL A   1      41.662  24.167  28.076  1.00  0.00     0.074 A 
ATOM     47  C   UNL A   1      40.387  24.191  27.393  1.00  0.00     0.031 C 
ATOM     48  C   UNL A   1      43.910  28.616  29.338  1.00  0.00     0.029 A 
ATOM     49  C   UNL A   1      43.077  29.464  30.166  1.00  0.00     0.049 A 
ATOM     50  H   UNL A   1      41.171  30.227  29.509  1.00  0.00     0.167 HD
ATOM     51  C   UNL A   1      42.739  23.331  28.077  1.00  0.00     0.037 A 
ATOM     52  C   UNL A   1      43.148  29.579  31.523  1.00  0.00     0.037 A 
ATOM     53  C   UNL A   1      43.853  23.871  28.859  1.00  0.00     0.049 A 
ATOM     54  C   UNL A   1      43.680  28.348  32.226  1.00  0.00     0.074 A 
ATOM     55  C   UNL A   1      45.023  24.540  28.537  1.00  0.00     0.029 A 
ATOM     56  N   UNL A   1      43.704  24.014  30.227  1.00  0.00    -0.354 N 
ATOM     57  N   UNL A   1      44.124  27.281  31.620  1.00  0.00    -0.248 NA
ATOM     58  C   UNL A   1      43.643  28.186  33.681  1.00  0.00     0.031 C 
ATOM     59  C   UNL A   1      45.580  25.073  29.735  1.00  0.00     0.029 A 
ATOM     60  C   UNL A   1      44.748  24.731  30.783  1.00  0.00     0.049 A 
ATOM     61  H   UNL A   1      42.948  23.650  30.742  1.00  0.00     0.167 HD
ATOM     62  C   UNL A   1      44.346  26.294  32.547  1.00  0.00     0.074 A 
ATOM     63  C   UNL A   1      44.036  26.911  33.823  1.00  0.00     0.031 C 
ATOM     64  C   UNL A   1      44.716  25.024  32.208  1.00  0.00     0.037 A 
BRANCH  51  65
ATOM     65  C   UNL A   1      42.856  22.156  27.137  1.00  0.00     0.057 A 
ATOM     66  C   UNL A   1      42.064  21.006  27.307  1.00  0.00     0.134 A 
ATOM     67  C   UNL A   1      43.772  22.075  26.073  1.00  0.00     0.134 A 
ATOM     68  F   UNL A   1      41.054  20.970  28.186  1.00  0.00    -0.206 F 
ATOM     69  C   UNL A   1      42.271  19.826  26.583  1.00  0.00     0.040 A 
ATOM     70  C   UNL A   1      44.037  20.884  25.384  1.00  0.00     0.040 A 
ATOM     71  F   UNL A   1      44.414  23.161  25.621  1.00  0.00    -0.206 F 
ATOM     72  C   UNL A   1      43.295  19.744  25.652  1.00  0.00     0.006 A 
ENDBRANCH  51  65
BRANCH  52  73
ATOM     73  C   UNL A   1      42.113  30.503  32.055  1.00  0.00     0.057 A 
ATOM     74  C   UNL A   1      40.960  29.937  32.631  1.00  0.00     0.134 A 
ATOM     75  C   UNL A   1      42.416  31.822  32.394  1.00  0.00     0.134 A 
ATOM     76  F   UNL A   1      40.605  28.676  32.332  1.00  0.00    -0.206 F 
ATOM     77  C   UNL A   1      40.238  30.595  33.627  1.00  0.00     0.040 A 
ATOM     78  C   UNL A   1      41.684  32.500  33.371  1.00  0.00     0.040 A 
ATOM     79  F   UNL A   1      43.497  32.428  31.883  1.00  0.00    -0.206 F 
ATOM     80  C   UNL A   1      40.630  31.867  34.032  1.00  0.00     0.006 A 
ENDBRANCH  52  73
BRANCH  64  81
ATOM     81  C   UNL A   1      45.045  23.954  33.215  1.00  0.00     0.057 A 
ATOM     82  C   UNL A   1      44.121  22.973  33.608  1.00  0.00     0.134 A 
ATOM     83  C   UNL A   1      46.269  23.939  33.915  1.00  0.00     0.134 A 
ATOM     84  F   UNL A   1      42.881  22.945  33.099  1.00  0.00    -0.206 F 
ATOM     85  C   UNL A   1      44.423  21.995  34.565  1.00  0.00     0.040 A 
ATOM     86  C   UNL A   1      46.562  23.001  34.910  1.00  0.00     0.040 A 
ATOM     87  F   UNL A   1      47.242  24.824  33.660  1.00  0.00    -0.206 F 
ATOM     88  C   UNL A   1      45.646  22.009  35.223  1.00  0.00     0.006 A 
ENDBRANCH  64  81
ENDBRANCH  38  39
ENDBRANCH  30  33
ENDBRANCH  28  29
ENDBRANCH  27  28
ENDBRANCH   1  27
TORSDOF 13
ENDMDL
MODEL 3
REMARK VINA RESULT:     -12.9      3.594      9.332
REMARK SMILES Cc1cc(NC(=O)c2ccc(Br)cc2N)ccc1C(=O)NCCCNC(=O)c1ccc(-c2c3nc(c(-c4c(F)cccc4F)c4ccc([nH]4)c(-c4c(F)cccc4F)c4nc(c(-c5c(F)cccc5F)c5ccc2[nH]5)C=C4)C=C3)cc1
REMARK SMILES IDX 22 1 21 2 19 3 20 4 18 6 1 7 2 8 3 9 4 10 17 11 16 12 5 13
REMARK SMILES IDX 6 14 7 16 8 17 9 18 14 19 10 20 13 21 11 22 12 23 15 24
REMARK SMILES IDX 23 27 24 28 25 29 26 30 27 32 28 33 29 34 81 35 30 36 80 37
REMARK SMILES IDX 31 38 32 39 33 40 74 41 34 42 79 43 73 44 75 45 35 46 78 47
REMARK SMILES IDX 72 48 71 49 36 51 62 52 45 53 61 54 46 55 49 56 60 57 76 58
REMARK SMILES IDX 47 59 48 60 59 62 77 63 50 64 37 65 38 66 43 67 39 68 40 69
REMARK SMILES IDX 42 70 44 71 41 72 63 73 64 74 69 75 65 76 66 77 68 78 70 79
REMARK SMILES IDX 67 80 51 81 52 82 57 83 53 84 54 85 56 86 58 87 55 88
REMARK H PARENT 21 5 5 15 15 25 15 26 25 31 75 50 49 61
REMARK Flexibility Score: inf
ROOT
ATOM      1  C   UNL A   1      37.689  21.127  25.141  1.00  0.00     0.118 C 
ENDROOT
BRANCH   1   2
ATOM      2  N   UNL A   1      36.596  21.215  26.096  1.00  0.00    -0.352 N 
ATOM      3  C   UNL A   1      35.308  21.692  26.052  1.00  0.00     0.251 C 
ATOM      4  O   UNL A   1      34.657  21.556  27.093  1.00  0.00    -0.269 OA
ATOM      5  H   UNL A   1      36.833  20.848  26.978  1.00  0.00     0.163 HD
BRANCH   3   6
ATOM      6  C   UNL A   1      34.599  22.266  24.861  1.00  0.00     0.042 A 
ATOM      7  C   UNL A   1      32.820  20.444  24.382  1.00  0.00     0.045 C 
ATOM      8  C   UNL A   1      33.515  21.738  24.143  1.00  0.00    -0.036 A 
ATOM      9  C   UNL A   1      32.987  22.464  23.061  1.00  0.00     0.030 A 
ATOM     10  C   UNL A   1      33.528  23.670  22.639  1.00  0.00     0.041 A 
ATOM     11  C   UNL A   1      35.210  23.434  24.338  1.00  0.00     0.016 A 
ATOM     12  C   UNL A   1      34.704  24.114  23.220  1.00  0.00     0.027 A 
BRANCH  10  13
ATOM     13  N   UNL A   1      32.882  24.442  21.662  1.00  0.00    -0.322 N 
ATOM     14  C   UNL A   1      32.232  25.656  21.846  1.00  0.00     0.257 C 
ATOM     15  H   UNL A   1      32.889  24.084  20.746  1.00  0.00     0.170 HD
ATOM     16  O   UNL A   1      31.408  26.048  21.022  1.00  0.00    -0.269 OA
BRANCH  14  17
ATOM     17  C   UNL A   1      32.576  26.536  23.009  1.00  0.00     0.063 A 
ATOM     18  C   UNL A   1      32.049  26.166  24.260  1.00  0.00     0.017 A 
ATOM     19  C   UNL A   1      33.391  27.686  22.895  1.00  0.00     0.045 A 
ATOM     20  C   UNL A   1      32.339  26.920  25.400  1.00  0.00     0.016 A 
ATOM     21  C   UNL A   1      33.655  28.437  24.051  1.00  0.00     0.042 A 
ATOM     22  C   UNL A   1      33.143  28.049  25.289  1.00  0.00     0.020 A 
ATOM     23  Br  UNL A   1      33.527  29.089  26.822  1.00  0.00    -0.051 Br
BRANCH  19  24
ATOM     24  N   UNL A   1      33.827  28.203  21.675  1.00  0.00    -0.398 N 
ATOM     25  H   UNL A   1      34.481  27.703  21.134  1.00  0.00     0.156 HD
ATOM     26  H   UNL A   1      33.482  29.067  21.356  1.00  0.00     0.156 HD
ENDBRANCH  19  24
ENDBRANCH  14  17
ENDBRANCH  10  13
ENDBRANCH   3   6
ENDBRANCH   1   2
BRANCH   1  27
ATOM     27  C   UNL A   1      39.025  21.485  25.796  1.00  0.00     0.042 C 
BRANCH  27  28
ATOM     28  C   UNL A   1      39.206  22.911  26.273  1.00  0.00     0.118 C 
BRANCH  28  29
ATOM     29  N   UNL A   1      40.617  23.236  26.519  1.00  0.00    -0.352 N 
ATOM     30  C   UNL A   1      41.183  24.467  26.816  1.00  0.00     0.251 C 
ATOM     31  H   UNL A   1      41.244  22.479  26.463  1.00  0.00     0.163 HD
ATOM     32  O   UNL A   1      42.356  24.575  27.122  1.00  0.00    -0.269 OA
BRANCH  30  33
ATOM     33  C   UNL A   1      40.267  25.623  26.877  1.00  0.00     0.039 A 
ATOM     34  C   UNL A   1      40.765  26.822  26.366  1.00  0.00     0.014 A 
ATOM     35  C   UNL A   1      39.236  25.599  27.813  1.00  0.00     0.014 A 
ATOM     36  C   UNL A   1      40.457  28.001  27.030  1.00  0.00     0.010 A 
ATOM     37  C   UNL A   1      38.990  26.763  28.520  1.00  0.00     0.010 A 
ATOM     38  C   UNL A   1      39.675  27.938  28.184  1.00  0.00    -0.014 A 
BRANCH  38  39
ATOM     39  C   UNL A   1      39.612  29.047  29.131  1.00  0.00     0.031 A 
ATOM     40  C   UNL A   1      38.571  30.073  28.965  1.00  0.00     0.074 A 
ATOM     41  C   UNL A   1      40.523  29.195  30.120  1.00  0.00     0.049 A 
ATOM     42  N   UNL A   1      38.737  31.319  29.254  1.00  0.00    -0.248 NA
ATOM     43  C   UNL A   1      37.262  29.768  28.407  1.00  0.00     0.031 C 
ATOM     44  C   UNL A   1      40.505  30.191  31.189  1.00  0.00     0.029 A 
ATOM     45  N   UNL A   1      41.792  28.610  30.215  1.00  0.00    -0.354 N 
ATOM     46  C   UNL A   1      37.509  31.927  29.175  1.00  0.00     0.074 A 
ATOM     47  C   UNL A   1      36.638  30.935  28.583  1.00  0.00     0.031 C 
ATOM     48  C   UNL A   1      41.760  30.384  31.621  1.00  0.00     0.029 A 
ATOM     49  C   UNL A   1      42.640  29.586  30.792  1.00  0.00     0.049 A 
ATOM     50  H   UNL A   1      42.043  27.699  29.937  1.00  0.00     0.167 HD
ATOM     51  C   UNL A   1      37.328  33.157  29.735  1.00  0.00     0.037 A 
ATOM     52  C   UNL A   1      43.745  30.034  30.130  1.00  0.00     0.037 A 
ATOM     53  C   UNL A   1      38.561  33.677  30.328  1.00  0.00     0.049 A 
ATOM     54  C   UNL A   1      43.694  31.500  29.755  1.00  0.00     0.074 A 
ATOM     55  C   UNL A   1      39.063  33.733  31.619  1.00  0.00     0.029 A 
ATOM     56  N   UNL A   1      39.627  33.984  29.500  1.00  0.00    -0.354 N 
ATOM     57  N   UNL A   1      42.736  32.320  30.092  1.00  0.00    -0.248 NA
ATOM     58  C   UNL A   1      44.676  32.127  28.867  1.00  0.00     0.031 C 
ATOM     59  C   UNL A   1      40.440  34.092  31.552  1.00  0.00     0.029 A 
ATOM     60  C   UNL A   1      40.776  34.251  30.222  1.00  0.00     0.049 A 
ATOM     61  H   UNL A   1      39.573  34.009  28.517  1.00  0.00     0.167 HD
ATOM     62  C   UNL A   1      42.908  33.511  29.432  1.00  0.00     0.074 A 
ATOM     63  C   UNL A   1      44.138  33.342  28.683  1.00  0.00     0.031 C 
ATOM     64  C   UNL A   1      42.006  34.534  29.500  1.00  0.00     0.037 A 
BRANCH  51  65
ATOM     65  C   UNL A   1      35.960  33.748  29.972  1.00  0.00     0.057 A 
ATOM     66  C   UNL A   1      35.171  34.209  28.902  1.00  0.00     0.134 A 
ATOM     67  C   UNL A   1      35.384  33.942  31.240  1.00  0.00     0.134 A 
ATOM     68  F   UNL A   1      35.511  33.981  27.626  1.00  0.00    -0.206 F 
ATOM     69  C   UNL A   1      33.988  34.934  29.086  1.00  0.00     0.040 A 
ATOM     70  C   UNL A   1      34.238  34.722  31.445  1.00  0.00     0.040 A 
ATOM     71  F   UNL A   1      35.881  33.342  32.331  1.00  0.00    -0.206 F 
ATOM     72  C   UNL A   1      33.543  35.239  30.364  1.00  0.00     0.006 A 
ENDBRANCH  51  65
BRANCH  52  73
ATOM     73  C   UNL A   1      44.388  28.957  29.335  1.00  0.00     0.057 A 
ATOM     74  C   UNL A   1      45.113  27.970  30.029  1.00  0.00     0.134 A 
ATOM     75  C   UNL A   1      43.958  28.646  28.044  1.00  0.00     0.134 A 
ATOM     76  F   UNL A   1      45.569  28.214  31.269  1.00  0.00    -0.206 F 
ATOM     77  C   UNL A   1      45.256  26.676  29.528  1.00  0.00     0.040 A 
ATOM     78  C   UNL A   1      44.119  27.360  27.523  1.00  0.00     0.040 A 
ATOM     79  F   UNL A   1      43.264  29.536  27.321  1.00  0.00    -0.206 F 
ATOM     80  C   UNL A   1      44.716  26.357  28.287  1.00  0.00     0.006 A 
ENDBRANCH  52  73
BRANCH  64  81
ATOM     81  C   UNL A   1      42.220  35.877  28.852  1.00  0.00     0.057 A 
ATOM     82  C   UNL A   1      41.681  36.208  27.599  1.00  0.00     0.134 A 
ATOM     83  C   UNL A   1      43.073  36.850  29.413  1.00  0.00     0.134 A 
ATOM     84  F   UNL A   1      40.942  35.328  26.907  1.00  0.00    -0.206 F 
ATOM     85  C   UNL A   1      41.904  37.449  26.987  1.00  0.00     0.040 A 
ATOM     86  C   UNL A   1      43.346  38.071  28.788  1.00  0.00     0.040 A 
ATOM     87  F   UNL A   1      43.672  36.668  30.598  1.00  0.00    -0.206 F 
ATOM     88  C   UNL A   1      42.742  38.384  27.580  1.00  0.00     0.006 A 
ENDBRANCH  64  81
ENDBRANCH  38  39
ENDBRANCH  30  33
ENDBRANCH  28  29
ENDBRANCH  27  28
ENDBRANCH   1  27
TORSDOF 13
ENDMDL
