MODEL 1
REMARK VINA RESULT:     -13.4      0.000      0.000
REMARK SMILES O=C(NCCCNC(=O)[C@H]1CC=CC[C@@H]1C(=O)Nc1nn(Cc2ccccc2F)cc1Br)c1ccc(-c2c3nc(c(-c4c(F)cccc4F)c4ccc([nH]4)c(-c4c(F)cccc4F)c4nc(c(-c5c(F)cccc5F)c5ccc2[nH]5)C=C4)C=C3)cc1
REMARK SMILES IDX 6 1 5 2 4 3 3 4 1 5 2 6 33 8 34 9 86 10 35 11 85 12 36 13
REMARK SMILES IDX 37 14 38 15 79 16 39 17 84 18 78 19 80 20 40 21 83 22 77 23
REMARK SMILES IDX 76 24 41 26 67 27 50 28 66 29 51 30 54 31 65 32 81 33 52 34
REMARK SMILES IDX 53 35 64 37 82 38 55 39 42 40 43 41 48 42 44 43 45 44 47 45
REMARK SMILES IDX 49 46 46 47 68 48 69 49 74 50 70 51 71 52 73 53 75 54 72 55
REMARK SMILES IDX 56 56 57 57 62 58 58 59 59 60 61 61 63 62 60 63 7 64 8 65
REMARK SMILES IDX 9 67 10 68 11 69 15 70 12 71 14 72 13 73 16 74 17 75 18 76
REMARK SMILES IDX 19 78 20 79 31 80 21 81 30 82 32 83 22 84 23 85 24 86 28 87
REMARK SMILES IDX 25 88 27 89 29 90 26 91
REMARK H PARENT 3 7 80 25 54 36 7 66 18 77
REMARK Flexibility Score: inf
ROOT
ATOM      1  C   UNL A   1      31.403  28.260  26.756  1.00  0.00     0.117 C 
ENDROOT
BRANCH   1   2
ATOM      2  C   UNL A   1      32.802  28.648  27.210  1.00  0.00     0.042 C 
BRANCH   2   3
ATOM      3  C   UNL A   1      33.389  29.847  26.469  1.00  0.00     0.118 C 
BRANCH   3   4
ATOM      4  N   UNL A   1      33.600  31.019  27.297  1.00  0.00    -0.352 N 
ATOM      5  O   UNL A   1      34.438  32.606  28.574  1.00  0.00    -0.269 OA
ATOM      6  C   UNL A   1      34.637  31.507  28.035  1.00  0.00     0.251 C 
ATOM      7  H   UNL A   1      32.806  31.599  27.334  1.00  0.00     0.163 HD
BRANCH   6   8
ATOM      8  C   UNL A   1      35.938  30.825  28.279  1.00  0.00     0.039 A 
ATOM      9  C   UNL A   1      36.223  29.480  28.041  1.00  0.00     0.014 A 
ATOM     10  C   UNL A   1      36.964  31.641  28.798  1.00  0.00     0.014 A 
ATOM     11  C   UNL A   1      37.473  28.951  28.377  1.00  0.00     0.010 A 
ATOM     12  C   UNL A   1      38.216  31.124  29.109  1.00  0.00     0.010 A 
ATOM     13  C   UNL A   1      38.467  29.768  28.927  1.00  0.00    -0.014 A 
BRANCH  13  14
ATOM     14  C   UNL A   1      39.799  29.205  29.160  1.00  0.00     0.031 A 
ATOM     15  C   UNL A   1      40.156  28.966  30.595  1.00  0.00     0.074 A 
ATOM     16  C   UNL A   1      40.606  28.739  28.183  1.00  0.00     0.049 A 
ATOM     17  N   UNL A   1      41.166  29.421  31.266  1.00  0.00    -0.248 NA
ATOM     18  C   UNL A   1      39.227  28.153  31.397  1.00  0.00     0.031 C 
ATOM     19  C   UNL A   1      40.318  28.575  26.757  1.00  0.00     0.029 A 
ATOM     20  N   UNL A   1      41.861  28.218  28.301  1.00  0.00    -0.354 N 
ATOM     21  C   UNL A   1      41.082  28.851  32.538  1.00  0.00     0.074 A 
ATOM     22  C   UNL A   1      39.823  28.151  32.589  1.00  0.00     0.031 C 
ATOM     23  C   UNL A   1      41.279  27.807  26.190  1.00  0.00     0.029 A 
ATOM     24  C   UNL A   1      42.319  27.553  27.172  1.00  0.00     0.049 A 
ATOM     25  H   UNL A   1      42.399  28.306  29.122  1.00  0.00     0.167 HD
ATOM     26  C   UNL A   1      42.111  28.874  33.431  1.00  0.00     0.037 A 
ATOM     27  C   UNL A   1      43.450  26.809  27.073  1.00  0.00     0.037 A 
ATOM     28  C   UNL A   1      43.095  29.862  33.091  1.00  0.00     0.049 A 
ATOM     29  C   UNL A   1      44.345  27.201  28.187  1.00  0.00     0.074 A 
ATOM     30  C   UNL A   1      43.092  31.240  33.002  1.00  0.00     0.029 A 
ATOM     31  N   UNL A   1      44.235  29.454  32.448  1.00  0.00    -0.354 N 
ATOM     32  N   UNL A   1      44.929  28.360  28.289  1.00  0.00    -0.248 NA
ATOM     33  C   UNL A   1      44.268  26.426  29.416  1.00  0.00     0.031 C 
ATOM     34  C   UNL A   1      43.931  31.534  31.888  1.00  0.00     0.029 A 
ATOM     35  C   UNL A   1      44.427  30.323  31.405  1.00  0.00     0.049 A 
ATOM     36  H   UNL A   1      44.805  28.688  32.689  1.00  0.00     0.167 HD
ATOM     37  C   UNL A   1      44.916  28.643  29.645  1.00  0.00     0.074 A 
ATOM     38  C   UNL A   1      44.580  27.379  30.296  1.00  0.00     0.031 C 
ATOM     39  C   UNL A   1      44.911  29.928  30.103  1.00  0.00     0.037 A 
BRANCH  26  40
ATOM     40  C   UNL A   1      42.354  27.831  34.488  1.00  0.00     0.057 A 
ATOM     41  C   UNL A   1      41.826  27.920  35.791  1.00  0.00     0.134 A 
ATOM     42  C   UNL A   1      42.901  26.582  34.145  1.00  0.00     0.134 A 
ATOM     43  F   UNL A   1      41.174  29.012  36.214  1.00  0.00    -0.206 F 
ATOM     44  C   UNL A   1      41.855  26.854  36.694  1.00  0.00     0.040 A 
ATOM     45  C   UNL A   1      42.895  25.493  35.026  1.00  0.00     0.040 A 
ATOM     46  F   UNL A   1      43.403  26.362  32.920  1.00  0.00    -0.206 F 
ATOM     47  C   UNL A   1      42.371  25.627  36.305  1.00  0.00     0.006 A 
ENDBRANCH  26  40
BRANCH  27  48
ATOM     48  C   UNL A   1      43.680  25.563  26.305  1.00  0.00     0.057 A 
ATOM     49  C   UNL A   1      43.038  24.363  26.654  1.00  0.00     0.134 A 
ATOM     50  C   UNL A   1      44.761  25.449  25.418  1.00  0.00     0.134 A 
ATOM     51  F   UNL A   1      42.038  24.348  27.546  1.00  0.00    -0.206 F 
ATOM     52  C   UNL A   1      43.465  23.120  26.176  1.00  0.00     0.040 A 
ATOM     53  C   UNL A   1      45.203  24.209  24.936  1.00  0.00     0.040 A 
ATOM     54  F   UNL A   1      45.462  26.533  25.056  1.00  0.00    -0.206 F 
ATOM     55  C   UNL A   1      44.563  23.038  25.328  1.00  0.00     0.006 A 
ENDBRANCH  27  48
BRANCH  39  56
ATOM     56  C   UNL A   1      45.153  31.036  29.114  1.00  0.00     0.057 A 
ATOM     57  C   UNL A   1      46.417  31.635  29.070  1.00  0.00     0.134 A 
ATOM     58  C   UNL A   1      44.140  31.643  28.355  1.00  0.00     0.134 A 
ATOM     59  F   UNL A   1      47.423  31.143  29.812  1.00  0.00    -0.206 F 
ATOM     60  C   UNL A   1      46.664  32.786  28.318  1.00  0.00     0.040 A 
ATOM     61  C   UNL A   1      44.383  32.775  27.570  1.00  0.00     0.040 A 
ATOM     62  F   UNL A   1      42.877  31.202  28.403  1.00  0.00    -0.206 F 
ATOM     63  C   UNL A   1      45.645  33.358  27.560  1.00  0.00     0.006 A 
ENDBRANCH  39  56
ENDBRANCH  13  14
ENDBRANCH   6   8
ENDBRANCH   3   4
ENDBRANCH   2   3
ENDBRANCH   1   2
BRANCH   1  64
ATOM     64  N   UNL A   1      31.130  26.857  26.910  1.00  0.00    -0.356 N 
ATOM     65  C   UNL A   1      31.521  25.801  26.175  1.00  0.00     0.224 C 
ATOM     66  H   UNL A   1      30.563  26.632  27.682  1.00  0.00     0.163 HD
ATOM     67  O   UNL A   1      31.636  24.755  26.831  1.00  0.00    -0.275 OA
BRANCH  65  68
ATOM     68  C   UNL A   1      31.722  25.748  24.661  1.00  0.00     0.095 C 
ATOM     69  C   UNL A   1      30.394  25.925  23.915  1.00  0.00     0.041 C 
ATOM     70  C   UNL A   1      32.868  26.389  23.900  1.00  0.00     0.095 C 
ATOM     71  C   UNL A   1      30.113  27.317  23.475  1.00  0.00    -0.030 C 
ATOM     72  C   UNL A   1      32.549  27.843  23.426  1.00  0.00     0.041 C 
ATOM     73  C   UNL A   1      31.098  28.187  23.249  1.00  0.00    -0.030 C 
BRANCH  70  74
ATOM     74  C   UNL A   1      33.479  25.563  22.718  1.00  0.00     0.229 C 
ATOM     75  O   UNL A   1      33.653  26.145  21.631  1.00  0.00    -0.274 OA
ATOM     76  N   UNL A   1      34.101  24.351  22.803  1.00  0.00    -0.308 N 
ATOM     77  H   UNL A   1      34.820  24.251  22.139  1.00  0.00     0.171 HD
BRANCH  76  78
ATOM     78  C   UNL A   1      33.960  23.230  23.603  1.00  0.00     0.168 A 
ATOM     79  N   UNL A   1      32.879  22.447  23.664  1.00  0.00    -0.153 NA
ATOM     80  C   UNL A   1      34.979  22.668  24.409  1.00  0.00     0.080 A 
ATOM     81  N   UNL A   1      33.116  21.567  24.660  1.00  0.00    -0.265 N 
ATOM     82  C   UNL A   1      34.410  21.627  25.099  1.00  0.00     0.127 A 
ATOM     83  Br  UNL A   1      36.734  23.297  24.562  1.00  0.00    -0.045 Br
BRANCH  81  84
ATOM     84  C   UNL A   1      32.116  20.545  25.001  1.00  0.00     0.182 C 
BRANCH  84  85
ATOM     85  C   UNL A   1      32.543  19.127  24.716  1.00  0.00     0.009 A 
ATOM     86  C   UNL A   1      32.921  18.240  25.735  1.00  0.00     0.008 A 
ATOM     87  C   UNL A   1      32.595  18.658  23.399  1.00  0.00     0.128 A 
ATOM     88  C   UNL A   1      33.278  16.917  25.435  1.00  0.00     0.001 A 
ATOM     89  C   UNL A   1      32.907  17.332  23.096  1.00  0.00     0.039 A 
ATOM     90  F   UNL A   1      32.334  19.496  22.383  1.00  0.00    -0.207 F 
ATOM     91  C   UNL A   1      33.244  16.454  24.120  1.00  0.00     0.003 A 
ENDBRANCH  84  85
ENDBRANCH  81  84
ENDBRANCH  76  78
ENDBRANCH  70  74
ENDBRANCH  65  68
ENDBRANCH   1  64
TORSDOF 14
ENDMDL
MODEL 2
REMARK VINA RESULT:     -13.3      3.211      8.223
REMARK SMILES O=C(NCCCNC(=O)[C@H]1CC=CC[C@@H]1C(=O)Nc1nn(Cc2ccccc2F)cc1Br)c1ccc(-c2c3nc(c(-c4c(F)cccc4F)c4ccc([nH]4)c(-c4c(F)cccc4F)c4nc(c(-c5c(F)cccc5F)c5ccc2[nH]5)C=C4)C=C3)cc1
REMARK SMILES IDX 6 1 5 2 4 3 3 4 1 5 2 6 33 8 34 9 86 10 35 11 85 12 36 13
REMARK SMILES IDX 37 14 38 15 79 16 39 17 84 18 78 19 80 20 40 21 83 22 77 23
REMARK SMILES IDX 76 24 41 26 67 27 50 28 66 29 51 30 54 31 65 32 81 33 52 34
REMARK SMILES IDX 53 35 64 37 82 38 55 39 42 40 43 41 48 42 44 43 45 44 47 45
REMARK SMILES IDX 49 46 46 47 68 48 69 49 74 50 70 51 71 52 73 53 75 54 72 55
REMARK SMILES IDX 56 56 57 57 62 58 58 59 59 60 61 61 63 62 60 63 7 64 8 65
REMARK SMILES IDX 9 67 10 68 11 69 15 70 12 71 14 72 13 73 16 74 17 75 18 76
REMARK SMILES IDX 19 78 20 79 31 80 21 81 30 82 32 83 22 84 23 85 24 86 28 87
REMARK SMILES IDX 25 88 27 89 29 90 26 91
REMARK H PARENT 3 7 80 25 54 36 7 66 18 77
REMARK Flexibility Score: inf
ROOT
ATOM      1  C   UNL A   1      37.481  22.351  24.802  1.00  0.00     0.117 C 
ENDROOT
BRANCH   1   2
ATOM      2  C   UNL A   1      38.340  22.908  25.926  1.00  0.00     0.042 C 
BRANCH   2   3
ATOM      3  C   UNL A   1      39.408  21.943  26.434  1.00  0.00     0.118 C 
BRANCH   3   4
ATOM      4  N   UNL A   1      40.722  22.143  25.853  1.00  0.00    -0.352 N 
ATOM      5  O   UNL A   1      42.734  22.870  25.326  1.00  0.00    -0.269 OA
ATOM      6  C   UNL A   1      41.695  23.091  25.967  1.00  0.00     0.251 C 
ATOM      7  H   UNL A   1      40.969  21.424  25.228  1.00  0.00     0.163 HD
BRANCH   6   8
ATOM      8  C   UNL A   1      41.597  24.360  26.739  1.00  0.00     0.039 A 
ATOM      9  C   UNL A   1      42.128  24.598  28.008  1.00  0.00     0.014 A 
ATOM     10  C   UNL A   1      40.900  25.406  26.103  1.00  0.00     0.014 A 
ATOM     11  C   UNL A   1      41.908  25.821  28.649  1.00  0.00     0.010 A 
ATOM     12  C   UNL A   1      40.700  26.633  26.727  1.00  0.00     0.010 A 
ATOM     13  C   UNL A   1      41.179  26.835  28.017  1.00  0.00    -0.014 A 
BRANCH  13  14
ATOM     14  C   UNL A   1      41.065  28.140  28.673  1.00  0.00     0.031 A 
ATOM     15  C   UNL A   1      42.150  29.120  28.351  1.00  0.00     0.074 A 
ATOM     16  C   UNL A   1      39.983  28.545  29.370  1.00  0.00     0.049 A 
ATOM     17  N   UNL A   1      42.951  29.739  29.158  1.00  0.00    -0.248 NA
ATOM     18  C   UNL A   1      42.407  29.403  26.928  1.00  0.00     0.031 C 
ATOM     19  C   UNL A   1      38.689  27.876  29.526  1.00  0.00     0.029 A 
ATOM     20  N   UNL A   1      39.793  29.727  30.026  1.00  0.00    -0.354 N 
ATOM     21  C   UNL A   1      43.727  30.591  28.369  1.00  0.00     0.074 A 
ATOM     22  C   UNL A   1      43.410  30.278  26.998  1.00  0.00     0.031 C 
ATOM     23  C   UNL A   1      37.792  28.747  30.046  1.00  0.00     0.029 A 
ATOM     24  C   UNL A   1      38.479  29.979  30.395  1.00  0.00     0.049 A 
ATOM     25  H   UNL A   1      40.530  30.351  30.221  1.00  0.00     0.167 HD
ATOM     26  C   UNL A   1      44.485  31.597  28.888  1.00  0.00     0.037 A 
ATOM     27  C   UNL A   1      37.990  31.137  30.905  1.00  0.00     0.037 A 
ATOM     28  C   UNL A   1      44.713  31.428  30.294  1.00  0.00     0.049 A 
ATOM     29  C   UNL A   1      39.133  31.909  31.445  1.00  0.00     0.074 A 
ATOM     30  C   UNL A   1      45.369  30.487  31.063  1.00  0.00     0.029 A 
ATOM     31  N   UNL A   1      43.941  32.146  31.172  1.00  0.00    -0.354 N 
ATOM     32  N   UNL A   1      39.829  31.561  32.489  1.00  0.00    -0.248 NA
ATOM     33  C   UNL A   1      39.762  32.882  30.565  1.00  0.00     0.031 C 
ATOM     34  C   UNL A   1      44.574  30.357  32.238  1.00  0.00     0.029 A 
ATOM     35  C   UNL A   1      43.517  31.261  32.131  1.00  0.00     0.049 A 
ATOM     36  H   UNL A   1      43.732  33.107  31.123  1.00  0.00     0.167 HD
ATOM     37  C   UNL A   1      41.128  31.935  32.185  1.00  0.00     0.074 A 
ATOM     38  C   UNL A   1      41.011  32.822  31.031  1.00  0.00     0.031 C 
ATOM     39  C   UNL A   1      42.199  31.281  32.721  1.00  0.00     0.037 A 
BRANCH  26  40
ATOM     40  C   UNL A   1      44.824  32.874  28.168  1.00  0.00     0.057 A 
ATOM     41  C   UNL A   1      43.971  33.995  28.148  1.00  0.00     0.134 A 
ATOM     42  C   UNL A   1      46.131  33.105  27.702  1.00  0.00     0.134 A 
ATOM     43  F   UNL A   1      42.735  33.949  28.665  1.00  0.00    -0.206 F 
ATOM     44  C   UNL A   1      44.377  35.248  27.682  1.00  0.00     0.040 A 
ATOM     45  C   UNL A   1      46.563  34.368  27.277  1.00  0.00     0.040 A 
ATOM     46  F   UNL A   1      47.047  32.125  27.706  1.00  0.00    -0.206 F 
ATOM     47  C   UNL A   1      45.685  35.444  27.265  1.00  0.00     0.006 A 
ENDBRANCH  26  40
BRANCH  27  48
ATOM     48  C   UNL A   1      36.674  31.776  30.666  1.00  0.00     0.057 A 
ATOM     49  C   UNL A   1      36.378  32.398  29.441  1.00  0.00     0.134 A 
ATOM     50  C   UNL A   1      35.806  32.064  31.730  1.00  0.00     0.134 A 
ATOM     51  F   UNL A   1      37.181  32.248  28.378  1.00  0.00    -0.206 F 
ATOM     52  C   UNL A   1      35.303  33.279  29.291  1.00  0.00     0.040 A 
ATOM     53  C   UNL A   1      34.728  32.949  31.593  1.00  0.00     0.040 A 
ATOM     54  F   UNL A   1      36.027  31.550  32.947  1.00  0.00    -0.206 F 
ATOM     55  C   UNL A   1      34.483  33.572  30.374  1.00  0.00     0.006 A 
ENDBRANCH  27  48
BRANCH  39  56
ATOM     56  C   UNL A   1      41.948  30.294  33.830  1.00  0.00     0.057 A 
ATOM     57  C   UNL A   1      42.184  30.693  35.151  1.00  0.00     0.134 A 
ATOM     58  C   UNL A   1      41.669  28.935  33.620  1.00  0.00     0.134 A 
ATOM     59  F   UNL A   1      42.510  31.966  35.424  1.00  0.00    -0.206 F 
ATOM     60  C   UNL A   1      42.155  29.785  36.212  1.00  0.00     0.040 A 
ATOM     61  C   UNL A   1      41.603  28.023  34.678  1.00  0.00     0.040 A 
ATOM     62  F   UNL A   1      41.521  28.439  32.386  1.00  0.00    -0.206 F 
ATOM     63  C   UNL A   1      41.859  28.444  35.978  1.00  0.00     0.006 A 
ENDBRANCH  39  56
ENDBRANCH  13  14
ENDBRANCH   6   8
ENDBRANCH   3   4
ENDBRANCH   2   3
ENDBRANCH   1   2
BRANCH   1  64
ATOM     64  N   UNL A   1      36.743  21.178  25.185  1.00  0.00    -0.356 N 
ATOM     65  C   UNL A   1      35.484  20.801  24.899  1.00  0.00     0.224 C 
ATOM     66  H   UNL A   1      37.241  20.546  25.750  1.00  0.00     0.163 HD
ATOM     67  O   UNL A   1      35.333  19.570  24.853  1.00  0.00    -0.275 OA
BRANCH  65  68
ATOM     68  C   UNL A   1      34.259  21.701  24.738  1.00  0.00     0.095 C 
ATOM     69  C   UNL A   1      33.825  22.297  26.082  1.00  0.00     0.041 C 
ATOM     70  C   UNL A   1      34.027  22.681  23.603  1.00  0.00     0.095 C 
ATOM     71  C   UNL A   1      34.353  23.660  26.354  1.00  0.00    -0.030 C 
ATOM     72  C   UNL A   1      34.569  24.113  23.913  1.00  0.00     0.041 C 
ATOM     73  C   UNL A   1      34.688  24.487  25.362  1.00  0.00    -0.030 C 
BRANCH  70  74
ATOM     74  C   UNL A   1      32.570  22.771  23.036  1.00  0.00     0.229 C 
ATOM     75  O   UNL A   1      32.248  21.977  22.133  1.00  0.00    -0.274 OA
ATOM     76  N   UNL A   1      31.515  23.431  23.596  1.00  0.00    -0.308 N 
ATOM     77  H   UNL A   1      30.656  22.980  23.424  1.00  0.00     0.171 HD
BRANCH  76  78
ATOM     78  C   UNL A   1      31.366  24.584  24.348  1.00  0.00     0.168 A 
ATOM     79  N   UNL A   1      31.546  25.831  23.905  1.00  0.00    -0.153 NA
ATOM     80  C   UNL A   1      30.893  24.634  25.681  1.00  0.00     0.080 A 
ATOM     81  N   UNL A   1      31.435  26.628  24.990  1.00  0.00    -0.265 N 
ATOM     82  C   UNL A   1      30.976  25.944  26.082  1.00  0.00     0.127 A 
ATOM     83  Br  UNL A   1      30.353  23.170  26.713  1.00  0.00    -0.045 Br
BRANCH  81  84
ATOM     84  C   UNL A   1      31.582  28.084  24.860  1.00  0.00     0.182 C 
BRANCH  84  85
ATOM     85  C   UNL A   1      32.606  28.698  25.781  1.00  0.00     0.009 A 
ATOM     86  C   UNL A   1      33.756  28.006  26.189  1.00  0.00     0.008 A 
ATOM     87  C   UNL A   1      32.419  29.992  26.280  1.00  0.00     0.128 A 
ATOM     88  C   UNL A   1      34.704  28.623  27.019  1.00  0.00     0.001 A 
ATOM     89  C   UNL A   1      33.378  30.628  27.070  1.00  0.00     0.039 A 
ATOM     90  F   UNL A   1      31.290  30.659  25.994  1.00  0.00    -0.207 F 
ATOM     91  C   UNL A   1      34.530  29.943  27.436  1.00  0.00     0.003 A 
ENDBRANCH  84  85
ENDBRANCH  81  84
ENDBRANCH  76  78
ENDBRANCH  70  74
ENDBRANCH  65  68
ENDBRANCH   1  64
TORSDOF 14
ENDMDL
MODEL 3
REMARK VINA RESULT:     -12.9      1.506      2.128
REMARK SMILES O=C(NCCCNC(=O)[C@H]1CC=CC[C@@H]1C(=O)Nc1nn(Cc2ccccc2F)cc1Br)c1ccc(-c2c3nc(c(-c4c(F)cccc4F)c4ccc([nH]4)c(-c4c(F)cccc4F)c4nc(c(-c5c(F)cccc5F)c5ccc2[nH]5)C=C4)C=C3)cc1
REMARK SMILES IDX 6 1 5 2 4 3 3 4 1 5 2 6 33 8 34 9 86 10 35 11 85 12 36 13
REMARK SMILES IDX 37 14 38 15 79 16 39 17 84 18 78 19 80 20 40 21 83 22 77 23
REMARK SMILES IDX 76 24 41 26 67 27 50 28 66 29 51 30 54 31 65 32 81 33 52 34
REMARK SMILES IDX 53 35 64 37 82 38 55 39 42 40 43 41 48 42 44 43 45 44 47 45
REMARK SMILES IDX 49 46 46 47 68 48 69 49 74 50 70 51 71 52 73 53 75 54 72 55
REMARK SMILES IDX 56 56 57 57 62 58 58 59 59 60 61 61 63 62 60 63 7 64 8 65
REMARK SMILES IDX 9 67 10 68 11 69 15 70 12 71 14 72 13 73 16 74 17 75 18 76
REMARK SMILES IDX 19 78 20 79 31 80 21 81 30 82 32 83 22 84 23 85 24 86 28 87
REMARK SMILES IDX 25 88 27 89 29 90 26 91
REMARK H PARENT 3 7 80 25 54 36 7 66 18 77
REMARK Flexibility Score: inf
ROOT
ATOM      1  C   UNL A   1      31.662  30.044  25.519  1.00  0.00     0.117 C 
ENDROOT
BRANCH   1   2
ATOM      2  C   UNL A   1      32.086  29.792  26.957  1.00  0.00     0.042 C 
BRANCH   2   3
ATOM      3  C   UNL A   1      33.551  30.115  27.242  1.00  0.00     0.118 C 
BRANCH   3   4
ATOM      4  N   UNL A   1      33.758  31.307  28.041  1.00  0.00    -0.352 N 
ATOM      5  O   UNL A   1      34.596  32.947  29.250  1.00  0.00    -0.269 OA
ATOM      6  C   UNL A   1      34.811  31.848  28.717  1.00  0.00     0.251 C 
ATOM      7  H   UNL A   1      32.943  31.856  28.112  1.00  0.00     0.163 HD
BRANCH   6   8
ATOM      8  C   UNL A   1      36.149  31.222  28.902  1.00  0.00     0.039 A 
ATOM      9  C   UNL A   1      37.321  31.875  29.285  1.00  0.00     0.014 A 
ATOM     10  C   UNL A   1      36.208  29.834  28.664  1.00  0.00     0.014 A 
ATOM     11  C   UNL A   1      38.529  31.176  29.360  1.00  0.00     0.010 A 
ATOM     12  C   UNL A   1      37.403  29.129  28.763  1.00  0.00     0.010 A 
ATOM     13  C   UNL A   1      38.576  29.805  29.083  1.00  0.00    -0.014 A 
BRANCH  13  14
ATOM     14  C   UNL A   1      39.836  29.084  29.281  1.00  0.00     0.031 A 
ATOM     15  C   UNL A   1      40.220  28.836  30.707  1.00  0.00     0.074 A 
ATOM     16  C   UNL A   1      40.537  28.497  28.288  1.00  0.00     0.049 A 
ATOM     17  N   UNL A   1      41.305  29.175  31.327  1.00  0.00    -0.248 NA
ATOM     18  C   UNL A   1      39.230  28.165  31.567  1.00  0.00     0.031 C 
ATOM     19  C   UNL A   1      40.172  28.337  26.879  1.00  0.00     0.029 A 
ATOM     20  N   UNL A   1      41.721  27.824  28.373  1.00  0.00    -0.354 N 
ATOM     21  C   UNL A   1      41.203  28.650  32.617  1.00  0.00     0.074 A 
ATOM     22  C   UNL A   1      39.870  28.116  32.736  1.00  0.00     0.031 C 
ATOM     23  C   UNL A   1      41.004  27.441  26.298  1.00  0.00     0.029 A 
ATOM     24  C   UNL A   1      42.045  27.080  27.246  1.00  0.00     0.049 A 
ATOM     25  H   UNL A   1      42.299  27.862  29.169  1.00  0.00     0.167 HD
ATOM     26  C   UNL A   1      42.263  28.564  33.468  1.00  0.00     0.037 A 
ATOM     27  C   UNL A   1      43.068  26.197  27.126  1.00  0.00     0.037 A 
ATOM     28  C   UNL A   1      43.348  29.411  33.063  1.00  0.00     0.049 A 
ATOM     29  C   UNL A   1      44.050  26.499  28.193  1.00  0.00     0.074 A 
ATOM     30  C   UNL A   1      43.515  30.776  32.935  1.00  0.00     0.029 A 
ATOM     31  N   UNL A   1      44.401  28.847  32.389  1.00  0.00    -0.354 N 
ATOM     32  N   UNL A   1      44.779  27.577  28.239  1.00  0.00    -0.248 NA
ATOM     33  C   UNL A   1      43.928  25.769  29.445  1.00  0.00     0.031 C 
ATOM     34  C   UNL A   1      44.336  30.936  31.782  1.00  0.00     0.029 A 
ATOM     35  C   UNL A   1      44.657  29.660  31.315  1.00  0.00     0.049 A 
ATOM     36  H   UNL A   1      44.880  28.021  32.630  1.00  0.00     0.167 HD
ATOM     37  C   UNL A   1      44.858  27.891  29.586  1.00  0.00     0.074 A 
ATOM     38  C   UNL A   1      44.393  26.695  30.285  1.00  0.00     0.031 C 
ATOM     39  C   UNL A   1      45.033  29.177  30.007  1.00  0.00     0.037 A 
BRANCH  26  40
ATOM     40  C   UNL A   1      42.417  27.524  34.544  1.00  0.00     0.057 A 
ATOM     41  C   UNL A   1      41.868  27.665  35.834  1.00  0.00     0.134 A 
ATOM     42  C   UNL A   1      42.891  26.237  34.231  1.00  0.00     0.134 A 
ATOM     43  F   UNL A   1      41.278  28.802  36.228  1.00  0.00    -0.206 F 
ATOM     44  C   UNL A   1      41.811  26.613  36.752  1.00  0.00     0.040 A 
ATOM     45  C   UNL A   1      42.797  25.164  35.126  1.00  0.00     0.040 A 
ATOM     46  F   UNL A   1      43.404  25.968  33.021  1.00  0.00    -0.206 F 
ATOM     47  C   UNL A   1      42.256  25.350  36.392  1.00  0.00     0.006 A 
ENDBRANCH  26  40
BRANCH  27  48
ATOM     48  C   UNL A   1      43.108  24.915  26.385  1.00  0.00     0.057 A 
ATOM     49  C   UNL A   1      42.378  23.797  26.824  1.00  0.00     0.134 A 
ATOM     50  C   UNL A   1      44.097  24.666  25.421  1.00  0.00     0.134 A 
ATOM     51  F   UNL A   1      41.457  23.909  27.791  1.00  0.00    -0.206 F 
ATOM     52  C   UNL A   1      42.638  22.504  26.357  1.00  0.00     0.040 A 
ATOM     53  C   UNL A   1      44.370  23.375  24.949  1.00  0.00     0.040 A 
ATOM     54  F   UNL A   1      44.872  25.662  24.969  1.00  0.00    -0.206 F 
ATOM     55  C   UNL A   1      43.650  22.287  25.429  1.00  0.00     0.006 A 
ENDBRANCH  27  48
BRANCH  39  56
ATOM     56  C   UNL A   1      45.370  30.222  28.978  1.00  0.00     0.057 A 
ATOM     57  C   UNL A   1      46.699  30.646  28.861  1.00  0.00     0.134 A 
ATOM     58  C   UNL A   1      44.411  30.942  28.249  1.00  0.00     0.134 A 
ATOM     59  F   UNL A   1      47.666  30.041  29.569  1.00  0.00    -0.206 F 
ATOM     60  C   UNL A   1      47.059  31.738  28.068  1.00  0.00     0.040 A 
ATOM     61  C   UNL A   1      44.762  32.015  27.425  1.00  0.00     0.040 A 
ATOM     62  F   UNL A   1      43.105  30.674  28.367  1.00  0.00    -0.206 F 
ATOM     63  C   UNL A   1      46.089  32.424  27.341  1.00  0.00     0.006 A 
ENDBRANCH  39  56
ENDBRANCH  13  14
ENDBRANCH   6   8
ENDBRANCH   3   4
ENDBRANCH   2   3
ENDBRANCH   1   2
BRANCH   1  64
ATOM     64  N   UNL A   1      32.680  29.703  24.563  1.00  0.00    -0.356 N 
ATOM     65  C   UNL A   1      32.740  28.706  23.663  1.00  0.00     0.224 C 
ATOM     66  H   UNL A   1      33.463  30.299  24.567  1.00  0.00     0.163 HD
ATOM     67  O   UNL A   1      33.393  28.992  22.647  1.00  0.00    -0.275 OA
BRANCH  65  68
ATOM     68  C   UNL A   1      32.198  27.285  23.814  1.00  0.00     0.095 C 
ATOM     69  C   UNL A   1      33.319  26.245  23.702  1.00  0.00     0.041 C 
ATOM     70  C   UNL A   1      31.140  26.845  24.811  1.00  0.00     0.095 C 
ATOM     71  C   UNL A   1      33.878  25.794  25.003  1.00  0.00    -0.030 C 
ATOM     72  C   UNL A   1      31.745  26.354  26.165  1.00  0.00     0.041 C 
ATOM     73  C   UNL A   1      33.155  25.841  26.124  1.00  0.00    -0.030 C 
BRANCH  70  74
ATOM     74  C   UNL A   1      30.072  25.822  24.299  1.00  0.00     0.229 C 
ATOM     75  O   UNL A   1      28.991  26.272  23.877  1.00  0.00    -0.274 OA
ATOM     76  N   UNL A   1      30.278  24.506  23.999  1.00  0.00    -0.308 N 
ATOM     77  H   UNL A   1      29.707  24.196  23.260  1.00  0.00     0.171 HD
BRANCH  76  78
ATOM     78  C   UNL A   1      31.101  23.506  24.489  1.00  0.00     0.168 A 
ATOM     79  N   UNL A   1      32.234  23.083  23.923  1.00  0.00    -0.153 NA
ATOM     80  C   UNL A   1      30.930  22.840  25.727  1.00  0.00     0.080 A 
ATOM     81  N   UNL A   1      32.633  22.015  24.647  1.00  0.00    -0.265 N 
ATOM     82  C   UNL A   1      31.899  21.871  25.793  1.00  0.00     0.127 A 
ATOM     83  Br  UNL A   1      29.577  23.171  26.976  1.00  0.00    -0.045 Br
BRANCH  81  84
ATOM     84  C   UNL A   1      33.864  21.296  24.294  1.00  0.00     0.182 C 
BRANCH  84  85
ATOM     85  C   UNL A   1      33.691  19.811  24.092  1.00  0.00     0.009 A 
ATOM     86  C   UNL A   1      32.528  19.264  23.530  1.00  0.00     0.008 A 
ATOM     87  C   UNL A   1      34.696  18.923  24.490  1.00  0.00     0.128 A 
ATOM     88  C   UNL A   1      32.416  17.880  23.325  1.00  0.00     0.001 A 
ATOM     89  C   UNL A   1      34.611  17.551  24.251  1.00  0.00     0.039 A 
ATOM     90  F   UNL A   1      35.786  19.391  25.118  1.00  0.00    -0.207 F 
ATOM     91  C   UNL A   1      33.468  17.027  23.658  1.00  0.00     0.003 A 
ENDBRANCH  84  85
ENDBRANCH  81  84
ENDBRANCH  76  78
ENDBRANCH  70  74
ENDBRANCH  65  68
ENDBRANCH   1  64
TORSDOF 14
ENDMDL
