MODEL 1
REMARK VINA RESULT:     -11.6      0.000      0.000
REMARK SMILES Cc1noc(C)c1[C@H](C)NC(=O)NC[C@@](C)(O)C(=O)NCCCNC(=O)c1ccc(-c2c3nc(c(-c4c(F)cccc4F)c4ccc([nH]4)c(-c4c(F)cccc4F)c4nc(c(-c5c(F)cccc5F)c5ccc2[nH]5)C=C4)C=C3)cc1
REMARK SMILES IDX 21 1 20 2 18 3 19 4 15 6 16 7 14 8 13 9 10 10 11 11 12 13
REMARK SMILES IDX 8 15 9 16 7 17 1 18 2 19 3 20 4 21 5 22 6 23 17 24 22 26
REMARK SMILES IDX 23 27 24 28 25 29 26 31 27 32 28 33 80 34 29 35 79 36 30 37
REMARK SMILES IDX 31 38 32 39 73 40 33 41 78 42 72 43 74 44 34 45 77 46 71 47
REMARK SMILES IDX 70 48 35 50 61 51 44 52 60 53 45 54 48 55 59 56 75 57 46 58
REMARK SMILES IDX 47 59 58 61 76 62 49 63 36 64 37 65 42 66 38 67 39 68 41 69
REMARK SMILES IDX 43 70 40 71 62 72 63 73 68 74 64 75 65 76 67 77 69 78 66 79
REMARK SMILES IDX 50 80 51 81 56 82 52 83 53 84 55 85 57 86 54 87
REMARK H PARENT 20 5 10 12 13 14 17 25 24 30 74 49 48 60
REMARK Flexibility Score: inf
ROOT
ATOM      1  C   UNL A   1      31.753  27.733  25.825  1.00  0.00     0.117 C 
ENDROOT
BRANCH   1   2
ATOM      2  N   UNL A   1      31.015  28.889  25.350  1.00  0.00    -0.353 N 
ATOM      3  C   UNL A   1      30.867  29.419  24.098  1.00  0.00     0.253 C 
ATOM      4  O   UNL A   1      30.048  30.337  24.019  1.00  0.00    -0.272 OA
ATOM      5  H   UNL A   1      30.536  29.379  26.056  1.00  0.00     0.163 HD
BRANCH   3   6
ATOM      6  C   UNL A   1      31.604  28.821  22.863  1.00  0.00     0.157 C 
ATOM      7  C   UNL A   1      33.109  28.855  23.177  1.00  0.00     0.055 C 
BRANCH   6   8
ATOM      8  C   UNL A   1      31.204  27.363  22.457  1.00  0.00     0.162 C 
BRANCH   8   9
ATOM      9  N   UNL A   1      31.832  26.753  21.303  1.00  0.00    -0.335 N 
ATOM     10  N   UNL A   1      32.656  24.632  21.975  1.00  0.00    -0.331 N 
ATOM     11  C   UNL A   1      32.489  25.607  21.073  1.00  0.00     0.315 C 
ATOM     12  H   UNL A   1      33.290  23.939  21.681  1.00  0.00     0.165 HD
ATOM     13  O   UNL A   1      32.956  25.434  19.945  1.00  0.00    -0.249 OA
ATOM     14  H   UNL A   1      31.760  27.313  20.496  1.00  0.00     0.165 HD
BRANCH  10  15
ATOM     15  C   UNL A   1      32.106  24.379  23.294  1.00  0.00     0.116 C 
ATOM     16  C   UNL A   1      30.665  23.896  23.140  1.00  0.00     0.036 C 
BRANCH  15  17
ATOM     17  C   UNL A   1      33.023  23.442  24.034  1.00  0.00     0.040 A 
ATOM     18  C   UNL A   1      34.366  25.191  25.451  1.00  0.00     0.071 C 
ATOM     19  C   UNL A   1      34.012  23.829  24.993  1.00  0.00     0.086 A 
ATOM     20  N   UNL A   1      34.633  22.771  25.524  1.00  0.00    -0.085 NA
ATOM     21  O   UNL A   1      34.065  21.671  24.931  1.00  0.00    -0.361 OA
ATOM     22  C   UNL A   1      33.100  22.061  24.055  1.00  0.00     0.139 A 
ATOM     23  C   UNL A   1      32.391  20.948  23.393  1.00  0.00     0.091 C 
ENDBRANCH  15  17
ENDBRANCH  10  15
ENDBRANCH   8   9
ENDBRANCH   6   8
BRANCH   6  24
ATOM     24  O   UNL A   1      31.357  29.641  21.704  1.00  0.00    -0.378 OA
ATOM     25  H   UNL A   1      31.922  30.428  21.738  1.00  0.00     0.212 HD
ENDBRANCH   6  24
ENDBRANCH   3   6
ENDBRANCH   1   2
BRANCH   1  26
ATOM     26  C   UNL A   1      32.407  27.952  27.185  1.00  0.00     0.042 C 
BRANCH  26  27
ATOM     27  C   UNL A   1      33.790  28.598  27.147  1.00  0.00     0.118 C 
BRANCH  27  28
ATOM     28  N   UNL A   1      33.813  29.952  27.687  1.00  0.00    -0.352 N 
ATOM     29  C   UNL A   1      34.777  30.646  28.372  1.00  0.00     0.251 C 
ATOM     30  H   UNL A   1      32.986  30.462  27.530  1.00  0.00     0.163 HD
ATOM     31  O   UNL A   1      34.484  31.739  28.865  1.00  0.00    -0.269 OA
BRANCH  29  32
ATOM     32  C   UNL A   1      36.143  30.111  28.562  1.00  0.00     0.039 A 
ATOM     33  C   UNL A   1      37.049  30.199  27.499  1.00  0.00     0.014 A 
ATOM     34  C   UNL A   1      36.532  29.478  29.744  1.00  0.00     0.014 A 
ATOM     35  C   UNL A   1      38.357  29.728  27.649  1.00  0.00     0.010 A 
ATOM     36  C   UNL A   1      37.858  29.083  29.922  1.00  0.00     0.010 A 
ATOM     37  C   UNL A   1      38.786  29.207  28.879  1.00  0.00    -0.014 A 
BRANCH  37  38
ATOM     38  C   UNL A   1      40.201  28.802  29.093  1.00  0.00     0.031 A 
ATOM     39  C   UNL A   1      41.193  29.763  29.689  1.00  0.00     0.074 A 
ATOM     40  C   UNL A   1      40.612  27.584  28.686  1.00  0.00     0.049 A 
ATOM     41  N   UNL A   1      42.481  29.614  29.877  1.00  0.00    -0.248 NA
ATOM     42  C   UNL A   1      40.674  31.075  30.108  1.00  0.00     0.031 C 
ATOM     43  C   UNL A   1      39.764  26.571  28.055  1.00  0.00     0.029 A 
ATOM     44  N   UNL A   1      41.852  26.994  28.731  1.00  0.00    -0.354 N 
ATOM     45  C   UNL A   1      42.927  30.814  30.418  1.00  0.00     0.074 A 
ATOM     46  C   UNL A   1      41.783  31.697  30.482  1.00  0.00     0.031 C 
ATOM     47  C   UNL A   1      40.501  25.481  27.791  1.00  0.00     0.029 A 
ATOM     48  C   UNL A   1      41.882  25.730  28.192  1.00  0.00     0.049 A 
ATOM     49  H   UNL A   1      42.645  27.436  29.113  1.00  0.00     0.167 HD
ATOM     50  C   UNL A   1      44.171  31.143  30.842  1.00  0.00     0.037 A 
ATOM     51  C   UNL A   1      42.907  24.873  28.026  1.00  0.00     0.037 A 
ATOM     52  C   UNL A   1      45.306  30.256  30.795  1.00  0.00     0.049 A 
ATOM     53  C   UNL A   1      44.281  25.269  28.489  1.00  0.00     0.074 A 
ATOM     54  C   UNL A   1      46.592  30.479  31.255  1.00  0.00     0.029 A 
ATOM     55  N   UNL A   1      45.291  28.981  30.252  1.00  0.00    -0.354 N 
ATOM     56  N   UNL A   1      44.673  26.381  29.060  1.00  0.00    -0.248 NA
ATOM     57  C   UNL A   1      45.356  24.286  28.287  1.00  0.00     0.031 C 
ATOM     58  C   UNL A   1      47.369  29.358  30.946  1.00  0.00     0.029 A 
ATOM     59  C   UNL A   1      46.553  28.414  30.343  1.00  0.00     0.049 A 
ATOM     60  H   UNL A   1      44.501  28.543  29.861  1.00  0.00     0.167 HD
ATOM     61  C   UNL A   1      46.029  26.222  29.313  1.00  0.00     0.074 A 
ATOM     62  C   UNL A   1      46.389  24.899  28.846  1.00  0.00     0.031 C 
ATOM     63  C   UNL A   1      46.898  27.094  29.881  1.00  0.00     0.037 A 
BRANCH  50  64
ATOM     64  C   UNL A   1      44.373  32.525  31.394  1.00  0.00     0.057 A 
ATOM     65  C   UNL A   1      44.734  33.604  30.576  1.00  0.00     0.134 A 
ATOM     66  C   UNL A   1      44.164  32.789  32.754  1.00  0.00     0.134 A 
ATOM     67  F   UNL A   1      44.958  33.419  29.267  1.00  0.00    -0.206 F 
ATOM     68  C   UNL A   1      44.910  34.889  31.095  1.00  0.00     0.040 A 
ATOM     69  C   UNL A   1      44.308  34.076  33.279  1.00  0.00     0.040 A 
ATOM     70  F   UNL A   1      43.807  31.807  33.593  1.00  0.00    -0.206 F 
ATOM     71  C   UNL A   1      44.689  35.128  32.449  1.00  0.00     0.006 A 
ENDBRANCH  50  64
BRANCH  51  72
ATOM     72  C   UNL A   1      42.671  23.543  27.405  1.00  0.00     0.057 A 
ATOM     73  C   UNL A   1      42.776  23.365  26.021  1.00  0.00     0.134 A 
ATOM     74  C   UNL A   1      42.327  22.426  28.175  1.00  0.00     0.134 A 
ATOM     75  F   UNL A   1      43.083  24.402  25.228  1.00  0.00    -0.206 F 
ATOM     76  C   UNL A   1      42.524  22.129  25.422  1.00  0.00     0.040 A 
ATOM     77  C   UNL A   1      42.099  21.178  27.592  1.00  0.00     0.040 A 
ATOM     78  F   UNL A   1      42.218  22.529  29.508  1.00  0.00    -0.206 F 
ATOM     79  C   UNL A   1      42.189  21.030  26.210  1.00  0.00     0.006 A 
ENDBRANCH  51  72
BRANCH  63  80
ATOM     80  C   UNL A   1      48.315  26.632  30.066  1.00  0.00     0.057 A 
ATOM     81  C   UNL A   1      49.316  26.913  29.127  1.00  0.00     0.134 A 
ATOM     82  C   UNL A   1      48.689  25.928  31.218  1.00  0.00     0.134 A 
ATOM     83  F   UNL A   1      49.021  27.573  27.996  1.00  0.00    -0.206 F 
ATOM     84  C   UNL A   1      50.633  26.491  29.316  1.00  0.00     0.040 A 
ATOM     85  C   UNL A   1      50.008  25.524  31.432  1.00  0.00     0.040 A 
ATOM     86  F   UNL A   1      47.781  25.631  32.161  1.00  0.00    -0.206 F 
ATOM     87  C   UNL A   1      50.983  25.799  30.475  1.00  0.00     0.006 A 
ENDBRANCH  63  80
ENDBRANCH  37  38
ENDBRANCH  29  32
ENDBRANCH  27  28
ENDBRANCH  26  27
ENDBRANCH   1  26
TORSDOF 15
ENDMDL
MODEL 2
REMARK VINA RESULT:     -11.2      1.197      2.175
REMARK SMILES Cc1noc(C)c1[C@H](C)NC(=O)NC[C@@](C)(O)C(=O)NCCCNC(=O)c1ccc(-c2c3nc(c(-c4c(F)cccc4F)c4ccc([nH]4)c(-c4c(F)cccc4F)c4nc(c(-c5c(F)cccc5F)c5ccc2[nH]5)C=C4)C=C3)cc1
REMARK SMILES IDX 21 1 20 2 18 3 19 4 15 6 16 7 14 8 13 9 10 10 11 11 12 13
REMARK SMILES IDX 8 15 9 16 7 17 1 18 2 19 3 20 4 21 5 22 6 23 17 24 22 26
REMARK SMILES IDX 23 27 24 28 25 29 26 31 27 32 28 33 80 34 29 35 79 36 30 37
REMARK SMILES IDX 31 38 32 39 73 40 33 41 78 42 72 43 74 44 34 45 77 46 71 47
REMARK SMILES IDX 70 48 35 50 61 51 44 52 60 53 45 54 48 55 59 56 75 57 46 58
REMARK SMILES IDX 47 59 58 61 76 62 49 63 36 64 37 65 42 66 38 67 39 68 41 69
REMARK SMILES IDX 43 70 40 71 62 72 63 73 68 74 64 75 65 76 67 77 69 78 66 79
REMARK SMILES IDX 50 80 51 81 56 82 52 83 53 84 55 85 57 86 54 87
REMARK H PARENT 20 5 10 12 13 14 17 25 24 30 74 49 48 60
REMARK Flexibility Score: inf
ROOT
ATOM      1  C   UNL A   1      32.873  28.209  24.702  1.00  0.00     0.117 C 
ENDROOT
BRANCH   1   2
ATOM      2  N   UNL A   1      31.845  28.635  23.769  1.00  0.00    -0.353 N 
ATOM      3  C   UNL A   1      31.270  28.004  22.701  1.00  0.00     0.253 C 
ATOM      4  O   UNL A   1      30.316  28.601  22.200  1.00  0.00    -0.272 OA
ATOM      5  H   UNL A   1      31.500  29.542  23.937  1.00  0.00     0.163 HD
BRANCH   3   6
ATOM      6  C   UNL A   1      31.733  26.590  22.240  1.00  0.00     0.157 C 
ATOM      7  C   UNL A   1      33.254  26.521  22.458  1.00  0.00     0.055 C 
BRANCH   6   8
ATOM      8  C   UNL A   1      31.063  25.373  22.961  1.00  0.00     0.162 C 
BRANCH   8   9
ATOM      9  N   UNL A   1      30.475  25.563  24.271  1.00  0.00    -0.335 N 
ATOM     10  N   UNL A   1      31.827  24.401  25.836  1.00  0.00    -0.331 N 
ATOM     11  C   UNL A   1      30.756  25.135  25.510  1.00  0.00     0.315 C 
ATOM     12  H   UNL A   1      31.790  24.053  26.756  1.00  0.00     0.165 HD
ATOM     13  O   UNL A   1      29.981  25.457  26.414  1.00  0.00    -0.249 OA
ATOM     14  H   UNL A   1      29.680  26.144  24.246  1.00  0.00     0.165 HD
BRANCH  10  15
ATOM     15  C   UNL A   1      33.029  24.007  25.125  1.00  0.00     0.116 C 
ATOM     16  C   UNL A   1      34.219  24.759  25.720  1.00  0.00     0.036 C 
BRANCH  15  17
ATOM     17  C   UNL A   1      33.141  22.507  25.148  1.00  0.00     0.040 A 
ATOM     18  C   UNL A   1      32.536  21.997  22.649  1.00  0.00     0.071 C 
ATOM     19  C   UNL A   1      32.925  21.638  24.031  1.00  0.00     0.086 A 
ATOM     20  N   UNL A   1      33.152  20.359  24.342  1.00  0.00    -0.085 NA
ATOM     21  O   UNL A   1      33.525  20.359  25.664  1.00  0.00    -0.361 OA
ATOM     22  C   UNL A   1      33.533  21.631  26.145  1.00  0.00     0.139 A 
ATOM     23  C   UNL A   1      33.966  21.749  27.551  1.00  0.00     0.091 C 
ENDBRANCH  15  17
ENDBRANCH  10  15
ENDBRANCH   8   9
ENDBRANCH   6   8
BRANCH   6  24
ATOM     24  O   UNL A   1      31.461  26.423  20.835  1.00  0.00    -0.378 OA
ATOM     25  H   UNL A   1      31.258  27.285  20.440  1.00  0.00     0.212 HD
ENDBRANCH   6  24
ENDBRANCH   3   6
ENDBRANCH   1   2
BRANCH   1  26
ATOM     26  C   UNL A   1      32.428  28.272  26.159  1.00  0.00     0.042 C 
BRANCH  26  27
ATOM     27  C   UNL A   1      33.540  28.555  27.168  1.00  0.00     0.118 C 
BRANCH  27  28
ATOM     28  N   UNL A   1      33.574  29.941  27.620  1.00  0.00    -0.352 N 
ATOM     29  C   UNL A   1      34.544  30.670  28.258  1.00  0.00     0.251 C 
ATOM     30  H   UNL A   1      32.751  30.446  27.432  1.00  0.00     0.163 HD
ATOM     31  O   UNL A   1      34.261  31.795  28.680  1.00  0.00    -0.269 OA
BRANCH  29  32
ATOM     32  C   UNL A   1      35.907  30.138  28.480  1.00  0.00     0.039 A 
ATOM     33  C   UNL A   1      36.822  30.183  27.421  1.00  0.00     0.014 A 
ATOM     34  C   UNL A   1      36.283  29.549  29.688  1.00  0.00     0.014 A 
ATOM     35  C   UNL A   1      38.127  29.713  27.600  1.00  0.00     0.010 A 
ATOM     36  C   UNL A   1      37.606  29.157  29.893  1.00  0.00     0.010 A 
ATOM     37  C   UNL A   1      38.544  29.238  28.853  1.00  0.00    -0.014 A 
BRANCH  37  38
ATOM     38  C   UNL A   1      39.956  28.837  29.095  1.00  0.00     0.031 A 
ATOM     39  C   UNL A   1      40.933  29.800  29.711  1.00  0.00     0.074 A 
ATOM     40  C   UNL A   1      40.379  27.621  28.694  1.00  0.00     0.049 A 
ATOM     41  N   UNL A   1      42.217  29.654  29.925  1.00  0.00    -0.248 NA
ATOM     42  C   UNL A   1      40.402  31.110  30.122  1.00  0.00     0.031 C 
ATOM     43  C   UNL A   1      39.546  26.607  28.044  1.00  0.00     0.029 A 
ATOM     44  N   UNL A   1      41.619  27.035  28.762  1.00  0.00    -0.354 N 
ATOM     45  C   UNL A   1      42.649  30.855  30.476  1.00  0.00     0.074 A 
ATOM     46  C   UNL A   1      41.501  31.734  30.519  1.00  0.00     0.031 C 
ATOM     47  C   UNL A   1      40.291  25.519  27.793  1.00  0.00     0.029 A 
ATOM     48  C   UNL A   1      41.663  25.772  28.222  1.00  0.00     0.049 A 
ATOM     49  H   UNL A   1      42.403  27.478  29.160  1.00  0.00     0.167 HD
ATOM     50  C   UNL A   1      43.884  31.187  30.925  1.00  0.00     0.037 A 
ATOM     51  C   UNL A   1      42.693  24.917  28.075  1.00  0.00     0.037 A 
ATOM     52  C   UNL A   1      45.021  30.304  30.899  1.00  0.00     0.049 A 
ATOM     53  C   UNL A   1      44.057  25.317  28.565  1.00  0.00     0.074 A 
ATOM     54  C   UNL A   1      46.298  30.529  31.385  1.00  0.00     0.029 A 
ATOM     55  N   UNL A   1      45.021  29.029  30.354  1.00  0.00    -0.354 N 
ATOM     56  N   UNL A   1      44.434  26.429  29.146  1.00  0.00    -0.248 NA
ATOM     57  C   UNL A   1      45.139  24.338  28.384  1.00  0.00     0.031 C 
ATOM     58  C   UNL A   1      47.083  29.411  31.089  1.00  0.00     0.029 A 
ATOM     59  C   UNL A   1      46.282  28.466  30.469  1.00  0.00     0.049 A 
ATOM     60  H   UNL A   1      44.240  28.589  29.947  1.00  0.00     0.167 HD
ATOM     61  C   UNL A   1      45.786  26.274  29.425  1.00  0.00     0.074 A 
ATOM     62  C   UNL A   1      46.159  24.953  28.963  1.00  0.00     0.031 C 
ATOM     63  C   UNL A   1      46.641  27.147  30.012  1.00  0.00     0.037 A 
BRANCH  50  64
ATOM     64  C   UNL A   1      44.070  32.568  31.484  1.00  0.00     0.057 A 
ATOM     65  C   UNL A   1      43.891  32.846  32.847  1.00  0.00     0.134 A 
ATOM     66  C   UNL A   1      44.471  33.627  30.658  1.00  0.00     0.134 A 
ATOM     67  F   UNL A   1      43.499  31.880  33.691  1.00  0.00    -0.206 F 
ATOM     68  C   UNL A   1      44.076  34.131  33.362  1.00  0.00     0.040 A 
ATOM     69  C   UNL A   1      44.687  34.909  31.168  1.00  0.00     0.040 A 
ATOM     70  F   UNL A   1      44.669  33.431  29.347  1.00  0.00    -0.206 F 
ATOM     71  C   UNL A   1      44.482  35.165  32.522  1.00  0.00     0.006 A 
ENDBRANCH  50  64
BRANCH  51  72
ATOM     72  C   UNL A   1      42.474  23.588  27.448  1.00  0.00     0.057 A 
ATOM     73  C   UNL A   1      42.584  23.417  26.063  1.00  0.00     0.134 A 
ATOM     74  C   UNL A   1      42.140  22.464  28.212  1.00  0.00     0.134 A 
ATOM     75  F   UNL A   1      42.883  24.461  25.275  1.00  0.00    -0.206 F 
ATOM     76  C   UNL A   1      42.347  22.182  25.457  1.00  0.00     0.040 A 
ATOM     77  C   UNL A   1      41.928  21.217  27.622  1.00  0.00     0.040 A 
ATOM     78  F   UNL A   1      42.026  22.559  29.545  1.00  0.00    -0.206 F 
ATOM     79  C   UNL A   1      42.023  21.075  26.239  1.00  0.00     0.006 A 
ENDBRANCH  51  72
BRANCH  63  80
ATOM     80  C   UNL A   1      48.055  26.689  30.224  1.00  0.00     0.057 A 
ATOM     81  C   UNL A   1      48.429  25.931  31.342  1.00  0.00     0.134 A 
ATOM     82  C   UNL A   1      49.047  26.980  29.279  1.00  0.00     0.134 A 
ATOM     83  F   UNL A   1      47.530  25.630  32.292  1.00  0.00    -0.206 F 
ATOM     84  C   UNL A   1      49.744  25.499  31.522  1.00  0.00     0.040 A 
ATOM     85  C   UNL A   1      50.359  26.529  29.434  1.00  0.00     0.040 A 
ATOM     86  F   UNL A   1      48.754  27.695  28.182  1.00  0.00    -0.206 F 
ATOM     87  C   UNL A   1      50.712  25.793  30.563  1.00  0.00     0.006 A 
ENDBRANCH  63  80
ENDBRANCH  37  38
ENDBRANCH  29  32
ENDBRANCH  27  28
ENDBRANCH  26  27
ENDBRANCH   1  26
TORSDOF 15
ENDMDL
MODEL 3
REMARK VINA RESULT:     -11.1      2.327      7.824
REMARK SMILES Cc1noc(C)c1[C@H](C)NC(=O)NC[C@@](C)(O)C(=O)NCCCNC(=O)c1ccc(-c2c3nc(c(-c4c(F)cccc4F)c4ccc([nH]4)c(-c4c(F)cccc4F)c4nc(c(-c5c(F)cccc5F)c5ccc2[nH]5)C=C4)C=C3)cc1
REMARK SMILES IDX 21 1 20 2 18 3 19 4 15 6 16 7 14 8 13 9 10 10 11 11 12 13
REMARK SMILES IDX 8 15 9 16 7 17 1 18 2 19 3 20 4 21 5 22 6 23 17 24 22 26
REMARK SMILES IDX 23 27 24 28 25 29 26 31 27 32 28 33 80 34 29 35 79 36 30 37
REMARK SMILES IDX 31 38 32 39 73 40 33 41 78 42 72 43 74 44 34 45 77 46 71 47
REMARK SMILES IDX 70 48 35 50 61 51 44 52 60 53 45 54 48 55 59 56 75 57 46 58
REMARK SMILES IDX 47 59 58 61 76 62 49 63 36 64 37 65 42 66 38 67 39 68 41 69
REMARK SMILES IDX 43 70 40 71 62 72 63 73 68 74 64 75 65 76 67 77 69 78 66 79
REMARK SMILES IDX 50 80 51 81 56 82 52 83 53 84 55 85 57 86 54 87
REMARK H PARENT 20 5 10 12 13 14 17 25 24 30 74 49 48 60
REMARK Flexibility Score: inf
ROOT
ATOM      1  C   UNL A   1      36.412  20.168  25.045  1.00  0.00     0.117 C 
ENDROOT
BRANCH   1   2
ATOM      2  N   UNL A   1      35.250  19.349  24.748  1.00  0.00    -0.353 N 
ATOM      3  C   UNL A   1      33.911  19.588  24.892  1.00  0.00     0.253 C 
ATOM      4  O   UNL A   1      33.177  18.726  24.407  1.00  0.00    -0.272 OA
ATOM      5  H   UNL A   1      35.465  18.464  24.377  1.00  0.00     0.163 HD
BRANCH   3   6
ATOM      6  C   UNL A   1      33.379  20.908  25.525  1.00  0.00     0.157 C 
ATOM      7  C   UNL A   1      34.342  22.030  25.104  1.00  0.00     0.055 C 
BRANCH   6   8
ATOM      8  C   UNL A   1      31.919  21.322  25.140  1.00  0.00     0.162 C 
BRANCH   8   9
ATOM      9  N   UNL A   1      31.029  21.816  26.171  1.00  0.00    -0.335 N 
ATOM     10  N   UNL A   1      30.830  24.161  25.879  1.00  0.00    -0.331 N 
ATOM     11  C   UNL A   1      30.572  23.023  26.533  1.00  0.00     0.315 C 
ATOM     12  H   UNL A   1      30.540  24.963  26.371  1.00  0.00     0.165 HD
ATOM     13  O   UNL A   1      29.849  23.082  27.531  1.00  0.00    -0.249 OA
ATOM     14  H   UNL A   1      30.676  21.094  26.740  1.00  0.00     0.165 HD
BRANCH  10  15
ATOM     15  C   UNL A   1      31.444  24.469  24.600  1.00  0.00     0.116 C 
ATOM     16  C   UNL A   1      30.490  24.049  23.484  1.00  0.00     0.036 C 
BRANCH  15  17
ATOM     17  C   UNL A   1      31.849  25.917  24.589  1.00  0.00     0.040 A 
ATOM     18  C   UNL A   1      34.356  25.664  25.313  1.00  0.00     0.071 C 
ATOM     19  C   UNL A   1      33.153  26.421  24.902  1.00  0.00     0.086 A 
ATOM     20  N   UNL A   1      33.225  27.746  24.751  1.00  0.00    -0.085 NA
ATOM     21  O   UNL A   1      31.978  28.142  24.333  1.00  0.00    -0.361 OA
ATOM     22  C   UNL A   1      31.160  27.060  24.223  1.00  0.00     0.139 A 
ATOM     23  C   UNL A   1      29.802  27.370  23.735  1.00  0.00     0.091 C 
ENDBRANCH  15  17
ENDBRANCH  10  15
ENDBRANCH   8   9
ENDBRANCH   6   8
BRANCH   6  24
ATOM     24  O   UNL A   1      33.398  20.801  26.962  1.00  0.00    -0.378 OA
ATOM     25  H   UNL A   1      33.225  19.882  27.221  1.00  0.00     0.212 HD
ENDBRANCH   6  24
ENDBRANCH   3   6
ENDBRANCH   1   2
BRANCH   1  26
ATOM     26  C   UNL A   1      37.732  19.418  24.896  1.00  0.00     0.042 C 
BRANCH  26  27
ATOM     27  C   UNL A   1      38.948  20.114  25.503  1.00  0.00     0.118 C 
BRANCH  27  28
ATOM     28  N   UNL A   1      40.070  19.215  25.747  1.00  0.00    -0.352 N 
ATOM     29  C   UNL A   1      41.348  19.446  26.183  1.00  0.00     0.251 C 
ATOM     30  H   UNL A   1      39.872  18.268  25.565  1.00  0.00     0.163 HD
ATOM     31  O   UNL A   1      42.164  18.520  26.153  1.00  0.00    -0.269 OA
BRANCH  29  32
ATOM     32  C   UNL A   1      41.784  20.776  26.662  1.00  0.00     0.039 A 
ATOM     33  C   UNL A   1      42.228  21.713  25.721  1.00  0.00     0.014 A 
ATOM     34  C   UNL A   1      41.816  21.101  28.019  1.00  0.00     0.014 A 
ATOM     35  C   UNL A   1      42.623  22.990  26.132  1.00  0.00     0.010 A 
ATOM     36  C   UNL A   1      42.131  22.399  28.421  1.00  0.00     0.010 A 
ATOM     37  C   UNL A   1      42.535  23.359  27.482  1.00  0.00    -0.014 A 
BRANCH  37  38
ATOM     38  C   UNL A   1      42.846  24.744  27.926  1.00  0.00     0.031 A 
ATOM     39  C   UNL A   1      44.264  25.158  28.209  1.00  0.00     0.074 A 
ATOM     40  C   UNL A   1      41.840  25.615  28.141  1.00  0.00     0.049 A 
ATOM     41  N   UNL A   1      44.717  26.295  28.678  1.00  0.00    -0.248 NA
ATOM     42  C   UNL A   1      45.310  24.156  27.955  1.00  0.00     0.031 C 
ATOM     43  C   UNL A   1      40.417  25.330  27.946  1.00  0.00     0.029 A 
ATOM     44  N   UNL A   1      41.857  26.915  28.582  1.00  0.00    -0.354 N 
ATOM     45  C   UNL A   1      46.093  26.137  28.790  1.00  0.00     0.074 A 
ATOM     46  C   UNL A   1      46.395  24.782  28.388  1.00  0.00     0.031 C 
ATOM     47  C   UNL A   1      39.702  26.425  28.246  1.00  0.00     0.029 A 
ATOM     48  C   UNL A   1      40.608  27.477  28.697  1.00  0.00     0.049 A 
ATOM     49  H   UNL A   1      42.687  27.400  28.799  1.00  0.00     0.167 HD
ATOM     50  C   UNL A   1      47.023  27.046  29.173  1.00  0.00     0.037 A 
ATOM     51  C   UNL A   1      40.231  28.696  29.128  1.00  0.00     0.037 A 
ATOM     52  C   UNL A   1      46.722  28.402  29.555  1.00  0.00     0.049 A 
ATOM     53  C   UNL A   1      41.281  29.679  29.564  1.00  0.00     0.074 A 
ATOM     54  C   UNL A   1      47.602  29.414  29.903  1.00  0.00     0.029 A 
ATOM     55  N   UNL A   1      45.446  28.934  29.647  1.00  0.00    -0.354 N 
ATOM     56  N   UNL A   1      42.583  29.538  29.600  1.00  0.00    -0.248 NA
ATOM     57  C   UNL A   1      40.807  30.995  30.016  1.00  0.00     0.031 C 
ATOM     58  C   UNL A   1      46.855  30.544  30.251  1.00  0.00     0.029 A 
ATOM     59  C   UNL A   1      45.513  30.253  30.069  1.00  0.00     0.049 A 
ATOM     60  H   UNL A   1      44.615  28.448  29.441  1.00  0.00     0.167 HD
ATOM     61  C   UNL A   1      43.086  30.753  30.048  1.00  0.00     0.074 A 
ATOM     62  C   UNL A   1      41.947  31.624  30.258  1.00  0.00     0.031 C 
ATOM     63  C   UNL A   1      44.374  31.114  30.267  1.00  0.00     0.037 A 
BRANCH  50  64
ATOM     64  C   UNL A   1      48.457  26.603  29.198  1.00  0.00     0.057 A 
ATOM     65  C   UNL A   1      49.325  26.840  28.123  1.00  0.00     0.134 A 
ATOM     66  C   UNL A   1      48.990  25.966  30.326  1.00  0.00     0.134 A 
ATOM     67  F   UNL A   1      48.877  27.437  27.008  1.00  0.00    -0.206 F 
ATOM     68  C   UNL A   1      50.660  26.433  28.156  1.00  0.00     0.040 A 
ATOM     69  C   UNL A   1      50.331  25.581  30.383  1.00  0.00     0.040 A 
ATOM     70  F   UNL A   1      48.220  25.716  31.396  1.00  0.00    -0.206 F 
ATOM     71  C   UNL A   1      51.168  25.808  29.293  1.00  0.00     0.006 A 
ENDBRANCH  50  64
BRANCH  51  72
ATOM     72  C   UNL A   1      38.792  29.063  29.154  1.00  0.00     0.057 A 
ATOM     73  C   UNL A   1      38.151  29.551  28.009  1.00  0.00     0.134 A 
ATOM     74  C   UNL A   1      38.027  28.947  30.320  1.00  0.00     0.134 A 
ATOM     75  F   UNL A   1      38.835  29.703  26.865  1.00  0.00    -0.206 F 
ATOM     76  C   UNL A   1      36.808  29.932  28.028  1.00  0.00     0.040 A 
ATOM     77  C   UNL A   1      36.676  29.298  30.347  1.00  0.00     0.040 A 
ATOM     78  F   UNL A   1      38.580  28.480  31.450  1.00  0.00    -0.206 F 
ATOM     79  C   UNL A   1      36.065  29.800  29.200  1.00  0.00     0.006 A 
ENDBRANCH  51  72
BRANCH  63  80
ATOM     80  C   UNL A   1      44.627  32.523  30.720  1.00  0.00     0.057 A 
ATOM     81  C   UNL A   1      44.719  32.861  32.077  1.00  0.00     0.134 A 
ATOM     82  C   UNL A   1      44.818  33.547  29.784  1.00  0.00     0.134 A 
ATOM     83  F   UNL A   1      44.533  31.928  33.024  1.00  0.00    -0.206 F 
ATOM     84  C   UNL A   1      44.968  34.172  32.486  1.00  0.00     0.040 A 
ATOM     85  C   UNL A   1      45.095  34.857  30.181  1.00  0.00     0.040 A 
ATOM     86  F   UNL A   1      44.750  33.291  28.469  1.00  0.00    -0.206 F 
ATOM     87  C   UNL A   1      45.164  35.173  31.536  1.00  0.00     0.006 A 
ENDBRANCH  63  80
ENDBRANCH  37  38
ENDBRANCH  29  32
ENDBRANCH  27  28
ENDBRANCH  26  27
ENDBRANCH   1  26
TORSDOF 15
ENDMDL
