MODEL 1
REMARK VINA RESULT:     -11.3      0.000      0.000
REMARK SMILES C[C@@](NC(=O)CN1CSCC1=O)(C(=O)NCCCNC(=O)c1ccc(-c2c3nc(c(-c4c(F)cccc4F)c4ccc([nH]4)c(-c4c(F)cccc4F)c4nc(c(-c5c(F)cccc5F)c5ccc2[nH]5)C=C4)C=C3)cc1)C(F)(F)F
REMARK SMILES IDX 16 1 15 2 13 3 14 4 2 6 1 7 3 8 4 9 5 11 6 12 7 13 8 14
REMARK SMILES IDX 11 15 9 16 10 17 12 18 76 19 77 20 78 21 79 22 17 23 18 24
REMARK SMILES IDX 19 25 20 26 21 28 22 29 23 30 75 31 24 32 74 33 25 34 26 35
REMARK SMILES IDX 27 36 68 37 28 38 73 39 67 40 69 41 29 42 72 43 66 44 65 45
REMARK SMILES IDX 30 47 56 48 39 49 55 50 40 51 43 52 54 53 70 54 41 55 42 56
REMARK SMILES IDX 53 58 71 59 44 60 31 61 32 62 37 63 33 64 34 65 36 66 38 67
REMARK SMILES IDX 35 68 57 69 58 70 63 71 59 72 60 73 62 74 64 75 61 76 45 77
REMARK SMILES IDX 46 78 51 79 47 80 48 81 50 82 52 83 49 84
REMARK H PARENT 15 5 3 10 19 27 69 46 43 57
REMARK Flexibility Score: inf
ROOT
ATOM      1  C   UNL A   1      37.017  20.881  25.143  1.00  0.00     0.117 C 
ENDROOT
BRANCH   1   2
ATOM      2  N   UNL A   1      37.144  21.854  24.066  1.00  0.00    -0.354 N 
ATOM      3  C   UNL A   1      36.317  22.893  23.720  1.00  0.00     0.254 C 
ATOM      4  O   UNL A   1      36.676  23.590  22.769  1.00  0.00    -0.272 OA
ATOM      5  H   UNL A   1      37.944  21.751  23.501  1.00  0.00     0.163 HD
BRANCH   3   6
ATOM      6  C   UNL A   1      34.943  23.063  24.381  1.00  0.00     0.212 C 
ATOM      7  C   UNL A   1      34.247  24.253  23.669  1.00  0.00     0.056 C 
BRANCH   6   8
ATOM      8  N   UNL A   1      34.090  21.846  24.212  1.00  0.00    -0.333 N 
ATOM      9  C   UNL A   1      32.805  21.556  24.559  1.00  0.00     0.240 C 
ATOM     10  H   UNL A   1      34.550  21.104  23.759  1.00  0.00     0.164 HD
ATOM     11  O   UNL A   1      32.300  20.609  23.945  1.00  0.00    -0.273 OA
BRANCH   9  12
ATOM     12  C   UNL A   1      31.949  22.378  25.541  1.00  0.00     0.220 C 
BRANCH  12  13
ATOM     13  N   UNL A   1      31.413  23.655  25.090  1.00  0.00    -0.323 N 
ATOM     14  C   UNL A   1      30.789  23.746  23.793  1.00  0.00     0.190 C 
ATOM     15  C   UNL A   1      30.999  24.603  26.018  1.00  0.00     0.233 C 
ATOM     16  S   UNL A   1      30.211  25.436  23.615  1.00  0.00    -0.130 SA
ATOM     17  C   UNL A   1      30.192  25.721  25.393  1.00  0.00     0.171 C 
ATOM     18  O   UNL A   1      31.269  24.560  27.213  1.00  0.00    -0.274 OA
ENDBRANCH  12  13
ENDBRANCH   9  12
ENDBRANCH   6   8
BRANCH   6  19
ATOM     19  C   UNL A   1      35.118  23.501  25.853  1.00  0.00     0.420 C 
ATOM     20  F   UNL A   1      36.361  23.948  26.130  1.00  0.00    -0.168 F 
ATOM     21  F   UNL A   1      34.273  24.534  26.123  1.00  0.00    -0.168 F 
ATOM     22  F   UNL A   1      34.822  22.526  26.736  1.00  0.00    -0.168 F 
ENDBRANCH   6  19
ENDBRANCH   3   6
ENDBRANCH   1   2
BRANCH   1  23
ATOM     23  C   UNL A   1      38.041  19.758  25.062  1.00  0.00     0.042 C 
BRANCH  23  24
ATOM     24  C   UNL A   1      39.355  20.066  25.764  1.00  0.00     0.118 C 
BRANCH  24  25
ATOM     25  N   UNL A   1      40.314  18.973  25.733  1.00  0.00    -0.352 N 
ATOM     26  C   UNL A   1      41.655  19.017  26.050  1.00  0.00     0.251 C 
ATOM     27  H   UNL A   1      39.963  18.097  25.453  1.00  0.00     0.163 HD
ATOM     28  O   UNL A   1      42.358  18.026  25.957  1.00  0.00    -0.269 OA
BRANCH  26  29
ATOM     29  C   UNL A   1      42.251  20.306  26.462  1.00  0.00     0.039 A 
ATOM     30  C   UNL A   1      42.789  21.127  25.469  1.00  0.00     0.014 A 
ATOM     31  C   UNL A   1      42.247  20.716  27.799  1.00  0.00     0.014 A 
ATOM     32  C   UNL A   1      43.252  22.398  25.805  1.00  0.00     0.010 A 
ATOM     33  C   UNL A   1      42.658  22.006  28.125  1.00  0.00     0.010 A 
ATOM     34  C   UNL A   1      43.152  22.861  27.128  1.00  0.00    -0.014 A 
BRANCH  34  35
ATOM     35  C   UNL A   1      43.523  24.256  27.459  1.00  0.00     0.031 A 
ATOM     36  C   UNL A   1      44.946  24.715  27.349  1.00  0.00     0.074 A 
ATOM     37  C   UNL A   1      42.566  25.101  27.888  1.00  0.00     0.049 A 
ATOM     38  N   UNL A   1      45.445  25.908  27.554  1.00  0.00    -0.248 NA
ATOM     39  C   UNL A   1      45.945  23.699  26.982  1.00  0.00     0.031 C 
ATOM     40  C   UNL A   1      41.160  24.749  28.094  1.00  0.00     0.029 A 
ATOM     41  N   UNL A   1      42.630  26.429  28.224  1.00  0.00    -0.354 N 
ATOM     42  C   UNL A   1      46.811  25.786  27.339  1.00  0.00     0.074 A 
ATOM     43  C   UNL A   1      47.070  24.394  27.040  1.00  0.00     0.031 C 
ATOM     44  C   UNL A   1      40.487  25.842  28.489  1.00  0.00     0.029 A 
ATOM     45  C   UNL A   1      41.416  26.964  28.580  1.00  0.00     0.049 A 
ATOM     46  H   UNL A   1      43.465  26.949  28.212  1.00  0.00     0.167 HD
ATOM     47  C   UNL A   1      47.758  26.754  27.368  1.00  0.00     0.037 A 
ATOM     48  C   UNL A   1      41.088  28.223  28.924  1.00  0.00     0.037 A 
ATOM     49  C   UNL A   1      47.493  28.138  27.657  1.00  0.00     0.049 A 
ATOM     50  C   UNL A   1      42.152  29.283  28.919  1.00  0.00     0.074 A 
ATOM     51  C   UNL A   1      48.377  29.202  27.674  1.00  0.00     0.029 A 
ATOM     52  N   UNL A   1      46.245  28.649  27.982  1.00  0.00    -0.354 N 
ATOM     53  N   UNL A   1      43.427  29.172  28.637  1.00  0.00    -0.248 NA
ATOM     54  C   UNL A   1      41.728  30.647  29.263  1.00  0.00     0.031 C 
ATOM     55  C   UNL A   1      47.668  30.354  28.036  1.00  0.00     0.029 A 
ATOM     56  C   UNL A   1      46.336  30.012  28.210  1.00  0.00     0.049 A 
ATOM     57  H   UNL A   1      45.416  28.121  28.042  1.00  0.00     0.167 HD
ATOM     58  C   UNL A   1      43.953  30.452  28.740  1.00  0.00     0.074 A 
ATOM     59  C   UNL A   1      42.856  31.326  29.100  1.00  0.00     0.031 C 
ATOM     60  C   UNL A   1      45.230  30.867  28.554  1.00  0.00     0.037 A 
BRANCH  47  61
ATOM     61  C   UNL A   1      49.170  26.339  27.072  1.00  0.00     0.057 A 
ATOM     62  C   UNL A   1      49.673  26.335  25.764  1.00  0.00     0.134 A 
ATOM     63  C   UNL A   1      50.038  25.958  28.101  1.00  0.00     0.134 A 
ATOM     64  F   UNL A   1      48.887  26.677  24.732  1.00  0.00    -0.206 F 
ATOM     65  C   UNL A   1      50.983  25.941  25.488  1.00  0.00     0.040 A 
ATOM     66  C   UNL A   1      51.357  25.584  27.839  1.00  0.00     0.040 A 
ATOM     67  F   UNL A   1      49.621  25.945  29.375  1.00  0.00    -0.206 F 
ATOM     68  C   UNL A   1      51.832  25.568  26.529  1.00  0.00     0.006 A 
ENDBRANCH  47  61
BRANCH  48  69
ATOM     69  C   UNL A   1      39.680  28.560  29.246  1.00  0.00     0.057 A 
ATOM     70  C   UNL A   1      38.821  29.074  28.269  1.00  0.00     0.134 A 
ATOM     71  C   UNL A   1      39.159  28.375  30.533  1.00  0.00     0.134 A 
ATOM     72  F   UNL A   1      39.268  29.285  27.023  1.00  0.00    -0.206 F 
ATOM     73  C   UNL A   1      37.498  29.411  28.563  1.00  0.00     0.040 A 
ATOM     74  C   UNL A   1      37.834  28.688  30.835  1.00  0.00     0.040 A 
ATOM     75  F   UNL A   1      39.930  27.875  31.510  1.00  0.00    -0.206 F 
ATOM     76  C   UNL A   1      37.001  29.215  29.849  1.00  0.00     0.006 A 
ENDBRANCH  48  69
BRANCH  60  77
ATOM     77  C   UNL A   1      45.497  32.334  28.700  1.00  0.00     0.057 A 
ATOM     78  C   UNL A   1      45.882  32.896  29.924  1.00  0.00     0.134 A 
ATOM     79  C   UNL A   1      45.397  33.188  27.595  1.00  0.00     0.134 A 
ATOM     80  F   UNL A   1      45.982  32.132  31.022  1.00  0.00    -0.206 F 
ATOM     81  C   UNL A   1      46.138  34.262  30.048  1.00  0.00     0.040 A 
ATOM     82  C   UNL A   1      45.672  34.552  27.702  1.00  0.00     0.040 A 
ATOM     83  F   UNL A   1      45.039  32.711  26.395  1.00  0.00    -0.206 F 
ATOM     84  C   UNL A   1      46.040  35.093  28.933  1.00  0.00     0.006 A 
ENDBRANCH  60  77
ENDBRANCH  34  35
ENDBRANCH  26  29
ENDBRANCH  24  25
ENDBRANCH  23  24
ENDBRANCH   1  23
TORSDOF 14
ENDMDL
MODEL 2
REMARK VINA RESULT:     -11.3      5.488     10.467
REMARK SMILES C[C@@](NC(=O)CN1CSCC1=O)(C(=O)NCCCNC(=O)c1ccc(-c2c3nc(c(-c4c(F)cccc4F)c4ccc([nH]4)c(-c4c(F)cccc4F)c4nc(c(-c5c(F)cccc5F)c5ccc2[nH]5)C=C4)C=C3)cc1)C(F)(F)F
REMARK SMILES IDX 16 1 15 2 13 3 14 4 2 6 1 7 3 8 4 9 5 11 6 12 7 13 8 14
REMARK SMILES IDX 11 15 9 16 10 17 12 18 76 19 77 20 78 21 79 22 17 23 18 24
REMARK SMILES IDX 19 25 20 26 21 28 22 29 23 30 75 31 24 32 74 33 25 34 26 35
REMARK SMILES IDX 27 36 68 37 28 38 73 39 67 40 69 41 29 42 72 43 66 44 65 45
REMARK SMILES IDX 30 47 56 48 39 49 55 50 40 51 43 52 54 53 70 54 41 55 42 56
REMARK SMILES IDX 53 58 71 59 44 60 31 61 32 62 37 63 33 64 34 65 36 66 38 67
REMARK SMILES IDX 35 68 57 69 58 70 63 71 59 72 60 73 62 74 64 75 61 76 45 77
REMARK SMILES IDX 46 78 51 79 47 80 48 81 50 82 52 83 49 84
REMARK H PARENT 15 5 3 10 19 27 69 46 43 57
REMARK Flexibility Score: inf
ROOT
ATOM      1  C   UNL A   1      32.023  30.604  26.276  1.00  0.00     0.117 C 
ENDROOT
BRANCH   1   2
ATOM      2  N   UNL A   1      31.691  29.614  27.293  1.00  0.00    -0.354 N 
ATOM      3  C   UNL A   1      31.778  28.245  27.246  1.00  0.00     0.254 C 
ATOM      4  O   UNL A   1      31.453  27.638  28.268  1.00  0.00    -0.272 OA
ATOM      5  H   UNL A   1      31.353  29.983  28.141  1.00  0.00     0.163 HD
BRANCH   3   6
ATOM      6  C   UNL A   1      32.103  27.519  25.935  1.00  0.00     0.212 C 
ATOM      7  C   UNL A   1      31.846  26.009  26.184  1.00  0.00     0.056 C 
BRANCH   6   8
ATOM      8  N   UNL A   1      31.220  27.970  24.815  1.00  0.00    -0.333 N 
ATOM      9  C   UNL A   1      31.078  27.566  23.523  1.00  0.00     0.240 C 
ATOM     10  H   UNL A   1      30.621  28.710  25.062  1.00  0.00     0.164 HD
ATOM     11  O   UNL A   1      30.011  27.891  22.988  1.00  0.00    -0.273 OA
BRANCH   9  12
ATOM     12  C   UNL A   1      32.073  26.667  22.765  1.00  0.00     0.220 C 
BRANCH  12  13
ATOM     13  N   UNL A   1      32.074  25.239  23.052  1.00  0.00    -0.323 N 
ATOM     14  C   UNL A   1      30.820  24.534  23.151  1.00  0.00     0.190 C 
ATOM     15  C   UNL A   1      33.170  24.459  22.705  1.00  0.00     0.233 C 
ATOM     16  S   UNL A   1      31.219  22.810  23.455  1.00  0.00    -0.130 SA
ATOM     17  C   UNL A   1      32.883  22.975  22.785  1.00  0.00     0.171 C 
ATOM     18  O   UNL A   1      34.263  24.912  22.385  1.00  0.00    -0.274 OA
ENDBRANCH  12  13
ENDBRANCH   9  12
ENDBRANCH   6   8
BRANCH   6  19
ATOM     19  C   UNL A   1      33.612  27.641  25.626  1.00  0.00     0.420 C 
ATOM     20  F   UNL A   1      33.886  28.554  24.670  1.00  0.00    -0.168 F 
ATOM     21  F   UNL A   1      34.274  28.050  26.743  1.00  0.00    -0.168 F 
ATOM     22  F   UNL A   1      34.174  26.472  25.256  1.00  0.00    -0.168 F 
ENDBRANCH   6  19
ENDBRANCH   3   6
ENDBRANCH   1   2
BRANCH   1  23
ATOM     23  C   UNL A   1      31.595  32.016  26.650  1.00  0.00     0.042 C 
BRANCH  23  24
ATOM     24  C   UNL A   1      32.712  32.868  27.233  1.00  0.00     0.118 C 
BRANCH  24  25
ATOM     25  N   UNL A   1      32.289  34.195  27.650  1.00  0.00    -0.352 N 
ATOM     26  C   UNL A   1      32.909  35.034  28.552  1.00  0.00     0.251 C 
ATOM     27  H   UNL A   1      31.462  34.535  27.240  1.00  0.00     0.163 HD
ATOM     28  O   UNL A   1      32.432  36.120  28.834  1.00  0.00    -0.269 OA
BRANCH  26  29
ATOM     29  C   UNL A   1      34.147  34.578  29.219  1.00  0.00     0.039 A 
ATOM     30  C   UNL A   1      34.036  34.013  30.491  1.00  0.00     0.014 A 
ATOM     31  C   UNL A   1      35.391  34.673  28.590  1.00  0.00     0.014 A 
ATOM     32  C   UNL A   1      35.165  33.466  31.101  1.00  0.00     0.010 A 
ATOM     33  C   UNL A   1      36.506  34.078  29.174  1.00  0.00     0.010 A 
ATOM     34  C   UNL A   1      36.398  33.459  30.428  1.00  0.00    -0.014 A 
BRANCH  34  35
ATOM     35  C   UNL A   1      37.564  32.763  31.020  1.00  0.00     0.031 A 
ATOM     36  C   UNL A   1      38.127  33.202  32.338  1.00  0.00     0.074 A 
ATOM     37  C   UNL A   1      38.131  31.747  30.341  1.00  0.00     0.049 A 
ATOM     38  N   UNL A   1      39.113  32.683  33.026  1.00  0.00    -0.248 NA
ATOM     39  C   UNL A   1      37.520  34.390  32.957  1.00  0.00     0.031 C 
ATOM     40  C   UNL A   1      37.708  31.274  29.021  1.00  0.00     0.029 A 
ATOM     41  N   UNL A   1      39.179  30.927  30.669  1.00  0.00    -0.354 N 
ATOM     42  C   UNL A   1      39.242  33.478  34.156  1.00  0.00     0.074 A 
ATOM     43  C   UNL A   1      38.271  34.544  34.037  1.00  0.00     0.031 C 
ATOM     44  C   UNL A   1      38.469  30.226  28.666  1.00  0.00     0.029 A 
ATOM     45  C   UNL A   1      39.441  29.965  29.723  1.00  0.00     0.049 A 
ATOM     46  H   UNL A   1      39.696  31.019  31.501  1.00  0.00     0.167 HD
ATOM     47  C   UNL A   1      40.081  33.319  35.207  1.00  0.00     0.037 A 
ATOM     48  C   UNL A   1      40.351  28.975  29.719  1.00  0.00     0.037 A 
ATOM     49  C   UNL A   1      41.040  32.252  35.324  1.00  0.00     0.049 A 
ATOM     50  C   UNL A   1      41.249  28.802  30.911  1.00  0.00     0.074 A 
ATOM     51  C   UNL A   1      41.908  31.981  36.366  1.00  0.00     0.029 A 
ATOM     52  N   UNL A   1      41.253  31.277  34.361  1.00  0.00    -0.354 N 
ATOM     53  N   UNL A   1      41.308  29.513  32.010  1.00  0.00    -0.248 NA
ATOM     54  C   UNL A   1      42.195  27.678  30.869  1.00  0.00     0.031 C 
ATOM     55  C   UNL A   1      42.669  30.857  36.021  1.00  0.00     0.029 A 
ATOM     56  C   UNL A   1      42.247  30.408  34.779  1.00  0.00     0.049 A 
ATOM     57  H   UNL A   1      40.770  31.212  33.506  1.00  0.00     0.167 HD
ATOM     58  C   UNL A   1      42.274  28.909  32.802  1.00  0.00     0.074 A 
ATOM     59  C   UNL A   1      42.767  27.766  32.062  1.00  0.00     0.031 C 
ATOM     60  C   UNL A   1      42.713  29.268  34.033  1.00  0.00     0.037 A 
BRANCH  47  61
ATOM     61  C   UNL A   1      39.990  34.326  36.316  1.00  0.00     0.057 A 
ATOM     62  C   UNL A   1      40.696  35.535  36.268  1.00  0.00     0.134 A 
ATOM     63  C   UNL A   1      39.177  34.096  37.432  1.00  0.00     0.134 A 
ATOM     64  F   UNL A   1      41.503  35.811  35.232  1.00  0.00    -0.206 F 
ATOM     65  C   UNL A   1      40.618  36.468  37.303  1.00  0.00     0.040 A 
ATOM     66  C   UNL A   1      39.073  35.031  38.462  1.00  0.00     0.040 A 
ATOM     67  F   UNL A   1      38.471  32.961  37.537  1.00  0.00    -0.206 F 
ATOM     68  C   UNL A   1      39.799  36.218  38.403  1.00  0.00     0.006 A 
ENDBRANCH  47  61
BRANCH  48  69
ATOM     69  C   UNL A   1      40.418  28.035  28.573  1.00  0.00     0.057 A 
ATOM     70  C   UNL A   1      41.152  28.351  27.424  1.00  0.00     0.134 A 
ATOM     71  C   UNL A   1      39.757  26.802  28.598  1.00  0.00     0.134 A 
ATOM     72  F   UNL A   1      41.795  29.525  27.338  1.00  0.00    -0.206 F 
ATOM     73  C   UNL A   1      41.211  27.484  26.332  1.00  0.00     0.040 A 
ATOM     74  C   UNL A   1      39.824  25.916  27.522  1.00  0.00     0.040 A 
ATOM     75  F   UNL A   1      39.046  26.436  29.675  1.00  0.00    -0.206 F 
ATOM     76  C   UNL A   1      40.547  26.260  26.381  1.00  0.00     0.006 A 
ENDBRANCH  48  69
BRANCH  60  77
ATOM     77  C   UNL A   1      43.752  28.394  34.667  1.00  0.00     0.057 A 
ATOM     78  C   UNL A   1      45.122  28.612  34.470  1.00  0.00     0.134 A 
ATOM     79  C   UNL A   1      43.377  27.340  35.510  1.00  0.00     0.134 A 
ATOM     80  F   UNL A   1      45.544  29.597  33.663  1.00  0.00    -0.206 F 
ATOM     81  C   UNL A   1      46.082  27.798  35.072  1.00  0.00     0.040 A 
ATOM     82  C   UNL A   1      44.329  26.534  36.135  1.00  0.00     0.040 A 
ATOM     83  F   UNL A   1      42.082  27.083  35.744  1.00  0.00    -0.206 F 
ATOM     84  C   UNL A   1      45.686  26.759  35.913  1.00  0.00     0.006 A 
ENDBRANCH  60  77
ENDBRANCH  34  35
ENDBRANCH  26  29
ENDBRANCH  24  25
ENDBRANCH  23  24
ENDBRANCH   1  23
TORSDOF 14
ENDMDL
MODEL 3
REMARK VINA RESULT:     -11.2      5.533     10.369
REMARK SMILES C[C@@](NC(=O)CN1CSCC1=O)(C(=O)NCCCNC(=O)c1ccc(-c2c3nc(c(-c4c(F)cccc4F)c4ccc([nH]4)c(-c4c(F)cccc4F)c4nc(c(-c5c(F)cccc5F)c5ccc2[nH]5)C=C4)C=C3)cc1)C(F)(F)F
REMARK SMILES IDX 16 1 15 2 13 3 14 4 2 6 1 7 3 8 4 9 5 11 6 12 7 13 8 14
REMARK SMILES IDX 11 15 9 16 10 17 12 18 76 19 77 20 78 21 79 22 17 23 18 24
REMARK SMILES IDX 19 25 20 26 21 28 22 29 23 30 75 31 24 32 74 33 25 34 26 35
REMARK SMILES IDX 27 36 68 37 28 38 73 39 67 40 69 41 29 42 72 43 66 44 65 45
REMARK SMILES IDX 30 47 56 48 39 49 55 50 40 51 43 52 54 53 70 54 41 55 42 56
REMARK SMILES IDX 53 58 71 59 44 60 31 61 32 62 37 63 33 64 34 65 36 66 38 67
REMARK SMILES IDX 35 68 57 69 58 70 63 71 59 72 60 73 62 74 64 75 61 76 45 77
REMARK SMILES IDX 46 78 51 79 47 80 48 81 50 82 52 83 49 84
REMARK H PARENT 15 5 3 10 19 27 69 46 43 57
REMARK Flexibility Score: inf
ROOT
ATOM      1  C   UNL A   1      31.980  30.328  26.382  1.00  0.00     0.117 C 
ENDROOT
BRANCH   1   2
ATOM      2  N   UNL A   1      32.885  30.013  25.284  1.00  0.00    -0.354 N 
ATOM      3  C   UNL A   1      32.669  29.258  24.159  1.00  0.00     0.254 C 
ATOM      4  O   UNL A   1      33.609  29.171  23.365  1.00  0.00    -0.272 OA
ATOM      5  H   UNL A   1      33.787  30.401  25.361  1.00  0.00     0.163 HD
BRANCH   3   6
ATOM      6  C   UNL A   1      31.385  28.437  23.992  1.00  0.00     0.212 C 
ATOM      7  C   UNL A   1      31.718  27.276  23.018  1.00  0.00     0.056 C 
BRANCH   6   8
ATOM      8  N   UNL A   1      30.928  27.848  25.290  1.00  0.00    -0.333 N 
ATOM      9  C   UNL A   1      31.454  26.904  26.119  1.00  0.00     0.240 C 
ATOM     10  H   UNL A   1      30.074  28.217  25.608  1.00  0.00     0.164 HD
ATOM     11  O   UNL A   1      31.020  26.926  27.276  1.00  0.00    -0.273 OA
BRANCH   9  12
ATOM     12  C   UNL A   1      32.592  25.936  25.745  1.00  0.00     0.220 C 
BRANCH  12  13
ATOM     13  N   UNL A   1      32.241  24.592  25.307  1.00  0.00    -0.323 N 
ATOM     14  C   UNL A   1      32.832  24.060  24.103  1.00  0.00     0.190 C 
ATOM     15  C   UNL A   1      31.820  23.645  26.232  1.00  0.00     0.233 C 
ATOM     16  S   UNL A   1      32.211  22.385  23.919  1.00  0.00    -0.130 SA
ATOM     17  C   UNL A   1      31.799  22.241  25.667  1.00  0.00     0.171 C 
ATOM     18  O   UNL A   1      31.481  23.909  27.380  1.00  0.00    -0.274 OA
ENDBRANCH  12  13
ENDBRANCH   9  12
ENDBRANCH   6   8
BRANCH   6  19
ATOM     19  C   UNL A   1      30.307  29.284  23.280  1.00  0.00     0.420 C 
ATOM     20  F   UNL A   1      30.686  29.706  22.055  1.00  0.00    -0.168 F 
ATOM     21  F   UNL A   1      29.188  28.531  23.093  1.00  0.00    -0.168 F 
ATOM     22  F   UNL A   1      29.925  30.364  23.991  1.00  0.00    -0.168 F 
ENDBRANCH   6  19
ENDBRANCH   3   6
ENDBRANCH   1   2
BRANCH   1  23
ATOM     23  C   UNL A   1      31.669  31.813  26.498  1.00  0.00     0.042 C 
BRANCH  23  24
ATOM     24  C   UNL A   1      32.728  32.611  27.245  1.00  0.00     0.118 C 
BRANCH  24  25
ATOM     25  N   UNL A   1      32.307  33.951  27.619  1.00  0.00    -0.352 N 
ATOM     26  C   UNL A   1      32.931  34.822  28.487  1.00  0.00     0.251 C 
ATOM     27  H   UNL A   1      31.476  34.276  27.202  1.00  0.00     0.163 HD
ATOM     28  O   UNL A   1      32.456  35.916  28.733  1.00  0.00    -0.269 OA
BRANCH  26  29
ATOM     29  C   UNL A   1      34.174  34.391  29.161  1.00  0.00     0.039 A 
ATOM     30  C   UNL A   1      34.059  33.701  30.370  1.00  0.00     0.014 A 
ATOM     31  C   UNL A   1      35.430  34.630  28.597  1.00  0.00     0.014 A 
ATOM     32  C   UNL A   1      35.201  33.177  30.974  1.00  0.00     0.010 A 
ATOM     33  C   UNL A   1      36.564  34.060  29.170  1.00  0.00     0.010 A 
ATOM     34  C   UNL A   1      36.455  33.318  30.356  1.00  0.00    -0.014 A 
BRANCH  34  35
ATOM     35  C   UNL A   1      37.646  32.652  30.931  1.00  0.00     0.031 A 
ATOM     36  C   UNL A   1      38.236  33.123  32.226  1.00  0.00     0.074 A 
ATOM     37  C   UNL A   1      38.211  31.631  30.257  1.00  0.00     0.049 A 
ATOM     38  N   UNL A   1      39.247  32.631  32.898  1.00  0.00    -0.248 NA
ATOM     39  C   UNL A   1      37.627  34.313  32.839  1.00  0.00     0.031 C 
ATOM     40  C   UNL A   1      37.762  31.128  28.957  1.00  0.00     0.029 A 
ATOM     41  N   UNL A   1      39.280  30.833  30.572  1.00  0.00    -0.354 N 
ATOM     42  C   UNL A   1      39.392  33.449  34.010  1.00  0.00     0.074 A 
ATOM     43  C   UNL A   1      38.402  34.498  33.896  1.00  0.00     0.031 C 
ATOM     44  C   UNL A   1      38.530  30.084  28.602  1.00  0.00     0.029 A 
ATOM     45  C   UNL A   1      39.532  29.858  29.638  1.00  0.00     0.049 A 
ATOM     46  H   UNL A   1      39.816  30.948  31.389  1.00  0.00     0.167 HD
ATOM     47  C   UNL A   1      40.260  33.322  35.042  1.00  0.00     0.037 A 
ATOM     48  C   UNL A   1      40.457  28.881  29.629  1.00  0.00     0.037 A 
ATOM     49  C   UNL A   1      41.237  32.272  35.154  1.00  0.00     0.049 A 
ATOM     50  C   UNL A   1      41.387  28.743  30.800  1.00  0.00     0.074 A 
ATOM     51  C   UNL A   1      42.136  32.033  36.178  1.00  0.00     0.029 A 
ATOM     52  N   UNL A   1      41.441  31.282  34.203  1.00  0.00    -0.354 N 
ATOM     53  N   UNL A   1      41.464  29.476  31.884  1.00  0.00    -0.248 NA
ATOM     54  C   UNL A   1      42.349  27.633  30.754  1.00  0.00     0.031 C 
ATOM     55  C   UNL A   1      42.904  30.914  35.834  1.00  0.00     0.029 A 
ATOM     56  C   UNL A   1      42.458  30.436  34.612  1.00  0.00     0.049 A 
ATOM     57  H   UNL A   1      40.938  31.194  33.362  1.00  0.00     0.167 HD
ATOM     58  C   UNL A   1      42.458  28.901  32.663  1.00  0.00     0.074 A 
ATOM     59  C   UNL A   1      42.949  27.752  31.931  1.00  0.00     0.031 C 
ATOM     60  C   UNL A   1      42.923  29.290  33.875  1.00  0.00     0.037 A 
BRANCH  47  61
ATOM     61  C   UNL A   1      40.181  34.349  36.134  1.00  0.00     0.057 A 
ATOM     62  C   UNL A   1      40.913  35.542  36.073  1.00  0.00     0.134 A 
ATOM     63  C   UNL A   1      39.354  34.152  37.247  1.00  0.00     0.134 A 
ATOM     64  F   UNL A   1      41.733  35.784  35.039  1.00  0.00    -0.206 F 
ATOM     65  C   UNL A   1      40.846  36.492  37.093  1.00  0.00     0.040 A 
ATOM     66  C   UNL A   1      39.262  35.106  38.262  1.00  0.00     0.040 A 
ATOM     67  F   UNL A   1      38.624  33.034  37.364  1.00  0.00    -0.206 F 
ATOM     68  C   UNL A   1      40.014  36.277  38.190  1.00  0.00     0.006 A 
ENDBRANCH  47  61
BRANCH  48  69
ATOM     69  C   UNL A   1      40.510  27.921  28.499  1.00  0.00     0.057 A 
ATOM     70  C   UNL A   1      41.258  28.201  27.350  1.00  0.00     0.134 A 
ATOM     71  C   UNL A   1      39.819  26.704  28.540  1.00  0.00     0.134 A 
ATOM     72  F   UNL A   1      41.929  29.358  27.249  1.00  0.00    -0.206 F 
ATOM     73  C   UNL A   1      41.303  27.315  26.273  1.00  0.00     0.040 A 
ATOM     74  C   UNL A   1      39.873  25.799  27.479  1.00  0.00     0.040 A 
ATOM     75  F   UNL A   1      39.093  26.373  29.618  1.00  0.00    -0.206 F 
ATOM     76  C   UNL A   1      40.611  26.108  26.337  1.00  0.00     0.006 A 
ENDBRANCH  48  69
BRANCH  60  77
ATOM     77  C   UNL A   1      43.991  28.443  34.498  1.00  0.00     0.057 A 
ATOM     78  C   UNL A   1      43.682  27.337  35.301  1.00  0.00     0.134 A 
ATOM     79  C   UNL A   1      45.344  28.719  34.265  1.00  0.00     0.134 A 
ATOM     80  F   UNL A   1      42.405  27.029  35.572  1.00  0.00    -0.206 F 
ATOM     81  C   UNL A   1      44.684  26.548  35.868  1.00  0.00     0.040 A 
ATOM     82  C   UNL A   1      46.353  27.925  34.809  1.00  0.00     0.040 A 
ATOM     83  F   UNL A   1      45.704  29.760  33.501  1.00  0.00    -0.206 F 
ATOM     84  C   UNL A   1      46.024  26.837  35.617  1.00  0.00     0.006 A 
ENDBRANCH  60  77
ENDBRANCH  34  35
ENDBRANCH  26  29
ENDBRANCH  24  25
ENDBRANCH  23  24
ENDBRANCH   1  23
TORSDOF 14
ENDMDL
