MODEL 1
REMARK VINA RESULT:     -11.0      0.000      0.000
REMARK SMILES CCc1nn(C)c(N[C@@](C)(CC)C(=O)NCCCNC(=O)c2ccc(-c3c4nc(c(-c5c(F)cccc5F)c5ccc([nH]5)c(-c5c(F)cccc5F)c5nc(c(-c6c(F)cccc6F)c6ccc3[nH]6)C=C5)C=C4)cc2)c1[N+](=O)[O-]
REMARK SMILES IDX 16 1 15 2 13 3 14 4 9 6 10 7 8 8 7 10 3 11 4 12 76 13 5 14
REMARK SMILES IDX 6 15 2 16 1 17 77 18 78 19 79 20 11 21 12 22 17 23 18 24
REMARK SMILES IDX 19 25 20 26 21 28 22 29 23 30 75 31 24 32 74 33 25 34 26 35
REMARK SMILES IDX 27 36 68 37 28 38 73 39 67 40 69 41 29 42 72 43 66 44 65 45
REMARK SMILES IDX 30 47 56 48 39 49 55 50 40 51 43 52 54 53 70 54 41 55 42 56
REMARK SMILES IDX 53 58 71 59 44 60 31 61 32 62 37 63 33 64 34 65 36 66 38 67
REMARK SMILES IDX 35 68 57 69 58 70 63 71 59 72 60 73 62 74 64 75 61 76 45 77
REMARK SMILES IDX 46 78 51 79 47 80 48 81 50 82 52 83 49 84
REMARK H PARENT 15 5 8 9 19 27 69 46 43 57
REMARK Flexibility Score: inf
ROOT
ATOM      1  C   UNL A   1      31.564  30.475  25.878  1.00  0.00     0.117 C 
ENDROOT
BRANCH   1   2
ATOM      2  N   UNL A   1      30.969  30.504  24.560  1.00  0.00    -0.354 N 
ATOM      3  C   UNL A   1      30.337  29.514  23.880  1.00  0.00     0.245 C 
ATOM      4  O   UNL A   1      29.284  29.855  23.322  1.00  0.00    -0.272 OA
ATOM      5  H   UNL A   1      31.031  31.367  24.089  1.00  0.00     0.163 HD
BRANCH   3   6
ATOM      6  C   UNL A   1      30.833  28.046  23.807  1.00  0.00     0.115 C 
ATOM      7  C   UNL A   1      30.489  27.650  22.343  1.00  0.00     0.045 C 
BRANCH   6   8
ATOM      8  N   UNL A   1      32.315  27.924  23.928  1.00  0.00    -0.351 N 
ATOM      9  H   UNL A   1      32.807  28.770  23.821  1.00  0.00     0.163 HD
BRANCH   8  10
ATOM     10  C   UNL A   1      33.114  26.825  24.166  1.00  0.00     0.205 A 
ATOM     11  C   UNL A   1      34.281  24.899  24.433  1.00  0.00     0.142 A 
ATOM     12  N   UNL A   1      34.425  25.557  25.585  1.00  0.00    -0.169 NA
ATOM     13  C   UNL A   1      33.522  25.659  23.506  1.00  0.00     0.334 A 
ATOM     14  N   UNL A   1      33.739  26.703  25.406  1.00  0.00    -0.246 N 
ATOM     15  C   UNL A   1      33.767  27.633  26.512  1.00  0.00     0.176 C 
BRANCH  11  16
ATOM     16  C   UNL A   1      34.877  23.527  24.307  1.00  0.00     0.062 C 
ATOM     17  C   UNL A   1      36.396  23.473  24.366  1.00  0.00     0.011 C 
ENDBRANCH  11  16
BRANCH  13  18
ATOM     18  N   UNL A   1      33.276  25.217  22.175  1.00  0.00     0.068 N 
ATOM     19  O   UNL A   1      33.653  25.952  21.252  1.00  0.00    -0.258 OA
ATOM     20  O   UNL A   1      32.595  24.191  22.042  1.00  0.00    -0.258 OA
ENDBRANCH  13  18
ENDBRANCH   8  10
ENDBRANCH   6   8
BRANCH   6  21
ATOM     21  C   UNL A   1      30.201  26.967  24.725  1.00  0.00     0.035 C 
ATOM     22  C   UNL A   1      28.905  26.328  24.251  1.00  0.00     0.007 C 
ENDBRANCH   6  21
ENDBRANCH   3   6
ENDBRANCH   1   2
BRANCH   1  23
ATOM     23  C   UNL A   1      31.365  31.767  26.655  1.00  0.00     0.042 C 
BRANCH  23  24
ATOM     24  C   UNL A   1      32.662  32.426  27.119  1.00  0.00     0.118 C 
BRANCH  24  25
ATOM     25  N   UNL A   1      32.487  33.827  27.489  1.00  0.00    -0.352 N 
ATOM     26  C   UNL A   1      33.085  34.574  28.473  1.00  0.00     0.251 C 
ATOM     27  H   UNL A   1      31.829  34.317  26.945  1.00  0.00     0.163 HD
ATOM     28  O   UNL A   1      32.643  35.686  28.751  1.00  0.00    -0.269 OA
BRANCH  26  29
ATOM     29  C   UNL A   1      34.246  34.041  29.216  1.00  0.00     0.039 A 
ATOM     30  C   UNL A   1      34.029  33.134  30.257  1.00  0.00     0.014 A 
ATOM     31  C   UNL A   1      35.544  34.448  28.903  1.00  0.00     0.014 A 
ATOM     32  C   UNL A   1      35.117  32.576  30.929  1.00  0.00     0.010 A 
ATOM     33  C   UNL A   1      36.629  33.825  29.510  1.00  0.00     0.010 A 
ATOM     34  C   UNL A   1      36.429  32.884  30.531  1.00  0.00    -0.014 A 
BRANCH  34  35
ATOM     35  C   UNL A   1      37.607  32.241  31.168  1.00  0.00     0.031 A 
ATOM     36  C   UNL A   1      38.345  31.143  30.452  1.00  0.00     0.074 A 
ATOM     37  C   UNL A   1      37.962  32.589  32.420  1.00  0.00     0.049 A 
ATOM     38  N   UNL A   1      39.328  30.391  30.880  1.00  0.00    -0.248 NA
ATOM     39  C   UNL A   1      37.899  30.826  29.086  1.00  0.00     0.031 C 
ATOM     40  C   UNL A   1      37.301  33.609  33.237  1.00  0.00     0.029 A 
ATOM     41  N   UNL A   1      38.961  32.112  33.232  1.00  0.00    -0.354 N 
ATOM     42  C   UNL A   1      39.604  29.507  29.844  1.00  0.00     0.074 A 
ATOM     43  C   UNL A   1      38.649  29.775  28.793  1.00  0.00     0.031 C 
ATOM     44  C   UNL A   1      37.924  33.695  34.423  1.00  0.00     0.029 A 
ATOM     45  C   UNL A   1      38.998  32.707  34.470  1.00  0.00     0.049 A 
ATOM     46  H   UNL A   1      39.592  31.409  32.953  1.00  0.00     0.167 HD
ATOM     47  C   UNL A   1      40.580  28.571  29.769  1.00  0.00     0.037 A 
ATOM     48  C   UNL A   1      39.796  32.474  35.529  1.00  0.00     0.037 A 
ATOM     49  C   UNL A   1      41.542  28.321  30.809  1.00  0.00     0.049 A 
ATOM     50  C   UNL A   1      40.859  31.415  35.426  1.00  0.00     0.074 A 
ATOM     51  C   UNL A   1      42.604  27.435  30.806  1.00  0.00     0.029 A 
ATOM     52  N   UNL A   1      41.555  28.958  32.041  1.00  0.00    -0.354 N 
ATOM     53  N   UNL A   1      41.152  30.630  34.417  1.00  0.00    -0.248 NA
ATOM     54  C   UNL A   1      41.708  31.212  36.608  1.00  0.00     0.031 C 
ATOM     55  C   UNL A   1      43.228  27.495  32.056  1.00  0.00     0.029 A 
ATOM     56  C   UNL A   1      42.592  28.465  32.816  1.00  0.00     0.049 A 
ATOM     57  H   UNL A   1      40.921  29.656  32.324  1.00  0.00     0.167 HD
ATOM     58  C   UNL A   1      42.236  29.868  34.829  1.00  0.00     0.074 A 
ATOM     59  C   UNL A   1      42.557  30.291  36.176  1.00  0.00     0.031 C 
ATOM     60  C   UNL A   1      42.909  28.906  34.151  1.00  0.00     0.037 A 
BRANCH  47  61
ATOM     61  C   UNL A   1      40.655  27.747  28.514  1.00  0.00     0.057 A 
ATOM     62  C   UNL A   1      39.976  26.529  28.384  1.00  0.00     0.134 A 
ATOM     63  C   UNL A   1      41.390  28.195  27.408  1.00  0.00     0.134 A 
ATOM     64  F   UNL A   1      39.261  26.037  29.409  1.00  0.00    -0.206 F 
ATOM     65  C   UNL A   1      40.048  25.771  27.215  1.00  0.00     0.040 A 
ATOM     66  C   UNL A   1      41.445  27.461  26.222  1.00  0.00     0.040 A 
ATOM     67  F   UNL A   1      42.060  29.357  27.459  1.00  0.00    -0.206 F 
ATOM     68  C   UNL A   1      40.778  26.241  26.126  1.00  0.00     0.006 A 
ENDBRANCH  47  61
BRANCH  48  69
ATOM     69  C   UNL A   1      39.634  33.268  36.775  1.00  0.00     0.057 A 
ATOM     70  C   UNL A   1      40.382  34.430  36.992  1.00  0.00     0.134 A 
ATOM     71  C   UNL A   1      38.742  32.878  37.781  1.00  0.00     0.134 A 
ATOM     72  F   UNL A   1      41.266  34.845  36.074  1.00  0.00    -0.206 F 
ATOM     73  C   UNL A   1      40.268  35.165  38.174  1.00  0.00     0.040 A 
ATOM     74  C   UNL A   1      38.596  33.618  38.956  1.00  0.00     0.040 A 
ATOM     75  F   UNL A   1      37.988  31.779  37.632  1.00  0.00    -0.206 F 
ATOM     76  C   UNL A   1      39.368  34.761  39.158  1.00  0.00     0.006 A 
ENDBRANCH  48  69
BRANCH  60  77
ATOM     77  C   UNL A   1      44.089  28.276  34.833  1.00  0.00     0.057 A 
ATOM     78  C   UNL A   1      43.975  27.099  35.583  1.00  0.00     0.134 A 
ATOM     79  C   UNL A   1      45.368  28.832  34.692  1.00  0.00     0.134 A 
ATOM     80  F   UNL A   1      42.777  26.524  35.767  1.00  0.00    -0.206 F 
ATOM     81  C   UNL A   1      45.087  26.510  36.187  1.00  0.00     0.040 A 
ATOM     82  C   UNL A   1      46.491  28.236  35.266  1.00  0.00     0.040 A 
ATOM     83  F   UNL A   1      45.549  29.953  33.978  1.00  0.00    -0.206 F 
ATOM     84  C   UNL A   1      46.351  27.074  36.021  1.00  0.00     0.006 A 
ENDBRANCH  60  77
ENDBRANCH  34  35
ENDBRANCH  26  29
ENDBRANCH  24  25
ENDBRANCH  23  24
ENDBRANCH   1  23
TORSDOF 15
ENDMDL
MODEL 2
REMARK VINA RESULT:     -10.8      1.282      1.999
REMARK SMILES CCc1nn(C)c(N[C@@](C)(CC)C(=O)NCCCNC(=O)c2ccc(-c3c4nc(c(-c5c(F)cccc5F)c5ccc([nH]5)c(-c5c(F)cccc5F)c5nc(c(-c6c(F)cccc6F)c6ccc3[nH]6)C=C5)C=C4)cc2)c1[N+](=O)[O-]
REMARK SMILES IDX 16 1 15 2 13 3 14 4 9 6 10 7 8 8 7 10 3 11 4 12 76 13 5 14
REMARK SMILES IDX 6 15 2 16 1 17 77 18 78 19 79 20 11 21 12 22 17 23 18 24
REMARK SMILES IDX 19 25 20 26 21 28 22 29 23 30 75 31 24 32 74 33 25 34 26 35
REMARK SMILES IDX 27 36 68 37 28 38 73 39 67 40 69 41 29 42 72 43 66 44 65 45
REMARK SMILES IDX 30 47 56 48 39 49 55 50 40 51 43 52 54 53 70 54 41 55 42 56
REMARK SMILES IDX 53 58 71 59 44 60 31 61 32 62 37 63 33 64 34 65 36 66 38 67
REMARK SMILES IDX 35 68 57 69 58 70 63 71 59 72 60 73 62 74 64 75 61 76 45 77
REMARK SMILES IDX 46 78 51 79 47 80 48 81 50 82 52 83 49 84
REMARK H PARENT 15 5 8 9 19 27 69 46 43 57
REMARK Flexibility Score: inf
ROOT
ATOM      1  C   UNL A   1      31.488  30.686  26.381  1.00  0.00     0.117 C 
ENDROOT
BRANCH   1   2
ATOM      2  N   UNL A   1      31.342  30.237  25.014  1.00  0.00    -0.354 N 
ATOM      3  C   UNL A   1      31.229  28.974  24.530  1.00  0.00     0.245 C 
ATOM      4  O   UNL A   1      30.349  28.822  23.671  1.00  0.00    -0.272 OA
ATOM      5  H   UNL A   1      31.322  30.951  24.336  1.00  0.00     0.163 HD
BRANCH   3   6
ATOM      6  C   UNL A   1      32.084  27.772  25.011  1.00  0.00     0.115 C 
ATOM      7  C   UNL A   1      31.440  27.433  26.385  1.00  0.00     0.045 C 
BRANCH   6   8
ATOM      8  N   UNL A   1      31.910  26.555  24.165  1.00  0.00    -0.351 N 
ATOM      9  H   UNL A   1      31.038  26.492  23.712  1.00  0.00     0.163 HD
BRANCH   8  10
ATOM     10  C   UNL A   1      32.766  25.504  23.909  1.00  0.00     0.205 A 
ATOM     11  C   UNL A   1      34.265  23.817  23.688  1.00  0.00     0.142 A 
ATOM     12  N   UNL A   1      34.107  24.307  22.458  1.00  0.00    -0.169 NA
ATOM     13  C   UNL A   1      33.424  24.488  24.613  1.00  0.00     0.334 A 
ATOM     14  N   UNL A   1      33.204  25.296  22.602  1.00  0.00    -0.246 N 
ATOM     15  C   UNL A   1      32.818  25.979  21.388  1.00  0.00     0.176 C 
BRANCH  11  16
ATOM     16  C   UNL A   1      35.268  22.722  23.905  1.00  0.00     0.062 C 
ATOM     17  C   UNL A   1      36.618  22.937  23.238  1.00  0.00     0.011 C 
ENDBRANCH  11  16
BRANCH  13  18
ATOM     18  N   UNL A   1      33.347  24.118  25.986  1.00  0.00     0.068 N 
ATOM     19  O   UNL A   1      34.403  23.796  26.549  1.00  0.00    -0.258 OA
ATOM     20  O   UNL A   1      32.214  24.028  26.479  1.00  0.00    -0.258 OA
ENDBRANCH  13  18
ENDBRANCH   8  10
ENDBRANCH   6   8
BRANCH   6  21
ATOM     21  C   UNL A   1      33.605  27.952  25.259  1.00  0.00     0.035 C 
ATOM     22  C   UNL A   1      34.045  28.219  26.691  1.00  0.00     0.007 C 
ENDBRANCH   6  21
ENDBRANCH   3   6
ENDBRANCH   1   2
BRANCH   1  23
ATOM     23  C   UNL A   1      31.401  32.197  26.529  1.00  0.00     0.042 C 
BRANCH  23  24
ATOM     24  C   UNL A   1      32.605  32.830  27.223  1.00  0.00     0.118 C 
BRANCH  24  25
ATOM     25  N   UNL A   1      32.385  34.227  27.581  1.00  0.00    -0.352 N 
ATOM     26  C   UNL A   1      32.970  35.005  28.549  1.00  0.00     0.251 C 
ATOM     27  H   UNL A   1      31.704  34.688  27.041  1.00  0.00     0.163 HD
ATOM     28  O   UNL A   1      32.492  36.104  28.822  1.00  0.00    -0.269 OA
BRANCH  26  29
ATOM     29  C   UNL A   1      34.159  34.522  29.281  1.00  0.00     0.039 A 
ATOM     30  C   UNL A   1      33.988  33.914  30.528  1.00  0.00     0.014 A 
ATOM     31  C   UNL A   1      35.440  34.684  28.753  1.00  0.00     0.014 A 
ATOM     32  C   UNL A   1      35.094  33.398  31.205  1.00  0.00     0.010 A 
ATOM     33  C   UNL A   1      36.529  34.091  29.383  1.00  0.00     0.010 A 
ATOM     34  C   UNL A   1      36.370  33.443  30.617  1.00  0.00    -0.014 A 
BRANCH  34  35
ATOM     35  C   UNL A   1      37.551  32.826  31.272  1.00  0.00     0.031 A 
ATOM     36  C   UNL A   1      38.207  31.619  30.662  1.00  0.00     0.074 A 
ATOM     37  C   UNL A   1      37.984  33.304  32.456  1.00  0.00     0.049 A 
ATOM     38  N   UNL A   1      39.180  30.879  31.131  1.00  0.00    -0.248 NA
ATOM     39  C   UNL A   1      37.680  31.163  29.365  1.00  0.00     0.031 C 
ATOM     40  C   UNL A   1      37.406  34.443  33.173  1.00  0.00     0.029 A 
ATOM     41  N   UNL A   1      39.003  32.882  33.273  1.00  0.00    -0.354 N 
ATOM     42  C   UNL A   1      39.367  29.866  30.199  1.00  0.00     0.074 A 
ATOM     43  C   UNL A   1      38.371  30.051  29.167  1.00  0.00     0.031 C 
ATOM     44  C   UNL A   1      38.092  34.641  34.311  1.00  0.00     0.029 A 
ATOM     45  C   UNL A   1      39.126  33.617  34.427  1.00  0.00     0.049 A 
ATOM     46  H   UNL A   1      39.590  32.122  33.053  1.00  0.00     0.167 HD
ATOM     47  C   UNL A   1      40.299  28.884  30.192  1.00  0.00     0.037 A 
ATOM     48  C   UNL A   1      39.967  33.475  35.469  1.00  0.00     0.037 A 
ATOM     49  C   UNL A   1      41.302  28.715  31.210  1.00  0.00     0.049 A 
ATOM     50  C   UNL A   1      40.980  32.363  35.446  1.00  0.00     0.074 A 
ATOM     51  C   UNL A   1      42.326  27.787  31.265  1.00  0.00     0.029 A 
ATOM     52  N   UNL A   1      41.404  29.492  32.354  1.00  0.00    -0.354 N 
ATOM     53  N   UNL A   1      41.189  31.451  34.527  1.00  0.00    -0.248 NA
ATOM     54  C   UNL A   1      41.879  32.262  36.604  1.00  0.00     0.031 C 
ATOM     55  C   UNL A   1      43.015  27.966  32.469  1.00  0.00     0.029 A 
ATOM     56  C   UNL A   1      42.458  29.047  33.135  1.00  0.00     0.049 A 
ATOM     57  H   UNL A   1      40.813  30.248  32.580  1.00  0.00     0.167 HD
ATOM     58  C   UNL A   1      42.262  30.695  34.978  1.00  0.00     0.074 A 
ATOM     59  C   UNL A   1      42.668  31.258  36.248  1.00  0.00     0.031 C 
ATOM     60  C   UNL A   1      42.859  29.628  34.391  1.00  0.00     0.037 A 
BRANCH  47  61
ATOM     61  C   UNL A   1      40.277  27.915  29.044  1.00  0.00     0.057 A 
ATOM     62  C   UNL A   1      41.011  28.137  27.872  1.00  0.00     0.134 A 
ATOM     63  C   UNL A   1      39.539  26.726  29.125  1.00  0.00     0.134 A 
ATOM     64  F   UNL A   1      41.732  29.260  27.723  1.00  0.00    -0.206 F 
ATOM     65  C   UNL A   1      40.989  27.231  26.810  1.00  0.00     0.040 A 
ATOM     66  C   UNL A   1      39.534  25.797  28.083  1.00  0.00     0.040 A 
ATOM     67  F   UNL A   1      38.819  26.444  30.221  1.00  0.00    -0.206 F 
ATOM     68  C   UNL A   1      40.254  26.053  26.918  1.00  0.00     0.006 A 
ENDBRANCH  47  61
BRANCH  48  69
ATOM     69  C   UNL A   1      39.900  34.417  36.616  1.00  0.00     0.057 A 
ATOM     70  C   UNL A   1      40.596  35.631  36.594  1.00  0.00     0.134 A 
ATOM     71  C   UNL A   1      39.156  34.122  37.765  1.00  0.00     0.134 A 
ATOM     72  F   UNL A   1      41.341  35.962  35.529  1.00  0.00    -0.206 F 
ATOM     73  C   UNL A   1      40.573  36.509  37.679  1.00  0.00     0.040 A 
ATOM     74  C   UNL A   1      39.101  35.003  38.846  1.00  0.00     0.040 A 
ATOM     75  F   UNL A   1      38.459  32.980  37.848  1.00  0.00    -0.206 F 
ATOM     76  C   UNL A   1      39.819  36.197  38.808  1.00  0.00     0.006 A 
ENDBRANCH  48  69
BRANCH  60  77
ATOM     77  C   UNL A   1      44.047  29.031  35.089  1.00  0.00     0.057 A 
ATOM     78  C   UNL A   1      43.913  28.028  36.058  1.00  0.00     0.134 A 
ATOM     79  C   UNL A   1      45.345  29.431  34.748  1.00  0.00     0.134 A 
ATOM     80  F   UNL A   1      42.698  27.608  36.440  1.00  0.00    -0.206 F 
ATOM     81  C   UNL A   1      45.029  27.461  36.678  1.00  0.00     0.040 A 
ATOM     82  C   UNL A   1      46.468  28.851  35.338  1.00  0.00     0.040 A 
ATOM     83  F   UNL A   1      45.544  30.380  33.820  1.00  0.00    -0.206 F 
ATOM     84  C   UNL A   1      46.311  27.867  36.311  1.00  0.00     0.006 A 
ENDBRANCH  60  77
ENDBRANCH  34  35
ENDBRANCH  26  29
ENDBRANCH  24  25
ENDBRANCH  23  24
ENDBRANCH   1  23
TORSDOF 15
ENDMDL
MODEL 3
REMARK VINA RESULT:     -10.7      5.307     10.529
REMARK SMILES CCc1nn(C)c(N[C@@](C)(CC)C(=O)NCCCNC(=O)c2ccc(-c3c4nc(c(-c5c(F)cccc5F)c5ccc([nH]5)c(-c5c(F)cccc5F)c5nc(c(-c6c(F)cccc6F)c6ccc3[nH]6)C=C5)C=C4)cc2)c1[N+](=O)[O-]
REMARK SMILES IDX 16 1 15 2 13 3 14 4 9 6 10 7 8 8 7 10 3 11 4 12 76 13 5 14
REMARK SMILES IDX 6 15 2 16 1 17 77 18 78 19 79 20 11 21 12 22 17 23 18 24
REMARK SMILES IDX 19 25 20 26 21 28 22 29 23 30 75 31 24 32 74 33 25 34 26 35
REMARK SMILES IDX 27 36 68 37 28 38 73 39 67 40 69 41 29 42 72 43 66 44 65 45
REMARK SMILES IDX 30 47 56 48 39 49 55 50 40 51 43 52 54 53 70 54 41 55 42 56
REMARK SMILES IDX 53 58 71 59 44 60 31 61 32 62 37 63 33 64 34 65 36 66 38 67
REMARK SMILES IDX 35 68 57 69 58 70 63 71 59 72 60 73 62 74 64 75 61 76 45 77
REMARK SMILES IDX 46 78 51 79 47 80 48 81 50 82 52 83 49 84
REMARK H PARENT 15 5 8 9 19 27 69 46 43 57
REMARK Flexibility Score: inf
ROOT
ATOM      1  C   UNL A   1      37.147  20.800  24.790  1.00  0.00     0.117 C 
ENDROOT
BRANCH   1   2
ATOM      2  N   UNL A   1      35.827  20.563  25.331  1.00  0.00    -0.354 N 
ATOM      3  C   UNL A   1      34.657  21.195  25.053  1.00  0.00     0.245 C 
ATOM      4  O   UNL A   1      33.686  20.444  24.888  1.00  0.00    -0.272 OA
ATOM      5  H   UNL A   1      35.767  19.839  25.996  1.00  0.00     0.163 HD
BRANCH   3   6
ATOM      6  C   UNL A   1      34.506  22.732  24.907  1.00  0.00     0.115 C 
ATOM      7  C   UNL A   1      35.161  23.001  23.523  1.00  0.00     0.045 C 
BRANCH   6   8
ATOM      8  N   UNL A   1      33.085  23.170  24.780  1.00  0.00    -0.351 N 
ATOM      9  H   UNL A   1      32.509  22.551  24.275  1.00  0.00     0.163 HD
BRANCH   8  10
ATOM     10  C   UNL A   1      32.441  24.294  25.252  1.00  0.00     0.205 A 
ATOM     11  C   UNL A   1      31.577  26.253  26.000  1.00  0.00     0.142 A 
ATOM     12  N   UNL A   1      30.977  25.308  26.724  1.00  0.00    -0.169 NA
ATOM     13  C   UNL A   1      32.454  25.679  25.043  1.00  0.00     0.334 A 
ATOM     14  N   UNL A   1      31.488  24.152  26.260  1.00  0.00    -0.246 N 
ATOM     15  C   UNL A   1      30.966  22.945  26.861  1.00  0.00     0.176 C 
BRANCH  11  16
ATOM     16  C   UNL A   1      31.280  27.693  26.304  1.00  0.00     0.062 C 
ATOM     17  C   UNL A   1      31.849  28.208  27.617  1.00  0.00     0.011 C 
ENDBRANCH  11  16
BRANCH  13  18
ATOM     18  N   UNL A   1      33.171  26.463  24.095  1.00  0.00     0.068 N 
ATOM     19  O   UNL A   1      34.034  27.237  24.532  1.00  0.00    -0.258 OA
ATOM     20  O   UNL A   1      32.794  26.400  22.917  1.00  0.00    -0.258 OA
ENDBRANCH  13  18
ENDBRANCH   8  10
ENDBRANCH   6   8
BRANCH   6  21
ATOM     21  C   UNL A   1      35.195  23.680  25.923  1.00  0.00     0.035 C 
ATOM     22  C   UNL A   1      36.640  24.063  25.641  1.00  0.00     0.007 C 
ENDBRANCH   6  21
ENDBRANCH   3   6
ENDBRANCH   1   2
BRANCH   1  23
ATOM     23  C   UNL A   1      38.116  19.656  25.050  1.00  0.00     0.042 C 
BRANCH  23  24
ATOM     24  C   UNL A   1      39.255  20.005  26.006  1.00  0.00     0.118 C 
BRANCH  24  25
ATOM     25  N   UNL A   1      40.314  19.001  26.018  1.00  0.00    -0.352 N 
ATOM     26  C   UNL A   1      41.677  19.140  26.096  1.00  0.00     0.251 C 
ATOM     27  H   UNL A   1      39.999  18.071  25.958  1.00  0.00     0.163 HD
ATOM     28  O   UNL A   1      42.404  18.172  25.882  1.00  0.00    -0.269 OA
BRANCH  26  29
ATOM     29  C   UNL A   1      42.279  20.451  26.415  1.00  0.00     0.039 A 
ATOM     30  C   UNL A   1      42.785  21.238  25.376  1.00  0.00     0.014 A 
ATOM     31  C   UNL A   1      42.365  20.897  27.735  1.00  0.00     0.014 A 
ATOM     32  C   UNL A   1      43.302  22.504  25.654  1.00  0.00     0.010 A 
ATOM     33  C   UNL A   1      42.796  22.192  28.001  1.00  0.00     0.010 A 
ATOM     34  C   UNL A   1      43.272  23.010  26.965  1.00  0.00    -0.014 A 
BRANCH  34  35
ATOM     35  C   UNL A   1      43.734  24.386  27.278  1.00  0.00     0.031 A 
ATOM     36  C   UNL A   1      42.743  25.440  27.687  1.00  0.00     0.074 A 
ATOM     37  C   UNL A   1      45.034  24.706  27.119  1.00  0.00     0.049 A 
ATOM     38  N   UNL A   1      42.934  26.717  27.902  1.00  0.00    -0.248 NA
ATOM     39  C   UNL A   1      41.345  25.008  27.845  1.00  0.00     0.031 C 
ATOM     40  C   UNL A   1      46.088  23.785  26.687  1.00  0.00     0.029 A 
ATOM     41  N   UNL A   1      45.688  25.901  27.289  1.00  0.00    -0.354 N 
ATOM     42  C   UNL A   1      41.682  27.240  28.203  1.00  0.00     0.074 A 
ATOM     43  C   UNL A   1      40.732  26.157  28.085  1.00  0.00     0.031 C 
ATOM     44  C   UNL A   1      47.257  24.444  26.646  1.00  0.00     0.029 A 
ATOM     45  C   UNL A   1      47.031  25.841  27.003  1.00  0.00     0.049 A 
ATOM     46  H   UNL A   1      45.237  26.724  27.587  1.00  0.00     0.167 HD
ATOM     47  C   UNL A   1      41.358  28.504  28.566  1.00  0.00     0.037 A 
ATOM     48  C   UNL A   1      47.971  26.805  27.013  1.00  0.00     0.037 A 
ATOM     49  C   UNL A   1      42.309  29.574  28.702  1.00  0.00     0.049 A 
ATOM     50  C   UNL A   1      47.581  28.205  27.400  1.00  0.00     0.074 A 
ATOM     51  C   UNL A   1      42.090  30.875  29.119  1.00  0.00     0.029 A 
ATOM     52  N   UNL A   1      43.663  29.468  28.419  1.00  0.00    -0.354 N 
ATOM     53  N   UNL A   1      46.405  28.672  27.745  1.00  0.00    -0.248 NA
ATOM     54  C   UNL A   1      48.650  29.213  27.404  1.00  0.00     0.031 C 
ATOM     55  C   UNL A   1      43.300  31.571  29.037  1.00  0.00     0.029 A 
ATOM     56  C   UNL A   1      44.287  30.687  28.628  1.00  0.00     0.049 A 
ATOM     57  H   UNL A   1      44.115  28.647  28.114  1.00  0.00     0.167 HD
ATOM     58  C   UNL A   1      46.600  30.014  28.040  1.00  0.00     0.074 A 
ATOM     59  C   UNL A   1      48.008  30.286  27.844  1.00  0.00     0.031 C 
ATOM     60  C   UNL A   1      45.693  30.939  28.442  1.00  0.00     0.037 A 
BRANCH  47  61
ATOM     61  C   UNL A   1      39.910  28.796  28.843  1.00  0.00     0.057 A 
ATOM     62  C   UNL A   1      39.029  29.202  27.833  1.00  0.00     0.134 A 
ATOM     63  C   UNL A   1      39.383  28.638  30.132  1.00  0.00     0.134 A 
ATOM     64  F   UNL A   1      39.470  29.383  26.578  1.00  0.00    -0.206 F 
ATOM     65  C   UNL A   1      37.685  29.469  28.097  1.00  0.00     0.040 A 
ATOM     66  C   UNL A   1      38.034  28.871  30.402  1.00  0.00     0.040 A 
ATOM     67  F   UNL A   1      40.168  28.244  31.147  1.00  0.00    -0.206 F 
ATOM     68  C   UNL A   1      37.182  29.295  29.385  1.00  0.00     0.006 A 
ENDBRANCH  47  61
BRANCH  48  69
ATOM     69  C   UNL A   1      49.377  26.479  26.660  1.00  0.00     0.057 A 
ATOM     70  C   UNL A   1      49.849  26.643  25.352  1.00  0.00     0.134 A 
ATOM     71  C   UNL A   1      50.277  25.983  27.611  1.00  0.00     0.134 A 
ATOM     72  F   UNL A   1      49.031  27.097  24.392  1.00  0.00    -0.206 F 
ATOM     73  C   UNL A   1      51.156  26.306  24.998  1.00  0.00     0.040 A 
ATOM     74  C   UNL A   1      51.595  25.668  27.277  1.00  0.00     0.040 A 
ATOM     75  F   UNL A   1      49.891  25.811  28.884  1.00  0.00    -0.206 F 
ATOM     76  C   UNL A   1      52.035  25.820  25.964  1.00  0.00     0.006 A 
ENDBRANCH  48  69
BRANCH  60  77
ATOM     77  C   UNL A   1      46.201  32.319  28.743  1.00  0.00     0.057 A 
ATOM     78  C   UNL A   1      46.263  33.320  27.764  1.00  0.00     0.134 A 
ATOM     79  C   UNL A   1      46.587  32.664  30.045  1.00  0.00     0.134 A 
ATOM     80  F   UNL A   1      45.920  33.052  26.495  1.00  0.00    -0.206 F 
ATOM     81  C   UNL A   1      46.710  34.608  28.066  1.00  0.00     0.040 A 
ATOM     82  C   UNL A   1      47.007  33.955  30.366  1.00  0.00     0.040 A 
ATOM     83  F   UNL A   1      46.542  31.756  31.032  1.00  0.00    -0.206 F 
ATOM     84  C   UNL A   1      47.075  34.930  29.373  1.00  0.00     0.006 A 
ENDBRANCH  60  77
ENDBRANCH  34  35
ENDBRANCH  26  29
ENDBRANCH  24  25
ENDBRANCH  23  24
ENDBRANCH   1  23
TORSDOF 15
ENDMDL
