MODEL 1
REMARK VINA RESULT:     -11.1      0.000      0.000
REMARK SMILES C[NH2+][C@]1(C(=O)NCCCNC(=O)c2ccc(-c3c4nc(c(-c5c(F)cccc5F)c5ccc([nH]5)c(-c5c(F)cccc5F)c5nc(c(-c6c(F)cccc6F)c6ccc3[nH]6)C=C5)C=C4)cc2)CC[C@@H]([N@@H+](C)C[C@@H]2CCCCO2)C1
REMARK SMILES IDX 7 1 6 2 4 3 5 4 3 6 67 7 79 8 68 9 69 10 2 11 1 12 70 15
REMARK SMILES IDX 71 16 72 18 73 19 74 20 78 21 75 22 77 23 76 24 8 25 9 26
REMARK SMILES IDX 10 27 11 28 12 30 13 31 14 32 66 33 15 34 65 35 16 36 17 37
REMARK SMILES IDX 18 38 59 39 19 40 64 41 58 42 60 43 20 44 63 45 57 46 56 47
REMARK SMILES IDX 21 49 47 50 30 51 46 52 31 53 34 54 45 55 61 56 32 57 33 58
REMARK SMILES IDX 44 60 62 61 35 62 22 63 23 64 28 65 24 66 25 67 27 68 29 69
REMARK SMILES IDX 26 70 48 71 49 72 54 73 50 74 51 75 53 76 55 77 52 78 36 79
REMARK SMILES IDX 37 80 42 81 38 82 39 83 41 84 43 85 40 86
REMARK H PARENT 6 5 2 13 2 14 70 17 10 29 60 48 34 59
REMARK Flexibility Score: inf
ROOT
ATOM      1  C   UNL A   1      36.562  20.504  24.964  1.00  0.00     0.118 C 
ENDROOT
BRANCH   1   2
ATOM      2  N   UNL A   1      36.770  21.709  25.736  1.00  0.00    -0.351 N 
ATOM      3  C   UNL A   1      36.210  22.948  25.656  1.00  0.00     0.281 C 
ATOM      4  O   UNL A   1      36.768  23.793  26.366  1.00  0.00    -0.268 OA
ATOM      5  H   UNL A   1      37.438  21.616  26.451  1.00  0.00     0.163 HD
BRANCH   3   6
ATOM      6  C   UNL A   1      34.919  23.265  24.805  1.00  0.00     0.181 C 
ATOM      7  C   UNL A   1      35.104  23.121  23.279  1.00  0.00     0.085 C 
ATOM      8  C   UNL A   1      33.792  22.247  25.102  1.00  0.00     0.144 C 
ATOM      9  C   UNL A   1      33.693  22.908  22.733  1.00  0.00     0.072 C 
ATOM     10  C   UNL A   1      32.920  22.162  23.831  1.00  0.00     0.191 C 
BRANCH   6  11
ATOM     11  N   UNL A   1      34.523  24.691  25.003  1.00  0.00    -0.336 N 
ATOM     12  C   UNL A   1      33.415  24.938  25.910  1.00  0.00     0.331 C 
ATOM     13  H   UNL A   1      35.336  25.190  25.365  1.00  0.00     0.346 HD
ATOM     14  H   UNL A   1      34.200  25.010  24.090  1.00  0.00     0.346 HD
ENDBRANCH   6  11
BRANCH  10  15
ATOM     15  N   UNL A   1      32.372  20.822  23.546  1.00  0.00    -0.333 N 
ATOM     16  C   UNL A   1      31.989  20.663  22.145  1.00  0.00     0.333 C 
ATOM     17  H   UNL A   1      31.535  20.831  24.128  1.00  0.00     0.348 HD
BRANCH  15  18
ATOM     18  C   UNL A   1      33.062  19.629  24.085  1.00  0.00     0.294 C 
BRANCH  18  19
ATOM     19  C   UNL A   1      32.361  18.242  23.990  1.00  0.00     0.173 C 
ATOM     20  C   UNL A   1      32.341  17.461  25.313  1.00  0.00     0.038 C 
ATOM     21  O   UNL A   1      32.864  17.447  22.903  1.00  0.00    -0.372 OA
ATOM     22  C   UNL A   1      33.637  16.706  25.577  1.00  0.00     0.005 C 
ATOM     23  C   UNL A   1      34.102  16.782  23.148  1.00  0.00     0.161 C 
ATOM     24  C   UNL A   1      34.004  15.875  24.359  1.00  0.00     0.029 C 
ENDBRANCH  18  19
ENDBRANCH  15  18
ENDBRANCH  10  15
ENDBRANCH   3   6
ENDBRANCH   1   2
BRANCH   1  25
ATOM     25  C   UNL A   1      37.792  19.607  25.007  1.00  0.00     0.042 C 
BRANCH  25  26
ATOM     26  C   UNL A   1      38.945  20.207  25.795  1.00  0.00     0.118 C 
BRANCH  26  27
ATOM     27  N   UNL A   1      40.089  19.307  25.879  1.00  0.00    -0.352 N 
ATOM     28  C   UNL A   1      41.407  19.568  26.157  1.00  0.00     0.251 C 
ATOM     29  H   UNL A   1      39.884  18.361  25.708  1.00  0.00     0.163 HD
ATOM     30  O   UNL A   1      42.248  18.694  25.969  1.00  0.00    -0.269 OA
BRANCH  28  31
ATOM     31  C   UNL A   1      41.823  20.895  26.662  1.00  0.00     0.039 A 
ATOM     32  C   UNL A   1      42.277  21.850  25.747  1.00  0.00     0.014 A 
ATOM     33  C   UNL A   1      41.796  21.195  28.026  1.00  0.00     0.014 A 
ATOM     34  C   UNL A   1      42.638  23.123  26.194  1.00  0.00     0.010 A 
ATOM     35  C   UNL A   1      42.067  22.489  28.458  1.00  0.00     0.010 A 
ATOM     36  C   UNL A   1      42.498  23.464  27.548  1.00  0.00    -0.014 A 
BRANCH  36  37
ATOM     37  C   UNL A   1      42.798  24.834  28.033  1.00  0.00     0.031 A 
ATOM     38  C   UNL A   1      44.206  25.217  28.396  1.00  0.00     0.074 A 
ATOM     39  C   UNL A   1      41.791  25.710  28.209  1.00  0.00     0.049 A 
ATOM     40  N   UNL A   1      44.654  26.339  28.899  1.00  0.00    -0.248 NA
ATOM     41  C   UNL A   1      45.245  24.194  28.193  1.00  0.00     0.031 C 
ATOM     42  C   UNL A   1      40.377  25.441  27.941  1.00  0.00     0.029 A 
ATOM     43  N   UNL A   1      41.801  27.004  28.668  1.00  0.00    -0.354 N 
ATOM     44  C   UNL A   1      46.019  26.152  29.085  1.00  0.00     0.074 A 
ATOM     45  C   UNL A   1      46.316  24.791  28.695  1.00  0.00     0.031 C 
ATOM     46  C   UNL A   1      39.661  26.542  28.213  1.00  0.00     0.029 A 
ATOM     47  C   UNL A   1      40.554  27.579  28.717  1.00  0.00     0.049 A 
ATOM     48  H   UNL A   1      42.624  27.474  28.936  1.00  0.00     0.167 HD
ATOM     49  C   UNL A   1      46.944  27.040  29.519  1.00  0.00     0.037 A 
ATOM     50  C   UNL A   1      40.175  28.802  29.132  1.00  0.00     0.037 A 
ATOM     51  C   UNL A   1      46.645  28.399  29.890  1.00  0.00     0.049 A 
ATOM     52  C   UNL A   1      41.218  29.765  29.625  1.00  0.00     0.074 A 
ATOM     53  C   UNL A   1      47.519  29.396  30.285  1.00  0.00     0.029 A 
ATOM     54  N   UNL A   1      45.371  28.948  29.917  1.00  0.00    -0.354 N 
ATOM     55  N   UNL A   1      42.514  29.600  29.725  1.00  0.00    -0.248 NA
ATOM     56  C   UNL A   1      40.746  31.088  30.057  1.00  0.00     0.031 C 
ATOM     57  C   UNL A   1      46.769  30.534  30.601  1.00  0.00     0.029 A 
ATOM     58  C   UNL A   1      45.433  30.264  30.347  1.00  0.00     0.049 A 
ATOM     59  H   UNL A   1      44.546  28.474  29.666  1.00  0.00     0.167 HD
ATOM     60  C   UNL A   1      43.016  30.803  30.205  1.00  0.00     0.074 A 
ATOM     61  C   UNL A   1      41.885  31.694  30.359  1.00  0.00     0.031 C 
ATOM     62  C   UNL A   1      44.298  31.139  30.492  1.00  0.00     0.037 A 
BRANCH  49  63
ATOM     63  C   UNL A   1      48.366  26.568  29.618  1.00  0.00     0.057 A 
ATOM     64  C   UNL A   1      49.269  26.708  28.555  1.00  0.00     0.134 A 
ATOM     65  C   UNL A   1      48.847  25.989  30.800  1.00  0.00     0.134 A 
ATOM     66  F   UNL A   1      48.871  27.244  27.391  1.00  0.00    -0.206 F 
ATOM     67  C   UNL A   1      50.589  26.265  28.654  1.00  0.00     0.040 A 
ATOM     68  C   UNL A   1      50.174  25.570  30.921  1.00  0.00     0.040 A 
ATOM     69  F   UNL A   1      48.040  25.830  31.860  1.00  0.00    -0.206 F 
ATOM     70  C   UNL A   1      51.047  25.700  29.843  1.00  0.00     0.006 A 
ENDBRANCH  49  63
BRANCH  50  71
ATOM     71  C   UNL A   1      38.742  29.193  29.081  1.00  0.00     0.057 A 
ATOM     72  C   UNL A   1      37.928  29.096  30.215  1.00  0.00     0.134 A 
ATOM     73  C   UNL A   1      38.155  29.666  27.902  1.00  0.00     0.134 A 
ATOM     74  F   UNL A   1      38.430  28.634  31.369  1.00  0.00    -0.206 F 
ATOM     75  C   UNL A   1      36.574  29.436  30.174  1.00  0.00     0.040 A 
ATOM     76  C   UNL A   1      36.809  30.036  27.854  1.00  0.00     0.040 A 
ATOM     77  F   UNL A   1      38.883  29.791  26.783  1.00  0.00    -0.206 F 
ATOM     78  C   UNL A   1      36.013  29.913  28.991  1.00  0.00     0.006 A 
ENDBRANCH  50  71
BRANCH  62  79
ATOM     79  C   UNL A   1      44.550  32.541  30.967  1.00  0.00     0.057 A 
ATOM     80  C   UNL A   1      44.773  33.598  30.075  1.00  0.00     0.134 A 
ATOM     81  C   UNL A   1      44.530  32.843  32.335  1.00  0.00     0.134 A 
ATOM     82  F   UNL A   1      44.818  33.373  28.753  1.00  0.00    -0.206 F 
ATOM     83  C   UNL A   1      44.992  34.900  30.527  1.00  0.00     0.040 A 
ATOM     84  C   UNL A   1      44.719  34.146  32.797  1.00  0.00     0.040 A 
ATOM     85  F   UNL A   1      44.313  31.880  33.243  1.00  0.00    -0.206 F 
ATOM     86  C   UNL A   1      44.958  35.177  31.892  1.00  0.00     0.006 A 
ENDBRANCH  62  79
ENDBRANCH  36  37
ENDBRANCH  28  31
ENDBRANCH  26  27
ENDBRANCH  25  26
ENDBRANCH   1  25
TORSDOF 14
ENDMDL
MODEL 2
REMARK VINA RESULT:     -11.1      1.800      3.922
REMARK SMILES C[NH2+][C@]1(C(=O)NCCCNC(=O)c2ccc(-c3c4nc(c(-c5c(F)cccc5F)c5ccc([nH]5)c(-c5c(F)cccc5F)c5nc(c(-c6c(F)cccc6F)c6ccc3[nH]6)C=C5)C=C4)cc2)CC[C@@H]([N@@H+](C)C[C@@H]2CCCCO2)C1
REMARK SMILES IDX 7 1 6 2 4 3 5 4 3 6 67 7 79 8 68 9 69 10 2 11 1 12 70 15
REMARK SMILES IDX 71 16 72 18 73 19 74 20 78 21 75 22 77 23 76 24 8 25 9 26
REMARK SMILES IDX 10 27 11 28 12 30 13 31 14 32 66 33 15 34 65 35 16 36 17 37
REMARK SMILES IDX 18 38 59 39 19 40 64 41 58 42 60 43 20 44 63 45 57 46 56 47
REMARK SMILES IDX 21 49 47 50 30 51 46 52 31 53 34 54 45 55 61 56 32 57 33 58
REMARK SMILES IDX 44 60 62 61 35 62 22 63 23 64 28 65 24 66 25 67 27 68 29 69
REMARK SMILES IDX 26 70 48 71 49 72 54 73 50 74 51 75 53 76 55 77 52 78 36 79
REMARK SMILES IDX 37 80 42 81 38 82 39 83 41 84 43 85 40 86
REMARK H PARENT 6 5 2 13 2 14 70 17 10 29 60 48 34 59
REMARK Flexibility Score: inf
ROOT
ATOM      1  C   UNL A   1      36.779  20.518  24.623  1.00  0.00     0.118 C 
ENDROOT
BRANCH   1   2
ATOM      2  N   UNL A   1      35.832  20.702  25.700  1.00  0.00    -0.351 N 
ATOM      3  C   UNL A   1      35.142  21.795  26.129  1.00  0.00     0.281 C 
ATOM      4  O   UNL A   1      34.557  21.624  27.205  1.00  0.00    -0.268 OA
ATOM      5  H   UNL A   1      35.653  19.886  26.219  1.00  0.00     0.163 HD
BRANCH   3   6
ATOM      6  C   UNL A   1      35.025  23.130  25.296  1.00  0.00     0.181 C 
ATOM      7  C   UNL A   1      34.351  22.969  23.916  1.00  0.00     0.085 C 
ATOM      8  C   UNL A   1      34.098  24.149  26.002  1.00  0.00     0.144 C 
ATOM      9  C   UNL A   1      33.843  24.365  23.563  1.00  0.00     0.072 C 
ATOM     10  C   UNL A   1      33.488  25.039  24.898  1.00  0.00     0.191 C 
BRANCH   6  11
ATOM     11  N   UNL A   1      36.389  23.654  24.989  1.00  0.00    -0.336 N 
ATOM     12  C   UNL A   1      37.250  23.930  26.127  1.00  0.00     0.331 C 
ATOM     13  H   UNL A   1      36.861  22.964  24.404  1.00  0.00     0.346 HD
ATOM     14  H   UNL A   1      36.236  24.558  24.541  1.00  0.00     0.346 HD
ENDBRANCH   6  11
BRANCH  10  15
ATOM     15  N   UNL A   1      32.097  25.465  25.145  1.00  0.00    -0.333 N 
ATOM     16  C   UNL A   1      31.366  24.519  25.986  1.00  0.00     0.333 C 
ATOM     17  H   UNL A   1      31.720  25.440  24.198  1.00  0.00     0.348 HD
BRANCH  15  18
ATOM     18  C   UNL A   1      31.826  26.873  25.507  1.00  0.00     0.294 C 
BRANCH  18  19
ATOM     19  C   UNL A   1      32.394  27.434  26.844  1.00  0.00     0.173 C 
ATOM     20  C   UNL A   1      31.526  28.531  27.480  1.00  0.00     0.038 C 
ATOM     21  O   UNL A   1      33.770  27.834  26.729  1.00  0.00    -0.372 OA
ATOM     22  C   UNL A   1      31.777  29.909  26.880  1.00  0.00     0.005 C 
ATOM     23  C   UNL A   1      33.993  29.107  26.124  1.00  0.00     0.161 C 
ATOM     24  C   UNL A   1      33.267  30.204  26.878  1.00  0.00     0.029 C 
ENDBRANCH  18  19
ENDBRANCH  15  18
ENDBRANCH  10  15
ENDBRANCH   3   6
ENDBRANCH   1   2
BRANCH   1  25
ATOM     25  C   UNL A   1      37.848  19.503  25.000  1.00  0.00     0.042 C 
BRANCH  25  26
ATOM     26  C   UNL A   1      39.003  20.109  25.780  1.00  0.00     0.118 C 
BRANCH  26  27
ATOM     27  N   UNL A   1      40.142  19.204  25.880  1.00  0.00    -0.352 N 
ATOM     28  C   UNL A   1      41.467  19.466  26.125  1.00  0.00     0.251 C 
ATOM     29  H   UNL A   1      39.927  18.253  25.752  1.00  0.00     0.163 HD
ATOM     30  O   UNL A   1      42.298  18.578  25.959  1.00  0.00    -0.269 OA
BRANCH  28  31
ATOM     31  C   UNL A   1      41.901  20.809  26.567  1.00  0.00     0.039 A 
ATOM     32  C   UNL A   1      42.279  21.745  25.600  1.00  0.00     0.014 A 
ATOM     33  C   UNL A   1      41.965  21.144  27.922  1.00  0.00     0.014 A 
ATOM     34  C   UNL A   1      42.656  23.032  25.989  1.00  0.00     0.010 A 
ATOM     35  C   UNL A   1      42.250  22.450  28.303  1.00  0.00     0.010 A 
ATOM     36  C   UNL A   1      42.606  23.406  27.341  1.00  0.00    -0.014 A 
BRANCH  36  37
ATOM     37  C   UNL A   1      42.923  24.791  27.770  1.00  0.00     0.031 A 
ATOM     38  C   UNL A   1      44.351  25.208  27.989  1.00  0.00     0.074 A 
ATOM     39  C   UNL A   1      41.920  25.652  28.027  1.00  0.00     0.049 A 
ATOM     40  N   UNL A   1      44.822  26.347  28.427  1.00  0.00    -0.248 NA
ATOM     41  C   UNL A   1      45.386  24.201  27.705  1.00  0.00     0.031 C 
ATOM     42  C   UNL A   1      40.493  25.351  27.900  1.00  0.00     0.029 A 
ATOM     43  N   UNL A   1      41.947  26.954  28.459  1.00  0.00    -0.354 N 
ATOM     44  C   UNL A   1      46.202  26.189  28.484  1.00  0.00     0.074 A 
ATOM     45  C   UNL A   1      46.488  24.827  28.091  1.00  0.00     0.031 C 
ATOM     46  C   UNL A   1      39.783  26.444  28.221  1.00  0.00     0.029 A 
ATOM     47  C   UNL A   1      40.699  27.507  28.618  1.00  0.00     0.049 A 
ATOM     48  H   UNL A   1      42.782  27.445  28.639  1.00  0.00     0.167 HD
ATOM     49  C   UNL A   1      47.146  27.103  28.811  1.00  0.00     0.037 A 
ATOM     50  C   UNL A   1      40.336  28.731  29.046  1.00  0.00     0.037 A 
ATOM     51  C   UNL A   1      46.856  28.463  29.185  1.00  0.00     0.049 A 
ATOM     52  C   UNL A   1      41.402  29.723  29.418  1.00  0.00     0.074 A 
ATOM     53  C   UNL A   1      47.743  29.484  29.476  1.00  0.00     0.029 A 
ATOM     54  N   UNL A   1      45.580  28.989  29.324  1.00  0.00    -0.354 N 
ATOM     55  N   UNL A   1      42.705  29.583  29.397  1.00  0.00    -0.248 NA
ATOM     56  C   UNL A   1      40.947  31.044  29.869  1.00  0.00     0.031 C 
ATOM     57  C   UNL A   1      47.004  30.614  29.842  1.00  0.00     0.029 A 
ATOM     58  C   UNL A   1      45.655  30.314  29.723  1.00  0.00     0.049 A 
ATOM     59  H   UNL A   1      44.744  28.494  29.162  1.00  0.00     0.167 HD
ATOM     60  C   UNL A   1      43.226  30.805  29.804  1.00  0.00     0.074 A 
ATOM     61  C   UNL A   1      42.097  31.677  30.050  1.00  0.00     0.031 C 
ATOM     62  C   UNL A   1      44.522  31.171  29.960  1.00  0.00     0.037 A 
BRANCH  49  63
ATOM     63  C   UNL A   1      48.580  26.660  28.782  1.00  0.00     0.057 A 
ATOM     64  C   UNL A   1      49.185  26.035  29.881  1.00  0.00     0.134 A 
ATOM     65  C   UNL A   1      49.360  26.834  27.631  1.00  0.00     0.134 A 
ATOM     66  F   UNL A   1      48.499  25.847  31.019  1.00  0.00    -0.206 F 
ATOM     67  C   UNL A   1      50.520  25.627  29.848  1.00  0.00     0.040 A 
ATOM     68  C   UNL A   1      50.687  26.403  27.575  1.00  0.00     0.040 A 
ATOM     69  F   UNL A   1      48.844  27.418  26.539  1.00  0.00    -0.206 F 
ATOM     70  C   UNL A   1      51.273  25.804  28.689  1.00  0.00     0.006 A 
ENDBRANCH  49  63
BRANCH  50  71
ATOM     71  C   UNL A   1      38.898  29.093  29.125  1.00  0.00     0.057 A 
ATOM     72  C   UNL A   1      38.210  29.562  28.000  1.00  0.00     0.134 A 
ATOM     73  C   UNL A   1      38.180  28.984  30.322  1.00  0.00     0.134 A 
ATOM     74  F   UNL A   1      38.848  29.703  26.829  1.00  0.00    -0.206 F 
ATOM     75  C   UNL A   1      36.864  29.928  28.066  1.00  0.00     0.040 A 
ATOM     76  C   UNL A   1      36.828  29.322  30.396  1.00  0.00     0.040 A 
ATOM     77  F   UNL A   1      38.779  28.533  31.433  1.00  0.00    -0.206 F 
ATOM     78  C   UNL A   1      36.168  29.804  29.267  1.00  0.00     0.006 A 
ENDBRANCH  50  71
BRANCH  62  79
ATOM     79  C   UNL A   1      44.789  32.586  30.384  1.00  0.00     0.057 A 
ATOM     80  C   UNL A   1      44.909  33.628  29.455  1.00  0.00     0.134 A 
ATOM     81  C   UNL A   1      44.890  32.916  31.742  1.00  0.00     0.134 A 
ATOM     82  F   UNL A   1      44.836  33.377  28.139  1.00  0.00    -0.206 F 
ATOM     83  C   UNL A   1      45.144  34.943  29.861  1.00  0.00     0.040 A 
ATOM     84  C   UNL A   1      45.095  34.231  32.160  1.00  0.00     0.040 A 
ATOM     85  F   UNL A   1      44.776  31.967  32.684  1.00  0.00    -0.206 F 
ATOM     86  C   UNL A   1      45.230  35.247  31.218  1.00  0.00     0.006 A 
ENDBRANCH  62  79
ENDBRANCH  36  37
ENDBRANCH  28  31
ENDBRANCH  26  27
ENDBRANCH  25  26
ENDBRANCH   1  25
TORSDOF 14
ENDMDL
MODEL 3
REMARK VINA RESULT:     -11.1      4.600      9.216
REMARK SMILES C[NH2+][C@]1(C(=O)NCCCNC(=O)c2ccc(-c3c4nc(c(-c5c(F)cccc5F)c5ccc([nH]5)c(-c5c(F)cccc5F)c5nc(c(-c6c(F)cccc6F)c6ccc3[nH]6)C=C5)C=C4)cc2)CC[C@@H]([N@@H+](C)C[C@@H]2CCCCO2)C1
REMARK SMILES IDX 7 1 6 2 4 3 5 4 3 6 67 7 79 8 68 9 69 10 2 11 1 12 70 15
REMARK SMILES IDX 71 16 72 18 73 19 74 20 78 21 75 22 77 23 76 24 8 25 9 26
REMARK SMILES IDX 10 27 11 28 12 30 13 31 14 32 66 33 15 34 65 35 16 36 17 37
REMARK SMILES IDX 18 38 59 39 19 40 64 41 58 42 60 43 20 44 63 45 57 46 56 47
REMARK SMILES IDX 21 49 47 50 30 51 46 52 31 53 34 54 45 55 61 56 32 57 33 58
REMARK SMILES IDX 44 60 62 61 35 62 22 63 23 64 28 65 24 66 25 67 27 68 29 69
REMARK SMILES IDX 26 70 48 71 49 72 54 73 50 74 51 75 53 76 55 77 52 78 36 79
REMARK SMILES IDX 37 80 42 81 38 82 39 83 41 84 43 85 40 86
REMARK H PARENT 6 5 2 13 2 14 70 17 10 29 60 48 34 59
REMARK Flexibility Score: inf
ROOT
ATOM      1  C   UNL A   1      31.556  30.833  25.902  1.00  0.00     0.118 C 
ENDROOT
BRANCH   1   2
ATOM      2  N   UNL A   1      31.493  29.776  26.887  1.00  0.00    -0.351 N 
ATOM      3  C   UNL A   1      31.950  28.492  26.875  1.00  0.00     0.281 C 
ATOM      4  O   UNL A   1      31.552  27.813  27.829  1.00  0.00    -0.268 OA
ATOM      5  H   UNL A   1      31.038  30.031  27.720  1.00  0.00     0.163 HD
BRANCH   3   6
ATOM      6  C   UNL A   1      32.960  27.940  25.796  1.00  0.00     0.181 C 
ATOM      7  C   UNL A   1      33.554  26.553  26.123  1.00  0.00     0.085 C 
ATOM      8  C   UNL A   1      32.249  27.687  24.445  1.00  0.00     0.144 C 
ATOM      9  C   UNL A   1      34.003  25.992  24.776  1.00  0.00     0.072 C 
ATOM     10  C   UNL A   1      33.030  26.562  23.732  1.00  0.00     0.191 C 
BRANCH   6  11
ATOM     11  N   UNL A   1      34.144  28.845  25.704  1.00  0.00    -0.336 N 
ATOM     12  C   UNL A   1      34.889  29.067  26.932  1.00  0.00     0.331 C 
ATOM     13  H   UNL A   1      34.787  28.445  25.021  1.00  0.00     0.346 HD
ATOM     14  H   UNL A   1      33.767  29.758  25.449  1.00  0.00     0.346 HD
ENDBRANCH   6  11
BRANCH  10  15
ATOM     15  N   UNL A   1      32.197  25.637  22.939  1.00  0.00    -0.333 N 
ATOM     16  C   UNL A   1      31.748  26.231  21.682  1.00  0.00     0.333 C 
ATOM     17  H   UNL A   1      31.400  25.518  23.563  1.00  0.00     0.348 HD
BRANCH  15  18
ATOM     18  C   UNL A   1      32.628  24.231  22.782  1.00  0.00     0.294 C 
BRANCH  18  19
ATOM     19  C   UNL A   1      31.690  23.091  23.278  1.00  0.00     0.173 C 
ATOM     20  C   UNL A   1      31.017  23.380  24.628  1.00  0.00     0.038 C 
ATOM     21  O   UNL A   1      32.332  21.806  23.259  1.00  0.00    -0.372 OA
ATOM     22  C   UNL A   1      31.914  23.060  25.818  1.00  0.00     0.005 C 
ATOM     23  C   UNL A   1      33.204  21.537  24.356  1.00  0.00     0.161 C 
ATOM     24  C   UNL A   1      32.470  21.653  25.677  1.00  0.00     0.029 C 
ENDBRANCH  18  19
ENDBRANCH  15  18
ENDBRANCH  10  15
ENDBRANCH   3   6
ENDBRANCH   1   2
BRANCH   1  25
ATOM     25  C   UNL A   1      31.296  32.191  26.539  1.00  0.00     0.042 C 
BRANCH  25  26
ATOM     26  C   UNL A   1      32.504  32.751  27.271  1.00  0.00     0.118 C 
BRANCH  26  27
ATOM     27  N   UNL A   1      32.341  34.159  27.618  1.00  0.00    -0.352 N 
ATOM     28  C   UNL A   1      32.995  34.926  28.548  1.00  0.00     0.251 C 
ATOM     29  H   UNL A   1      31.652  34.634  27.102  1.00  0.00     0.163 HD
ATOM     30  O   UNL A   1      32.558  36.040  28.825  1.00  0.00    -0.269 OA
BRANCH  28  31
ATOM     31  C   UNL A   1      34.205  34.419  29.229  1.00  0.00     0.039 A 
ATOM     32  C   UNL A   1      34.067  33.806  30.478  1.00  0.00     0.014 A 
ATOM     33  C   UNL A   1      35.474  34.566  28.663  1.00  0.00     0.014 A 
ATOM     34  C   UNL A   1      35.189  33.284  31.124  1.00  0.00     0.010 A 
ATOM     35  C   UNL A   1      36.576  33.964  29.261  1.00  0.00     0.010 A 
ATOM     36  C   UNL A   1      36.447  33.324  30.501  1.00  0.00    -0.014 A 
BRANCH  36  37
ATOM     37  C   UNL A   1      37.639  32.704  31.131  1.00  0.00     0.031 A 
ATOM     38  C   UNL A   1      38.273  31.486  30.518  1.00  0.00     0.074 A 
ATOM     39  C   UNL A   1      38.108  33.199  32.292  1.00  0.00     0.049 A 
ATOM     40  N   UNL A   1      39.273  30.765  30.955  1.00  0.00    -0.248 NA
ATOM     41  C   UNL A   1      37.687  30.996  29.260  1.00  0.00     0.031 C 
ATOM     42  C   UNL A   1      37.548  34.344  33.012  1.00  0.00     0.029 A 
ATOM     43  N   UNL A   1      39.156  32.794  33.079  1.00  0.00    -0.354 N 
ATOM     44  C   UNL A   1      39.426  29.734  30.037  1.00  0.00     0.074 A 
ATOM     45  C   UNL A   1      38.381  29.888  29.050  1.00  0.00     0.031 C 
ATOM     46  C   UNL A   1      38.275  34.566  34.118  1.00  0.00     0.029 A 
ATOM     47  C   UNL A   1      39.322  33.555  34.211  1.00  0.00     0.049 A 
ATOM     48  H   UNL A   1      39.736  32.029  32.853  1.00  0.00     0.167 HD
ATOM     49  C   UNL A   1      40.367  28.760  30.007  1.00  0.00     0.037 A 
ATOM     50  C   UNL A   1      40.211  33.442  35.215  1.00  0.00     0.037 A 
ATOM     51  C   UNL A   1      41.416  28.621  30.983  1.00  0.00     0.049 A 
ATOM     52  C   UNL A   1      41.235  32.343  35.166  1.00  0.00     0.074 A 
ATOM     53  C   UNL A   1      42.453  27.706  31.009  1.00  0.00     0.029 A 
ATOM     54  N   UNL A   1      41.556  29.419  32.110  1.00  0.00    -0.354 N 
ATOM     55  N   UNL A   1      41.414  31.420  34.254  1.00  0.00    -0.248 NA
ATOM     56  C   UNL A   1      42.185  32.275  36.285  1.00  0.00     0.031 C 
ATOM     57  C   UNL A   1      43.192  27.916  32.179  1.00  0.00     0.029 A 
ATOM     58  C   UNL A   1      42.648  28.999  32.853  1.00  0.00     0.049 A 
ATOM     59  H   UNL A   1      40.967  30.172  32.346  1.00  0.00     0.167 HD
ATOM     60  C   UNL A   1      42.512  30.678  34.673  1.00  0.00     0.074 A 
ATOM     61  C   UNL A   1      42.966  31.271  35.913  1.00  0.00     0.031 C 
ATOM     62  C   UNL A   1      43.091  29.603  34.083  1.00  0.00     0.037 A 
BRANCH  49  63
ATOM     63  C   UNL A   1      40.301  27.767  28.882  1.00  0.00     0.057 A 
ATOM     64  C   UNL A   1      39.547  26.589  28.977  1.00  0.00     0.134 A 
ATOM     65  C   UNL A   1      40.978  28.003  27.678  1.00  0.00     0.134 A 
ATOM     66  F   UNL A   1      38.883  26.296  30.106  1.00  0.00    -0.206 F 
ATOM     67  C   UNL A   1      39.491  25.669  27.928  1.00  0.00     0.040 A 
ATOM     68  C   UNL A   1      40.906  27.104  26.611  1.00  0.00     0.040 A 
ATOM     69  F   UNL A   1      41.714  29.113  27.515  1.00  0.00    -0.206 F 
ATOM     70  C   UNL A   1      40.167  25.930  26.737  1.00  0.00     0.006 A 
ENDBRANCH  49  63
BRANCH  50  71
ATOM     71  C   UNL A   1      40.185  34.410  36.342  1.00  0.00     0.057 A 
ATOM     72  C   UNL A   1      40.961  35.574  36.310  1.00  0.00     0.134 A 
ATOM     73  C   UNL A   1      39.391  34.194  37.474  1.00  0.00     0.134 A 
ATOM     74  F   UNL A   1      41.754  35.828  35.259  1.00  0.00    -0.206 F 
ATOM     75  C   UNL A   1      40.964  36.479  37.373  1.00  0.00     0.040 A 
ATOM     76  C   UNL A   1      39.365  35.104  38.532  1.00  0.00     0.040 A 
ATOM     77  F   UNL A   1      38.618  33.102  37.563  1.00  0.00    -0.206 F 
ATOM     78  C   UNL A   1      40.160  36.247  38.487  1.00  0.00     0.006 A 
ENDBRANCH  50  71
BRANCH  62  79
ATOM     79  C   UNL A   1      44.301  29.021  34.755  1.00  0.00     0.057 A 
ATOM     80  C   UNL A   1      44.204  27.977  35.684  1.00  0.00     0.134 A 
ATOM     81  C   UNL A   1      45.584  29.487  34.438  1.00  0.00     0.134 A 
ATOM     82  F   UNL A   1      43.004  27.496  36.043  1.00  0.00    -0.206 F 
ATOM     83  C   UNL A   1      45.337  27.435  36.292  1.00  0.00     0.040 A 
ATOM     84  C   UNL A   1      46.725  28.932  35.017  1.00  0.00     0.040 A 
ATOM     85  F   UNL A   1      45.748  30.478  33.549  1.00  0.00    -0.206 F 
ATOM     86  C   UNL A   1      46.603  27.908  35.953  1.00  0.00     0.006 A 
ENDBRANCH  62  79
ENDBRANCH  36  37
ENDBRANCH  28  31
ENDBRANCH  26  27
ENDBRANCH  25  26
ENDBRANCH   1  25
TORSDOF 14
ENDMDL
