MODEL 1
REMARK VINA RESULT:      -9.4      0.000      0.000
REMARK SMILES CCCCCCNC(=O)Oc1cccc(-c2ccc([C@H](C)C(=O)NCCCNC(=O)c3ccc(-c4c5nc(c(-c6c(F)cccc6F)c6ccc([nH]6)c(-c6c(F)cccc6F)c6nc(c(-c7c(F)cccc7F)c7ccc4[nH]7)C=C6)C=C5)cc3)cc2F)c1
REMARK SMILES IDX 16 1 17 2 18 3 19 4 85 5 86 6 87 7 15 8 11 9 12 10 88 11
REMARK SMILES IDX 13 12 14 13 10 14 8 15 7 16 9 18 6 19 5 20 4 21 3 22 2 23
REMARK SMILES IDX 1 24 20 25 21 26 22 27 23 28 24 29 25 31 26 32 27 33 28 34
REMARK SMILES IDX 29 35 30 37 31 38 32 39 84 40 33 41 83 42 34 43 35 44 36 45
REMARK SMILES IDX 77 46 37 47 82 48 76 49 78 50 38 51 81 52 75 53 74 54 39 56
REMARK SMILES IDX 65 57 48 58 64 59 49 60 52 61 63 62 79 63 50 64 51 65 62 67
REMARK SMILES IDX 80 68 53 69 40 70 41 71 46 72 42 73 43 74 45 75 47 76 44 77
REMARK SMILES IDX 66 78 67 79 72 80 68 81 69 82 71 83 73 84 70 85 54 86 55 87
REMARK SMILES IDX 60 88 56 89 57 90 59 91 61 92 58 93
REMARK H PARENT 7 17 24 30 28 36 78 55 52 66
REMARK Flexibility Score: inf
ROOT
ATOM      1  C   UNL A   1      40.225  30.125  33.998  1.00  0.00     0.018 A 
ATOM      2  C   UNL A   1      40.430  31.448  34.418  1.00  0.00     0.012 A 
ATOM      3  C   UNL A   1      39.473  32.442  34.181  1.00  0.00     0.005 A 
ATOM      4  C   UNL A   1      38.295  32.163  33.468  1.00  0.00    -0.033 A 
ATOM      5  C   UNL A   1      38.060  30.833  33.100  1.00  0.00     0.044 A 
ATOM      6  C   UNL A   1      39.011  29.843  33.356  1.00  0.00     0.131 A 
ATOM      7  F   UNL A   1      38.729  28.592  32.960  1.00  0.00    -0.206 F 
ENDROOT
BRANCH   1   8
ATOM      8  C   UNL A   1      41.250  29.092  34.229  1.00  0.00    -0.012 A 
ATOM      9  C   UNL A   1      42.450  27.580  35.704  1.00  0.00     0.133 A 
ATOM     10  C   UNL A   1      43.231  27.119  34.649  1.00  0.00     0.047 A 
ATOM     11  C   UNL A   1      41.476  28.560  35.510  1.00  0.00     0.056 A 
ATOM     12  C   UNL A   1      43.016  27.627  33.372  1.00  0.00     0.004 A 
ATOM     13  C   UNL A   1      42.037  28.604  33.166  1.00  0.00     0.009 A 
BRANCH   9  14
ATOM     14  O   UNL A   1      42.777  27.113  36.988  1.00  0.00    -0.410 OA
BRANCH  14  15
ATOM     15  C   UNL A   1      42.107  26.003  37.474  1.00  0.00     0.412 C 
ATOM     16  N   UNL A   1      42.914  24.909  37.616  1.00  0.00    -0.321 N 
ATOM     17  H   UNL A   1      42.486  24.086  37.946  1.00  0.00     0.167 HD
ATOM     18  O   UNL A   1      40.910  25.945  37.754  1.00  0.00    -0.224 OA
BRANCH  16  19
ATOM     19  C   UNL A   1      44.333  24.836  37.327  1.00  0.00     0.119 C 
BRANCH  19  20
ATOM     20  C   UNL A   1      44.663  23.697  36.363  1.00  0.00     0.021 C 
BRANCH  20  21
ATOM     21  C   UNL A   1      43.749  23.607  35.135  1.00  0.00     0.002 C 
BRANCH  21  22
ATOM     22  C   UNL A   1      44.207  22.641  34.036  1.00  0.00    -0.000 C 
BRANCH  22  23
ATOM     23  C   UNL A   1      43.958  23.111  32.600  1.00  0.00    -0.003 C 
ATOM     24  C   UNL A   1      44.572  24.469  32.296  1.00  0.00     0.004 C 
ENDBRANCH  22  23
ENDBRANCH  21  22
ENDBRANCH  20  21
ENDBRANCH  19  20
ENDBRANCH  16  19
ENDBRANCH  14  15
ENDBRANCH   9  14
ENDBRANCH   1   8
BRANCH   4  25
ATOM     25  C   UNL A   1      37.317  33.280  33.111  1.00  0.00     0.105 C 
ATOM     26  C   UNL A   1      37.936  34.674  32.928  1.00  0.00     0.023 C 
BRANCH  25  27
ATOM     27  C   UNL A   1      36.127  33.400  34.069  1.00  0.00     0.227 C 
ATOM     28  O   UNL A   1      36.295  33.419  35.290  1.00  0.00    -0.274 OA
ATOM     29  N   UNL A   1      34.845  33.469  33.608  1.00  0.00    -0.356 N 
ATOM     30  H   UNL A   1      34.153  33.470  34.309  1.00  0.00     0.163 HD
BRANCH  29  31
ATOM     31  C   UNL A   1      34.341  33.541  32.246  1.00  0.00     0.117 C 
BRANCH  31  32
ATOM     32  C   UNL A   1      34.763  32.338  31.417  1.00  0.00     0.042 C 
BRANCH  32  33
ATOM     33  C   UNL A   1      35.140  32.681  29.982  1.00  0.00     0.118 C 
BRANCH  33  34
ATOM     34  N   UNL A   1      34.345  31.959  28.997  1.00  0.00    -0.352 N 
ATOM     35  C   UNL A   1      34.683  30.887  28.206  1.00  0.00     0.251 C 
ATOM     36  H   UNL A   1      33.425  32.289  28.880  1.00  0.00     0.163 HD
ATOM     37  O   UNL A   1      33.925  30.508  27.321  1.00  0.00    -0.269 OA
BRANCH  35  38
ATOM     38  C   UNL A   1      35.982  30.211  28.403  1.00  0.00     0.039 A 
ATOM     39  C   UNL A   1      36.929  30.254  27.376  1.00  0.00     0.014 A 
ATOM     40  C   UNL A   1      36.274  29.564  29.606  1.00  0.00     0.014 A 
ATOM     41  C   UNL A   1      38.207  29.737  27.595  1.00  0.00     0.010 A 
ATOM     42  C   UNL A   1      37.568  29.118  29.849  1.00  0.00     0.010 A 
ATOM     43  C   UNL A   1      38.551  29.217  28.853  1.00  0.00    -0.014 A 
BRANCH  43  44
ATOM     44  C   UNL A   1      39.941  28.813  29.174  1.00  0.00     0.031 A 
ATOM     45  C   UNL A   1      40.879  29.785  29.831  1.00  0.00     0.074 A 
ATOM     46  C   UNL A   1      40.389  27.605  28.777  1.00  0.00     0.049 A 
ATOM     47  N   UNL A   1      42.162  29.670  30.060  1.00  0.00    -0.248 NA
ATOM     48  C   UNL A   1      40.301  31.067  30.263  1.00  0.00     0.031 C 
ATOM     49  C   UNL A   1      39.587  26.587  28.095  1.00  0.00     0.029 A 
ATOM     50  N   UNL A   1      41.636  27.039  28.869  1.00  0.00    -0.354 N 
ATOM     51  C   UNL A   1      42.548  30.867  30.646  1.00  0.00     0.074 A 
ATOM     52  C   UNL A   1      41.374  31.712  30.699  1.00  0.00     0.031 C 
ATOM     53  C   UNL A   1      40.357  25.517  27.843  1.00  0.00     0.029 A 
ATOM     54  C   UNL A   1      41.716  25.791  28.300  1.00  0.00     0.049 A 
ATOM     55  H   UNL A   1      42.400  27.484  29.301  1.00  0.00     0.167 HD
ATOM     56  C   UNL A   1      43.768  31.223  31.114  1.00  0.00     0.037 A 
ATOM     57  C   UNL A   1      42.770  24.968  28.144  1.00  0.00     0.037 A 
ATOM     58  C   UNL A   1      44.928  30.372  31.081  1.00  0.00     0.049 A 
ATOM     59  C   UNL A   1      44.120  25.401  28.638  1.00  0.00     0.074 A 
ATOM     60  C   UNL A   1      46.189  30.612  31.598  1.00  0.00     0.029 A 
ATOM     61  N   UNL A   1      44.970  29.117  30.492  1.00  0.00    -0.354 N 
ATOM     62  N   UNL A   1      44.459  26.512  29.244  1.00  0.00    -0.248 NA
ATOM     63  C   UNL A   1      45.236  24.469  28.418  1.00  0.00     0.031 C 
ATOM     64  C   UNL A   1      47.005  29.520  31.286  1.00  0.00     0.029 A 
ATOM     65  C   UNL A   1      46.242  28.584  30.607  1.00  0.00     0.049 A 
ATOM     66  H   UNL A   1      44.207  28.671  30.058  1.00  0.00     0.167 HD
ATOM     67  C   UNL A   1      45.821  26.409  29.493  1.00  0.00     0.074 A 
ATOM     68  C   UNL A   1      46.244  25.121  28.982  1.00  0.00     0.031 C 
ATOM     69  C   UNL A   1      46.647  27.303  30.088  1.00  0.00     0.037 A 
BRANCH  56  70
ATOM     70  C   UNL A   1      43.908  32.595  31.702  1.00  0.00     0.057 A 
ATOM     71  C   UNL A   1      44.128  33.722  30.899  1.00  0.00     0.134 A 
ATOM     72  C   UNL A   1      43.791  32.797  33.083  1.00  0.00     0.134 A 
ATOM     73  F   UNL A   1      44.261  33.593  29.570  1.00  0.00    -0.206 F 
ATOM     74  C   UNL A   1      44.252  34.998  31.451  1.00  0.00     0.040 A 
ATOM     75  C   UNL A   1      43.889  34.071  33.644  1.00  0.00     0.040 A 
ATOM     76  F   UNL A   1      43.574  31.761  33.907  1.00  0.00    -0.206 F 
ATOM     77  C   UNL A   1      44.126  35.175  32.828  1.00  0.00     0.006 A 
ENDBRANCH  56  70
BRANCH  57  78
ATOM     78  C   UNL A   1      42.587  23.649  27.490  1.00  0.00     0.057 A 
ATOM     79  C   UNL A   1      42.322  22.504  28.250  1.00  0.00     0.134 A 
ATOM     80  C   UNL A   1      42.665  23.501  26.101  1.00  0.00     0.134 A 
ATOM     81  F   UNL A   1      42.255  22.582  29.586  1.00  0.00    -0.206 F 
ATOM     82  C   UNL A   1      42.151  21.254  27.651  1.00  0.00     0.040 A 
ATOM     83  C   UNL A   1      42.476  22.261  25.487  1.00  0.00     0.040 A 
ATOM     84  F   UNL A   1      42.912  24.563  25.319  1.00  0.00    -0.206 F 
ATOM     85  C   UNL A   1      42.222  21.133  26.264  1.00  0.00     0.006 A 
ENDBRANCH  57  78
BRANCH  69  86
ATOM     86  C   UNL A   1      48.087  26.914  30.232  1.00  0.00     0.057 A 
ATOM     87  C   UNL A   1      48.530  26.123  31.300  1.00  0.00     0.134 A 
ATOM     88  C   UNL A   1      49.030  27.290  29.268  1.00  0.00     0.134 A 
ATOM     89  F   UNL A   1      47.677  25.744  32.263  1.00  0.00    -0.206 F 
ATOM     90  C   UNL A   1      49.864  25.730  31.409  1.00  0.00     0.040 A 
ATOM     91  C   UNL A   1      50.363  26.885  29.356  1.00  0.00     0.040 A 
ATOM     92  F   UNL A   1      48.667  28.043  28.218  1.00  0.00    -0.206 F 
ATOM     93  C   UNL A   1      50.783  26.104  30.430  1.00  0.00     0.006 A 
ENDBRANCH  69  86
ENDBRANCH  43  44
ENDBRANCH  35  38
ENDBRANCH  33  34
ENDBRANCH  32  33
ENDBRANCH  31  32
ENDBRANCH  29  31
ENDBRANCH  25  27
ENDBRANCH   4  25
TORSDOF 19
ENDMDL
MODEL 2
REMARK VINA RESULT:      -8.7      2.928      9.244
REMARK SMILES CCCCCCNC(=O)Oc1cccc(-c2ccc([C@H](C)C(=O)NCCCNC(=O)c3ccc(-c4c5nc(c(-c6c(F)cccc6F)c6ccc([nH]6)c(-c6c(F)cccc6F)c6nc(c(-c7c(F)cccc7F)c7ccc4[nH]7)C=C6)C=C5)cc3)cc2F)c1
REMARK SMILES IDX 16 1 17 2 18 3 19 4 85 5 86 6 87 7 15 8 11 9 12 10 88 11
REMARK SMILES IDX 13 12 14 13 10 14 8 15 7 16 9 18 6 19 5 20 4 21 3 22 2 23
REMARK SMILES IDX 1 24 20 25 21 26 22 27 23 28 24 29 25 31 26 32 27 33 28 34
REMARK SMILES IDX 29 35 30 37 31 38 32 39 84 40 33 41 83 42 34 43 35 44 36 45
REMARK SMILES IDX 77 46 37 47 82 48 76 49 78 50 38 51 81 52 75 53 74 54 39 56
REMARK SMILES IDX 65 57 48 58 64 59 49 60 52 61 63 62 79 63 50 64 51 65 62 67
REMARK SMILES IDX 80 68 53 69 40 70 41 71 46 72 42 73 43 74 45 75 47 76 44 77
REMARK SMILES IDX 66 78 67 79 72 80 68 81 69 82 71 83 73 84 70 85 54 86 55 87
REMARK SMILES IDX 60 88 56 89 57 90 59 91 61 92 58 93
REMARK H PARENT 7 17 24 30 28 36 78 55 52 66
REMARK Flexibility Score: inf
ROOT
ATOM      1  C   UNL A   1      44.340  24.921  30.033  1.00  0.00     0.018 A 
ATOM      2  C   UNL A   1      43.286  24.176  29.485  1.00  0.00     0.012 A 
ATOM      3  C   UNL A   1      43.456  23.425  28.316  1.00  0.00     0.005 A 
ATOM      4  C   UNL A   1      44.676  23.429  27.620  1.00  0.00    -0.033 A 
ATOM      5  C   UNL A   1      45.748  24.122  28.195  1.00  0.00     0.044 A 
ATOM      6  C   UNL A   1      45.575  24.855  29.371  1.00  0.00     0.131 A 
ATOM      7  F   UNL A   1      46.640  25.511  29.858  1.00  0.00    -0.206 F 
ENDROOT
BRANCH   1   8
ATOM      8  C   UNL A   1      44.143  25.731  31.248  1.00  0.00    -0.012 A 
ATOM      9  C   UNL A   1      43.283  27.707  32.369  1.00  0.00     0.133 A 
ATOM     10  C   UNL A   1      43.788  27.273  33.591  1.00  0.00     0.047 A 
ATOM     11  C   UNL A   1      43.460  26.959  31.205  1.00  0.00     0.056 A 
ATOM     12  C   UNL A   1      44.459  26.056  33.654  1.00  0.00     0.004 A 
ATOM     13  C   UNL A   1      44.635  25.295  32.495  1.00  0.00     0.009 A 
BRANCH   9  14
ATOM     14  O   UNL A   1      42.707  28.988  32.338  1.00  0.00    -0.410 OA
BRANCH  14  15
ATOM     15  C   UNL A   1      41.326  29.088  32.346  1.00  0.00     0.412 C 
ATOM     16  N   UNL A   1      40.858  29.984  33.266  1.00  0.00    -0.321 N 
ATOM     17  H   UNL A   1      39.881  30.087  33.323  1.00  0.00     0.167 HD
ATOM     18  O   UNL A   1      40.551  28.454  31.632  1.00  0.00    -0.224 OA
BRANCH  16  19
ATOM     19  C   UNL A   1      41.653  30.797  34.166  1.00  0.00     0.119 C 
BRANCH  19  20
ATOM     20  C   UNL A   1      40.783  31.696  35.044  1.00  0.00     0.021 C 
BRANCH  20  21
ATOM     21  C   UNL A   1      40.576  33.117  34.506  1.00  0.00     0.002 C 
BRANCH  21  22
ATOM     22  C   UNL A   1      39.584  33.985  35.290  1.00  0.00    -0.000 C 
BRANCH  22  23
ATOM     23  C   UNL A   1      39.355  33.571  36.746  1.00  0.00    -0.003 C 
ATOM     24  C   UNL A   1      39.313  34.749  37.707  1.00  0.00     0.004 C 
ENDBRANCH  22  23
ENDBRANCH  21  22
ENDBRANCH  20  21
ENDBRANCH  19  20
ENDBRANCH  16  19
ENDBRANCH  14  15
ENDBRANCH   9  14
ENDBRANCH   1   8
BRANCH   4  25
ATOM     25  C   UNL A   1      44.813  22.703  26.284  1.00  0.00     0.105 C 
ATOM     26  C   UNL A   1      46.052  23.065  25.452  1.00  0.00     0.023 C 
BRANCH  25  27
ATOM     27  C   UNL A   1      43.578  22.808  25.383  1.00  0.00     0.227 C 
ATOM     28  O   UNL A   1      43.377  23.812  24.697  1.00  0.00    -0.274 OA
ATOM     29  N   UNL A   1      42.650  21.810  25.325  1.00  0.00    -0.356 N 
ATOM     30  H   UNL A   1      41.860  22.011  24.772  1.00  0.00     0.163 HD
BRANCH  29  31
ATOM     31  C   UNL A   1      42.645  20.497  25.950  1.00  0.00     0.117 C 
BRANCH  31  32
ATOM     32  C   UNL A   1      41.278  20.139  26.512  1.00  0.00     0.042 C 
BRANCH  32  33
ATOM     33  C   UNL A   1      40.548  21.314  27.151  1.00  0.00     0.118 C 
BRANCH  33  34
ATOM     34  N   UNL A   1      39.335  21.687  26.436  1.00  0.00    -0.352 N 
ATOM     35  C   UNL A   1      38.743  22.918  26.287  1.00  0.00     0.251 C 
ATOM     36  H   UNL A   1      38.867  20.943  25.991  1.00  0.00     0.163 HD
ATOM     37  O   UNL A   1      37.634  23.013  25.773  1.00  0.00    -0.269 OA
BRANCH  35  38
ATOM     38  C   UNL A   1      39.432  24.128  26.779  1.00  0.00     0.039 A 
ATOM     39  C   UNL A   1      40.177  24.896  25.879  1.00  0.00     0.014 A 
ATOM     40  C   UNL A   1      39.320  24.519  28.115  1.00  0.00     0.014 A 
ATOM     41  C   UNL A   1      40.724  26.111  26.297  1.00  0.00     0.010 A 
ATOM     42  C   UNL A   1      39.799  25.763  28.510  1.00  0.00     0.010 A 
ATOM     43  C   UNL A   1      40.489  26.578  27.600  1.00  0.00    -0.014 A 
BRANCH  43  44
ATOM     44  C   UNL A   1      40.910  27.934  28.028  1.00  0.00     0.031 A 
ATOM     45  C   UNL A   1      42.367  28.296  28.067  1.00  0.00     0.074 A 
ATOM     46  C   UNL A   1      39.985  28.802  28.482  1.00  0.00     0.049 A 
ATOM     47  N   UNL A   1      42.938  29.372  28.544  1.00  0.00    -0.248 NA
ATOM     48  C   UNL A   1      43.306  27.304  27.522  1.00  0.00     0.031 C 
ATOM     49  C   UNL A   1      38.542  28.555  28.531  1.00  0.00     0.029 A 
ATOM     50  N   UNL A   1      40.123  30.061  29.011  1.00  0.00    -0.354 N 
ATOM     51  C   UNL A   1      44.302  29.181  28.373  1.00  0.00     0.074 A 
ATOM     52  C   UNL A   1      44.476  27.869  27.788  1.00  0.00     0.031 C 
ATOM     53  C   UNL A   1      37.929  29.630  29.049  1.00  0.00     0.029 A 
ATOM     54  C   UNL A   1      38.935  30.623  29.411  1.00  0.00     0.049 A 
ATOM     55  H   UNL A   1      40.991  30.518  29.097  1.00  0.00     0.167 HD
ATOM     56  C   UNL A   1      45.316  30.031  28.661  1.00  0.00     0.037 A 
ATOM     57  C   UNL A   1      38.686  31.797  30.022  1.00  0.00     0.037 A 
ATOM     58  C   UNL A   1      45.138  31.344  29.221  1.00  0.00     0.049 A 
ATOM     59  C   UNL A   1      39.830  32.705  30.365  1.00  0.00     0.074 A 
ATOM     60  C   UNL A   1      46.096  32.308  29.478  1.00  0.00     0.029 A 
ATOM     61  N   UNL A   1      43.920  31.875  29.617  1.00  0.00    -0.354 N 
ATOM     62  N   UNL A   1      41.112  32.538  30.143  1.00  0.00    -0.248 NA
ATOM     63  C   UNL A   1      39.497  33.962  31.052  1.00  0.00     0.031 C 
ATOM     64  C   UNL A   1      45.463  33.408  30.068  1.00  0.00     0.029 A 
ATOM     65  C   UNL A   1      44.105  33.142  30.144  1.00  0.00     0.049 A 
ATOM     66  H   UNL A   1      43.051  31.419  29.534  1.00  0.00     0.167 HD
ATOM     67  C   UNL A   1      41.736  33.671  30.646  1.00  0.00     0.074 A 
ATOM     68  C   UNL A   1      40.692  34.525  31.175  1.00  0.00     0.031 C 
ATOM     69  C   UNL A   1      43.056  33.975  30.670  1.00  0.00     0.037 A 
BRANCH  56  70
ATOM     70  C   UNL A   1      46.711  29.562  28.373  1.00  0.00     0.057 A 
ATOM     71  C   UNL A   1      47.360  29.875  27.172  1.00  0.00     0.134 A 
ATOM     72  C   UNL A   1      47.425  28.814  29.318  1.00  0.00     0.134 A 
ATOM     73  F   UNL A   1      46.726  30.578  26.220  1.00  0.00    -0.206 F 
ATOM     74  C   UNL A   1      48.660  29.441  26.910  1.00  0.00     0.040 A 
ATOM     75  C   UNL A   1      48.734  28.395  29.078  1.00  0.00     0.040 A 
ATOM     76  F   UNL A   1      46.864  28.485  30.491  1.00  0.00    -0.206 F 
ATOM     77  C   UNL A   1      49.353  28.703  27.868  1.00  0.00     0.006 A 
ENDBRANCH  56  70
BRANCH  57  78
ATOM     78  C   UNL A   1      37.290  32.179  30.347  1.00  0.00     0.057 A 
ATOM     79  C   UNL A   1      36.508  32.888  29.428  1.00  0.00     0.134 A 
ATOM     80  C   UNL A   1      36.702  31.842  31.571  1.00  0.00     0.134 A 
ATOM     81  F   UNL A   1      37.024  33.255  28.246  1.00  0.00    -0.206 F 
ATOM     82  C   UNL A   1      35.194  33.258  29.719  1.00  0.00     0.040 A 
ATOM     83  C   UNL A   1      35.383  32.188  31.868  1.00  0.00     0.040 A 
ATOM     84  F   UNL A   1      37.399  31.159  32.492  1.00  0.00    -0.206 F 
ATOM     85  C   UNL A   1      34.626  32.902  30.940  1.00  0.00     0.006 A 
ENDBRANCH  57  78
BRANCH  69  86
ATOM     86  C   UNL A   1      43.444  35.290  31.276  1.00  0.00     0.057 A 
ATOM     87  C   UNL A   1      43.659  35.428  32.653  1.00  0.00     0.134 A 
ATOM     88  C   UNL A   1      43.654  36.415  30.470  1.00  0.00     0.134 A 
ATOM     89  F   UNL A   1      43.458  34.390  33.479  1.00  0.00    -0.206 F 
ATOM     90  C   UNL A   1      44.059  36.643  33.208  1.00  0.00     0.040 A 
ATOM     91  C   UNL A   1      44.075  37.631  31.012  1.00  0.00     0.040 A 
ATOM     92  F   UNL A   1      43.471  36.346  29.142  1.00  0.00    -0.206 F 
ATOM     93  C   UNL A   1      44.276  37.747  32.385  1.00  0.00     0.006 A 
ENDBRANCH  69  86
ENDBRANCH  43  44
ENDBRANCH  35  38
ENDBRANCH  33  34
ENDBRANCH  32  33
ENDBRANCH  31  32
ENDBRANCH  29  31
ENDBRANCH  25  27
ENDBRANCH   4  25
TORSDOF 19
ENDMDL
MODEL 3
REMARK VINA RESULT:      -8.7      2.436      4.571
REMARK SMILES CCCCCCNC(=O)Oc1cccc(-c2ccc([C@H](C)C(=O)NCCCNC(=O)c3ccc(-c4c5nc(c(-c6c(F)cccc6F)c6ccc([nH]6)c(-c6c(F)cccc6F)c6nc(c(-c7c(F)cccc7F)c7ccc4[nH]7)C=C6)C=C5)cc3)cc2F)c1
REMARK SMILES IDX 16 1 17 2 18 3 19 4 85 5 86 6 87 7 15 8 11 9 12 10 88 11
REMARK SMILES IDX 13 12 14 13 10 14 8 15 7 16 9 18 6 19 5 20 4 21 3 22 2 23
REMARK SMILES IDX 1 24 20 25 21 26 22 27 23 28 24 29 25 31 26 32 27 33 28 34
REMARK SMILES IDX 29 35 30 37 31 38 32 39 84 40 33 41 83 42 34 43 35 44 36 45
REMARK SMILES IDX 77 46 37 47 82 48 76 49 78 50 38 51 81 52 75 53 74 54 39 56
REMARK SMILES IDX 65 57 48 58 64 59 49 60 52 61 63 62 79 63 50 64 51 65 62 67
REMARK SMILES IDX 80 68 53 69 40 70 41 71 46 72 42 73 43 74 45 75 47 76 44 77
REMARK SMILES IDX 66 78 67 79 72 80 68 81 69 82 71 83 73 84 70 85 54 86 55 87
REMARK SMILES IDX 60 88 56 89 57 90 59 91 61 92 58 93
REMARK H PARENT 7 17 24 30 28 36 78 55 52 66
REMARK Flexibility Score: inf
ROOT
ATOM      1  C   UNL A   1      40.722  34.246  31.230  1.00  0.00     0.018 A 
ATOM      2  C   UNL A   1      39.353  34.054  30.998  1.00  0.00     0.012 A 
ATOM      3  C   UNL A   1      38.423  34.105  32.044  1.00  0.00     0.005 A 
ATOM      4  C   UNL A   1      38.834  34.300  33.374  1.00  0.00    -0.033 A 
ATOM      5  C   UNL A   1      40.192  34.552  33.602  1.00  0.00     0.044 A 
ATOM      6  C   UNL A   1      41.111  34.518  32.550  1.00  0.00     0.131 A 
ATOM      7  F   UNL A   1      42.401  34.750  32.843  1.00  0.00    -0.206 F 
ENDROOT
BRANCH   1   8
ATOM      8  C   UNL A   1      41.695  34.163  30.127  1.00  0.00    -0.012 A 
ATOM      9  C   UNL A   1      43.284  32.909  28.784  1.00  0.00     0.133 A 
ATOM     10  C   UNL A   1      43.567  34.032  28.013  1.00  0.00     0.047 A 
ATOM     11  C   UNL A   1      42.369  32.964  29.835  1.00  0.00     0.056 A 
ATOM     12  C   UNL A   1      42.904  35.225  28.281  1.00  0.00     0.004 A 
ATOM     13  C   UNL A   1      41.979  35.288  29.327  1.00  0.00     0.009 A 
BRANCH   9  14
ATOM     14  O   UNL A   1      44.055  31.760  28.541  1.00  0.00    -0.410 OA
BRANCH  14  15
ATOM     15  C   UNL A   1      43.467  30.521  28.733  1.00  0.00     0.412 C 
ATOM     16  N   UNL A   1      44.131  29.747  29.643  1.00  0.00    -0.321 N 
ATOM     17  H   UNL A   1      43.764  28.849  29.809  1.00  0.00     0.167 HD
ATOM     18  O   UNL A   1      42.461  30.101  28.163  1.00  0.00    -0.224 OA
BRANCH  16  19
ATOM     19  C   UNL A   1      45.322  30.112  30.386  1.00  0.00     0.119 C 
BRANCH  19  20
ATOM     20  C   UNL A   1      46.595  29.598  29.715  1.00  0.00     0.021 C 
BRANCH  20  21
ATOM     21  C   UNL A   1      46.372  28.514  28.654  1.00  0.00     0.002 C 
BRANCH  21  22
ATOM     22  C   UNL A   1      47.546  28.271  27.698  1.00  0.00    -0.000 C 
BRANCH  22  23
ATOM     23  C   UNL A   1      47.247  27.357  26.506  1.00  0.00    -0.003 C 
ATOM     24  C   UNL A   1      47.681  25.917  26.728  1.00  0.00     0.004 C 
ENDBRANCH  22  23
ENDBRANCH  21  22
ENDBRANCH  20  21
ENDBRANCH  19  20
ENDBRANCH  16  19
ENDBRANCH  14  15
ENDBRANCH   9  14
ENDBRANCH   1   8
BRANCH   4  25
ATOM     25  C   UNL A   1      37.826  34.234  34.518  1.00  0.00     0.105 C 
ATOM     26  C   UNL A   1      38.414  34.345  35.932  1.00  0.00     0.023 C 
BRANCH  25  27
ATOM     27  C   UNL A   1      36.904  33.012  34.472  1.00  0.00     0.227 C 
ATOM     28  O   UNL A   1      37.276  31.920  34.906  1.00  0.00    -0.274 OA
ATOM     29  N   UNL A   1      35.653  33.082  33.932  1.00  0.00    -0.356 N 
ATOM     30  H   UNL A   1      35.174  32.223  33.886  1.00  0.00     0.163 HD
BRANCH  29  31
ATOM     31  C   UNL A   1      34.918  34.224  33.415  1.00  0.00     0.117 C 
BRANCH  31  32
ATOM     32  C   UNL A   1      34.513  34.030  31.962  1.00  0.00     0.042 C 
BRANCH  32  33
ATOM     33  C   UNL A   1      34.890  32.668  31.393  1.00  0.00     0.118 C 
BRANCH  33  34
ATOM     34  N   UNL A   1      34.375  32.450  30.048  1.00  0.00    -0.352 N 
ATOM     35  C   UNL A   1      34.935  31.780  28.987  1.00  0.00     0.251 C 
ATOM     36  H   UNL A   1      33.489  32.844  29.872  1.00  0.00     0.163 HD
ATOM     37  O   UNL A   1      34.415  31.832  27.878  1.00  0.00    -0.269 OA
BRANCH  35  38
ATOM     38  C   UNL A   1      36.188  31.022  29.178  1.00  0.00     0.039 A 
ATOM     39  C   UNL A   1      37.405  31.636  28.866  1.00  0.00     0.014 A 
ATOM     40  C   UNL A   1      36.164  29.723  29.691  1.00  0.00     0.014 A 
ATOM     41  C   UNL A   1      38.602  30.984  29.165  1.00  0.00     0.010 A 
ATOM     42  C   UNL A   1      37.356  29.107  30.058  1.00  0.00     0.010 A 
ATOM     43  C   UNL A   1      38.585  29.740  29.815  1.00  0.00    -0.014 A 
BRANCH  43  44
ATOM     44  C   UNL A   1      39.830  29.095  30.297  1.00  0.00     0.031 A 
ATOM     45  C   UNL A   1      40.526  29.617  31.522  1.00  0.00     0.074 A 
ATOM     46  C   UNL A   1      40.391  28.109  29.569  1.00  0.00     0.049 A 
ATOM     47  N   UNL A   1      41.691  29.283  32.015  1.00  0.00    -0.248 NA
ATOM     48  C   UNL A   1      39.829  30.670  32.276  1.00  0.00     0.031 C 
ATOM     49  C   UNL A   1      39.833  27.542  28.339  1.00  0.00     0.029 A 
ATOM     50  N   UNL A   1      41.567  27.425  29.745  1.00  0.00    -0.354 N 
ATOM     51  C   UNL A   1      41.876  30.096  33.124  1.00  0.00     0.074 A 
ATOM     52  C   UNL A   1      40.724  30.968  33.209  1.00  0.00     0.031 C 
ATOM     53  C   UNL A   1      40.659  26.589  27.880  1.00  0.00     0.029 A 
ATOM     54  C   UNL A   1      41.825  26.510  28.754  1.00  0.00     0.049 A 
ATOM     55  H   UNL A   1      42.169  27.576  30.510  1.00  0.00     0.167 HD
ATOM     56  C   UNL A   1      42.906  30.102  34.004  1.00  0.00     0.037 A 
ATOM     57  C   UNL A   1      42.892  25.713  28.557  1.00  0.00     0.037 A 
ATOM     58  C   UNL A   1      44.039  29.218  33.931  1.00  0.00     0.049 A 
ATOM     59  C   UNL A   1      44.037  25.765  29.526  1.00  0.00     0.074 A 
ATOM     60  C   UNL A   1      45.095  29.096  34.816  1.00  0.00     0.029 A 
ATOM     61  N   UNL A   1      44.266  28.309  32.909  1.00  0.00    -0.354 N 
ATOM     62  N   UNL A   1      44.173  26.496  30.605  1.00  0.00    -0.248 NA
ATOM     63  C   UNL A   1      45.184  24.888  29.245  1.00  0.00     0.031 C 
ATOM     64  C   UNL A   1      45.983  28.141  34.308  1.00  0.00     0.029 A 
ATOM     65  C   UNL A   1      45.460  27.643  33.126  1.00  0.00     0.049 A 
ATOM     66  H   UNL A   1      43.666  28.159  32.142  1.00  0.00     0.167 HD
ATOM     67  C   UNL A   1      45.408  26.158  31.141  1.00  0.00     0.074 A 
ATOM     68  C   UNL A   1      45.978  25.146  30.275  1.00  0.00     0.031 C 
ATOM     69  C   UNL A   1      46.016  26.644  32.251  1.00  0.00     0.037 A 
BRANCH  56  70
ATOM     70  C   UNL A   1      42.850  31.099  35.123  1.00  0.00     0.057 A 
ATOM     71  C   UNL A   1      43.410  32.377  34.999  1.00  0.00     0.134 A 
ATOM     72  C   UNL A   1      42.204  30.789  36.326  1.00  0.00     0.134 A 
ATOM     73  F   UNL A   1      44.054  32.731  33.876  1.00  0.00    -0.206 F 
ATOM     74  C   UNL A   1      43.352  33.303  36.042  1.00  0.00     0.040 A 
ATOM     75  C   UNL A   1      42.118  31.715  37.367  1.00  0.00     0.040 A 
ATOM     76  F   UNL A   1      41.642  29.584  36.507  1.00  0.00    -0.206 F 
ATOM     77  C   UNL A   1      42.698  32.974  37.228  1.00  0.00     0.006 A 
ENDBRANCH  56  70
BRANCH  57  78
ATOM     78  C   UNL A   1      42.924  24.795  27.392  1.00  0.00     0.057 A 
ATOM     79  C   UNL A   1      43.534  25.181  26.193  1.00  0.00     0.134 A 
ATOM     80  C   UNL A   1      42.356  23.518  27.447  1.00  0.00     0.134 A 
ATOM     81  F   UNL A   1      44.077  26.401  26.075  1.00  0.00    -0.206 F 
ATOM     82  C   UNL A   1      43.569  24.331  25.086  1.00  0.00     0.040 A 
ATOM     83  C   UNL A   1      42.403  22.650  26.354  1.00  0.00     0.040 A 
ATOM     84  F   UNL A   1      41.761  23.089  28.571  1.00  0.00    -0.206 F 
ATOM     85  C   UNL A   1      43.008  23.059  25.168  1.00  0.00     0.006 A 
ENDBRANCH  57  78
BRANCH  69  86
ATOM     86  C   UNL A   1      47.360  26.079  32.597  1.00  0.00     0.057 A 
ATOM     87  C   UNL A   1      47.500  25.034  33.519  1.00  0.00     0.134 A 
ATOM     88  C   UNL A   1      48.518  26.551  31.968  1.00  0.00     0.134 A 
ATOM     89  F   UNL A   1      46.430  24.550  34.166  1.00  0.00    -0.206 F 
ATOM     90  C   UNL A   1      48.749  24.485  33.809  1.00  0.00     0.040 A 
ATOM     91  C   UNL A   1      49.770  25.994  32.235  1.00  0.00     0.040 A 
ATOM     92  F   UNL A   1      48.449  27.547  31.072  1.00  0.00    -0.206 F 
ATOM     93  C   UNL A   1      49.888  24.960  33.160  1.00  0.00     0.006 A 
ENDBRANCH  69  86
ENDBRANCH  43  44
ENDBRANCH  35  38
ENDBRANCH  33  34
ENDBRANCH  32  33
ENDBRANCH  31  32
ENDBRANCH  29  31
ENDBRANCH  25  27
ENDBRANCH   4  25
TORSDOF 19
ENDMDL
