MODEL 1
REMARK VINA RESULT:     -12.2      0.000      0.000
REMARK SMILES C[C@H]1OCC[C@@H]1C(=O)Nc1ccc(Cl)c(C(=O)NCCCNC(=O)c2ccc(-c3c4nc(c(-c5c(F)cccc5F)c5ccc([nH]5)c(-c5c(F)cccc5F)c5nc(c(-c6c(F)cccc6F)c6ccc3[nH]6)C=C5)C=C4)cc2)c1
REMARK SMILES IDX 20 1 19 2 18 3 16 4 17 5 15 7 10 8 11 9 79 10 12 11 13 12
REMARK SMILES IDX 14 13 9 14 7 15 8 16 6 18 1 19 2 20 3 21 4 22 5 23 21 24
REMARK SMILES IDX 22 25 23 26 24 28 25 29 26 30 78 31 27 32 77 33 28 34 29 35
REMARK SMILES IDX 30 36 71 37 31 38 76 39 70 40 72 41 32 42 75 43 69 44 68 45
REMARK SMILES IDX 33 47 59 48 42 49 58 50 43 51 46 52 57 53 73 54 44 55 45 56
REMARK SMILES IDX 56 58 74 59 47 60 34 61 35 62 40 63 36 64 37 65 39 66 41 67
REMARK SMILES IDX 38 68 60 69 61 70 66 71 62 72 63 73 65 74 67 75 64 76 48 77
REMARK SMILES IDX 49 78 54 79 50 80 51 81 53 82 55 83 52 84
REMARK H PARENT 18 6 9 17 22 27 72 46 46 57
REMARK Flexibility Score: inf
ROOT
ATOM      1  C   UNL A   1      31.403  32.150  26.667  1.00  0.00     0.042 C 
ENDROOT
BRANCH   1   2
ATOM      2  C   UNL A   1      31.666  30.775  26.096  1.00  0.00     0.118 C 
BRANCH   2   3
ATOM      3  N   UNL A   1      32.806  30.065  26.652  1.00  0.00    -0.352 N 
ATOM      4  C   UNL A   1      33.259  28.780  26.438  1.00  0.00     0.252 C 
ATOM      5  O   UNL A   1      34.316  28.444  26.972  1.00  0.00    -0.269 OA
ATOM      6  H   UNL A   1      33.347  30.590  27.286  1.00  0.00     0.163 HD
BRANCH   4   7
ATOM      7  C   UNL A   1      32.456  27.757  25.720  1.00  0.00     0.060 A 
ATOM      8  C   UNL A   1      30.757  26.050  25.858  1.00  0.00     0.042 A 
ATOM      9  C   UNL A   1      30.532  26.168  24.496  1.00  0.00     0.028 A 
ATOM     10  C   UNL A   1      31.586  26.969  26.496  1.00  0.00     0.041 A 
ATOM     11  C   UNL A   1      31.439  26.875  23.722  1.00  0.00     0.023 A 
ATOM     12  C   UNL A   1      32.509  27.508  24.347  1.00  0.00     0.053 A 
ATOM     13  Cl  UNL A   1      33.951  27.682  23.399  1.00  0.00    -0.083 Cl
BRANCH   8  14
ATOM     14  N   UNL A   1      30.228  24.974  26.569  1.00  0.00    -0.326 N 
ATOM     15  C   UNL A   1      30.852  23.801  26.913  1.00  0.00     0.230 C 
ATOM     16  O   UNL A   1      30.150  22.927  27.438  1.00  0.00    -0.274 OA
ATOM     17  H   UNL A   1      29.291  25.066  26.858  1.00  0.00     0.169 HD
BRANCH  15  18
ATOM     18  C   UNL A   1      32.373  23.549  26.797  1.00  0.00     0.110 C 
ATOM     19  C   UNL A   1      33.931  24.095  24.859  1.00  0.00     0.039 C 
ATOM     20  C   UNL A   1      32.845  23.165  25.395  1.00  0.00     0.127 C 
ATOM     21  O   UNL A   1      33.406  21.848  25.492  1.00  0.00    -0.378 OA
ATOM     22  C   UNL A   1      33.846  21.644  26.835  1.00  0.00     0.161 C 
ATOM     23  C   UNL A   1      33.003  22.533  27.728  1.00  0.00     0.044 C 
ENDBRANCH  15  18
ENDBRANCH   8  14
ENDBRANCH   4   7
ENDBRANCH   2   3
ENDBRANCH   1   2
BRANCH   1  24
ATOM     24  C   UNL A   1      32.614  32.818  27.281  1.00  0.00     0.118 C 
BRANCH  24  25
ATOM     25  N   UNL A   1      32.392  34.216  27.633  1.00  0.00    -0.352 N 
ATOM     26  C   UNL A   1      33.003  35.030  28.559  1.00  0.00     0.251 C 
ATOM     27  H   UNL A   1      31.678  34.656  27.118  1.00  0.00     0.163 HD
ATOM     28  O   UNL A   1      32.542  36.148  28.785  1.00  0.00    -0.269 OA
BRANCH  26  29
ATOM     29  C   UNL A   1      34.188  34.565  29.312  1.00  0.00     0.039 A 
ATOM     30  C   UNL A   1      34.019  33.997  30.579  1.00  0.00     0.014 A 
ATOM     31  C   UNL A   1      35.469  34.689  28.779  1.00  0.00     0.014 A 
ATOM     32  C   UNL A   1      35.122  33.471  31.259  1.00  0.00     0.010 A 
ATOM     33  C   UNL A   1      36.538  34.050  29.390  1.00  0.00     0.010 A 
ATOM     34  C   UNL A   1      36.383  33.446  30.646  1.00  0.00    -0.014 A 
BRANCH  34  35
ATOM     35  C   UNL A   1      37.576  32.843  31.293  1.00  0.00     0.031 A 
ATOM     36  C   UNL A   1      38.253  31.665  30.642  1.00  0.00     0.074 A 
ATOM     37  C   UNL A   1      37.986  33.277  32.500  1.00  0.00     0.049 A 
ATOM     38  N   UNL A   1      39.188  30.881  31.112  1.00  0.00    -0.248 NA
ATOM     39  C   UNL A   1      37.780  31.290  29.297  1.00  0.00     0.031 C 
ATOM     40  C   UNL A   1      37.390  34.381  33.256  1.00  0.00     0.029 A 
ATOM     41  N   UNL A   1      38.994  32.824  33.316  1.00  0.00    -0.354 N 
ATOM     42  C   UNL A   1      39.390  29.909  30.140  1.00  0.00     0.074 A 
ATOM     43  C   UNL A   1      38.436  30.162  29.083  1.00  0.00     0.031 C 
ATOM     44  C   UNL A   1      38.056  34.533  34.412  1.00  0.00     0.029 A 
ATOM     45  C   UNL A   1      39.091  33.508  34.505  1.00  0.00     0.049 A 
ATOM     46  H   UNL A   1      39.589  32.080  33.073  1.00  0.00     0.167 HD
ATOM     47  C   UNL A   1      40.306  28.914  30.114  1.00  0.00     0.037 A 
ATOM     48  C   UNL A   1      39.913  33.319  35.555  1.00  0.00     0.037 A 
ATOM     49  C   UNL A   1      41.282  28.695  31.145  1.00  0.00     0.049 A 
ATOM     50  C   UNL A   1      40.922  32.204  35.504  1.00  0.00     0.074 A 
ATOM     51  C   UNL A   1      42.294  27.753  31.188  1.00  0.00     0.029 A 
ATOM     52  N   UNL A   1      41.373  29.436  32.314  1.00  0.00    -0.354 N 
ATOM     53  N   UNL A   1      41.136  31.325  34.554  1.00  0.00    -0.248 NA
ATOM     54  C   UNL A   1      41.806  32.055  36.668  1.00  0.00     0.031 C 
ATOM     55  C   UNL A   1      42.970  27.895  32.403  1.00  0.00     0.029 A 
ATOM     56  C   UNL A   1      42.415  28.962  33.092  1.00  0.00     0.049 A 
ATOM     57  H   UNL A   1      40.783  30.188  32.554  1.00  0.00     0.167 HD
ATOM     58  C   UNL A   1      42.203  30.548  34.988  1.00  0.00     0.074 A 
ATOM     59  C   UNL A   1      42.595  31.062  36.283  1.00  0.00     0.031 C 
ATOM     60  C   UNL A   1      42.807  29.506  34.367  1.00  0.00     0.037 A 
BRANCH  47  61
ATOM     61  C   UNL A   1      40.302  27.996  28.925  1.00  0.00     0.057 A 
ATOM     62  C   UNL A   1      41.022  28.291  27.760  1.00  0.00     0.134 A 
ATOM     63  C   UNL A   1      39.593  26.787  28.956  1.00  0.00     0.134 A 
ATOM     64  F   UNL A   1      41.711  29.437  27.658  1.00  0.00    -0.206 F 
ATOM     65  C   UNL A   1      41.015  27.432  26.658  1.00  0.00     0.040 A 
ATOM     66  C   UNL A   1      39.604  25.907  27.872  1.00  0.00     0.040 A 
ATOM     67  F   UNL A   1      38.886  26.440  30.041  1.00  0.00    -0.206 F 
ATOM     68  C   UNL A   1      40.310  26.233  26.717  1.00  0.00     0.006 A 
ENDBRANCH  47  61
BRANCH  48  69
ATOM     69  C   UNL A   1      39.835  34.215  36.738  1.00  0.00     0.057 A 
ATOM     70  C   UNL A   1      39.024  33.892  37.833  1.00  0.00     0.134 A 
ATOM     71  C   UNL A   1      40.548  35.418  36.798  1.00  0.00     0.134 A 
ATOM     72  F   UNL A   1      38.303  32.762  37.828  1.00  0.00    -0.206 F 
ATOM     73  C   UNL A   1      38.904  34.743  38.933  1.00  0.00     0.040 A 
ATOM     74  C   UNL A   1      40.460  36.266  37.904  1.00  0.00     0.040 A 
ATOM     75  F   UNL A   1      41.351  35.782  35.787  1.00  0.00    -0.206 F 
ATOM     76  C   UNL A   1      39.627  35.934  38.971  1.00  0.00     0.006 A 
ENDBRANCH  48  69
BRANCH  60  77
ATOM     77  C   UNL A   1      43.993  28.887  35.044  1.00  0.00     0.057 A 
ATOM     78  C   UNL A   1      43.869  27.794  35.909  1.00  0.00     0.134 A 
ATOM     79  C   UNL A   1      45.286  29.354  34.769  1.00  0.00     0.134 A 
ATOM     80  F   UNL A   1      42.659  27.307  36.222  1.00  0.00    -0.206 F 
ATOM     81  C   UNL A   1      44.989  27.195  36.490  1.00  0.00     0.040 A 
ATOM     82  C   UNL A   1      46.413  28.747  35.322  1.00  0.00     0.040 A 
ATOM     83  F   UNL A   1      45.473  30.392  33.941  1.00  0.00    -0.206 F 
ATOM     84  C   UNL A   1      46.265  27.666  36.188  1.00  0.00     0.006 A 
ENDBRANCH  60  77
ENDBRANCH  34  35
ENDBRANCH  26  29
ENDBRANCH  24  25
ENDBRANCH   1  24
TORSDOF 12
ENDMDL
MODEL 2
REMARK VINA RESULT:     -12.1      5.272      9.948
REMARK SMILES C[C@H]1OCC[C@@H]1C(=O)Nc1ccc(Cl)c(C(=O)NCCCNC(=O)c2ccc(-c3c4nc(c(-c5c(F)cccc5F)c5ccc([nH]5)c(-c5c(F)cccc5F)c5nc(c(-c6c(F)cccc6F)c6ccc3[nH]6)C=C5)C=C4)cc2)c1
REMARK SMILES IDX 20 1 19 2 18 3 16 4 17 5 15 7 10 8 11 9 79 10 12 11 13 12
REMARK SMILES IDX 14 13 9 14 7 15 8 16 6 18 1 19 2 20 3 21 4 22 5 23 21 24
REMARK SMILES IDX 22 25 23 26 24 28 25 29 26 30 78 31 27 32 77 33 28 34 29 35
REMARK SMILES IDX 30 36 71 37 31 38 76 39 70 40 72 41 32 42 75 43 69 44 68 45
REMARK SMILES IDX 33 47 59 48 42 49 58 50 43 51 46 52 57 53 73 54 44 55 45 56
REMARK SMILES IDX 56 58 74 59 47 60 34 61 35 62 40 63 36 64 37 65 39 66 41 67
REMARK SMILES IDX 38 68 60 69 61 70 66 71 62 72 63 73 65 74 67 75 64 76 48 77
REMARK SMILES IDX 49 78 54 79 50 80 51 81 53 82 55 83 52 84
REMARK H PARENT 18 6 9 17 22 27 72 46 46 57
REMARK Flexibility Score: inf
ROOT
ATOM      1  C   UNL A   1      36.975  19.407  24.767  1.00  0.00     0.042 C 
ENDROOT
BRANCH   1   2
ATOM      2  C   UNL A   1      35.666  20.128  24.997  1.00  0.00     0.118 C 
BRANCH   2   3
ATOM      3  N   UNL A   1      34.509  19.280  25.237  1.00  0.00    -0.352 N 
ATOM      4  C   UNL A   1      33.160  19.553  25.155  1.00  0.00     0.252 C 
ATOM      5  O   UNL A   1      32.371  18.623  25.325  1.00  0.00    -0.269 OA
ATOM      6  H   UNL A   1      34.725  18.357  25.502  1.00  0.00     0.163 HD
BRANCH   4   7
ATOM      7  C   UNL A   1      32.629  20.934  25.016  1.00  0.00     0.060 A 
ATOM      8  C   UNL A   1      31.911  22.689  23.525  1.00  0.00     0.042 A 
ATOM      9  C   UNL A   1      31.193  23.269  24.558  1.00  0.00     0.028 A 
ATOM     10  C   UNL A   1      32.477  21.430  23.708  1.00  0.00     0.041 A 
ATOM     11  C   UNL A   1      31.411  22.834  25.856  1.00  0.00     0.023 A 
ATOM     12  C   UNL A   1      32.289  21.778  26.075  1.00  0.00     0.053 A 
ATOM     13  Cl  UNL A   1      33.110  21.772  27.603  1.00  0.00    -0.083 Cl
BRANCH   8  14
ATOM     14  N   UNL A   1      32.137  23.392  22.342  1.00  0.00    -0.326 N 
ATOM     15  C   UNL A   1      33.085  24.357  22.102  1.00  0.00     0.230 C 
ATOM     16  O   UNL A   1      33.024  24.941  21.012  1.00  0.00    -0.274 OA
ATOM     17  H   UNL A   1      31.544  23.171  21.587  1.00  0.00     0.169 HD
BRANCH  15  18
ATOM     18  C   UNL A   1      34.272  24.673  23.039  1.00  0.00     0.110 C 
ATOM     19  C   UNL A   1      36.469  23.414  23.303  1.00  0.00     0.039 C 
ATOM     20  C   UNL A   1      34.974  23.440  23.610  1.00  0.00     0.127 C 
ATOM     21  O   UNL A   1      34.821  23.498  25.035  1.00  0.00    -0.378 OA
ATOM     22  C   UNL A   1      34.634  24.862  25.414  1.00  0.00     0.161 C 
ATOM     23  C   UNL A   1      34.024  25.582  24.226  1.00  0.00     0.044 C 
ENDBRANCH  15  18
ENDBRANCH   8  14
ENDBRANCH   4   7
ENDBRANCH   2   3
ENDBRANCH   1   2
BRANCH   1  24
ATOM     24  C   UNL A   1      38.184  20.094  25.365  1.00  0.00     0.118 C 
BRANCH  24  25
ATOM     25  N   UNL A   1      39.328  19.206  25.546  1.00  0.00    -0.352 N 
ATOM     26  C   UNL A   1      40.606  19.448  25.992  1.00  0.00     0.251 C 
ATOM     27  H   UNL A   1      39.155  18.268  25.305  1.00  0.00     0.163 HD
ATOM     28  O   UNL A   1      41.455  18.561  25.919  1.00  0.00    -0.269 OA
BRANCH  26  29
ATOM     29  C   UNL A   1      40.984  20.774  26.528  1.00  0.00     0.039 A 
ATOM     30  C   UNL A   1      41.203  20.924  27.902  1.00  0.00     0.014 A 
ATOM     31  C   UNL A   1      41.119  21.874  25.685  1.00  0.00     0.014 A 
ATOM     32  C   UNL A   1      41.649  22.151  28.405  1.00  0.00     0.010 A 
ATOM     33  C   UNL A   1      41.689  23.046  26.162  1.00  0.00     0.010 A 
ATOM     34  C   UNL A   1      41.946  23.206  27.531  1.00  0.00    -0.014 A 
BRANCH  34  35
ATOM     35  C   UNL A   1      42.484  24.509  28.002  1.00  0.00     0.031 A 
ATOM     36  C   UNL A   1      41.526  25.615  28.362  1.00  0.00     0.074 A 
ATOM     37  C   UNL A   1      43.811  24.732  28.011  1.00  0.00     0.049 A 
ATOM     38  N   UNL A   1      41.773  26.872  28.625  1.00  0.00    -0.248 NA
ATOM     39  C   UNL A   1      40.094  25.271  28.383  1.00  0.00     0.031 C 
ATOM     40  C   UNL A   1      44.842  23.758  27.645  1.00  0.00     0.029 A 
ATOM     41  N   UNL A   1      44.523  25.866  28.320  1.00  0.00    -0.354 N 
ATOM     42  C   UNL A   1      40.531  27.469  28.808  1.00  0.00     0.074 A 
ATOM     43  C   UNL A   1      39.532  26.454  28.564  1.00  0.00     0.031 C 
ATOM     44  C   UNL A   1      46.052  24.327  27.773  1.00  0.00     0.029 A 
ATOM     45  C   UNL A   1      45.883  25.719  28.178  1.00  0.00     0.049 A 
ATOM     46  H   UNL A   1      44.100  26.703  28.615  1.00  0.00     0.167 HD
ATOM     47  C   UNL A   1      40.249  28.740  29.177  1.00  0.00     0.037 A 
ATOM     48  C   UNL A   1      46.877  26.612  28.342  1.00  0.00     0.037 A 
ATOM     49  C   UNL A   1      41.247  29.733  29.464  1.00  0.00     0.049 A 
ATOM     50  C   UNL A   1      46.538  28.020  28.750  1.00  0.00     0.074 A 
ATOM     51  C   UNL A   1      41.069  31.033  29.903  1.00  0.00     0.029 A 
ATOM     52  N   UNL A   1      42.614  29.532  29.347  1.00  0.00    -0.354 N 
ATOM     53  N   UNL A   1      45.361  28.556  28.972  1.00  0.00    -0.248 NA
ATOM     54  C   UNL A   1      47.663  28.948  28.934  1.00  0.00     0.031 C 
ATOM     55  C   UNL A   1      42.327  31.632  30.011  1.00  0.00     0.029 A 
ATOM     56  C   UNL A   1      43.291  30.689  29.692  1.00  0.00     0.049 A 
ATOM     57  H   UNL A   1      43.039  28.691  29.062  1.00  0.00     0.167 HD
ATOM     58  C   UNL A   1      45.608  29.867  29.360  1.00  0.00     0.074 A 
ATOM     59  C   UNL A   1      47.045  30.045  29.348  1.00  0.00     0.031 C 
ATOM     60  C   UNL A   1      44.724  30.836  29.700  1.00  0.00     0.037 A 
BRANCH  47  61
ATOM     61  C   UNL A   1      38.801  29.122  29.303  1.00  0.00     0.057 A 
ATOM     62  C   UNL A   1      38.114  29.027  30.521  1.00  0.00     0.134 A 
ATOM     63  C   UNL A   1      38.093  29.619  28.200  1.00  0.00     0.134 A 
ATOM     64  F   UNL A   1      38.729  28.546  31.612  1.00  0.00    -0.206 F 
ATOM     65  C   UNL A   1      36.769  29.385  30.631  1.00  0.00     0.040 A 
ATOM     66  C   UNL A   1      36.757  30.009  28.307  1.00  0.00     0.040 A 
ATOM     67  F   UNL A   1      38.691  29.741  27.006  1.00  0.00    -0.206 F 
ATOM     68  C   UNL A   1      36.090  29.885  29.523  1.00  0.00     0.006 A 
ENDBRANCH  47  61
BRANCH  48  69
ATOM     69  C   UNL A   1      48.292  26.203  28.143  1.00  0.00     0.057 A 
ATOM     70  C   UNL A   1      48.903  26.311  26.887  1.00  0.00     0.134 A 
ATOM     71  C   UNL A   1      49.061  25.679  29.188  1.00  0.00     0.134 A 
ATOM     72  F   UNL A   1      48.213  26.789  25.841  1.00  0.00    -0.206 F 
ATOM     73  C   UNL A   1      50.216  25.890  26.671  1.00  0.00     0.040 A 
ATOM     74  C   UNL A   1      50.385  25.279  28.994  1.00  0.00     0.040 A 
ATOM     75  F   UNL A   1      48.540  25.558  30.418  1.00  0.00    -0.206 F 
ATOM     76  C   UNL A   1      50.962  25.375  27.729  1.00  0.00     0.006 A 
ENDBRANCH  48  69
BRANCH  60  77
ATOM     77  C   UNL A   1      45.278  32.156  30.148  1.00  0.00     0.057 A 
ATOM     78  C   UNL A   1      45.621  32.404  31.482  1.00  0.00     0.134 A 
ATOM     79  C   UNL A   1      45.532  33.169  29.214  1.00  0.00     0.134 A 
ATOM     80  F   UNL A   1      45.392  31.480  32.427  1.00  0.00    -0.206 F 
ATOM     81  C   UNL A   1      46.185  33.620  31.874  1.00  0.00     0.040 A 
ATOM     82  C   UNL A   1      46.120  34.376  29.588  1.00  0.00     0.040 A 
ATOM     83  F   UNL A   1      45.235  32.990  27.918  1.00  0.00    -0.206 F 
ATOM     84  C   UNL A   1      46.446  34.605  30.924  1.00  0.00     0.006 A 
ENDBRANCH  60  77
ENDBRANCH  34  35
ENDBRANCH  26  29
ENDBRANCH  24  25
ENDBRANCH   1  24
TORSDOF 12
ENDMDL
MODEL 3
REMARK VINA RESULT:     -12.1      5.938     10.707
REMARK SMILES C[C@H]1OCC[C@@H]1C(=O)Nc1ccc(Cl)c(C(=O)NCCCNC(=O)c2ccc(-c3c4nc(c(-c5c(F)cccc5F)c5ccc([nH]5)c(-c5c(F)cccc5F)c5nc(c(-c6c(F)cccc6F)c6ccc3[nH]6)C=C5)C=C4)cc2)c1
REMARK SMILES IDX 20 1 19 2 18 3 16 4 17 5 15 7 10 8 11 9 79 10 12 11 13 12
REMARK SMILES IDX 14 13 9 14 7 15 8 16 6 18 1 19 2 20 3 21 4 22 5 23 21 24
REMARK SMILES IDX 22 25 23 26 24 28 25 29 26 30 78 31 27 32 77 33 28 34 29 35
REMARK SMILES IDX 30 36 71 37 31 38 76 39 70 40 72 41 32 42 75 43 69 44 68 45
REMARK SMILES IDX 33 47 59 48 42 49 58 50 43 51 46 52 57 53 73 54 44 55 45 56
REMARK SMILES IDX 56 58 74 59 47 60 34 61 35 62 40 63 36 64 37 65 39 66 41 67
REMARK SMILES IDX 38 68 60 69 61 70 66 71 62 72 63 73 65 74 67 75 64 76 48 77
REMARK SMILES IDX 49 78 54 79 50 80 51 81 53 82 55 83 52 84
REMARK H PARENT 18 6 9 17 22 27 72 46 46 57
REMARK Flexibility Score: inf
ROOT
ATOM      1  C   UNL A   1      38.086  19.973  25.001  1.00  0.00     0.042 C 
ENDROOT
BRANCH   1   2
ATOM      2  C   UNL A   1      37.115  21.124  24.869  1.00  0.00     0.118 C 
BRANCH   2   3
ATOM      3  N   UNL A   1      36.292  21.396  26.037  1.00  0.00    -0.352 N 
ATOM      4  C   UNL A   1      34.935  21.607  26.152  1.00  0.00     0.252 C 
ATOM      5  O   UNL A   1      34.464  21.731  27.283  1.00  0.00    -0.269 OA
ATOM      6  H   UNL A   1      36.788  21.438  26.887  1.00  0.00     0.163 HD
BRANCH   4   7
ATOM      7  C   UNL A   1      34.056  21.831  24.976  1.00  0.00     0.060 A 
ATOM      8  C   UNL A   1      32.483  20.883  23.412  1.00  0.00     0.042 A 
ATOM      9  C   UNL A   1      32.006  22.153  23.126  1.00  0.00     0.028 A 
ATOM     10  C   UNL A   1      33.377  20.709  24.464  1.00  0.00     0.041 A 
ATOM     11  C   UNL A   1      32.726  23.255  23.560  1.00  0.00     0.023 A 
ATOM     12  C   UNL A   1      33.866  23.055  24.332  1.00  0.00     0.053 A 
ATOM     13  Cl  UNL A   1      35.100  24.265  24.197  1.00  0.00    -0.083 Cl
BRANCH   8  14
ATOM     14  N   UNL A   1      32.137  19.802  22.602  1.00  0.00    -0.326 N 
ATOM     15  C   UNL A   1      32.460  18.479  22.777  1.00  0.00     0.230 C 
ATOM     16  O   UNL A   1      32.153  17.703  21.862  1.00  0.00    -0.274 OA
ATOM     17  H   UNL A   1      31.597  20.014  21.805  1.00  0.00     0.169 HD
BRANCH  15  18
ATOM     18  C   UNL A   1      33.065  17.887  24.070  1.00  0.00     0.110 C 
ATOM     19  C   UNL A   1      35.511  17.454  24.627  1.00  0.00     0.039 C 
ATOM     20  C   UNL A   1      34.284  16.992  23.846  1.00  0.00     0.127 C 
ATOM     21  O   UNL A   1      33.931  15.685  24.320  1.00  0.00    -0.378 OA
ATOM     22  C   UNL A   1      32.903  15.823  25.301  1.00  0.00     0.161 C 
ATOM     23  C   UNL A   1      32.153  17.106  24.994  1.00  0.00     0.044 C 
ENDBRANCH  15  18
ENDBRANCH   8  14
ENDBRANCH   4   7
ENDBRANCH   2   3
ENDBRANCH   1   2
BRANCH   1  24
ATOM     24  C   UNL A   1      39.181  20.188  26.023  1.00  0.00     0.118 C 
BRANCH  24  25
ATOM     25  N   UNL A   1      40.217  19.160  25.992  1.00  0.00    -0.352 N 
ATOM     26  C   UNL A   1      41.587  19.244  26.094  1.00  0.00     0.251 C 
ATOM     27  H   UNL A   1      39.876  18.244  25.875  1.00  0.00     0.163 HD
ATOM     28  O   UNL A   1      42.275  18.246  25.889  1.00  0.00    -0.269 OA
BRANCH  26  29
ATOM     29  C   UNL A   1      42.245  20.529  26.416  1.00  0.00     0.039 A 
ATOM     30  C   UNL A   1      42.702  21.347  25.376  1.00  0.00     0.014 A 
ATOM     31  C   UNL A   1      42.420  20.933  27.737  1.00  0.00     0.014 A 
ATOM     32  C   UNL A   1      43.242  22.604  25.666  1.00  0.00     0.010 A 
ATOM     33  C   UNL A   1      42.829  22.229  28.016  1.00  0.00     0.010 A 
ATOM     34  C   UNL A   1      43.261  23.077  26.986  1.00  0.00    -0.014 A 
BRANCH  34  35
ATOM     35  C   UNL A   1      43.763  24.428  27.345  1.00  0.00     0.031 A 
ATOM     36  C   UNL A   1      42.786  25.483  27.794  1.00  0.00     0.074 A 
ATOM     37  C   UNL A   1      45.062  24.738  27.172  1.00  0.00     0.049 A 
ATOM     38  N   UNL A   1      42.977  26.763  27.985  1.00  0.00    -0.248 NA
ATOM     39  C   UNL A   1      41.395  25.047  28.013  1.00  0.00     0.031 C 
ATOM     40  C   UNL A   1      46.102  23.819  26.703  1.00  0.00     0.029 A 
ATOM     41  N   UNL A   1      45.728  25.926  27.352  1.00  0.00    -0.354 N 
ATOM     42  C   UNL A   1      41.731  27.284  28.313  1.00  0.00     0.074 A 
ATOM     43  C   UNL A   1      40.780  26.198  28.231  1.00  0.00     0.031 C 
ATOM     44  C   UNL A   1      47.276  24.470  26.655  1.00  0.00     0.029 A 
ATOM     45  C   UNL A   1      47.065  25.863  27.037  1.00  0.00     0.049 A 
ATOM     46  H   UNL A   1      45.289  26.745  27.675  1.00  0.00     0.167 HD
ATOM     47  C   UNL A   1      41.410  28.547  28.678  1.00  0.00     0.037 A 
ATOM     48  C   UNL A   1      48.007  26.824  27.043  1.00  0.00     0.037 A 
ATOM     49  C   UNL A   1      42.366  29.613  28.802  1.00  0.00     0.049 A 
ATOM     50  C   UNL A   1      47.627  28.221  27.451  1.00  0.00     0.074 A 
ATOM     51  C   UNL A   1      42.156  30.914  29.223  1.00  0.00     0.029 A 
ATOM     52  N   UNL A   1      43.717  29.497  28.513  1.00  0.00    -0.354 N 
ATOM     53  N   UNL A   1      46.454  28.688  27.809  1.00  0.00    -0.248 NA
ATOM     54  C   UNL A   1      48.699  29.226  27.459  1.00  0.00     0.031 C 
ATOM     55  C   UNL A   1      43.373  31.598  29.147  1.00  0.00     0.029 A 
ATOM     56  C   UNL A   1      44.351  30.708  28.732  1.00  0.00     0.049 A 
ATOM     57  H   UNL A   1      44.160  28.675  28.199  1.00  0.00     0.167 HD
ATOM     58  C   UNL A   1      46.658  30.026  28.124  1.00  0.00     0.074 A 
ATOM     59  C   UNL A   1      48.065  30.296  27.918  1.00  0.00     0.031 C 
ATOM     60  C   UNL A   1      45.760  30.948  28.548  1.00  0.00     0.037 A 
BRANCH  47  61
ATOM     61  C   UNL A   1      39.968  28.839  28.982  1.00  0.00     0.057 A 
ATOM     62  C   UNL A   1      39.059  29.198  27.978  1.00  0.00     0.134 A 
ATOM     63  C   UNL A   1      39.476  28.731  30.289  1.00  0.00     0.134 A 
ATOM     64  F   UNL A   1      39.467  29.333  26.707  1.00  0.00    -0.206 F 
ATOM     65  C   UNL A   1      37.719  29.467  28.267  1.00  0.00     0.040 A 
ATOM     66  C   UNL A   1      38.132  28.967  30.585  1.00  0.00     0.040 A 
ATOM     67  F   UNL A   1      40.291  28.386  31.297  1.00  0.00    -0.206 F 
ATOM     68  C   UNL A   1      37.252  29.344  29.573  1.00  0.00     0.006 A 
ENDBRANCH  47  61
BRANCH  48  69
ATOM     69  C   UNL A   1      49.410  26.500  26.672  1.00  0.00     0.057 A 
ATOM     70  C   UNL A   1      49.864  26.670  25.358  1.00  0.00     0.134 A 
ATOM     71  C   UNL A   1      50.322  25.998  27.608  1.00  0.00     0.134 A 
ATOM     72  F   UNL A   1      49.033  27.131  24.412  1.00  0.00    -0.206 F 
ATOM     73  C   UNL A   1      51.164  26.329  24.982  1.00  0.00     0.040 A 
ATOM     74  C   UNL A   1      51.633  25.678  27.252  1.00  0.00     0.040 A 
ATOM     75  F   UNL A   1      49.954  25.821  28.885  1.00  0.00    -0.206 F 
ATOM     76  C   UNL A   1      52.054  25.834  25.932  1.00  0.00     0.006 A 
ENDBRANCH  48  69
BRANCH  60  77
ATOM     77  C   UNL A   1      46.274  32.317  28.881  1.00  0.00     0.057 A 
ATOM     78  C   UNL A   1      46.286  33.354  27.942  1.00  0.00     0.134 A 
ATOM     79  C   UNL A   1      46.700  32.614  30.182  1.00  0.00     0.134 A 
ATOM     80  F   UNL A   1      45.902  33.132  26.676  1.00  0.00    -0.206 F 
ATOM     81  C   UNL A   1      46.719  34.638  28.282  1.00  0.00     0.040 A 
ATOM     82  C   UNL A   1      47.108  33.898  30.541  1.00  0.00     0.040 A 
ATOM     83  F   UNL A   1      46.703  31.666  31.131  1.00  0.00    -0.206 F 
ATOM     84  C   UNL A   1      47.120  34.914  29.587  1.00  0.00     0.006 A 
ENDBRANCH  60  77
ENDBRANCH  34  35
ENDBRANCH  26  29
ENDBRANCH  24  25
ENDBRANCH   1  24
TORSDOF 12
ENDMDL
