MODEL 1
REMARK VINA RESULT:     -11.4      0.000      0.000
REMARK SMILES Cc1cccc(CN(C)c2nc(C)c(C(=O)NCCCNC(=O)c3ccc(-c4c5nc(c(-c6c(F)cccc6F)c6ccc([nH]6)c(-c6c(F)cccc6F)c6nc(c(-c7c(F)cccc7F)c7ccc4[nH]7)C=C6)C=C5)cc3)s2)n1
REMARK SMILES IDX 18 1 17 2 15 3 16 4 14 6 10 7 11 8 78 9 12 10 13 11 8 12
REMARK SMILES IDX 9 13 7 14 6 15 1 16 2 17 3 18 79 19 4 20 5 21 19 22 20 23
REMARK SMILES IDX 21 24 22 25 23 27 24 28 25 29 77 30 26 31 76 32 27 33 28 34
REMARK SMILES IDX 29 35 70 36 30 37 75 38 69 39 71 40 31 41 74 42 68 43 67 44
REMARK SMILES IDX 32 46 58 47 41 48 57 49 42 50 45 51 56 52 72 53 43 54 44 55
REMARK SMILES IDX 55 57 73 58 46 59 33 60 34 61 39 62 35 63 36 64 38 65 40 66
REMARK SMILES IDX 37 67 59 68 60 69 65 70 61 71 62 72 64 73 66 74 63 75 47 76
REMARK SMILES IDX 48 77 53 78 49 79 50 80 52 81 54 82 51 83
REMARK H PARENT 17 5 21 26 71 45 45 56
REMARK Flexibility Score: inf
ROOT
ATOM      1  C   UNL A   1      36.140  20.538  25.001  1.00  0.00     0.118 C 
ENDROOT
BRANCH   1   2
ATOM      2  N   UNL A   1      34.939  19.741  24.969  1.00  0.00    -0.351 N 
ATOM      3  C   UNL A   1      33.624  20.011  25.239  1.00  0.00     0.263 C 
ATOM      4  O   UNL A   1      32.912  19.000  25.192  1.00  0.00    -0.268 OA
ATOM      5  H   UNL A   1      35.098  18.808  24.697  1.00  0.00     0.163 HD
BRANCH   3   6
ATOM      6  C   UNL A   1      33.087  21.340  25.490  1.00  0.00     0.117 A 
ATOM      7  C   UNL A   1      31.822  23.425  25.032  1.00  0.00     0.186 A 
ATOM      8  N   UNL A   1      32.432  23.481  26.192  1.00  0.00    -0.225 NA
ATOM      9  S   UNL A   1      32.100  21.952  24.207  1.00  0.00    -0.091 S 
ATOM     10  C   UNL A   1      33.077  22.287  26.507  1.00  0.00     0.063 A 
ATOM     11  C   UNL A   1      33.587  22.249  27.899  1.00  0.00     0.068 C 
BRANCH   7  12
ATOM     12  N   UNL A   1      31.081  24.453  24.534  1.00  0.00    -0.345 N 
ATOM     13  C   UNL A   1      30.894  24.510  23.097  1.00  0.00     0.146 C 
BRANCH  12  14
ATOM     14  C   UNL A   1      30.816  25.668  25.311  1.00  0.00     0.174 C 
BRANCH  14  15
ATOM     15  C   UNL A   1      31.998  26.619  25.394  1.00  0.00     0.060 A 
ATOM     16  C   UNL A   1      33.964  28.564  22.975  1.00  0.00     0.067 C 
ATOM     17  C   UNL A   1      33.477  28.032  24.287  1.00  0.00     0.038 A 
ATOM     18  C   UNL A   1      33.936  28.556  25.490  1.00  0.00     0.023 A 
ATOM     19  N   UNL A   1      32.538  27.058  24.227  1.00  0.00    -0.256 NA
ATOM     20  C   UNL A   1      33.419  28.056  26.680  1.00  0.00     0.004 A 
ATOM     21  C   UNL A   1      32.440  27.072  26.636  1.00  0.00     0.026 A 
ENDBRANCH  14  15
ENDBRANCH  12  14
ENDBRANCH   7  12
ENDBRANCH   3   6
ENDBRANCH   1   2
BRANCH   1  22
ATOM     22  C   UNL A   1      37.365  19.627  24.971  1.00  0.00     0.042 C 
BRANCH  22  23
ATOM     23  C   UNL A   1      38.646  20.327  25.410  1.00  0.00     0.118 C 
BRANCH  23  24
ATOM     24  N   UNL A   1      39.717  19.376  25.660  1.00  0.00    -0.352 N 
ATOM     25  C   UNL A   1      41.012  19.595  26.058  1.00  0.00     0.251 C 
ATOM     26  H   UNL A   1      39.476  18.431  25.523  1.00  0.00     0.163 HD
ATOM     27  O   UNL A   1      41.833  18.688  25.959  1.00  0.00    -0.269 OA
BRANCH  25  28
ATOM     28  C   UNL A   1      41.432  20.908  26.599  1.00  0.00     0.039 A 
ATOM     29  C   UNL A   1      41.316  21.137  27.974  1.00  0.00     0.014 A 
ATOM     30  C   UNL A   1      41.875  21.934  25.761  1.00  0.00     0.014 A 
ATOM     31  C   UNL A   1      41.679  22.375  28.510  1.00  0.00     0.010 A 
ATOM     32  C   UNL A   1      42.313  23.140  26.303  1.00  0.00     0.010 A 
ATOM     33  C   UNL A   1      42.202  23.380  27.681  1.00  0.00    -0.014 A 
BRANCH  33  34
ATOM     34  C   UNL A   1      42.610  24.698  28.229  1.00  0.00     0.031 A 
ATOM     35  C   UNL A   1      41.583  25.775  28.447  1.00  0.00     0.074 A 
ATOM     36  C   UNL A   1      43.911  24.947  28.470  1.00  0.00     0.049 A 
ATOM     37  N   UNL A   1      41.749  27.009  28.850  1.00  0.00    -0.248 NA
ATOM     38  C   UNL A   1      40.185  25.427  28.144  1.00  0.00     0.031 C 
ATOM     39  C   UNL A   1      45.007  23.999  28.263  1.00  0.00     0.029 A 
ATOM     40  N   UNL A   1      44.532  26.078  28.936  1.00  0.00    -0.354 N 
ATOM     41  C   UNL A   1      40.487  27.590  28.820  1.00  0.00     0.074 A 
ATOM     42  C   UNL A   1      39.572  26.588  28.318  1.00  0.00     0.031 C 
ATOM     43  C   UNL A   1      46.162  24.577  28.631  1.00  0.00     0.029 A 
ATOM     44  C   UNL A   1      45.893  25.945  29.062  1.00  0.00     0.049 A 
ATOM     45  H   UNL A   1      44.048  26.906  29.159  1.00  0.00     0.167 HD
ATOM     46  C   UNL A   1      40.120  28.839  29.194  1.00  0.00     0.037 A 
ATOM     47  C   UNL A   1      46.819  26.829  29.478  1.00  0.00     0.037 A 
ATOM     48  C   UNL A   1      41.026  29.820  29.731  1.00  0.00     0.049 A 
ATOM     49  C   UNL A   1      46.388  28.208  29.890  1.00  0.00     0.074 A 
ATOM     50  C   UNL A   1      40.740  31.083  30.220  1.00  0.00     0.029 A 
ATOM     51  N   UNL A   1      42.396  29.646  29.846  1.00  0.00    -0.354 N 
ATOM     52  N   UNL A   1      45.182  28.721  29.923  1.00  0.00    -0.248 NA
ATOM     53  C   UNL A   1      47.447  29.129  30.322  1.00  0.00     0.031 C 
ATOM     54  C   UNL A   1      41.945  31.690  30.592  1.00  0.00     0.029 A 
ATOM     55  C   UNL A   1      42.976  30.788  30.374  1.00  0.00     0.049 A 
ATOM     56  H   UNL A   1      42.886  28.831  29.591  1.00  0.00     0.167 HD
ATOM     57  C   UNL A   1      45.333  30.014  30.406  1.00  0.00     0.074 A 
ATOM     58  C   UNL A   1      46.746  30.204  30.661  1.00  0.00     0.031 C 
ATOM     59  C   UNL A   1      44.385  30.958  30.625  1.00  0.00     0.037 A 
BRANCH  46  60
ATOM     60  C   UNL A   1      38.675  29.212  29.028  1.00  0.00     0.057 A 
ATOM     61  C   UNL A   1      38.148  29.611  27.791  1.00  0.00     0.134 A 
ATOM     62  C   UNL A   1      37.795  29.163  30.117  1.00  0.00     0.134 A 
ATOM     63  F   UNL A   1      38.938  29.692  26.710  1.00  0.00    -0.206 F 
ATOM     64  C   UNL A   1      36.809  29.979  27.652  1.00  0.00     0.040 A 
ATOM     65  C   UNL A   1      36.447  29.501  29.983  1.00  0.00     0.040 A 
ATOM     66  F   UNL A   1      38.230  28.783  31.327  1.00  0.00    -0.206 F 
ATOM     67  C   UNL A   1      35.954  29.921  28.750  1.00  0.00     0.006 A 
ENDBRANCH  46  60
BRANCH  47  68
ATOM     68  C   UNL A   1      48.242  26.420  29.567  1.00  0.00     0.057 A 
ATOM     69  C   UNL A   1      49.116  26.637  28.495  1.00  0.00     0.134 A 
ATOM     70  C   UNL A   1      48.767  25.816  30.716  1.00  0.00     0.134 A 
ATOM     71  F   UNL A   1      48.666  27.195  27.361  1.00  0.00    -0.206 F 
ATOM     72  C   UNL A   1      50.458  26.261  28.558  1.00  0.00     0.040 A 
ATOM     73  C   UNL A   1      50.112  25.454  30.800  1.00  0.00     0.040 A 
ATOM     74  F   UNL A   1      47.982  25.588  31.779  1.00  0.00    -0.206 F 
ATOM     75  C   UNL A   1      50.961  25.673  29.716  1.00  0.00     0.006 A 
ENDBRANCH  47  68
BRANCH  59  76
ATOM     76  C   UNL A   1      44.842  32.267  31.194  1.00  0.00     0.057 A 
ATOM     77  C   UNL A   1      45.194  33.347  30.375  1.00  0.00     0.134 A 
ATOM     78  C   UNL A   1      44.898  32.460  32.580  1.00  0.00     0.134 A 
ATOM     79  F   UNL A   1      45.175  33.221  29.039  1.00  0.00    -0.206 F 
ATOM     80  C   UNL A   1      45.605  34.567  30.914  1.00  0.00     0.040 A 
ATOM     81  C   UNL A   1      45.284  33.682  33.132  1.00  0.00     0.040 A 
ATOM     82  F   UNL A   1      44.568  31.468  33.420  1.00  0.00    -0.206 F 
ATOM     83  C   UNL A   1      45.644  34.739  32.297  1.00  0.00     0.006 A 
ENDBRANCH  59  76
ENDBRANCH  33  34
ENDBRANCH  25  28
ENDBRANCH  23  24
ENDBRANCH  22  23
ENDBRANCH   1  22
TORSDOF 13
ENDMDL
MODEL 2
REMARK VINA RESULT:     -11.4      0.985      2.015
REMARK SMILES Cc1cccc(CN(C)c2nc(C)c(C(=O)NCCCNC(=O)c3ccc(-c4c5nc(c(-c6c(F)cccc6F)c6ccc([nH]6)c(-c6c(F)cccc6F)c6nc(c(-c7c(F)cccc7F)c7ccc4[nH]7)C=C6)C=C5)cc3)s2)n1
REMARK SMILES IDX 18 1 17 2 15 3 16 4 14 6 10 7 11 8 78 9 12 10 13 11 8 12
REMARK SMILES IDX 9 13 7 14 6 15 1 16 2 17 3 18 79 19 4 20 5 21 19 22 20 23
REMARK SMILES IDX 21 24 22 25 23 27 24 28 25 29 77 30 26 31 76 32 27 33 28 34
REMARK SMILES IDX 29 35 70 36 30 37 75 38 69 39 71 40 31 41 74 42 68 43 67 44
REMARK SMILES IDX 32 46 58 47 41 48 57 49 42 50 45 51 56 52 72 53 43 54 44 55
REMARK SMILES IDX 55 57 73 58 46 59 33 60 34 61 39 62 35 63 36 64 38 65 40 66
REMARK SMILES IDX 37 67 59 68 60 69 65 70 61 71 62 72 64 73 66 74 63 75 47 76
REMARK SMILES IDX 48 77 53 78 49 79 50 80 52 81 54 82 51 83
REMARK H PARENT 17 5 21 26 71 45 45 56
REMARK Flexibility Score: inf
ROOT
ATOM      1  C   UNL A   1      36.106  20.482  24.989  1.00  0.00     0.118 C 
ENDROOT
BRANCH   1   2
ATOM      2  N   UNL A   1      34.903  19.687  24.997  1.00  0.00    -0.351 N 
ATOM      3  C   UNL A   1      33.579  19.986  25.181  1.00  0.00     0.263 C 
ATOM      4  O   UNL A   1      32.865  18.976  25.218  1.00  0.00    -0.268 OA
ATOM      5  H   UNL A   1      35.068  18.729  24.838  1.00  0.00     0.163 HD
BRANCH   3   6
ATOM      6  C   UNL A   1      33.039  21.335  25.258  1.00  0.00     0.117 A 
ATOM      7  C   UNL A   1      31.922  23.405  24.470  1.00  0.00     0.186 A 
ATOM      8  N   UNL A   1      32.325  23.523  25.713  1.00  0.00    -0.225 NA
ATOM      9  S   UNL A   1      32.302  21.881  23.791  1.00  0.00    -0.091 S 
ATOM     10  C   UNL A   1      32.877  22.342  26.203  1.00  0.00     0.063 A 
ATOM     11  C   UNL A   1      33.140  22.381  27.662  1.00  0.00     0.068 C 
BRANCH   7  12
ATOM     12  N   UNL A   1      31.302  24.411  23.793  1.00  0.00    -0.345 N 
ATOM     13  C   UNL A   1      31.960  24.928  22.609  1.00  0.00     0.146 C 
BRANCH  12  14
ATOM     14  C   UNL A   1      30.249  25.227  24.408  1.00  0.00     0.174 C 
BRANCH  14  15
ATOM     15  C   UNL A   1      30.419  26.721  24.192  1.00  0.00     0.060 A 
ATOM     16  C   UNL A   1      28.588  29.324  22.355  1.00  0.00     0.067 C 
ATOM     17  C   UNL A   1      29.609  28.685  23.245  1.00  0.00     0.038 A 
ATOM     18  C   UNL A   1      30.497  29.454  23.989  1.00  0.00     0.023 A 
ATOM     19  N   UNL A   1      29.577  27.333  23.319  1.00  0.00    -0.256 NA
ATOM     20  C   UNL A   1      31.396  28.813  24.833  1.00  0.00     0.004 A 
ATOM     21  C   UNL A   1      31.362  27.428  24.937  1.00  0.00     0.026 A 
ENDBRANCH  14  15
ENDBRANCH  12  14
ENDBRANCH   7  12
ENDBRANCH   3   6
ENDBRANCH   1   2
BRANCH   1  22
ATOM     22  C   UNL A   1      37.329  19.569  24.958  1.00  0.00     0.042 C 
BRANCH  22  23
ATOM     23  C   UNL A   1      38.618  20.276  25.360  1.00  0.00     0.118 C 
BRANCH  23  24
ATOM     24  N   UNL A   1      39.687  19.328  25.628  1.00  0.00    -0.352 N 
ATOM     25  C   UNL A   1      40.973  19.550  26.054  1.00  0.00     0.251 C 
ATOM     26  H   UNL A   1      39.453  18.383  25.483  1.00  0.00     0.163 HD
ATOM     27  O   UNL A   1      41.799  18.647  25.969  1.00  0.00    -0.269 OA
BRANCH  25  28
ATOM     28  C   UNL A   1      41.376  20.863  26.609  1.00  0.00     0.039 A 
ATOM     29  C   UNL A   1      41.870  21.839  25.736  1.00  0.00     0.014 A 
ATOM     30  C   UNL A   1      41.334  21.119  27.981  1.00  0.00     0.014 A 
ATOM     31  C   UNL A   1      42.281  23.078  26.233  1.00  0.00     0.010 A 
ATOM     32  C   UNL A   1      41.669  22.380  28.469  1.00  0.00     0.010 A 
ATOM     33  C   UNL A   1      42.164  23.366  27.602  1.00  0.00    -0.014 A 
BRANCH  33  34
ATOM     34  C   UNL A   1      42.580  24.680  28.153  1.00  0.00     0.031 A 
ATOM     35  C   UNL A   1      41.558  25.758  28.390  1.00  0.00     0.074 A 
ATOM     36  C   UNL A   1      43.884  24.925  28.380  1.00  0.00     0.049 A 
ATOM     37  N   UNL A   1      41.731  26.989  28.798  1.00  0.00    -0.248 NA
ATOM     38  C   UNL A   1      40.156  25.414  28.101  1.00  0.00     0.031 C 
ATOM     39  C   UNL A   1      44.977  23.977  28.155  1.00  0.00     0.029 A 
ATOM     40  N   UNL A   1      44.513  26.053  28.847  1.00  0.00    -0.354 N 
ATOM     41  C   UNL A   1      40.470  27.573  28.787  1.00  0.00     0.074 A 
ATOM     42  C   UNL A   1      39.547  26.575  28.289  1.00  0.00     0.031 C 
ATOM     43  C   UNL A   1      46.137  24.551  28.513  1.00  0.00     0.029 A 
ATOM     44  C   UNL A   1      45.875  25.916  28.956  1.00  0.00     0.049 A 
ATOM     45  H   UNL A   1      44.033  26.880  29.081  1.00  0.00     0.167 HD
ATOM     46  C   UNL A   1      40.109  28.820  29.174  1.00  0.00     0.037 A 
ATOM     47  C   UNL A   1      46.807  26.796  29.367  1.00  0.00     0.037 A 
ATOM     48  C   UNL A   1      41.023  29.795  29.706  1.00  0.00     0.049 A 
ATOM     49  C   UNL A   1      46.384  28.173  29.793  1.00  0.00     0.074 A 
ATOM     50  C   UNL A   1      40.746  31.056  30.206  1.00  0.00     0.029 A 
ATOM     51  N   UNL A   1      42.395  29.618  29.804  1.00  0.00    -0.354 N 
ATOM     52  N   UNL A   1      45.179  28.688  29.843  1.00  0.00    -0.248 NA
ATOM     53  C   UNL A   1      47.450  29.090  30.219  1.00  0.00     0.031 C 
ATOM     54  C   UNL A   1      41.956  31.658  30.569  1.00  0.00     0.029 A 
ATOM     55  C   UNL A   1      42.982  30.756  30.333  1.00  0.00     0.049 A 
ATOM     56  H   UNL A   1      42.880  28.804  29.538  1.00  0.00     0.167 HD
ATOM     57  C   UNL A   1      45.338  29.977  30.333  1.00  0.00     0.074 A 
ATOM     58  C   UNL A   1      46.754  30.163  30.572  1.00  0.00     0.031 C 
ATOM     59  C   UNL A   1      44.394  30.922  30.568  1.00  0.00     0.037 A 
BRANCH  46  60
ATOM     60  C   UNL A   1      38.663  29.197  29.026  1.00  0.00     0.057 A 
ATOM     61  C   UNL A   1      37.764  29.127  30.099  1.00  0.00     0.134 A 
ATOM     62  C   UNL A   1      38.165  29.646  27.796  1.00  0.00     0.134 A 
ATOM     63  F   UNL A   1      38.172  28.694  31.301  1.00  0.00    -0.206 F 
ATOM     64  C   UNL A   1      36.416  29.457  29.945  1.00  0.00     0.040 A 
ATOM     65  C   UNL A   1      36.825  30.005  27.638  1.00  0.00     0.040 A 
ATOM     66  F   UNL A   1      38.972  29.744  26.729  1.00  0.00    -0.206 F 
ATOM     67  C   UNL A   1      35.945  29.901  28.711  1.00  0.00     0.006 A 
ENDBRANCH  46  60
BRANCH  47  68
ATOM     68  C   UNL A   1      48.231  26.384  29.437  1.00  0.00     0.057 A 
ATOM     69  C   UNL A   1      48.738  25.759  30.583  1.00  0.00     0.134 A 
ATOM     70  C   UNL A   1      49.113  26.591  28.370  1.00  0.00     0.134 A 
ATOM     71  F   UNL A   1      47.945  25.550  31.644  1.00  0.00    -0.206 F 
ATOM     72  C   UNL A   1      50.073  25.363  30.669  1.00  0.00     0.040 A 
ATOM     73  C   UNL A   1      50.445  26.182  28.435  1.00  0.00     0.040 A 
ATOM     74  F   UNL A   1      48.685  27.179  27.243  1.00  0.00    -0.206 F 
ATOM     75  C   UNL A   1      50.930  25.569  29.590  1.00  0.00     0.006 A 
ENDBRANCH  47  68
BRANCH  59  76
ATOM     76  C   UNL A   1      44.860  32.226  31.141  1.00  0.00     0.057 A 
ATOM     77  C   UNL A   1      44.983  32.425  32.522  1.00  0.00     0.134 A 
ATOM     78  C   UNL A   1      45.225  33.284  30.299  1.00  0.00     0.134 A 
ATOM     79  F   UNL A   1      44.635  31.455  33.382  1.00  0.00    -0.206 F 
ATOM     80  C   UNL A   1      45.431  33.638  33.046  1.00  0.00     0.040 A 
ATOM     81  C   UNL A   1      45.698  34.494  30.810  1.00  0.00     0.040 A 
ATOM     82  F   UNL A   1      45.138  33.156  28.967  1.00  0.00    -0.206 F 
ATOM     83  C   UNL A   1      45.797  34.675  32.188  1.00  0.00     0.006 A 
ENDBRANCH  59  76
ENDBRANCH  33  34
ENDBRANCH  25  28
ENDBRANCH  23  24
ENDBRANCH  22  23
ENDBRANCH   1  22
TORSDOF 13
ENDMDL
MODEL 3
REMARK VINA RESULT:     -11.3      0.804      6.358
REMARK SMILES Cc1cccc(CN(C)c2nc(C)c(C(=O)NCCCNC(=O)c3ccc(-c4c5nc(c(-c6c(F)cccc6F)c6ccc([nH]6)c(-c6c(F)cccc6F)c6nc(c(-c7c(F)cccc7F)c7ccc4[nH]7)C=C6)C=C5)cc3)s2)n1
REMARK SMILES IDX 18 1 17 2 15 3 16 4 14 6 10 7 11 8 78 9 12 10 13 11 8 12
REMARK SMILES IDX 9 13 7 14 6 15 1 16 2 17 3 18 79 19 4 20 5 21 19 22 20 23
REMARK SMILES IDX 21 24 22 25 23 27 24 28 25 29 77 30 26 31 76 32 27 33 28 34
REMARK SMILES IDX 29 35 70 36 30 37 75 38 69 39 71 40 31 41 74 42 68 43 67 44
REMARK SMILES IDX 32 46 58 47 41 48 57 49 42 50 45 51 56 52 72 53 43 54 44 55
REMARK SMILES IDX 55 57 73 58 46 59 33 60 34 61 39 62 35 63 36 64 38 65 40 66
REMARK SMILES IDX 37 67 59 68 60 69 65 70 61 71 62 72 64 73 66 74 63 75 47 76
REMARK SMILES IDX 48 77 53 78 49 79 50 80 52 81 54 82 51 83
REMARK H PARENT 17 5 21 26 71 45 45 56
REMARK Flexibility Score: inf
ROOT
ATOM      1  C   UNL A   1      36.172  20.105  24.943  1.00  0.00     0.118 C 
ENDROOT
BRANCH   1   2
ATOM      2  N   UNL A   1      35.030  19.225  24.904  1.00  0.00    -0.351 N 
ATOM      3  C   UNL A   1      33.678  19.440  24.875  1.00  0.00     0.263 C 
ATOM      4  O   UNL A   1      33.028  18.390  24.957  1.00  0.00    -0.268 OA
ATOM      5  H   UNL A   1      35.273  18.271  24.900  1.00  0.00     0.163 HD
BRANCH   3   6
ATOM      6  C   UNL A   1      33.051  20.741  24.697  1.00  0.00     0.117 A 
ATOM      7  C   UNL A   1      32.343  23.044  25.289  1.00  0.00     0.186 A 
ATOM      8  N   UNL A   1      31.903  22.699  24.103  1.00  0.00    -0.225 NA
ATOM      9  S   UNL A   1      33.246  21.804  26.049  1.00  0.00    -0.091 S 
ATOM     10  C   UNL A   1      32.362  21.443  23.715  1.00  0.00     0.063 A 
ATOM     11  C   UNL A   1      32.060  21.122  22.298  1.00  0.00     0.068 C 
BRANCH   7  12
ATOM     12  N   UNL A   1      32.071  24.250  25.859  1.00  0.00    -0.345 N 
ATOM     13  C   UNL A   1      30.801  24.872  25.538  1.00  0.00     0.146 C 
BRANCH  12  14
ATOM     14  C   UNL A   1      33.125  25.094  26.434  1.00  0.00     0.174 C 
BRANCH  14  15
ATOM     15  C   UNL A   1      33.437  26.336  25.617  1.00  0.00     0.060 A 
ATOM     16  C   UNL A   1      33.521  27.160  22.037  1.00  0.00     0.067 C 
ATOM     17  C   UNL A   1      33.591  27.336  23.522  1.00  0.00     0.038 A 
ATOM     18  C   UNL A   1      33.709  28.598  24.092  1.00  0.00     0.023 A 
ATOM     19  N   UNL A   1      33.480  26.209  24.265  1.00  0.00    -0.256 NA
ATOM     20  C   UNL A   1      33.724  28.711  25.478  1.00  0.00     0.004 A 
ATOM     21  C   UNL A   1      33.591  27.567  26.254  1.00  0.00     0.026 A 
ENDBRANCH  14  15
ENDBRANCH  12  14
ENDBRANCH   7  12
ENDBRANCH   3   6
ENDBRANCH   1   2
BRANCH   1  22
ATOM     22  C   UNL A   1      37.458  19.282  24.941  1.00  0.00     0.042 C 
BRANCH  22  23
ATOM     23  C   UNL A   1      38.680  20.075  25.391  1.00  0.00     0.118 C 
BRANCH  23  24
ATOM     24  N   UNL A   1      39.808  19.204  25.675  1.00  0.00    -0.352 N 
ATOM     25  C   UNL A   1      41.078  19.518  26.090  1.00  0.00     0.251 C 
ATOM     26  H   UNL A   1      39.635  18.243  25.551  1.00  0.00     0.163 HD
ATOM     27  O   UNL A   1      41.961  18.668  26.022  1.00  0.00    -0.269 OA
BRANCH  25  28
ATOM     28  C   UNL A   1      41.398  20.866  26.615  1.00  0.00     0.039 A 
ATOM     29  C   UNL A   1      41.918  21.823  25.737  1.00  0.00     0.014 A 
ATOM     30  C   UNL A   1      41.251  21.175  27.969  1.00  0.00     0.014 A 
ATOM     31  C   UNL A   1      42.253  23.095  26.208  1.00  0.00     0.010 A 
ATOM     32  C   UNL A   1      41.508  22.467  28.423  1.00  0.00     0.010 A 
ATOM     33  C   UNL A   1      42.030  23.434  27.551  1.00  0.00    -0.014 A 
BRANCH  33  34
ATOM     34  C   UNL A   1      42.363  24.783  28.072  1.00  0.00     0.031 A 
ATOM     35  C   UNL A   1      43.776  25.112  28.469  1.00  0.00     0.074 A 
ATOM     36  C   UNL A   1      41.384  25.691  28.247  1.00  0.00     0.049 A 
ATOM     37  N   UNL A   1      44.252  26.206  29.007  1.00  0.00    -0.248 NA
ATOM     38  C   UNL A   1      44.782  24.059  28.261  1.00  0.00     0.031 C 
ATOM     39  C   UNL A   1      39.969  25.482  27.937  1.00  0.00     0.029 A 
ATOM     40  N   UNL A   1      41.432  26.973  28.737  1.00  0.00    -0.354 N 
ATOM     41  C   UNL A   1      45.603  25.962  29.228  1.00  0.00     0.074 A 
ATOM     42  C   UNL A   1      45.861  24.602  28.806  1.00  0.00     0.031 C 
ATOM     43  C   UNL A   1      39.288  26.606  28.213  1.00  0.00     0.029 A 
ATOM     44  C   UNL A   1      40.210  27.599  28.754  1.00  0.00     0.049 A 
ATOM     45  H   UNL A   1      42.262  27.402  29.046  1.00  0.00     0.167 HD
ATOM     46  C   UNL A   1      46.547  26.801  29.718  1.00  0.00     0.037 A 
ATOM     47  C   UNL A   1      39.873  28.837  29.162  1.00  0.00     0.037 A 
ATOM     48  C   UNL A   1      46.295  28.165  30.098  1.00  0.00     0.049 A 
ATOM     49  C   UNL A   1      40.937  29.750  29.701  1.00  0.00     0.074 A 
ATOM     50  C   UNL A   1      47.198  29.123  30.525  1.00  0.00     0.029 A 
ATOM     51  N   UNL A   1      45.045  28.765  30.098  1.00  0.00    -0.354 N 
ATOM     52  N   UNL A   1      42.222  29.530  29.839  1.00  0.00    -0.248 NA
ATOM     53  C   UNL A   1      40.503  31.083  30.142  1.00  0.00     0.031 C 
ATOM     54  C   UNL A   1      46.487  30.291  30.824  1.00  0.00     0.029 A 
ATOM     55  C   UNL A   1      45.147  30.072  30.543  1.00  0.00     0.049 A 
ATOM     56  H   UNL A   1      44.207  28.326  29.822  1.00  0.00     0.167 HD
ATOM     57  C   UNL A   1      42.755  30.705  30.353  1.00  0.00     0.074 A 
ATOM     58  C   UNL A   1      41.655  31.637  30.496  1.00  0.00     0.031 C 
ATOM     59  C   UNL A   1      44.042  30.988  30.675  1.00  0.00     0.037 A 
BRANCH  46  60
ATOM     60  C   UNL A   1      47.937  26.257  29.876  1.00  0.00     0.057 A 
ATOM     61  C   UNL A   1      48.845  26.215  28.809  1.00  0.00     0.134 A 
ATOM     62  C   UNL A   1      48.379  25.778  31.116  1.00  0.00     0.134 A 
ATOM     63  F   UNL A   1      48.483  26.646  27.591  1.00  0.00    -0.206 F 
ATOM     64  C   UNL A   1      50.127  25.685  28.961  1.00  0.00     0.040 A 
ATOM     65  C   UNL A   1      49.669  25.271  31.286  1.00  0.00     0.040 A 
ATOM     66  F   UNL A   1      47.565  25.795  32.182  1.00  0.00    -0.206 F 
ATOM     67  C   UNL A   1      50.543  25.215  30.204  1.00  0.00     0.006 A 
ENDBRANCH  46  60
BRANCH  47  68
ATOM     68  C   UNL A   1      38.469  29.299  29.035  1.00  0.00     0.057 A 
ATOM     69  C   UNL A   1      37.612  29.294  30.142  1.00  0.00     0.134 A 
ATOM     70  C   UNL A   1      37.952  29.764  27.820  1.00  0.00     0.134 A 
ATOM     71  F   UNL A   1      38.046  28.842  31.328  1.00  0.00    -0.206 F 
ATOM     72  C   UNL A   1      36.289  29.724  30.045  1.00  0.00     0.040 A 
ATOM     73  C   UNL A   1      36.636  30.217  27.713  1.00  0.00     0.040 A 
ATOM     74  F   UNL A   1      38.725  29.800  26.725  1.00  0.00    -0.206 F 
ATOM     75  C   UNL A   1      35.799  30.194  28.828  1.00  0.00     0.006 A 
ENDBRANCH  47  68
BRANCH  59  76
ATOM     76  C   UNL A   1      44.332  32.369  31.180  1.00  0.00     0.057 A 
ATOM     77  C   UNL A   1      44.621  33.429  30.311  1.00  0.00     0.134 A 
ATOM     78  C   UNL A   1      44.287  32.649  32.551  1.00  0.00     0.134 A 
ATOM     79  F   UNL A   1      44.693  33.221  28.987  1.00  0.00    -0.206 F 
ATOM     80  C   UNL A   1      44.876  34.714  30.790  1.00  0.00     0.040 A 
ATOM     81  C   UNL A   1      44.516  33.936  33.041  1.00  0.00     0.040 A 
ATOM     82  F   UNL A   1      44.010  31.680  33.436  1.00  0.00    -0.206 F 
ATOM     83  C   UNL A   1      44.817  34.972  32.159  1.00  0.00     0.006 A 
ENDBRANCH  59  76
ENDBRANCH  33  34
ENDBRANCH  25  28
ENDBRANCH  23  24
ENDBRANCH  22  23
ENDBRANCH   1  22
TORSDOF 13
ENDMDL
