MODEL 1
REMARK VINA RESULT:     -10.4      0.000      0.000
REMARK SMILES CC[C@@](C)(NC(=O)N(C)[C@@H](C)C(C)C)C(=O)NCCCNC(=O)c1ccc(-c2c3nc(c(-c4c(F)cccc4F)c4ccc([nH]4)c(-c4c(F)cccc4F)c4nc(c(-c5c(F)cccc5F)c5ccc2[nH]5)C=C4)C=C3)cc1
REMARK SMILES IDX 18 1 17 2 15 3 16 4 3 6 4 7 2 8 1 9 5 10 6 11 7 13 8 14 9 15
REMARK SMILES IDX 10 16 11 17 12 18 13 19 14 20 19 21 20 22 21 23 22 24 23 26
REMARK SMILES IDX 24 27 25 28 77 29 26 30 76 31 27 32 28 33 29 34 70 35 30 36
REMARK SMILES IDX 75 37 69 38 71 39 31 40 74 41 68 42 67 43 32 45 58 46 41 47
REMARK SMILES IDX 57 48 42 49 45 50 56 51 72 52 43 53 44 54 55 56 73 57 46 58
REMARK SMILES IDX 33 59 34 60 39 61 35 62 36 63 38 64 40 65 37 66 59 67 60 68
REMARK SMILES IDX 65 69 61 70 62 71 64 72 66 73 63 74 47 75 48 76 53 77 49 78
REMARK SMILES IDX 50 79 52 80 54 81 51 82
REMARK H PARENT 17 5 5 12 21 25 71 44 45 55
REMARK Flexibility Score: inf
ROOT
ATOM      1  C   UNL A   1      36.453  20.682  24.649  1.00  0.00     0.117 C 
ENDROOT
BRANCH   1   2
ATOM      2  N   UNL A   1      35.297  20.316  25.451  1.00  0.00    -0.354 N 
ATOM      3  C   UNL A   1      34.148  20.950  25.817  1.00  0.00     0.245 C 
ATOM      4  O   UNL A   1      33.347  20.233  26.431  1.00  0.00    -0.272 OA
ATOM      5  H   UNL A   1      35.360  19.402  25.812  1.00  0.00     0.163 HD
BRANCH   3   6
ATOM      6  C   UNL A   1      33.789  22.423  25.437  1.00  0.00     0.117 C 
ATOM      7  C   UNL A   1      35.008  23.290  25.857  1.00  0.00     0.045 C 
BRANCH   6   8
ATOM      8  C   UNL A   1      33.588  22.669  23.905  1.00  0.00     0.035 C 
ATOM      9  C   UNL A   1      34.601  23.569  23.200  1.00  0.00     0.007 C 
ENDBRANCH   6   8
BRANCH   6  10
ATOM     10  N   UNL A   1      32.595  22.961  26.144  1.00  0.00    -0.324 N 
ATOM     11  C   UNL A   1      31.881  24.102  26.232  1.00  0.00     0.318 C 
ATOM     12  H   UNL A   1      32.206  22.271  26.729  1.00  0.00     0.166 HD
ATOM     13  O   UNL A   1      31.183  24.171  27.250  1.00  0.00    -0.249 OA
BRANCH  11  14
ATOM     14  N   UNL A   1      31.803  25.042  25.242  1.00  0.00    -0.325 N 
ATOM     15  C   UNL A   1      30.807  25.104  24.184  1.00  0.00     0.149 C 
BRANCH  14  16
ATOM     16  C   UNL A   1      32.825  26.128  25.178  1.00  0.00     0.086 C 
ATOM     17  C   UNL A   1      32.735  26.996  23.904  1.00  0.00     0.031 C 
BRANCH  16  18
ATOM     18  C   UNL A   1      32.891  27.038  26.441  1.00  0.00     0.005 C 
ATOM     19  C   UNL A   1      34.015  28.076  26.402  1.00  0.00     0.009 C 
ATOM     20  C   UNL A   1      31.558  27.783  26.633  1.00  0.00     0.009 C 
ENDBRANCH  16  18
ENDBRANCH  14  16
ENDBRANCH  11  14
ENDBRANCH   6  10
ENDBRANCH   3   6
ENDBRANCH   1   2
BRANCH   1  21
ATOM     21  C   UNL A   1      37.654  19.754  24.785  1.00  0.00     0.042 C 
BRANCH  21  22
ATOM     22  C   UNL A   1      38.730  20.193  25.774  1.00  0.00     0.118 C 
BRANCH  22  23
ATOM     23  N   UNL A   1      39.897  19.333  25.768  1.00  0.00    -0.352 N 
ATOM     24  C   UNL A   1      41.220  19.598  26.019  1.00  0.00     0.251 C 
ATOM     25  H   UNL A   1      39.708  18.395  25.543  1.00  0.00     0.163 HD
ATOM     26  O   UNL A   1      42.040  18.709  25.795  1.00  0.00    -0.269 OA
BRANCH  24  27
ATOM     27  C   UNL A   1      41.706  20.906  26.537  1.00  0.00     0.039 A 
ATOM     28  C   UNL A   1      41.588  21.136  27.914  1.00  0.00     0.014 A 
ATOM     29  C   UNL A   1      42.147  21.950  25.715  1.00  0.00     0.014 A 
ATOM     30  C   UNL A   1      41.911  22.382  28.461  1.00  0.00     0.010 A 
ATOM     31  C   UNL A   1      42.531  23.181  26.272  1.00  0.00     0.010 A 
ATOM     32  C   UNL A   1      42.390  23.420  27.648  1.00  0.00    -0.014 A 
BRANCH  32  33
ATOM     33  C   UNL A   1      42.683  24.756  28.241  1.00  0.00     0.031 A 
ATOM     34  C   UNL A   1      44.094  25.148  28.599  1.00  0.00     0.074 A 
ATOM     35  C   UNL A   1      41.686  25.643  28.436  1.00  0.00     0.049 A 
ATOM     36  N   UNL A   1      44.542  26.291  29.062  1.00  0.00    -0.248 NA
ATOM     37  C   UNL A   1      45.133  24.123  28.429  1.00  0.00     0.031 C 
ATOM     38  C   UNL A   1      40.269  25.395  28.169  1.00  0.00     0.029 A 
ATOM     39  N   UNL A   1      41.718  26.938  28.895  1.00  0.00    -0.354 N 
ATOM     40  C   UNL A   1      45.909  26.117  29.247  1.00  0.00     0.074 A 
ATOM     41  C   UNL A   1      46.209  24.747  28.886  1.00  0.00     0.031 C 
ATOM     42  C   UNL A   1      39.571  26.510  28.440  1.00  0.00     0.029 A 
ATOM     43  C   UNL A   1      40.486  27.546  28.913  1.00  0.00     0.049 A 
ATOM     44  H   UNL A   1      42.545  27.386  29.184  1.00  0.00     0.167 HD
ATOM     45  C   UNL A   1      46.837  27.016  29.658  1.00  0.00     0.037 A 
ATOM     46  C   UNL A   1      40.132  28.798  29.257  1.00  0.00     0.037 A 
ATOM     47  C   UNL A   1      46.561  28.390  29.990  1.00  0.00     0.049 A 
ATOM     48  C   UNL A   1      41.183  29.787  29.681  1.00  0.00     0.074 A 
ATOM     49  C   UNL A   1      47.449  29.381  30.373  1.00  0.00     0.029 A 
ATOM     50  N   UNL A   1      45.302  28.968  29.976  1.00  0.00    -0.354 N 
ATOM     51  N   UNL A   1      42.477  29.622  29.792  1.00  0.00    -0.248 NA
ATOM     52  C   UNL A   1      40.719  31.143  30.014  1.00  0.00     0.031 C 
ATOM     53  C   UNL A   1      46.726  30.554  30.614  1.00  0.00     0.029 A 
ATOM     54  C   UNL A   1      45.389  30.300  30.350  1.00  0.00     0.049 A 
ATOM     55  H   UNL A   1      44.468  28.502  29.736  1.00  0.00     0.167 HD
ATOM     56  C   UNL A   1      42.986  30.855  30.178  1.00  0.00     0.074 A 
ATOM     57  C   UNL A   1      41.863  31.763  30.272  1.00  0.00     0.031 C 
ATOM     58  C   UNL A   1      44.271  31.202  30.430  1.00  0.00     0.037 A 
BRANCH  45  59
ATOM     59  C   UNL A   1      48.256  26.541  29.762  1.00  0.00     0.057 A 
ATOM     60  C   UNL A   1      49.175  26.739  28.724  1.00  0.00     0.134 A 
ATOM     61  C   UNL A   1      48.717  25.916  30.927  1.00  0.00     0.134 A 
ATOM     62  F   UNL A   1      48.791  27.323  27.579  1.00  0.00    -0.206 F 
ATOM     63  C   UNL A   1      50.499  26.312  28.833  1.00  0.00     0.040 A 
ATOM     64  C   UNL A   1      50.045  25.504  31.056  1.00  0.00     0.040 A 
ATOM     65  F   UNL A   1      47.890  25.704  31.961  1.00  0.00    -0.206 F 
ATOM     66  C   UNL A   1      50.939  25.699  30.004  1.00  0.00     0.006 A 
ENDBRANCH  45  59
BRANCH  46  67
ATOM     67  C   UNL A   1      38.710  29.213  29.173  1.00  0.00     0.057 A 
ATOM     68  C   UNL A   1      37.877  29.159  30.295  1.00  0.00     0.134 A 
ATOM     69  C   UNL A   1      38.151  29.653  27.968  1.00  0.00     0.134 A 
ATOM     70  F   UNL A   1      38.353  28.723  31.471  1.00  0.00    -0.206 F 
ATOM     71  C   UNL A   1      36.530  29.514  30.220  1.00  0.00     0.040 A 
ATOM     72  C   UNL A   1      36.810  30.031  27.884  1.00  0.00     0.040 A 
ATOM     73  F   UNL A   1      38.901  29.725  26.860  1.00  0.00    -0.206 F 
ATOM     74  C   UNL A   1      35.995  29.956  29.012  1.00  0.00     0.006 A 
ENDBRANCH  46  67
BRANCH  58  75
ATOM     75  C   UNL A   1      44.537  32.631  30.796  1.00  0.00     0.057 A 
ATOM     76  C   UNL A   1      44.791  33.608  29.826  1.00  0.00     0.134 A 
ATOM     77  C   UNL A   1      44.520  33.038  32.137  1.00  0.00     0.134 A 
ATOM     78  F   UNL A   1      44.834  33.281  28.526  1.00  0.00    -0.206 F 
ATOM     79  C   UNL A   1      45.043  34.936  30.177  1.00  0.00     0.040 A 
ATOM     80  C   UNL A   1      44.751  34.367  32.498  1.00  0.00     0.040 A 
ATOM     81  F   UNL A   1      44.277  32.153  33.114  1.00  0.00    -0.206 F 
ATOM     82  C   UNL A   1      45.019  35.319  31.517  1.00  0.00     0.006 A 
ENDBRANCH  58  75
ENDBRANCH  32  33
ENDBRANCH  24  27
ENDBRANCH  22  23
ENDBRANCH  21  22
ENDBRANCH   1  21
TORSDOF 15
ENDMDL
MODEL 2
REMARK VINA RESULT:     -10.3      4.313      9.180
REMARK SMILES CC[C@@](C)(NC(=O)N(C)[C@@H](C)C(C)C)C(=O)NCCCNC(=O)c1ccc(-c2c3nc(c(-c4c(F)cccc4F)c4ccc([nH]4)c(-c4c(F)cccc4F)c4nc(c(-c5c(F)cccc5F)c5ccc2[nH]5)C=C4)C=C3)cc1
REMARK SMILES IDX 18 1 17 2 15 3 16 4 3 6 4 7 2 8 1 9 5 10 6 11 7 13 8 14 9 15
REMARK SMILES IDX 10 16 11 17 12 18 13 19 14 20 19 21 20 22 21 23 22 24 23 26
REMARK SMILES IDX 24 27 25 28 77 29 26 30 76 31 27 32 28 33 29 34 70 35 30 36
REMARK SMILES IDX 75 37 69 38 71 39 31 40 74 41 68 42 67 43 32 45 58 46 41 47
REMARK SMILES IDX 57 48 42 49 45 50 56 51 72 52 43 53 44 54 55 56 73 57 46 58
REMARK SMILES IDX 33 59 34 60 39 61 35 62 36 63 38 64 40 65 37 66 59 67 60 68
REMARK SMILES IDX 65 69 61 70 62 71 64 72 66 73 63 74 47 75 48 76 53 77 49 78
REMARK SMILES IDX 50 79 52 80 54 81 51 82
REMARK H PARENT 17 5 5 12 21 25 71 44 45 55
REMARK Flexibility Score: inf
ROOT
ATOM      1  C   UNL A   1      30.931  30.147  25.196  1.00  0.00     0.117 C 
ENDROOT
BRANCH   1   2
ATOM      2  N   UNL A   1      32.071  29.702  24.412  1.00  0.00    -0.354 N 
ATOM      3  C   UNL A   1      32.982  28.696  24.535  1.00  0.00     0.245 C 
ATOM      4  O   UNL A   1      33.748  28.584  23.569  1.00  0.00    -0.272 OA
ATOM      5  H   UNL A   1      32.217  30.251  23.608  1.00  0.00     0.163 HD
BRANCH   3   6
ATOM      6  C   UNL A   1      33.033  27.690  25.730  1.00  0.00     0.117 C 
ATOM      7  C   UNL A   1      34.180  26.691  25.409  1.00  0.00     0.045 C 
BRANCH   6   8
ATOM      8  C   UNL A   1      33.392  28.335  27.109  1.00  0.00     0.035 C 
ATOM      9  C   UNL A   1      34.751  29.023  27.229  1.00  0.00     0.007 C 
ENDBRANCH   6   8
BRANCH   6  10
ATOM     10  N   UNL A   1      31.788  26.895  25.910  1.00  0.00    -0.324 N 
ATOM     11  C   UNL A   1      30.988  26.066  25.208  1.00  0.00     0.318 C 
ATOM     12  H   UNL A   1      31.441  27.008  26.825  1.00  0.00     0.166 HD
ATOM     13  O   UNL A   1      29.855  25.949  25.689  1.00  0.00    -0.249 OA
BRANCH  11  14
ATOM     14  N   UNL A   1      31.402  25.306  24.150  1.00  0.00    -0.325 N 
ATOM     15  C   UNL A   1      31.261  25.636  22.740  1.00  0.00     0.149 C 
BRANCH  14  16
ATOM     16  C   UNL A   1      32.054  23.987  24.402  1.00  0.00     0.086 C 
ATOM     17  C   UNL A   1      31.121  22.942  25.051  1.00  0.00     0.031 C 
BRANCH  16  18
ATOM     18  C   UNL A   1      32.774  23.368  23.166  1.00  0.00     0.005 C 
ATOM     19  C   UNL A   1      34.280  23.177  23.355  1.00  0.00     0.009 C 
ATOM     20  C   UNL A   1      32.157  22.001  22.819  1.00  0.00     0.009 C 
ENDBRANCH  16  18
ENDBRANCH  14  16
ENDBRANCH  11  14
ENDBRANCH   6  10
ENDBRANCH   3   6
ENDBRANCH   1   2
BRANCH   1  21
ATOM     21  C   UNL A   1      31.029  31.572  25.727  1.00  0.00     0.042 C 
BRANCH  21  22
ATOM     22  C   UNL A   1      32.023  31.797  26.863  1.00  0.00     0.118 C 
BRANCH  22  23
ATOM     23  N   UNL A   1      32.150  33.189  27.244  1.00  0.00    -0.352 N 
ATOM     24  C   UNL A   1      33.107  33.844  27.977  1.00  0.00     0.251 C 
ATOM     25  H   UNL A   1      31.422  33.766  26.921  1.00  0.00     0.163 HD
ATOM     26  O   UNL A   1      32.896  35.016  28.287  1.00  0.00    -0.269 OA
BRANCH  24  27
ATOM     27  C   UNL A   1      34.375  33.204  28.422  1.00  0.00     0.039 A 
ATOM     28  C   UNL A   1      34.269  32.055  29.218  1.00  0.00     0.014 A 
ATOM     29  C   UNL A   1      35.643  33.754  28.200  1.00  0.00     0.014 A 
ATOM     30  C   UNL A   1      35.408  31.464  29.775  1.00  0.00     0.010 A 
ATOM     31  C   UNL A   1      36.791  33.125  28.706  1.00  0.00     0.010 A 
ATOM     32  C   UNL A   1      36.684  31.989  29.523  1.00  0.00    -0.014 A 
BRANCH  32  33
ATOM     33  C   UNL A   1      37.882  31.375  30.165  1.00  0.00     0.031 A 
ATOM     34  C   UNL A   1      38.232  31.683  31.599  1.00  0.00     0.074 A 
ATOM     35  C   UNL A   1      38.652  30.511  29.473  1.00  0.00     0.049 A 
ATOM     36  N   UNL A   1      39.196  31.191  32.339  1.00  0.00    -0.248 NA
ATOM     37  C   UNL A   1      37.400  32.680  32.287  1.00  0.00     0.031 C 
ATOM     38  C   UNL A   1      38.459  30.142  28.071  1.00  0.00     0.029 A 
ATOM     39  N   UNL A   1      39.747  29.778  29.863  1.00  0.00    -0.354 N 
ATOM     40  C   UNL A   1      39.093  31.824  33.571  1.00  0.00     0.074 A 
ATOM     41  C   UNL A   1      37.998  32.766  33.467  1.00  0.00     0.031 C 
ATOM     42  C   UNL A   1      39.384  29.231  27.726  1.00  0.00     0.029 A 
ATOM     43  C   UNL A   1      40.244  28.962  28.877  1.00  0.00     0.049 A 
ATOM     44  H   UNL A   1      40.138  29.834  30.765  1.00  0.00     0.167 HD
ATOM     45  C   UNL A   1      39.824  31.629  34.697  1.00  0.00     0.037 A 
ATOM     46  C   UNL A   1      41.265  28.085  28.896  1.00  0.00     0.037 A 
ATOM     47  C   UNL A   1      40.894  30.675  34.828  1.00  0.00     0.049 A 
ATOM     48  C   UNL A   1      42.042  27.864  30.164  1.00  0.00     0.074 A 
ATOM     49  C   UNL A   1      41.657  30.382  35.945  1.00  0.00     0.029 A 
ATOM     50  N   UNL A   1      41.351  29.856  33.809  1.00  0.00    -0.354 N 
ATOM     51  N   UNL A   1      41.891  28.429  31.336  1.00  0.00    -0.248 NA
ATOM     52  C   UNL A   1      43.125  26.869  30.112  1.00  0.00     0.031 C 
ATOM     53  C   UNL A   1      42.593  29.401  35.597  1.00  0.00     0.029 A 
ATOM     54  C   UNL A   1      42.390  29.062  34.269  1.00  0.00     0.049 A 
ATOM     55  H   UNL A   1      40.991  29.839  32.892  1.00  0.00     0.167 HD
ATOM     56  C   UNL A   1      42.836  27.840  32.167  1.00  0.00     0.074 A 
ATOM     57  C   UNL A   1      43.550  26.866  31.368  1.00  0.00     0.031 C 
ATOM     58  C   UNL A   1      43.087  28.086  33.475  1.00  0.00     0.037 A 
BRANCH  45  59
ATOM     59  C   UNL A   1      39.480  32.467  35.893  1.00  0.00     0.057 A 
ATOM     60  C   UNL A   1      38.529  32.049  36.833  1.00  0.00     0.134 A 
ATOM     61  C   UNL A   1      40.135  33.681  36.129  1.00  0.00     0.134 A 
ATOM     62  F   UNL A   1      37.860  30.900  36.658  1.00  0.00    -0.206 F 
ATOM     63  C   UNL A   1      38.226  32.822  37.954  1.00  0.00     0.040 A 
ATOM     64  C   UNL A   1      39.857  34.452  37.259  1.00  0.00     0.040 A 
ATOM     65  F   UNL A   1      41.063  34.133  35.272  1.00  0.00    -0.206 F 
ATOM     66  C   UNL A   1      38.895  34.024  38.173  1.00  0.00     0.006 A 
ENDBRANCH  45  59
BRANCH  46  67
ATOM     67  C   UNL A   1      41.592  27.306  27.677  1.00  0.00     0.057 A 
ATOM     68  C   UNL A   1      42.444  27.826  26.696  1.00  0.00     0.134 A 
ATOM     69  C   UNL A   1      41.046  26.036  27.457  1.00  0.00     0.134 A 
ATOM     70  F   UNL A   1      42.977  29.048  26.843  1.00  0.00    -0.206 F 
ATOM     71  C   UNL A   1      42.732  27.116  25.530  1.00  0.00     0.040 A 
ATOM     72  C   UNL A   1      41.342  25.307  26.305  1.00  0.00     0.040 A 
ATOM     73  F   UNL A   1      40.224  25.487  28.362  1.00  0.00    -0.206 F 
ATOM     74  C   UNL A   1      42.183  25.850  25.335  1.00  0.00     0.006 A 
ENDBRANCH  46  67
BRANCH  58  75
ATOM     75  C   UNL A   1      44.153  27.265  34.134  1.00  0.00     0.057 A 
ATOM     76  C   UNL A   1      43.876  26.019  34.711  1.00  0.00     0.134 A 
ATOM     77  C   UNL A   1      45.478  27.718  34.177  1.00  0.00     0.134 A 
ATOM     78  F   UNL A   1      42.626  25.534  34.715  1.00  0.00    -0.206 F 
ATOM     79  C   UNL A   1      44.875  25.263  35.330  1.00  0.00     0.040 A 
ATOM     80  C   UNL A   1      46.489  26.962  34.775  1.00  0.00     0.040 A 
ATOM     81  F   UNL A   1      45.811  28.900  33.638  1.00  0.00    -0.206 F 
ATOM     82  C   UNL A   1      46.187  25.734  35.358  1.00  0.00     0.006 A 
ENDBRANCH  58  75
ENDBRANCH  32  33
ENDBRANCH  24  27
ENDBRANCH  22  23
ENDBRANCH  21  22
ENDBRANCH   1  21
TORSDOF 15
ENDMDL
MODEL 3
REMARK VINA RESULT:     -10.3      0.813      1.705
REMARK SMILES CC[C@@](C)(NC(=O)N(C)[C@@H](C)C(C)C)C(=O)NCCCNC(=O)c1ccc(-c2c3nc(c(-c4c(F)cccc4F)c4ccc([nH]4)c(-c4c(F)cccc4F)c4nc(c(-c5c(F)cccc5F)c5ccc2[nH]5)C=C4)C=C3)cc1
REMARK SMILES IDX 18 1 17 2 15 3 16 4 3 6 4 7 2 8 1 9 5 10 6 11 7 13 8 14 9 15
REMARK SMILES IDX 10 16 11 17 12 18 13 19 14 20 19 21 20 22 21 23 22 24 23 26
REMARK SMILES IDX 24 27 25 28 77 29 26 30 76 31 27 32 28 33 29 34 70 35 30 36
REMARK SMILES IDX 75 37 69 38 71 39 31 40 74 41 68 42 67 43 32 45 58 46 41 47
REMARK SMILES IDX 57 48 42 49 45 50 56 51 72 52 43 53 44 54 55 56 73 57 46 58
REMARK SMILES IDX 33 59 34 60 39 61 35 62 36 63 38 64 40 65 37 66 59 67 60 68
REMARK SMILES IDX 65 69 61 70 62 71 64 72 66 73 63 74 47 75 48 76 53 77 49 78
REMARK SMILES IDX 50 79 52 80 54 81 51 82
REMARK H PARENT 17 5 5 12 21 25 71 44 45 55
REMARK Flexibility Score: inf
ROOT
ATOM      1  C   UNL A   1      36.523  20.185  24.995  1.00  0.00     0.117 C 
ENDROOT
BRANCH   1   2
ATOM      2  N   UNL A   1      35.343  19.344  24.889  1.00  0.00    -0.354 N 
ATOM      3  C   UNL A   1      34.001  19.580  24.855  1.00  0.00     0.245 C 
ATOM      4  O   UNL A   1      33.314  18.573  24.640  1.00  0.00    -0.272 OA
ATOM      5  H   UNL A   1      35.563  18.387  24.828  1.00  0.00     0.163 HD
BRANCH   3   6
ATOM      6  C   UNL A   1      33.347  20.994  24.979  1.00  0.00     0.117 C 
ATOM      7  C   UNL A   1      34.375  22.003  24.396  1.00  0.00     0.045 C 
BRANCH   6   8
ATOM      8  C   UNL A   1      32.036  21.180  24.147  1.00  0.00     0.035 C 
ATOM      9  C   UNL A   1      32.165  21.832  22.772  1.00  0.00     0.007 C 
ENDBRANCH   6   8
BRANCH   6  10
ATOM     10  N   UNL A   1      33.060  21.411  26.379  1.00  0.00    -0.324 N 
ATOM     11  C   UNL A   1      32.475  22.425  27.049  1.00  0.00     0.318 C 
ATOM     12  H   UNL A   1      33.403  20.739  27.012  1.00  0.00     0.166 HD
ATOM     13  O   UNL A   1      32.818  22.497  28.235  1.00  0.00    -0.249 OA
BRANCH  11  14
ATOM     14  N   UNL A   1      31.488  23.221  26.537  1.00  0.00    -0.325 N 
ATOM     15  C   UNL A   1      30.062  23.106  26.797  1.00  0.00     0.149 C 
BRANCH  14  16
ATOM     16  C   UNL A   1      31.846  24.324  25.597  1.00  0.00     0.086 C 
ATOM     17  C   UNL A   1      30.627  25.011  24.946  1.00  0.00     0.031 C 
BRANCH  16  18
ATOM     18  C   UNL A   1      32.812  25.396  26.187  1.00  0.00     0.005 C 
ATOM     19  C   UNL A   1      34.007  25.718  25.286  1.00  0.00     0.009 C 
ATOM     20  C   UNL A   1      32.053  26.705  26.463  1.00  0.00     0.009 C 
ENDBRANCH  16  18
ENDBRANCH  14  16
ENDBRANCH  11  14
ENDBRANCH   6  10
ENDBRANCH   3   6
ENDBRANCH   1   2
BRANCH   1  21
ATOM     21  C   UNL A   1      37.853  19.445  24.920  1.00  0.00     0.042 C 
BRANCH  21  22
ATOM     22  C   UNL A   1      39.005  20.055  25.714  1.00  0.00     0.118 C 
BRANCH  22  23
ATOM     23  N   UNL A   1      40.185  19.214  25.746  1.00  0.00    -0.352 N 
ATOM     24  C   UNL A   1      41.498  19.505  26.019  1.00  0.00     0.251 C 
ATOM     25  H   UNL A   1      40.015  18.269  25.536  1.00  0.00     0.163 HD
ATOM     26  O   UNL A   1      42.336  18.625  25.828  1.00  0.00    -0.269 OA
BRANCH  24  27
ATOM     27  C   UNL A   1      41.954  20.831  26.520  1.00  0.00     0.039 A 
ATOM     28  C   UNL A   1      41.879  21.054  27.901  1.00  0.00     0.014 A 
ATOM     29  C   UNL A   1      42.323  21.891  25.685  1.00  0.00     0.014 A 
ATOM     30  C   UNL A   1      42.175  22.312  28.439  1.00  0.00     0.010 A 
ATOM     31  C   UNL A   1      42.680  23.135  26.230  1.00  0.00     0.010 A 
ATOM     32  C   UNL A   1      42.582  23.367  27.611  1.00  0.00    -0.014 A 
BRANCH  32  33
ATOM     33  C   UNL A   1      42.846  24.714  28.195  1.00  0.00     0.031 A 
ATOM     34  C   UNL A   1      44.250  25.144  28.538  1.00  0.00     0.074 A 
ATOM     35  C   UNL A   1      41.829  25.575  28.396  1.00  0.00     0.049 A 
ATOM     36  N   UNL A   1      44.673  26.299  28.992  1.00  0.00    -0.248 NA
ATOM     37  C   UNL A   1      45.313  24.145  28.363  1.00  0.00     0.031 C 
ATOM     38  C   UNL A   1      40.416  25.289  28.144  1.00  0.00     0.029 A 
ATOM     39  N   UNL A   1      41.831  26.872  28.850  1.00  0.00    -0.354 N 
ATOM     40  C   UNL A   1      46.045  26.162  29.164  1.00  0.00     0.074 A 
ATOM     41  C   UNL A   1      46.378  24.799  28.806  1.00  0.00     0.031 C 
ATOM     42  C   UNL A   1      39.692  26.387  28.417  1.00  0.00     0.029 A 
ATOM     43  C   UNL A   1      40.585  27.448  28.878  1.00  0.00     0.049 A 
ATOM     44  H   UNL A   1      42.649  27.343  29.128  1.00  0.00     0.167 HD
ATOM     45  C   UNL A   1      46.953  27.086  29.562  1.00  0.00     0.037 A 
ATOM     46  C   UNL A   1      40.201  28.693  29.220  1.00  0.00     0.037 A 
ATOM     47  C   UNL A   1      46.646  28.454  29.892  1.00  0.00     0.049 A 
ATOM     48  C   UNL A   1      41.230  29.710  29.629  1.00  0.00     0.074 A 
ATOM     49  C   UNL A   1      47.512  29.469  30.262  1.00  0.00     0.029 A 
ATOM     50  N   UNL A   1      45.372  28.999  29.888  1.00  0.00    -0.354 N 
ATOM     51  N   UNL A   1      42.530  29.579  29.728  1.00  0.00    -0.248 NA
ATOM     52  C   UNL A   1      40.735  31.055  29.961  1.00  0.00     0.031 C 
ATOM     53  C   UNL A   1      46.760  30.624  30.505  1.00  0.00     0.029 A 
ATOM     54  C   UNL A   1      45.428  30.334  30.255  1.00  0.00     0.049 A 
ATOM     55  H   UNL A   1      44.548  28.511  29.658  1.00  0.00     0.167 HD
ATOM     56  C   UNL A   1      43.010  30.827  30.104  1.00  0.00     0.074 A 
ATOM     57  C   UNL A   1      41.865  31.706  30.206  1.00  0.00     0.031 C 
ATOM     58  C   UNL A   1      44.288  31.208  30.342  1.00  0.00     0.037 A 
BRANCH  45  59
ATOM     59  C   UNL A   1      48.385  26.648  29.655  1.00  0.00     0.057 A 
ATOM     60  C   UNL A   1      49.288  26.862  28.605  1.00  0.00     0.134 A 
ATOM     61  C   UNL A   1      48.875  26.045  30.819  1.00  0.00     0.134 A 
ATOM     62  F   UNL A   1      48.877  27.427  27.460  1.00  0.00    -0.206 F 
ATOM     63  C   UNL A   1      50.623  26.470  28.703  1.00  0.00     0.040 A 
ATOM     64  C   UNL A   1      50.214  25.668  30.937  1.00  0.00     0.040 A 
ATOM     65  F   UNL A   1      48.064  25.819  31.864  1.00  0.00    -0.206 F 
ATOM     66  C   UNL A   1      51.092  25.877  29.874  1.00  0.00     0.006 A 
ENDBRANCH  45  59
BRANCH  46  67
ATOM     67  C   UNL A   1      38.769  29.070  29.148  1.00  0.00     0.057 A 
ATOM     68  C   UNL A   1      38.205  29.533  27.954  1.00  0.00     0.134 A 
ATOM     69  C   UNL A   1      37.939  28.994  30.272  1.00  0.00     0.134 A 
ATOM     70  F   UNL A   1      38.959  29.649  26.851  1.00  0.00    -0.206 F 
ATOM     71  C   UNL A   1      36.867  29.922  27.883  1.00  0.00     0.040 A 
ATOM     72  C   UNL A   1      36.594  29.361  30.210  1.00  0.00     0.040 A 
ATOM     73  F   UNL A   1      38.425  28.557  31.443  1.00  0.00    -0.206 F 
ATOM     74  C   UNL A   1      36.057  29.832  29.014  1.00  0.00     0.006 A 
ENDBRANCH  46  67
BRANCH  58  75
ATOM     75  C   UNL A   1      44.520  32.645  30.700  1.00  0.00     0.057 A 
ATOM     76  C   UNL A   1      44.531  33.083  32.030  1.00  0.00     0.134 A 
ATOM     77  C   UNL A   1      44.753  33.600  29.702  1.00  0.00     0.134 A 
ATOM     78  F   UNL A   1      44.301  32.221  33.032  1.00  0.00    -0.206 F 
ATOM     79  C   UNL A   1      44.741  34.425  32.354  1.00  0.00     0.040 A 
ATOM     80  C   UNL A   1      44.984  34.940  30.014  1.00  0.00     0.040 A 
ATOM     81  F   UNL A   1      44.761  33.244  28.409  1.00  0.00    -0.206 F 
ATOM     82  C   UNL A   1      44.973  35.357  31.344  1.00  0.00     0.006 A 
ENDBRANCH  58  75
ENDBRANCH  32  33
ENDBRANCH  24  27
ENDBRANCH  22  23
ENDBRANCH  21  22
ENDBRANCH   1  21
TORSDOF 15
ENDMDL
