MODEL 1
REMARK VINA RESULT:     -13.0      0.000      0.000
REMARK SMILES C[C@@H](Oc1ccc2c(c1)OCO2)C(=O)N1CCn2nc(C(=O)NCCCNC(=O)c3ccc(-c4c5nc(c(-c6c(F)cccc6F)c6ccc([nH]6)c(-c6c(F)cccc6F)c6nc(c(-c7c(F)cccc7F)c7ccc4[nH]7)C=C6)C=C5)cc3)cc2C1
REMARK SMILES IDX 24 1 23 2 21 3 22 4 20 6 15 7 16 8 86 9 17 10 85 11 18 12
REMARK SMILES IDX 84 13 19 14 13 15 14 16 2 17 1 18 3 19 4 20 5 21 9 22 6 23
REMARK SMILES IDX 8 24 7 25 10 26 12 27 11 28 25 29 26 30 27 31 28 32 29 34
REMARK SMILES IDX 30 35 31 36 83 37 32 38 82 39 33 40 34 41 35 42 76 43 36 44
REMARK SMILES IDX 81 45 75 46 77 47 37 48 80 49 74 50 73 51 38 53 64 54 47 55
REMARK SMILES IDX 63 56 48 57 51 58 62 59 78 60 49 61 50 62 61 64 79 65 52 66
REMARK SMILES IDX 39 67 40 68 45 69 41 70 42 71 44 72 46 73 43 74 65 75 66 76
REMARK SMILES IDX 71 77 67 78 68 79 70 80 72 81 69 82 53 83 54 84 59 85 55 86
REMARK SMILES IDX 56 87 58 88 60 89 57 90
REMARK H PARENT 23 5 27 33 77 52 51 63
REMARK Flexibility Score: inf
ROOT
ATOM      1  C   UNL A   1      36.487  20.639  24.972  1.00  0.00     0.118 C 
ENDROOT
BRANCH   1   2
ATOM      2  N   UNL A   1      35.184  20.033  25.177  1.00  0.00    -0.351 N 
ATOM      3  C   UNL A   1      33.921  20.591  25.200  1.00  0.00     0.271 C 
ATOM      4  O   UNL A   1      32.979  19.800  25.292  1.00  0.00    -0.267 OA
ATOM      5  H   UNL A   1      35.205  19.060  25.325  1.00  0.00     0.163 HD
BRANCH   3   6
ATOM      6  C   UNL A   1      33.735  22.052  25.088  1.00  0.00     0.150 A 
ATOM      7  N   UNL A   1      33.383  26.647  25.065  1.00  0.00    -0.332 N 
ATOM      8  C   UNL A   1      33.313  26.331  23.630  1.00  0.00     0.143 C 
ATOM      9  C   UNL A   1      33.571  25.600  26.055  1.00  0.00     0.175 C 
ATOM     10  C   UNL A   1      33.849  24.981  23.160  1.00  0.00     0.166 C 
ATOM     11  C   UNL A   1      33.554  24.243  25.493  1.00  0.00     0.059 A 
ATOM     12  N   UNL A   1      33.737  23.979  24.181  1.00  0.00    -0.265 N 
ATOM     13  C   UNL A   1      33.405  23.015  26.083  1.00  0.00     0.061 A 
ATOM     14  N   UNL A   1      33.891  22.679  23.900  1.00  0.00    -0.167 NA
BRANCH   7  15
ATOM     15  C   UNL A   1      33.134  27.909  25.614  1.00  0.00     0.263 C 
ATOM     16  O   UNL A   1      34.061  28.706  25.810  1.00  0.00    -0.271 OA
BRANCH  15  17
ATOM     17  C   UNL A   1      31.710  28.290  26.054  1.00  0.00     0.259 C 
ATOM     18  C   UNL A   1      31.508  28.155  27.557  1.00  0.00     0.064 C 
BRANCH  17  19
ATOM     19  O   UNL A   1      31.498  29.622  25.559  1.00  0.00    -0.481 OA
BRANCH  19  20
ATOM     20  C   UNL A   1      30.756  29.680  24.415  1.00  0.00     0.124 A 
ATOM     21  C   UNL A   1      30.545  28.500  23.684  1.00  0.00     0.050 A 
ATOM     22  C   UNL A   1      30.082  30.859  24.090  1.00  0.00     0.097 A 
ATOM     23  C   UNL A   1      29.691  28.492  22.583  1.00  0.00     0.054 A 
ATOM     24  C   UNL A   1      29.227  30.817  23.007  1.00  0.00     0.169 A 
ATOM     25  C   UNL A   1      29.042  29.666  22.274  1.00  0.00     0.166 A 
ATOM     26  O   UNL A   1      28.460  31.843  22.551  1.00  0.00    -0.453 OA
ATOM     27  O   UNL A   1      28.146  29.826  21.265  1.00  0.00    -0.454 OA
ATOM     28  C   UNL A   1      27.760  31.201  21.463  1.00  0.00     0.468 C 
ENDBRANCH  19  20
ENDBRANCH  17  19
ENDBRANCH  15  17
ENDBRANCH   7  15
ENDBRANCH   3   6
ENDBRANCH   1   2
BRANCH   1  29
ATOM     29  C   UNL A   1      37.618  19.602  25.006  1.00  0.00     0.042 C 
BRANCH  29  30
ATOM     30  C   UNL A   1      38.900  20.192  25.565  1.00  0.00     0.118 C 
BRANCH  30  31
ATOM     31  N   UNL A   1      39.950  19.179  25.699  1.00  0.00    -0.352 N 
ATOM     32  C   UNL A   1      41.295  19.341  25.980  1.00  0.00     0.251 C 
ATOM     33  H   UNL A   1      39.657  18.248  25.570  1.00  0.00     0.163 HD
ATOM     34  O   UNL A   1      42.092  18.450  25.760  1.00  0.00    -0.269 OA
BRANCH  32  35
ATOM     35  C   UNL A   1      41.741  20.619  26.557  1.00  0.00     0.039 A 
ATOM     36  C   UNL A   1      42.398  21.580  25.781  1.00  0.00     0.014 A 
ATOM     37  C   UNL A   1      41.467  20.851  27.899  1.00  0.00     0.014 A 
ATOM     38  C   UNL A   1      42.706  22.811  26.355  1.00  0.00     0.010 A 
ATOM     39  C   UNL A   1      41.590  22.113  28.401  1.00  0.00     0.010 A 
ATOM     40  C   UNL A   1      42.283  23.068  27.665  1.00  0.00    -0.014 A 
BRANCH  40  41
ATOM     41  C   UNL A   1      42.456  24.369  28.295  1.00  0.00     0.031 A 
ATOM     42  C   UNL A   1      41.322  25.305  28.070  1.00  0.00     0.074 A 
ATOM     43  C   UNL A   1      43.397  24.547  29.250  1.00  0.00     0.049 A 
ATOM     44  N   UNL A   1      41.325  26.428  27.430  1.00  0.00    -0.248 NA
ATOM     45  C   UNL A   1      39.975  24.862  28.475  1.00  0.00     0.031 C 
ATOM     46  C   UNL A   1      44.327  23.542  29.792  1.00  0.00     0.029 A 
ATOM     47  N   UNL A   1      43.634  25.622  30.046  1.00  0.00    -0.354 N 
ATOM     48  C   UNL A   1      40.035  26.940  27.565  1.00  0.00     0.074 A 
ATOM     49  C   UNL A   1      39.212  25.843  27.991  1.00  0.00     0.031 C 
ATOM     50  C   UNL A   1      44.838  23.976  30.963  1.00  0.00     0.029 A 
ATOM     51  C   UNL A   1      44.418  25.349  31.164  1.00  0.00     0.049 A 
ATOM     52  H   UNL A   1      43.281  26.520  29.850  1.00  0.00     0.167 HD
ATOM     53  C   UNL A   1      39.819  28.285  27.620  1.00  0.00     0.037 A 
ATOM     54  C   UNL A   1      44.675  26.189  32.196  1.00  0.00     0.037 A 
ATOM     55  C   UNL A   1      40.993  29.000  27.178  1.00  0.00     0.049 A 
ATOM     56  C   UNL A   1      44.339  27.555  31.732  1.00  0.00     0.074 A 
ATOM     57  C   UNL A   1      41.711  29.104  26.004  1.00  0.00     0.029 A 
ATOM     58  N   UNL A   1      41.807  29.474  28.174  1.00  0.00    -0.354 N 
ATOM     59  N   UNL A   1      44.995  28.190  30.804  1.00  0.00    -0.248 NA
ATOM     60  C   UNL A   1      43.003  28.060  32.009  1.00  0.00     0.031 C 
ATOM     61  C   UNL A   1      43.070  29.264  26.410  1.00  0.00     0.029 A 
ATOM     62  C   UNL A   1      43.113  29.312  27.804  1.00  0.00     0.049 A 
ATOM     63  H   UNL A   1      41.500  29.867  29.022  1.00  0.00     0.167 HD
ATOM     64  C   UNL A   1      44.023  28.873  30.090  1.00  0.00     0.074 A 
ATOM     65  C   UNL A   1      42.847  28.867  30.956  1.00  0.00     0.031 C 
ATOM     66  C   UNL A   1      44.185  29.104  28.754  1.00  0.00     0.037 A 
BRANCH  53  67
ATOM     67  C   UNL A   1      38.781  28.964  28.503  1.00  0.00     0.057 A 
ATOM     68  C   UNL A   1      38.775  28.664  29.881  1.00  0.00     0.134 A 
ATOM     69  C   UNL A   1      37.621  29.621  28.043  1.00  0.00     0.134 A 
ATOM     70  F   UNL A   1      39.821  28.052  30.457  1.00  0.00    -0.206 F 
ATOM     71  C   UNL A   1      37.663  28.890  30.701  1.00  0.00     0.040 A 
ATOM     72  C   UNL A   1      36.523  29.897  28.866  1.00  0.00     0.040 A 
ATOM     73  F   UNL A   1      37.428  29.952  26.763  1.00  0.00    -0.206 F 
ATOM     74  C   UNL A   1      36.524  29.494  30.190  1.00  0.00     0.006 A 
ENDBRANCH  53  67
BRANCH  54  75
ATOM     75  C   UNL A   1      44.924  25.885  33.621  1.00  0.00     0.057 A 
ATOM     76  C   UNL A   1      45.953  26.522  34.329  1.00  0.00     0.134 A 
ATOM     77  C   UNL A   1      43.982  25.187  34.396  1.00  0.00     0.134 A 
ATOM     78  F   UNL A   1      46.879  27.243  33.678  1.00  0.00    -0.206 F 
ATOM     79  C   UNL A   1      46.024  26.497  35.727  1.00  0.00     0.040 A 
ATOM     80  C   UNL A   1      44.043  25.150  35.793  1.00  0.00     0.040 A 
ATOM     81  F   UNL A   1      42.920  24.597  33.826  1.00  0.00    -0.206 F 
ATOM     82  C   UNL A   1      45.058  25.821  36.465  1.00  0.00     0.006 A 
ENDBRANCH  54  75
BRANCH  66  83
ATOM     83  C   UNL A   1      45.566  28.920  28.184  1.00  0.00     0.057 A 
ATOM     84  C   UNL A   1      46.039  27.731  27.609  1.00  0.00     0.134 A 
ATOM     85  C   UNL A   1      46.404  30.035  28.106  1.00  0.00     0.134 A 
ATOM     86  F   UNL A   1      45.275  26.634  27.555  1.00  0.00    -0.206 F 
ATOM     87  C   UNL A   1      47.304  27.647  27.021  1.00  0.00     0.040 A 
ATOM     88  C   UNL A   1      47.656  29.975  27.491  1.00  0.00     0.040 A 
ATOM     89  F   UNL A   1      45.997  31.220  28.588  1.00  0.00    -0.206 F 
ATOM     90  C   UNL A   1      48.115  28.775  26.955  1.00  0.00     0.006 A 
ENDBRANCH  66  83
ENDBRANCH  40  41
ENDBRANCH  32  35
ENDBRANCH  30  31
ENDBRANCH  29  30
ENDBRANCH   1  29
TORSDOF 14
ENDMDL
MODEL 2
REMARK VINA RESULT:     -12.9      1.513      2.374
REMARK SMILES C[C@@H](Oc1ccc2c(c1)OCO2)C(=O)N1CCn2nc(C(=O)NCCCNC(=O)c3ccc(-c4c5nc(c(-c6c(F)cccc6F)c6ccc([nH]6)c(-c6c(F)cccc6F)c6nc(c(-c7c(F)cccc7F)c7ccc4[nH]7)C=C6)C=C5)cc3)cc2C1
REMARK SMILES IDX 24 1 23 2 21 3 22 4 20 6 15 7 16 8 86 9 17 10 85 11 18 12
REMARK SMILES IDX 84 13 19 14 13 15 14 16 2 17 1 18 3 19 4 20 5 21 9 22 6 23
REMARK SMILES IDX 8 24 7 25 10 26 12 27 11 28 25 29 26 30 27 31 28 32 29 34
REMARK SMILES IDX 30 35 31 36 83 37 32 38 82 39 33 40 34 41 35 42 76 43 36 44
REMARK SMILES IDX 81 45 75 46 77 47 37 48 80 49 74 50 73 51 38 53 64 54 47 55
REMARK SMILES IDX 63 56 48 57 51 58 62 59 78 60 49 61 50 62 61 64 79 65 52 66
REMARK SMILES IDX 39 67 40 68 45 69 41 70 42 71 44 72 46 73 43 74 65 75 66 76
REMARK SMILES IDX 71 77 67 78 68 79 70 80 72 81 69 82 53 83 54 84 59 85 55 86
REMARK SMILES IDX 56 87 58 88 60 89 57 90
REMARK H PARENT 23 5 27 33 77 52 51 63
REMARK Flexibility Score: inf
ROOT
ATOM      1  C   UNL A   1      36.418  20.683  24.975  1.00  0.00     0.118 C 
ENDROOT
BRANCH   1   2
ATOM      2  N   UNL A   1      35.131  20.120  25.337  1.00  0.00    -0.351 N 
ATOM      3  C   UNL A   1      33.858  20.649  25.256  1.00  0.00     0.271 C 
ATOM      4  O   UNL A   1      32.932  19.885  25.544  1.00  0.00    -0.267 OA
ATOM      5  H   UNL A   1      35.172  19.207  25.703  1.00  0.00     0.163 HD
BRANCH   3   6
ATOM      6  C   UNL A   1      33.641  22.042  24.816  1.00  0.00     0.150 A 
ATOM      7  N   UNL A   1      33.271  26.494  23.683  1.00  0.00    -0.332 N 
ATOM      8  C   UNL A   1      32.845  25.830  22.442  1.00  0.00     0.143 C 
ATOM      9  C   UNL A   1      33.707  25.723  24.836  1.00  0.00     0.175 C 
ATOM     10  C   UNL A   1      33.253  24.375  22.224  1.00  0.00     0.166 C 
ATOM     11  C   UNL A   1      33.557  24.271  24.668  1.00  0.00     0.059 A 
ATOM     12  N   UNL A   1      33.406  23.673  23.466  1.00  0.00    -0.265 N 
ATOM     13  C   UNL A   1      33.567  23.244  25.576  1.00  0.00     0.061 A 
ATOM     14  N   UNL A   1      33.492  22.337  23.505  1.00  0.00    -0.167 NA
BRANCH   7  15
ATOM     15  C   UNL A   1      33.161  27.866  23.929  1.00  0.00     0.263 C 
ATOM     16  O   UNL A   1      34.031  28.651  23.527  1.00  0.00    -0.271 OA
BRANCH  15  17
ATOM     17  C   UNL A   1      31.993  28.407  24.771  1.00  0.00     0.259 C 
ATOM     18  C   UNL A   1      30.822  27.436  24.834  1.00  0.00     0.064 C 
BRANCH  17  19
ATOM     19  O   UNL A   1      32.556  28.717  26.056  1.00  0.00    -0.481 OA
BRANCH  19  20
ATOM     20  C   UNL A   1      32.541  30.047  26.364  1.00  0.00     0.124 A 
ATOM     21  C   UNL A   1      31.408  30.806  26.031  1.00  0.00     0.050 A 
ATOM     22  C   UNL A   1      33.563  30.584  27.150  1.00  0.00     0.097 A 
ATOM     23  C   UNL A   1      31.300  32.134  26.440  1.00  0.00     0.054 A 
ATOM     24  C   UNL A   1      33.420  31.895  27.558  1.00  0.00     0.169 A 
ATOM     25  C   UNL A   1      32.321  32.648  27.208  1.00  0.00     0.166 A 
ATOM     26  O   UNL A   1      34.284  32.588  28.348  1.00  0.00    -0.453 OA
ATOM     27  O   UNL A   1      32.359  33.903  27.725  1.00  0.00    -0.454 OA
ATOM     28  C   UNL A   1      33.593  33.851  28.470  1.00  0.00     0.468 C 
ENDBRANCH  19  20
ENDBRANCH  17  19
ENDBRANCH  15  17
ENDBRANCH   7  15
ENDBRANCH   3   6
ENDBRANCH   1   2
BRANCH   1  29
ATOM     29  C   UNL A   1      37.537  19.632  25.004  1.00  0.00     0.042 C 
BRANCH  29  30
ATOM     30  C   UNL A   1      38.828  20.206  25.558  1.00  0.00     0.118 C 
BRANCH  30  31
ATOM     31  N   UNL A   1      39.865  19.180  25.691  1.00  0.00    -0.352 N 
ATOM     32  C   UNL A   1      41.212  19.325  25.972  1.00  0.00     0.251 C 
ATOM     33  H   UNL A   1      39.560  18.254  25.560  1.00  0.00     0.163 HD
ATOM     34  O   UNL A   1      41.998  18.424  25.750  1.00  0.00    -0.269 OA
BRANCH  32  35
ATOM     35  C   UNL A   1      41.675  20.596  26.551  1.00  0.00     0.039 A 
ATOM     36  C   UNL A   1      42.308  21.567  25.768  1.00  0.00     0.014 A 
ATOM     37  C   UNL A   1      41.439  20.812  27.903  1.00  0.00     0.014 A 
ATOM     38  C   UNL A   1      42.632  22.791  26.347  1.00  0.00     0.010 A 
ATOM     39  C   UNL A   1      41.577  22.068  28.416  1.00  0.00     0.010 A 
ATOM     40  C   UNL A   1      42.248  23.032  27.672  1.00  0.00    -0.014 A 
BRANCH  40  41
ATOM     41  C   UNL A   1      42.438  24.325  28.312  1.00  0.00     0.031 A 
ATOM     42  C   UNL A   1      41.322  25.283  28.085  1.00  0.00     0.074 A 
ATOM     43  C   UNL A   1      43.374  24.480  29.276  1.00  0.00     0.049 A 
ATOM     44  N   UNL A   1      41.351  26.410  27.453  1.00  0.00    -0.248 NA
ATOM     45  C   UNL A   1      39.965  24.861  28.476  1.00  0.00     0.031 C 
ATOM     46  C   UNL A   1      44.282  23.455  29.818  1.00  0.00     0.029 A 
ATOM     47  N   UNL A   1      43.624  25.546  30.082  1.00  0.00    -0.354 N 
ATOM     48  C   UNL A   1      40.068  26.943  27.581  1.00  0.00     0.074 A 
ATOM     49  C   UNL A   1      39.223  25.858  27.992  1.00  0.00     0.031 C 
ATOM     50  C   UNL A   1      44.790  23.872  30.997  1.00  0.00     0.029 A 
ATOM     51  C   UNL A   1      44.393  25.251  31.204  1.00  0.00     0.049 A 
ATOM     52  H   UNL A   1      43.287  26.451  29.889  1.00  0.00     0.167 HD
ATOM     53  C   UNL A   1      39.876  28.292  27.644  1.00  0.00     0.037 A 
ATOM     54  C   UNL A   1      44.656  26.079  32.244  1.00  0.00     0.037 A 
ATOM     55  C   UNL A   1      41.065  28.989  27.216  1.00  0.00     0.049 A 
ATOM     56  C   UNL A   1      44.348  27.454  31.787  1.00  0.00     0.074 A 
ATOM     57  C   UNL A   1      41.795  29.088  26.049  1.00  0.00     0.029 A 
ATOM     58  N   UNL A   1      41.880  29.441  28.222  1.00  0.00    -0.354 N 
ATOM     59  N   UNL A   1      45.023  28.084  30.868  1.00  0.00    -0.248 NA
ATOM     60  C   UNL A   1      43.019  27.980  32.057  1.00  0.00     0.031 C 
ATOM     61  C   UNL A   1      43.153  29.222  26.467  1.00  0.00     0.029 A 
ATOM     62  C   UNL A   1      43.186  29.259  27.862  1.00  0.00     0.049 A 
ATOM     63  H   UNL A   1      41.573  29.834  29.070  1.00  0.00     0.167 HD
ATOM     64  C   UNL A   1      44.069  28.788  30.152  1.00  0.00     0.074 A 
ATOM     65  C   UNL A   1      42.886  28.797  31.008  1.00  0.00     0.031 C 
ATOM     66  C   UNL A   1      44.246  29.025  28.818  1.00  0.00     0.037 A 
BRANCH  53  67
ATOM     67  C   UNL A   1      38.843  28.983  28.523  1.00  0.00     0.057 A 
ATOM     68  C   UNL A   1      38.840  28.696  29.903  1.00  0.00     0.134 A 
ATOM     69  C   UNL A   1      37.684  29.640  28.059  1.00  0.00     0.134 A 
ATOM     70  F   UNL A   1      39.884  28.085  30.482  1.00  0.00    -0.206 F 
ATOM     71  C   UNL A   1      37.730  28.934  30.724  1.00  0.00     0.040 A 
ATOM     72  C   UNL A   1      36.590  29.927  28.883  1.00  0.00     0.040 A 
ATOM     73  F   UNL A   1      37.489  29.960  26.777  1.00  0.00    -0.206 F 
ATOM     74  C   UNL A   1      36.592  29.538  30.211  1.00  0.00     0.006 A 
ENDBRANCH  53  67
BRANCH  54  75
ATOM     75  C   UNL A   1      44.888  25.762  33.669  1.00  0.00     0.057 A 
ATOM     76  C   UNL A   1      43.819  25.491  34.534  1.00  0.00     0.134 A 
ATOM     77  C   UNL A   1      46.168  25.431  34.146  1.00  0.00     0.134 A 
ATOM     78  F   UNL A   1      42.557  25.739  34.153  1.00  0.00    -0.206 F 
ATOM     79  C   UNL A   1      44.006  24.893  35.787  1.00  0.00     0.040 A 
ATOM     80  C   UNL A   1      46.370  24.838  35.397  1.00  0.00     0.040 A 
ATOM     81  F   UNL A   1      47.255  25.587  33.374  1.00  0.00    -0.206 F 
ATOM     82  C   UNL A   1      45.284  24.551  36.216  1.00  0.00     0.006 A 
ENDBRANCH  54  75
BRANCH  66  83
ATOM     83  C   UNL A   1      45.628  28.822  28.259  1.00  0.00     0.057 A 
ATOM     84  C   UNL A   1      46.078  27.635  27.661  1.00  0.00     0.134 A 
ATOM     85  C   UNL A   1      46.493  29.917  28.214  1.00  0.00     0.134 A 
ATOM     86  F   UNL A   1      45.289  26.558  27.575  1.00  0.00    -0.206 F 
ATOM     87  C   UNL A   1      47.348  27.533  27.085  1.00  0.00     0.040 A 
ATOM     88  C   UNL A   1      47.750  29.841  27.611  1.00  0.00     0.040 A 
ATOM     89  F   UNL A   1      46.110  31.101  28.719  1.00  0.00    -0.206 F 
ATOM     90  C   UNL A   1      48.186  28.643  27.052  1.00  0.00     0.006 A 
ENDBRANCH  66  83
ENDBRANCH  40  41
ENDBRANCH  32  35
ENDBRANCH  30  31
ENDBRANCH  29  30
ENDBRANCH   1  29
TORSDOF 14
ENDMDL
MODEL 3
REMARK VINA RESULT:     -12.5      2.630      6.808
REMARK SMILES C[C@@H](Oc1ccc2c(c1)OCO2)C(=O)N1CCn2nc(C(=O)NCCCNC(=O)c3ccc(-c4c5nc(c(-c6c(F)cccc6F)c6ccc([nH]6)c(-c6c(F)cccc6F)c6nc(c(-c7c(F)cccc7F)c7ccc4[nH]7)C=C6)C=C5)cc3)cc2C1
REMARK SMILES IDX 24 1 23 2 21 3 22 4 20 6 15 7 16 8 86 9 17 10 85 11 18 12
REMARK SMILES IDX 84 13 19 14 13 15 14 16 2 17 1 18 3 19 4 20 5 21 9 22 6 23
REMARK SMILES IDX 8 24 7 25 10 26 12 27 11 28 25 29 26 30 27 31 28 32 29 34
REMARK SMILES IDX 30 35 31 36 83 37 32 38 82 39 33 40 34 41 35 42 76 43 36 44
REMARK SMILES IDX 81 45 75 46 77 47 37 48 80 49 74 50 73 51 38 53 64 54 47 55
REMARK SMILES IDX 63 56 48 57 51 58 62 59 78 60 49 61 50 62 61 64 79 65 52 66
REMARK SMILES IDX 39 67 40 68 45 69 41 70 42 71 44 72 46 73 43 74 65 75 66 76
REMARK SMILES IDX 71 77 67 78 68 79 70 80 72 81 69 82 53 83 54 84 59 85 55 86
REMARK SMILES IDX 56 87 58 88 60 89 57 90
REMARK H PARENT 23 5 27 33 77 52 51 63
REMARK Flexibility Score: inf
ROOT
ATOM      1  C   UNL A   1      42.346  19.204  26.066  1.00  0.00     0.118 C 
ENDROOT
BRANCH   1   2
ATOM      2  N   UNL A   1      42.670  20.202  27.069  1.00  0.00    -0.351 N 
ATOM      3  C   UNL A   1      41.972  21.314  27.496  1.00  0.00     0.271 C 
ATOM      4  O   UNL A   1      42.455  21.925  28.452  1.00  0.00    -0.267 OA
ATOM      5  H   UNL A   1      43.534  20.062  27.520  1.00  0.00     0.163 HD
BRANCH   3   6
ATOM      6  C   UNL A   1      40.704  21.709  26.849  1.00  0.00     0.150 A 
ATOM      7  N   UNL A   1      36.610  22.573  24.918  1.00  0.00    -0.332 N 
ATOM      8  C   UNL A   1      36.996  23.902  25.417  1.00  0.00     0.143 C 
ATOM      9  C   UNL A   1      37.454  21.412  25.145  1.00  0.00     0.175 C 
ATOM     10  C   UNL A   1      38.054  23.983  26.515  1.00  0.00     0.166 C 
ATOM     11  C   UNL A   1      38.737  21.730  25.787  1.00  0.00     0.059 A 
ATOM     12  N   UNL A   1      38.971  22.882  26.451  1.00  0.00    -0.265 N 
ATOM     13  C   UNL A   1      39.898  21.011  25.906  1.00  0.00     0.061 A 
ATOM     14  N   UNL A   1      40.122  22.895  27.137  1.00  0.00    -0.167 NA
BRANCH   7  15
ATOM     15  C   UNL A   1      35.519  22.325  24.079  1.00  0.00     0.263 C 
ATOM     16  O   UNL A   1      35.528  22.709  22.902  1.00  0.00    -0.271 OA
BRANCH  15  17
ATOM     17  C   UNL A   1      34.261  21.636  24.635  1.00  0.00     0.259 C 
ATOM     18  C   UNL A   1      34.386  20.118  24.652  1.00  0.00     0.064 C 
BRANCH  17  19
ATOM     19  O   UNL A   1      34.049  22.214  25.933  1.00  0.00    -0.481 OA
BRANCH  19  20
ATOM     20  C   UNL A   1      33.082  23.177  25.963  1.00  0.00     0.124 A 
ATOM     21  C   UNL A   1      31.746  22.791  26.155  1.00  0.00     0.050 A 
ATOM     22  C   UNL A   1      33.452  24.524  25.977  1.00  0.00     0.097 A 
ATOM     23  C   UNL A   1      30.748  23.750  26.317  1.00  0.00     0.054 A 
ATOM     24  C   UNL A   1      32.445  25.451  26.160  1.00  0.00     0.169 A 
ATOM     25  C   UNL A   1      31.131  25.072  26.321  1.00  0.00     0.166 A 
ATOM     26  O   UNL A   1      32.601  26.800  26.235  1.00  0.00    -0.453 OA
ATOM     27  O   UNL A   1      30.300  26.130  26.509  1.00  0.00    -0.454 OA
ATOM     28  C   UNL A   1      31.242  27.222  26.481  1.00  0.00     0.468 C 
ENDBRANCH  19  20
ENDBRANCH  17  19
ENDBRANCH  15  17
ENDBRANCH   7  15
ENDBRANCH   3   6
ENDBRANCH   1   2
BRANCH   1  29
ATOM     29  C   UNL A   1      43.601  18.639  25.386  1.00  0.00     0.042 C 
BRANCH  29  30
ATOM     30  C   UNL A   1      44.723  19.660  25.349  1.00  0.00     0.118 C 
BRANCH  30  31
ATOM     31  N   UNL A   1      44.845  20.284  24.029  1.00  0.00    -0.352 N 
ATOM     32  C   UNL A   1      44.552  21.578  23.640  1.00  0.00     0.251 C 
ATOM     33  H   UNL A   1      45.185  19.697  23.316  1.00  0.00     0.163 HD
ATOM     34  O   UNL A   1      44.414  21.862  22.466  1.00  0.00    -0.269 OA
BRANCH  32  35
ATOM     35  C   UNL A   1      44.413  22.610  24.681  1.00  0.00     0.039 A 
ATOM     36  C   UNL A   1      45.420  22.833  25.626  1.00  0.00     0.014 A 
ATOM     37  C   UNL A   1      43.254  23.374  24.679  1.00  0.00     0.014 A 
ATOM     38  C   UNL A   1      45.278  23.889  26.522  1.00  0.00     0.010 A 
ATOM     39  C   UNL A   1      43.203  24.518  25.420  1.00  0.00     0.010 A 
ATOM     40  C   UNL A   1      44.167  24.732  26.399  1.00  0.00    -0.014 A 
BRANCH  40  41
ATOM     41  C   UNL A   1      44.006  25.927  27.214  1.00  0.00     0.031 A 
ATOM     42  C   UNL A   1      44.972  27.013  26.894  1.00  0.00     0.074 A 
ATOM     43  C   UNL A   1      42.877  26.117  27.933  1.00  0.00     0.049 A 
ATOM     44  N   UNL A   1      45.898  27.509  27.648  1.00  0.00    -0.248 NA
ATOM     45  C   UNL A   1      45.019  27.503  25.505  1.00  0.00     0.031 C 
ATOM     46  C   UNL A   1      41.700  25.236  28.006  1.00  0.00     0.029 A 
ATOM     47  N   UNL A   1      42.471  27.203  28.643  1.00  0.00    -0.354 N 
ATOM     48  C   UNL A   1      46.477  28.536  26.904  1.00  0.00     0.074 A 
ATOM     49  C   UNL A   1      46.072  28.321  25.543  1.00  0.00     0.031 C 
ATOM     50  C   UNL A   1      40.647  25.918  28.503  1.00  0.00     0.029 A 
ATOM     51  C   UNL A   1      41.113  27.216  28.949  1.00  0.00     0.049 A 
ATOM     52  H   UNL A   1      43.087  27.921  28.919  1.00  0.00     0.167 HD
ATOM     53  C   UNL A   1      46.976  29.647  27.517  1.00  0.00     0.037 A 
ATOM     54  C   UNL A   1      40.420  28.240  29.503  1.00  0.00     0.037 A 
ATOM     55  C   UNL A   1      47.123  29.415  28.934  1.00  0.00     0.049 A 
ATOM     56  C   UNL A   1      41.415  29.157  30.105  1.00  0.00     0.074 A 
ATOM     57  C   UNL A   1      47.867  28.570  29.731  1.00  0.00     0.029 A 
ATOM     58  N   UNL A   1      46.110  29.900  29.721  1.00  0.00    -0.354 N 
ATOM     59  N   UNL A   1      42.156  28.854  31.133  1.00  0.00    -0.248 NA
ATOM     60  C   UNL A   1      41.888  30.272  29.301  1.00  0.00     0.031 C 
ATOM     61  C   UNL A   1      47.030  28.278  30.850  1.00  0.00     0.029 A 
ATOM     62  C   UNL A   1      45.844  29.003  30.717  1.00  0.00     0.049 A 
ATOM     63  H   UNL A   1      45.647  30.758  29.589  1.00  0.00     0.167 HD
ATOM     64  C   UNL A   1      43.386  29.431  30.861  1.00  0.00     0.074 A 
ATOM     65  C   UNL A   1      43.121  30.399  29.800  1.00  0.00     0.031 C 
ATOM     66  C   UNL A   1      44.535  28.847  31.314  1.00  0.00     0.037 A 
BRANCH  53  67
ATOM     67  C   UNL A   1      46.875  31.063  26.967  1.00  0.00     0.057 A 
ATOM     68  C   UNL A   1      48.031  31.870  26.982  1.00  0.00     0.134 A 
ATOM     69  C   UNL A   1      45.675  31.765  26.732  1.00  0.00     0.134 A 
ATOM     70  F   UNL A   1      49.244  31.332  27.181  1.00  0.00    -0.206 F 
ATOM     71  C   UNL A   1      47.982  33.267  26.893  1.00  0.00     0.040 A 
ATOM     72  C   UNL A   1      45.621  33.157  26.591  1.00  0.00     0.040 A 
ATOM     73  F   UNL A   1      44.475  31.178  26.719  1.00  0.00    -0.206 F 
ATOM     74  C   UNL A   1      46.771  33.917  26.712  1.00  0.00     0.006 A 
ENDBRANCH  53  67
BRANCH  54  75
ATOM     75  C   UNL A   1      39.005  28.630  29.322  1.00  0.00     0.057 A 
ATOM     76  C   UNL A   1      38.119  28.664  30.408  1.00  0.00     0.134 A 
ATOM     77  C   UNL A   1      38.563  29.254  28.144  1.00  0.00     0.134 A 
ATOM     78  F   UNL A   1      38.466  28.125  31.586  1.00  0.00    -0.206 F 
ATOM     79  C   UNL A   1      36.879  29.312  30.339  1.00  0.00     0.040 A 
ATOM     80  C   UNL A   1      37.325  29.901  28.059  1.00  0.00     0.040 A 
ATOM     81  F   UNL A   1      39.358  29.337  27.066  1.00  0.00    -0.206 F 
ATOM     82  C   UNL A   1      36.484  29.946  29.165  1.00  0.00     0.006 A 
ENDBRANCH  54  75
BRANCH  66  83
ATOM     83  C   UNL A   1      44.401  27.799  32.385  1.00  0.00     0.057 A 
ATOM     84  C   UNL A   1      44.306  26.420  32.142  1.00  0.00     0.134 A 
ATOM     85  C   UNL A   1      44.498  28.199  33.720  1.00  0.00     0.134 A 
ATOM     86  F   UNL A   1      44.298  25.934  30.896  1.00  0.00    -0.206 F 
ATOM     87  C   UNL A   1      44.266  25.488  33.183  1.00  0.00     0.040 A 
ATOM     88  C   UNL A   1      44.495  27.276  34.768  1.00  0.00     0.040 A 
ATOM     89  F   UNL A   1      44.644  29.497  34.026  1.00  0.00    -0.206 F 
ATOM     90  C   UNL A   1      44.369  25.916  34.502  1.00  0.00     0.006 A 
ENDBRANCH  66  83
ENDBRANCH  40  41
ENDBRANCH  32  35
ENDBRANCH  30  31
ENDBRANCH  29  30
ENDBRANCH   1  29
TORSDOF 14
ENDMDL
