MODEL 1
REMARK VINA RESULT:     -10.3      0.000      0.000
REMARK SMILES C[C@H]1CN(c2ccc([N+](=O)[O-])c(C(=O)NCCCNC(=O)c3ccc(-c4c5nc(c(-c6c(F)cccc6F)c6ccc([nH]6)c(-c6c(F)cccc6F)c6nc(c(-c7c(F)cccc7F)c7ccc4[nH]7)C=C6)C=C5)cc3)c2)C[C@H](C)O1
REMARK SMILES IDX 17 1 16 2 15 3 13 4 14 5 12 7 5 8 6 9 76 10 7 11 8 12 4 13
REMARK SMILES IDX 1 14 2 15 3 16 80 17 78 18 77 19 79 20 9 21 10 22 11 23
REMARK SMILES IDX 18 24 19 25 20 26 21 28 22 29 23 30 75 31 24 32 74 33 25 34
REMARK SMILES IDX 26 35 27 36 68 37 28 38 73 39 67 40 69 41 29 42 72 43 66 44
REMARK SMILES IDX 65 45 30 47 56 48 39 49 55 50 40 51 43 52 54 53 70 54 41 55
REMARK SMILES IDX 42 56 53 58 71 59 44 60 31 61 32 62 37 63 33 64 34 65 36 66
REMARK SMILES IDX 38 67 35 68 57 69 58 70 63 71 59 72 60 73 62 74 64 75 61 76
REMARK SMILES IDX 45 77 46 78 51 79 47 80 48 81 50 82 52 83 49 84
REMARK H PARENT 15 6 19 27 69 46 43 57
REMARK Flexibility Score: inf
ROOT
ATOM      1  C   UNL A   1      42.093  19.838  26.584  1.00  0.00     0.042 C 
ENDROOT
BRANCH   1   2
ATOM      2  C   UNL A   1      43.218  20.462  25.775  1.00  0.00     0.118 C 
BRANCH   2   3
ATOM      3  N   UNL A   1      42.947  21.834  25.354  1.00  0.00    -0.352 N 
ATOM      4  C   UNL A   1      43.411  23.082  25.705  1.00  0.00     0.258 C 
ATOM      5  O   UNL A   1      42.816  24.032  25.201  1.00  0.00    -0.269 OA
ATOM      6  H   UNL A   1      42.264  21.877  24.646  1.00  0.00     0.163 HD
BRANCH   4   7
ATOM      7  C   UNL A   1      44.482  23.330  26.711  1.00  0.00     0.119 A 
ATOM      8  C   UNL A   1      45.014  24.084  28.981  1.00  0.00     0.038 A 
ATOM      9  C   UNL A   1      46.285  24.460  28.535  1.00  0.00     0.033 A 
ATOM     10  C   UNL A   1      44.192  23.408  28.073  1.00  0.00     0.047 A 
ATOM     11  C   UNL A   1      46.710  24.168  27.240  1.00  0.00     0.088 A 
ATOM     12  C   UNL A   1      45.797  23.611  26.336  1.00  0.00     0.282 A 
BRANCH   8  13
ATOM     13  N   UNL A   1      44.591  24.376  30.257  1.00  0.00    -0.366 N 
ATOM     14  C   UNL A   1      43.832  22.812  33.636  1.00  0.00     0.040 C 
ATOM     15  C   UNL A   1      44.480  23.747  32.624  1.00  0.00     0.135 C 
ATOM     16  C   UNL A   1      44.053  23.373  31.188  1.00  0.00     0.148 C 
ATOM     17  O   UNL A   1      44.103  25.096  32.965  1.00  0.00    -0.372 OA
ATOM     18  C   UNL A   1      44.588  26.078  32.027  1.00  0.00     0.135 C 
ATOM     19  C   UNL A   1      44.155  25.746  30.588  1.00  0.00     0.148 C 
ATOM     20  C   UNL A   1      46.102  26.266  32.121  1.00  0.00     0.040 C 
ENDBRANCH   8  13
BRANCH  12  21
ATOM     21  N   UNL A   1      46.332  23.193  25.053  1.00  0.00     0.063 N 
ATOM     22  O   UNL A   1      46.686  24.090  24.275  1.00  0.00    -0.258 OA
ATOM     23  O   UNL A   1      46.538  21.980  24.905  1.00  0.00    -0.258 OA
ENDBRANCH  12  21
ENDBRANCH   4   7
ENDBRANCH   2   3
ENDBRANCH   1   2
BRANCH   1  24
ATOM     24  C   UNL A   1      41.207  20.839  27.302  1.00  0.00     0.118 C 
BRANCH  24  25
ATOM     25  N   UNL A   1      39.954  21.084  26.599  1.00  0.00    -0.352 N 
ATOM     26  C   UNL A   1      39.212  22.231  26.447  1.00  0.00     0.251 C 
ATOM     27  H   UNL A   1      39.574  20.292  26.156  1.00  0.00     0.163 HD
ATOM     28  O   UNL A   1      38.071  22.152  26.002  1.00  0.00    -0.269 OA
BRANCH  26  29
ATOM     29  C   UNL A   1      39.760  23.551  26.831  1.00  0.00     0.039 A 
ATOM     30  C   UNL A   1      39.587  24.634  25.964  1.00  0.00     0.014 A 
ATOM     31  C   UNL A   1      40.475  23.725  28.016  1.00  0.00     0.014 A 
ATOM     32  C   UNL A   1      40.061  25.898  26.324  1.00  0.00     0.010 A 
ATOM     33  C   UNL A   1      40.850  25.000  28.425  1.00  0.00     0.010 A 
ATOM     34  C   UNL A   1      40.658  26.101  27.580  1.00  0.00    -0.014 A 
BRANCH  34  35
ATOM     35  C   UNL A   1      41.088  27.450  28.025  1.00  0.00     0.031 A 
ATOM     36  C   UNL A   1      42.537  27.850  27.944  1.00  0.00     0.074 A 
ATOM     37  C   UNL A   1      40.187  28.286  28.576  1.00  0.00     0.049 A 
ATOM     38  N   UNL A   1      43.115  28.952  28.350  1.00  0.00    -0.248 NA
ATOM     39  C   UNL A   1      43.467  26.870  27.358  1.00  0.00     0.031 C 
ATOM     40  C   UNL A   1      38.767  27.990  28.773  1.00  0.00     0.029 A 
ATOM     41  N   UNL A   1      40.334  29.553  29.084  1.00  0.00    -0.354 N 
ATOM     42  C   UNL A   1      44.470  28.787  28.091  1.00  0.00     0.074 A 
ATOM     43  C   UNL A   1      44.638  27.459  27.543  1.00  0.00     0.031 C 
ATOM     44  C   UNL A   1      38.169  29.053  29.334  1.00  0.00     0.029 A 
ATOM     45  C   UNL A   1      39.168  30.088  29.574  1.00  0.00     0.049 A 
ATOM     46  H   UNL A   1      41.194  30.032  29.097  1.00  0.00     0.167 HD
ATOM     47  C   UNL A   1      45.481  29.671  28.271  1.00  0.00     0.037 A 
ATOM     48  C   UNL A   1      38.931  31.278  30.159  1.00  0.00     0.037 A 
ATOM     49  C   UNL A   1      45.304  31.004  28.783  1.00  0.00     0.049 A 
ATOM     50  C   UNL A   1      40.066  32.248  30.329  1.00  0.00     0.074 A 
ATOM     51  C   UNL A   1      46.249  32.005  28.925  1.00  0.00     0.029 A 
ATOM     52  N   UNL A   1      44.100  31.522  29.238  1.00  0.00    -0.354 N 
ATOM     53  N   UNL A   1      41.327  32.110  30.000  1.00  0.00    -0.248 NA
ATOM     54  C   UNL A   1      39.744  33.543  30.944  1.00  0.00     0.031 C 
ATOM     55  C   UNL A   1      45.628  33.113  29.512  1.00  0.00     0.029 A 
ATOM     56  C   UNL A   1      44.285  32.819  29.687  1.00  0.00     0.049 A 
ATOM     57  H   UNL A   1      43.243  31.039  29.242  1.00  0.00     0.167 HD
ATOM     58  C   UNL A   1      41.944  33.306  30.346  1.00  0.00     0.074 A 
ATOM     59  C   UNL A   1      40.913  34.164  30.892  1.00  0.00     0.031 C 
ATOM     60  C   UNL A   1      43.246  33.660  30.224  1.00  0.00     0.037 A 
BRANCH  47  61
ATOM     61  C   UNL A   1      46.868  29.228  27.905  1.00  0.00     0.057 A 
ATOM     62  C   UNL A   1      47.757  28.712  28.857  1.00  0.00     0.134 A 
ATOM     63  C   UNL A   1      47.307  29.281  26.576  1.00  0.00     0.134 A 
ATOM     64  F   UNL A   1      47.405  28.645  30.151  1.00  0.00    -0.206 F 
ATOM     65  C   UNL A   1      49.040  28.287  28.506  1.00  0.00     0.040 A 
ATOM     66  C   UNL A   1      48.576  28.832  26.207  1.00  0.00     0.040 A 
ATOM     67  F   UNL A   1      46.506  29.758  25.612  1.00  0.00    -0.206 F 
ATOM     68  C   UNL A   1      49.450  28.339  27.175  1.00  0.00     0.006 A 
ENDBRANCH  47  61
BRANCH  48  69
ATOM     69  C   UNL A   1      37.559  31.626  30.609  1.00  0.00     0.057 A 
ATOM     70  C   UNL A   1      36.629  32.187  29.725  1.00  0.00     0.134 A 
ATOM     71  C   UNL A   1      37.146  31.415  31.929  1.00  0.00     0.134 A 
ATOM     72  F   UNL A   1      36.970  32.429  28.450  1.00  0.00    -0.206 F 
ATOM     73  C   UNL A   1      35.346  32.546  30.143  1.00  0.00     0.040 A 
ATOM     74  C   UNL A   1      35.858  31.744  32.355  1.00  0.00     0.040 A 
ATOM     75  F   UNL A   1      37.985  30.872  32.823  1.00  0.00    -0.206 F 
ATOM     76  C   UNL A   1      34.956  32.320  31.461  1.00  0.00     0.006 A 
ENDBRANCH  48  69
BRANCH  60  77
ATOM     77  C   UNL A   1      43.622  35.045  30.664  1.00  0.00     0.057 A 
ATOM     78  C   UNL A   1      43.565  36.139  29.791  1.00  0.00     0.134 A 
ATOM     79  C   UNL A   1      44.011  35.291  31.987  1.00  0.00     0.134 A 
ATOM     80  F   UNL A   1      43.212  35.968  28.509  1.00  0.00    -0.206 F 
ATOM     81  C   UNL A   1      43.908  37.425  30.212  1.00  0.00     0.040 A 
ATOM     82  C   UNL A   1      44.330  36.577  32.426  1.00  0.00     0.040 A 
ATOM     83  F   UNL A   1      44.077  34.289  32.876  1.00  0.00    -0.206 F 
ATOM     84  C   UNL A   1      44.286  37.647  31.536  1.00  0.00     0.006 A 
ENDBRANCH  60  77
ENDBRANCH  34  35
ENDBRANCH  26  29
ENDBRANCH  24  25
ENDBRANCH   1  24
TORSDOF 12
ENDMDL
MODEL 2
REMARK VINA RESULT:     -10.3      4.780     10.352
REMARK SMILES C[C@H]1CN(c2ccc([N+](=O)[O-])c(C(=O)NCCCNC(=O)c3ccc(-c4c5nc(c(-c6c(F)cccc6F)c6ccc([nH]6)c(-c6c(F)cccc6F)c6nc(c(-c7c(F)cccc7F)c7ccc4[nH]7)C=C6)C=C5)cc3)c2)C[C@H](C)O1
REMARK SMILES IDX 17 1 16 2 15 3 13 4 14 5 12 7 5 8 6 9 76 10 7 11 8 12 4 13
REMARK SMILES IDX 1 14 2 15 3 16 80 17 78 18 77 19 79 20 9 21 10 22 11 23
REMARK SMILES IDX 18 24 19 25 20 26 21 28 22 29 23 30 75 31 24 32 74 33 25 34
REMARK SMILES IDX 26 35 27 36 68 37 28 38 73 39 67 40 69 41 29 42 72 43 66 44
REMARK SMILES IDX 65 45 30 47 56 48 39 49 55 50 40 51 43 52 54 53 70 54 41 55
REMARK SMILES IDX 42 56 53 58 71 59 44 60 31 61 32 62 37 63 33 64 34 65 36 66
REMARK SMILES IDX 38 67 35 68 57 69 58 70 63 71 59 72 60 73 62 74 64 75 61 76
REMARK SMILES IDX 45 77 46 78 51 79 47 80 48 81 50 82 52 83 49 84
REMARK H PARENT 15 6 19 27 69 46 43 57
REMARK Flexibility Score: inf
ROOT
ATOM      1  C   UNL A   1      33.329  28.026  27.018  1.00  0.00     0.042 C 
ENDROOT
BRANCH   1   2
ATOM      2  C   UNL A   1      31.897  28.424  27.333  1.00  0.00     0.118 C 
BRANCH   2   3
ATOM      3  N   UNL A   1      30.941  27.327  27.203  1.00  0.00    -0.352 N 
ATOM      4  C   UNL A   1      30.785  26.250  26.359  1.00  0.00     0.258 C 
ATOM      5  O   UNL A   1      29.742  25.615  26.493  1.00  0.00    -0.269 OA
ATOM      6  H   UNL A   1      30.233  27.368  27.886  1.00  0.00     0.163 HD
BRANCH   4   7
ATOM      7  C   UNL A   1      31.728  25.899  25.259  1.00  0.00     0.119 A 
ATOM      8  C   UNL A   1      33.771  24.702  24.628  1.00  0.00     0.038 A 
ATOM      9  C   UNL A   1      33.953  25.610  23.579  1.00  0.00     0.033 A 
ATOM     10  C   UNL A   1      32.584  24.803  25.362  1.00  0.00     0.047 A 
ATOM     11  C   UNL A   1      32.986  26.569  23.281  1.00  0.00     0.088 A 
ATOM     12  C   UNL A   1      31.884  26.709  24.133  1.00  0.00     0.282 A 
BRANCH   8  13
ATOM     13  N   UNL A   1      34.725  23.758  24.927  1.00  0.00    -0.366 N 
ATOM     14  C   UNL A   1      38.302  23.335  26.139  1.00  0.00     0.040 C 
ATOM     15  C   UNL A   1      36.789  23.165  26.110  1.00  0.00     0.135 C 
ATOM     16  C   UNL A   1      36.164  24.050  25.010  1.00  0.00     0.148 C 
ATOM     17  O   UNL A   1      36.506  21.767  25.905  1.00  0.00    -0.372 OA
ATOM     18  C   UNL A   1      35.097  21.483  25.775  1.00  0.00     0.135 C 
ATOM     19  C   UNL A   1      34.452  22.332  24.665  1.00  0.00     0.148 C 
ATOM     20  C   UNL A   1      34.353  21.643  27.100  1.00  0.00     0.040 C 
ENDBRANCH   8  13
BRANCH  12  21
ATOM     21  N   UNL A   1      30.841  27.619  23.695  1.00  0.00     0.063 N 
ATOM     22  O   UNL A   1      29.961  27.148  22.959  1.00  0.00    -0.258 OA
ATOM     23  O   UNL A   1      30.827  28.742  24.217  1.00  0.00    -0.258 OA
ENDBRANCH  12  21
ENDBRANCH   4   7
ENDBRANCH   2   3
ENDBRANCH   1   2
BRANCH   1  24
ATOM     24  C   UNL A   1      34.095  29.043  26.193  1.00  0.00     0.118 C 
BRANCH  24  25
ATOM     25  N   UNL A   1      33.893  30.408  26.657  1.00  0.00    -0.352 N 
ATOM     26  C   UNL A   1      34.530  31.134  27.636  1.00  0.00     0.251 C 
ATOM     27  H   UNL A   1      33.177  30.896  26.190  1.00  0.00     0.163 HD
ATOM     28  O   UNL A   1      34.040  32.196  28.009  1.00  0.00    -0.269 OA
BRANCH  26  29
ATOM     29  C   UNL A   1      35.780  30.644  28.258  1.00  0.00     0.039 A 
ATOM     30  C   UNL A   1      35.698  29.719  29.304  1.00  0.00     0.014 A 
ATOM     31  C   UNL A   1      37.029  31.115  27.850  1.00  0.00     0.014 A 
ATOM     32  C   UNL A   1      36.867  29.214  29.879  1.00  0.00     0.010 A 
ATOM     33  C   UNL A   1      38.190  30.533  28.345  1.00  0.00     0.010 A 
ATOM     34  C   UNL A   1      38.125  29.583  29.373  1.00  0.00    -0.014 A 
BRANCH  34  35
ATOM     35  C   UNL A   1      39.378  28.992  29.906  1.00  0.00     0.031 A 
ATOM     36  C   UNL A   1      40.032  29.576  31.130  1.00  0.00     0.074 A 
ATOM     37  C   UNL A   1      39.970  27.980  29.242  1.00  0.00     0.049 A 
ATOM     38  N   UNL A   1      41.164  29.246  31.700  1.00  0.00    -0.248 NA
ATOM     39  C   UNL A   1      39.341  30.700  31.783  1.00  0.00     0.031 C 
ATOM     40  C   UNL A   1      39.471  27.372  28.007  1.00  0.00     0.029 A 
ATOM     41  N   UNL A   1      41.128  27.292  29.504  1.00  0.00    -0.354 N 
ATOM     42  C   UNL A   1      41.328  30.133  32.757  1.00  0.00     0.074 A 
ATOM     43  C   UNL A   1      40.211  31.049  32.718  1.00  0.00     0.031 C 
ATOM     44  C   UNL A   1      40.302  26.386  27.635  1.00  0.00     0.029 A 
ATOM     45  C   UNL A   1      41.412  26.318  28.579  1.00  0.00     0.049 A 
ATOM     46  H   UNL A   1      41.701  27.479  30.283  1.00  0.00     0.167 HD
ATOM     47  C   UNL A   1      42.310  30.166  33.690  1.00  0.00     0.037 A 
ATOM     48  C   UNL A   1      42.455  25.471  28.495  1.00  0.00     0.037 A 
ATOM     49  C   UNL A   1      43.401  29.229  33.745  1.00  0.00     0.049 A 
ATOM     50  C   UNL A   1      43.520  25.515  29.553  1.00  0.00     0.074 A 
ATOM     51  C   UNL A   1      44.400  29.125  34.697  1.00  0.00     0.029 A 
ATOM     52  N   UNL A   1      43.637  28.234  32.807  1.00  0.00    -0.354 N 
ATOM     53  N   UNL A   1      43.617  26.303  30.596  1.00  0.00    -0.248 NA
ATOM     54  C   UNL A   1      44.618  24.545  29.430  1.00  0.00     0.031 C 
ATOM     55  C   UNL A   1      45.269  28.099  34.309  1.00  0.00     0.029 A 
ATOM     56  C   UNL A   1      44.781  27.530  33.143  1.00  0.00     0.049 A 
ATOM     57  H   UNL A   1      43.075  28.057  32.019  1.00  0.00     0.167 HD
ATOM     58  C   UNL A   1      44.770  25.912  31.264  1.00  0.00     0.074 A 
ATOM     59  C   UNL A   1      45.328  24.802  30.519  1.00  0.00     0.031 C 
ATOM     60  C   UNL A   1      45.319  26.426  32.391  1.00  0.00     0.037 A 
BRANCH  47  61
ATOM     61  C   UNL A   1      42.246  31.244  34.732  1.00  0.00     0.057 A 
ATOM     62  C   UNL A   1      42.875  32.484  34.556  1.00  0.00     0.134 A 
ATOM     63  C   UNL A   1      41.511  31.056  35.910  1.00  0.00     0.134 A 
ATOM     64  F   UNL A   1      43.606  32.726  33.457  1.00  0.00    -0.206 F 
ATOM     65  C   UNL A   1      42.797  33.488  35.522  1.00  0.00     0.040 A 
ATOM     66  C   UNL A   1      41.401  32.062  36.870  1.00  0.00     0.040 A 
ATOM     67  F   UNL A   1      40.879  29.896  36.140  1.00  0.00    -0.206 F 
ATOM     68  C   UNL A   1      42.050  33.281  36.681  1.00  0.00     0.006 A 
ENDBRANCH  47  61
BRANCH  48  69
ATOM     69  C   UNL A   1      42.532  24.494  27.378  1.00  0.00     0.057 A 
ATOM     70  C   UNL A   1      42.011  23.201  27.511  1.00  0.00     0.134 A 
ATOM     71  C   UNL A   1      43.133  24.824  26.158  1.00  0.00     0.134 A 
ATOM     72  F   UNL A   1      41.438  22.819  28.662  1.00  0.00    -0.206 F 
ATOM     73  C   UNL A   1      42.105  22.265  26.480  1.00  0.00     0.040 A 
ATOM     74  C   UNL A   1      43.209  23.907  25.108  1.00  0.00     0.040 A 
ATOM     75  F   UNL A   1      43.642  26.050  25.962  1.00  0.00    -0.206 F 
ATOM     76  C   UNL A   1      42.701  22.619  25.271  1.00  0.00     0.006 A 
ENDBRANCH  48  69
BRANCH  60  77
ATOM     77  C   UNL A   1      46.572  25.774  32.901  1.00  0.00     0.057 A 
ATOM     78  C   UNL A   1      46.534  24.724  33.829  1.00  0.00     0.134 A 
ATOM     79  C   UNL A   1      47.827  26.178  32.431  1.00  0.00     0.134 A 
ATOM     80  F   UNL A   1      45.364  24.300  34.327  1.00  0.00    -0.206 F 
ATOM     81  C   UNL A   1      47.703  24.119  34.290  1.00  0.00     0.040 A 
ATOM     82  C   UNL A   1      49.002  25.560  32.864  1.00  0.00     0.040 A 
ATOM     83  F   UNL A   1      47.933  27.170  31.534  1.00  0.00    -0.206 F 
ATOM     84  C   UNL A   1      48.942  24.532  33.802  1.00  0.00     0.006 A 
ENDBRANCH  60  77
ENDBRANCH  34  35
ENDBRANCH  26  29
ENDBRANCH  24  25
ENDBRANCH   1  24
TORSDOF 12
ENDMDL
MODEL 3
REMARK VINA RESULT:     -10.3      4.541      9.948
REMARK SMILES C[C@H]1CN(c2ccc([N+](=O)[O-])c(C(=O)NCCCNC(=O)c3ccc(-c4c5nc(c(-c6c(F)cccc6F)c6ccc([nH]6)c(-c6c(F)cccc6F)c6nc(c(-c7c(F)cccc7F)c7ccc4[nH]7)C=C6)C=C5)cc3)c2)C[C@H](C)O1
REMARK SMILES IDX 17 1 16 2 15 3 13 4 14 5 12 7 5 8 6 9 76 10 7 11 8 12 4 13
REMARK SMILES IDX 1 14 2 15 3 16 80 17 78 18 77 19 79 20 9 21 10 22 11 23
REMARK SMILES IDX 18 24 19 25 20 26 21 28 22 29 23 30 75 31 24 32 74 33 25 34
REMARK SMILES IDX 26 35 27 36 68 37 28 38 73 39 67 40 69 41 29 42 72 43 66 44
REMARK SMILES IDX 65 45 30 47 56 48 39 49 55 50 40 51 43 52 54 53 70 54 41 55
REMARK SMILES IDX 42 56 53 58 71 59 44 60 31 61 32 62 37 63 33 64 34 65 36 66
REMARK SMILES IDX 38 67 35 68 57 69 58 70 63 71 59 72 60 73 62 74 64 75 61 76
REMARK SMILES IDX 45 77 46 78 51 79 47 80 48 81 50 82 52 83 49 84
REMARK H PARENT 15 6 19 27 69 46 43 57
REMARK Flexibility Score: inf
ROOT
ATOM      1  C   UNL A   1      32.386  28.622  26.706  1.00  0.00     0.042 C 
ENDROOT
BRANCH   1   2
ATOM      2  C   UNL A   1      31.950  29.459  25.516  1.00  0.00     0.118 C 
BRANCH   2   3
ATOM      3  N   UNL A   1      32.800  29.295  24.339  1.00  0.00    -0.352 N 
ATOM      4  C   UNL A   1      33.219  28.234  23.567  1.00  0.00     0.258 C 
ATOM      5  O   UNL A   1      34.068  28.496  22.719  1.00  0.00    -0.269 OA
ATOM      6  H   UNL A   1      33.164  30.152  24.020  1.00  0.00     0.163 HD
BRANCH   4   7
ATOM      7  C   UNL A   1      32.792  26.822  23.774  1.00  0.00     0.119 A 
ATOM      8  C   UNL A   1      33.508  24.513  24.180  1.00  0.00     0.038 A 
ATOM      9  C   UNL A   1      32.335  24.064  23.563  1.00  0.00     0.033 A 
ATOM     10  C   UNL A   1      33.637  25.892  24.380  1.00  0.00     0.047 A 
ATOM     11  C   UNL A   1      31.340  24.959  23.170  1.00  0.00     0.088 A 
ATOM     12  C   UNL A   1      31.584  26.333  23.273  1.00  0.00     0.282 A 
BRANCH   8  13
ATOM     13  N   UNL A   1      34.493  23.633  24.564  1.00  0.00    -0.366 N 
ATOM     14  C   UNL A   1      37.996  23.447  26.025  1.00  0.00     0.040 C 
ATOM     15  C   UNL A   1      36.500  23.187  25.898  1.00  0.00     0.135 C 
ATOM     16  C   UNL A   1      35.903  24.012  24.738  1.00  0.00     0.148 C 
ATOM     17  O   UNL A   1      36.315  21.771  25.706  1.00  0.00    -0.372 OA
ATOM     18  C   UNL A   1      34.937  21.401  25.486  1.00  0.00     0.135 C 
ATOM     19  C   UNL A   1      34.321  22.189  24.317  1.00  0.00     0.148 C 
ATOM     20  C   UNL A   1      34.095  21.541  26.754  1.00  0.00     0.040 C 
ENDBRANCH   8  13
BRANCH  12  21
ATOM     21  N   UNL A   1      30.464  27.211  22.989  1.00  0.00     0.063 N 
ATOM     22  O   UNL A   1      30.482  27.808  21.903  1.00  0.00    -0.258 OA
ATOM     23  O   UNL A   1      29.510  27.169  23.779  1.00  0.00    -0.258 OA
ENDBRANCH  12  21
ENDBRANCH   4   7
ENDBRANCH   2   3
ENDBRANCH   1   2
BRANCH   1  24
ATOM     24  C   UNL A   1      33.752  28.981  27.259  1.00  0.00     0.118 C 
BRANCH  24  25
ATOM     25  N   UNL A   1      33.790  30.316  27.839  1.00  0.00    -0.352 N 
ATOM     26  C   UNL A   1      34.751  30.949  28.591  1.00  0.00     0.251 C 
ATOM     27  H   UNL A   1      32.988  30.860  27.662  1.00  0.00     0.163 HD
ATOM     28  O   UNL A   1      34.470  31.997  29.163  1.00  0.00    -0.269 OA
BRANCH  26  29
ATOM     29  C   UNL A   1      36.107  30.374  28.736  1.00  0.00     0.039 A 
ATOM     30  C   UNL A   1      36.989  30.439  27.653  1.00  0.00     0.014 A 
ATOM     31  C   UNL A   1      36.505  29.737  29.913  1.00  0.00     0.014 A 
ATOM     32  C   UNL A   1      38.287  29.937  27.782  1.00  0.00     0.010 A 
ATOM     33  C   UNL A   1      37.826  29.339  30.078  1.00  0.00     0.010 A 
ATOM     34  C   UNL A   1      38.731  29.423  29.012  1.00  0.00    -0.014 A 
BRANCH  34  35
ATOM     35  C   UNL A   1      40.132  28.968  29.201  1.00  0.00     0.031 A 
ATOM     36  C   UNL A   1      41.161  29.902  29.779  1.00  0.00     0.074 A 
ATOM     37  C   UNL A   1      40.494  27.741  28.780  1.00  0.00     0.049 A 
ATOM     38  N   UNL A   1      42.446  29.712  29.952  1.00  0.00    -0.248 NA
ATOM     39  C   UNL A   1      40.695  31.238  30.189  1.00  0.00     0.031 C 
ATOM     40  C   UNL A   1      39.605  26.768  28.142  1.00  0.00     0.029 A 
ATOM     41  N   UNL A   1      41.710  27.106  28.812  1.00  0.00    -0.354 N 
ATOM     42  C   UNL A   1      42.939  30.906  30.465  1.00  0.00     0.074 A 
ATOM     43  C   UNL A   1      41.830  31.832  30.525  1.00  0.00     0.031 C 
ATOM     44  C   UNL A   1      40.298  25.652  27.867  1.00  0.00     0.029 A 
ATOM     45  C   UNL A   1      41.687  25.844  28.271  1.00  0.00     0.049 A 
ATOM     46  H   UNL A   1      42.523  27.516  29.187  1.00  0.00     0.167 HD
ATOM     47  C   UNL A   1      44.198  31.197  30.871  1.00  0.00     0.037 A 
ATOM     48  C   UNL A   1      42.675  24.943  28.111  1.00  0.00     0.037 A 
ATOM     49  C   UNL A   1      45.290  30.261  30.844  1.00  0.00     0.049 A 
ATOM     50  C   UNL A   1      44.058  25.283  28.588  1.00  0.00     0.074 A 
ATOM     51  C   UNL A   1      46.582  30.430  31.310  1.00  0.00     0.029 A 
ATOM     52  N   UNL A   1      45.218  28.978  30.319  1.00  0.00    -0.354 N 
ATOM     53  N   UNL A   1      44.491  26.386  29.150  1.00  0.00    -0.248 NA
ATOM     54  C   UNL A   1      45.091  24.252  28.417  1.00  0.00     0.031 C 
ATOM     55  C   UNL A   1      47.307  29.268  31.022  1.00  0.00     0.029 A 
ATOM     56  C   UNL A   1      46.451  28.356  30.424  1.00  0.00     0.049 A 
ATOM     57  H   UNL A   1      44.412  28.573  29.928  1.00  0.00     0.167 HD
ATOM     58  C   UNL A   1      45.837  26.173  29.420  1.00  0.00     0.074 A 
ATOM     59  C   UNL A   1      46.143  24.828  28.979  1.00  0.00     0.031 C 
ATOM     60  C   UNL A   1      46.737  27.016  29.982  1.00  0.00     0.037 A 
BRANCH  47  61
ATOM     61  C   UNL A   1      44.461  32.581  31.389  1.00  0.00     0.057 A 
ATOM     62  C   UNL A   1      44.877  33.622  30.547  1.00  0.00     0.134 A 
ATOM     63  C   UNL A   1      44.257  32.889  32.741  1.00  0.00     0.134 A 
ATOM     64  F   UNL A   1      45.104  33.392  29.244  1.00  0.00    -0.206 F 
ATOM     65  C   UNL A   1      45.104  34.910  31.033  1.00  0.00     0.040 A 
ATOM     66  C   UNL A   1      44.453  34.180  33.233  1.00  0.00     0.040 A 
ATOM     67  F   UNL A   1      43.854  31.944  33.601  1.00  0.00    -0.206 F 
ATOM     68  C   UNL A   1      44.883  35.195  32.379  1.00  0.00     0.006 A 
ENDBRANCH  47  61
BRANCH  48  69
ATOM     69  C   UNL A   1      42.388  23.626  27.488  1.00  0.00     0.057 A 
ATOM     70  C   UNL A   1      42.447  23.454  26.099  1.00  0.00     0.134 A 
ATOM     71  C   UNL A   1      42.040  22.511  28.260  1.00  0.00     0.134 A 
ATOM     72  F   UNL A   1      42.758  24.489  25.304  1.00  0.00    -0.206 F 
ATOM     73  C   UNL A   1      42.150  22.229  25.500  1.00  0.00     0.040 A 
ATOM     74  C   UNL A   1      41.767  21.273  27.677  1.00  0.00     0.040 A 
ATOM     75  F   UNL A   1      41.975  22.606  29.597  1.00  0.00    -0.206 F 
ATOM     76  C   UNL A   1      41.813  21.132  26.291  1.00  0.00     0.006 A 
ENDBRANCH  48  69
BRANCH  60  77
ATOM     77  C   UNL A   1      48.132  26.495  30.175  1.00  0.00     0.057 A 
ATOM     78  C   UNL A   1      49.128  26.672  29.206  1.00  0.00     0.134 A 
ATOM     79  C   UNL A   1      48.490  25.841  31.361  1.00  0.00     0.134 A 
ATOM     80  F   UNL A   1      48.846  27.279  28.044  1.00  0.00    -0.206 F 
ATOM     81  C   UNL A   1      50.424  26.192  29.399  1.00  0.00     0.040 A 
ATOM     82  C   UNL A   1      49.791  25.382  31.576  1.00  0.00     0.040 A 
ATOM     83  F   UNL A   1      47.587  25.649  32.333  1.00  0.00    -0.206 F 
ATOM     84  C   UNL A   1      50.760  25.551  30.591  1.00  0.00     0.006 A 
ENDBRANCH  60  77
ENDBRANCH  34  35
ENDBRANCH  26  29
ENDBRANCH  24  25
ENDBRANCH   1  24
TORSDOF 12
ENDMDL
