MODEL 1
REMARK VINA RESULT:     -11.1      0.000      0.000
REMARK SMILES [NH3+]C[C@H]1CC[C@@H](C(=O)N[C@H](CC(=O)NCCCNC(=O)c2ccc(-c3c4nc(c(-c5c(F)cccc5F)c5ccc([nH]5)c(-c5c(F)cccc5F)c5nc(c(-c6c(F)cccc6F)c6ccc3[nH]6)C=C5)C=C4)cc2)c2cccs2)O1
REMARK SMILES IDX 12 1 13 2 14 3 11 5 10 6 9 7 7 8 8 9 6 11 3 12 4 13 80 14
REMARK SMILES IDX 5 15 2 16 1 17 75 21 76 22 79 23 77 24 78 25 15 26 16 27
REMARK SMILES IDX 17 28 18 29 19 30 20 32 21 33 22 34 74 35 23 36 73 37 24 38
REMARK SMILES IDX 25 39 26 40 67 41 27 42 72 43 66 44 68 45 28 46 71 47 65 48
REMARK SMILES IDX 64 49 29 51 55 52 38 53 54 54 39 55 42 56 53 57 69 58 40 59
REMARK SMILES IDX 41 60 52 62 70 63 43 64 30 65 31 66 36 67 32 68 33 69 35 70
REMARK SMILES IDX 37 71 34 72 56 73 57 74 62 75 58 76 59 77 61 78 63 79 60 80
REMARK SMILES IDX 44 81 45 82 50 83 46 84 47 85 49 86 51 87 48 88
REMARK H PARENT 14 4 9 10 1 18 1 19 1 20 18 31 68 50 42 61
REMARK Flexibility Score: inf
ROOT
ATOM      1  C   UNL A   1      35.479  22.645  24.925  1.00  0.00     0.222 C 
ATOM      2  O   UNL A   1      34.996  23.234  25.894  1.00  0.00    -0.275 OA
ATOM      3  N   UNL A   1      36.338  21.629  25.174  1.00  0.00    -0.356 N 
ATOM      4  H   UNL A   1      36.391  21.352  26.117  1.00  0.00     0.163 HD
ENDROOT
BRANCH   1   5
ATOM      5  C   UNL A   1      35.030  22.958  23.521  1.00  0.00     0.130 C 
BRANCH   5   6
ATOM      6  C   UNL A   1      33.535  23.046  23.227  1.00  0.00     0.132 C 
BRANCH   6   7
ATOM      7  N   UNL A   1      32.676  22.369  24.218  1.00  0.00    -0.346 N 
ATOM      8  C   UNL A   1      32.439  21.058  24.525  1.00  0.00     0.249 C 
ATOM      9  O   UNL A   1      31.658  20.815  25.447  1.00  0.00    -0.272 OA
ATOM     10  H   UNL A   1      32.164  22.996  24.779  1.00  0.00     0.164 HD
BRANCH   8  11
ATOM     11  C   UNL A   1      33.098  19.952  23.704  1.00  0.00     0.207 C 
ATOM     12  C   UNL A   1      33.882  17.827  24.280  1.00  0.00     0.174 C 
ATOM     13  C   UNL A   1      33.111  17.734  22.973  1.00  0.00     0.041 C 
ATOM     14  O   UNL A   1      34.048  19.240  24.513  1.00  0.00    -0.359 OA
ATOM     15  C   UNL A   1      32.175  18.917  23.082  1.00  0.00     0.045 C 
BRANCH  12  16
ATOM     16  C   UNL A   1      33.113  17.175  25.449  1.00  0.00     0.291 C 
BRANCH  16  17
ATOM     17  N   UNL A   1      32.863  18.108  26.551  1.00  0.00    -0.355 N 
ATOM     18  H   UNL A   1      33.751  18.403  26.955  1.00  0.00     0.344 HD
ATOM     19  H   UNL A   1      32.300  17.648  27.265  1.00  0.00     0.344 HD
ATOM     20  H   UNL A   1      32.363  18.925  26.197  1.00  0.00     0.344 HD
ENDBRANCH  16  17
ENDBRANCH  12  16
ENDBRANCH   8  11
ENDBRANCH   6   7
BRANCH   6  21
ATOM     21  C   UNL A   1      33.002  24.429  22.914  1.00  0.00     0.027 A 
ATOM     22  C   UNL A   1      33.649  25.529  22.376  1.00  0.00     0.017 A 
ATOM     23  S   UNL A   1      31.316  24.757  23.093  1.00  0.00    -0.147 S 
ATOM     24  C   UNL A   1      32.770  26.617  22.104  1.00  0.00     0.012 A 
ATOM     25  C   UNL A   1      31.474  26.336  22.465  1.00  0.00     0.065 A 
ENDBRANCH   6  21
ENDBRANCH   5   6
ENDBRANCH   1   5
BRANCH   3  26
ATOM     26  C   UNL A   1      37.191  20.885  24.272  1.00  0.00     0.117 C 
BRANCH  26  27
ATOM     27  C   UNL A   1      37.846  19.715  24.998  1.00  0.00     0.042 C 
BRANCH  27  28
ATOM     28  C   UNL A   1      39.000  20.128  25.906  1.00  0.00     0.118 C 
BRANCH  28  29
ATOM     29  N   UNL A   1      40.051  19.125  25.957  1.00  0.00    -0.352 N 
ATOM     30  C   UNL A   1      41.405  19.289  26.097  1.00  0.00     0.251 C 
ATOM     31  H   UNL A   1      39.747  18.191  25.879  1.00  0.00     0.163 HD
ATOM     32  O   UNL A   1      42.161  18.345  25.897  1.00  0.00    -0.269 OA
BRANCH  30  33
ATOM     33  C   UNL A   1      41.946  20.610  26.472  1.00  0.00     0.039 A 
ATOM     34  C   UNL A   1      42.295  21.508  25.463  1.00  0.00     0.014 A 
ATOM     35  C   UNL A   1      42.115  20.955  27.817  1.00  0.00     0.014 A 
ATOM     36  C   UNL A   1      42.765  22.775  25.803  1.00  0.00     0.010 A 
ATOM     37  C   UNL A   1      42.499  22.246  28.155  1.00  0.00     0.010 A 
ATOM     38  C   UNL A   1      42.841  23.165  27.151  1.00  0.00    -0.014 A 
BRANCH  38  39
ATOM     39  C   UNL A   1      43.293  24.526  27.531  1.00  0.00     0.031 A 
ATOM     40  C   UNL A   1      42.288  25.563  27.951  1.00  0.00     0.074 A 
ATOM     41  C   UNL A   1      44.599  24.842  27.442  1.00  0.00     0.049 A 
ATOM     42  N   UNL A   1      42.480  26.818  28.269  1.00  0.00    -0.248 NA
ATOM     43  C   UNL A   1      40.879  25.142  27.994  1.00  0.00     0.031 C 
ATOM     44  C   UNL A   1      45.661  23.935  26.998  1.00  0.00     0.029 A 
ATOM     45  N   UNL A   1      45.256  26.015  27.713  1.00  0.00    -0.354 N 
ATOM     46  C   UNL A   1      41.220  27.336  28.534  1.00  0.00     0.074 A 
ATOM     47  C   UNL A   1      40.265  26.280  28.283  1.00  0.00     0.031 C 
ATOM     48  C   UNL A   1      46.838  24.577  27.055  1.00  0.00     0.029 A 
ATOM     49  C   UNL A   1      46.611  25.948  27.498  1.00  0.00     0.049 A 
ATOM     50  H   UNL A   1      44.800  26.826  28.031  1.00  0.00     0.167 HD
ATOM     51  C   UNL A   1      40.889  28.574  28.975  1.00  0.00     0.037 A 
ATOM     52  C   UNL A   1      47.562  26.892  27.637  1.00  0.00     0.037 A 
ATOM     53  C   UNL A   1      41.846  29.615  29.243  1.00  0.00     0.049 A 
ATOM     54  C   UNL A   1      47.168  28.262  28.115  1.00  0.00     0.074 A 
ATOM     55  C   UNL A   1      41.621  30.884  29.745  1.00  0.00     0.029 A 
ATOM     56  N   UNL A   1      43.212  29.505  29.025  1.00  0.00    -0.354 N 
ATOM     57  N   UNL A   1      45.980  28.717  28.433  1.00  0.00    -0.248 NA
ATOM     58  C   UNL A   1      48.248  29.246  28.262  1.00  0.00     0.031 C 
ATOM     59  C   UNL A   1      42.844  31.561  29.782  1.00  0.00     0.029 A 
ATOM     60  C   UNL A   1      43.839  30.694  29.359  1.00  0.00     0.049 A 
ATOM     61  H   UNL A   1      43.668  28.703  28.683  1.00  0.00     0.167 HD
ATOM     62  C   UNL A   1      46.174  30.029  28.847  1.00  0.00     0.074 A 
ATOM     63  C   UNL A   1      47.594  30.290  28.753  1.00  0.00     0.031 C 
ATOM     64  C   UNL A   1      45.257  30.935  29.268  1.00  0.00     0.037 A 
BRANCH  51  65
ATOM     65  C   UNL A   1      39.432  28.866  29.194  1.00  0.00     0.057 A 
ATOM     66  C   UNL A   1      38.815  28.665  30.437  1.00  0.00     0.134 A 
ATOM     67  C   UNL A   1      38.642  29.384  28.160  1.00  0.00     0.134 A 
ATOM     68  F   UNL A   1      39.510  28.159  31.466  1.00  0.00    -0.206 F 
ATOM     69  C   UNL A   1      37.461  28.940  30.635  1.00  0.00     0.040 A 
ATOM     70  C   UNL A   1      37.295  29.692  28.354  1.00  0.00     0.040 A 
ATOM     71  F   UNL A   1      39.169  29.607  26.946  1.00  0.00    -0.206 F 
ATOM     72  C   UNL A   1      36.698  29.463  29.592  1.00  0.00     0.006 A 
ENDBRANCH  51  65
BRANCH  52  73
ATOM     73  C   UNL A   1      48.981  26.567  27.341  1.00  0.00     0.057 A 
ATOM     74  C   UNL A   1      49.501  26.717  26.050  1.00  0.00     0.134 A 
ATOM     75  C   UNL A   1      49.847  26.094  28.333  1.00  0.00     0.134 A 
ATOM     76  F   UNL A   1      48.719  27.151  25.052  1.00  0.00    -0.206 F 
ATOM     77  C   UNL A   1      50.825  26.385  25.752  1.00  0.00     0.040 A 
ATOM     78  C   UNL A   1      51.179  25.784  28.056  1.00  0.00     0.040 A 
ATOM     79  F   UNL A   1      49.413  25.937  29.593  1.00  0.00    -0.206 F 
ATOM     80  C   UNL A   1      51.669  25.921  26.758  1.00  0.00     0.006 A 
ENDBRANCH  52  73
BRANCH  64  81
ATOM     81  C   UNL A   1      45.768  32.280  29.698  1.00  0.00     0.057 A 
ATOM     82  C   UNL A   1      46.183  32.531  31.013  1.00  0.00     0.134 A 
ATOM     83  C   UNL A   1      45.883  33.324  28.773  1.00  0.00     0.134 A 
ATOM     84  F   UNL A   1      46.087  31.576  31.950  1.00  0.00    -0.206 F 
ATOM     85  C   UNL A   1      46.672  33.781  31.395  1.00  0.00     0.040 A 
ATOM     86  C   UNL A   1      46.398  34.569  29.137  1.00  0.00     0.040 A 
ATOM     87  F   UNL A   1      45.513  33.148  27.495  1.00  0.00    -0.206 F 
ATOM     88  C   UNL A   1      46.788  34.802  30.453  1.00  0.00     0.006 A 
ENDBRANCH  64  81
ENDBRANCH  38  39
ENDBRANCH  30  33
ENDBRANCH  28  29
ENDBRANCH  27  28
ENDBRANCH  26  27
ENDBRANCH   3  26
TORSDOF 16
ENDMDL
MODEL 2
REMARK VINA RESULT:     -10.9      5.056      9.653
REMARK SMILES [NH3+]C[C@H]1CC[C@@H](C(=O)N[C@H](CC(=O)NCCCNC(=O)c2ccc(-c3c4nc(c(-c5c(F)cccc5F)c5ccc([nH]5)c(-c5c(F)cccc5F)c5nc(c(-c6c(F)cccc6F)c6ccc3[nH]6)C=C5)C=C4)cc2)c2cccs2)O1
REMARK SMILES IDX 12 1 13 2 14 3 11 5 10 6 9 7 7 8 8 9 6 11 3 12 4 13 80 14
REMARK SMILES IDX 5 15 2 16 1 17 75 21 76 22 79 23 77 24 78 25 15 26 16 27
REMARK SMILES IDX 17 28 18 29 19 30 20 32 21 33 22 34 74 35 23 36 73 37 24 38
REMARK SMILES IDX 25 39 26 40 67 41 27 42 72 43 66 44 68 45 28 46 71 47 65 48
REMARK SMILES IDX 64 49 29 51 55 52 38 53 54 54 39 55 42 56 53 57 69 58 40 59
REMARK SMILES IDX 41 60 52 62 70 63 43 64 30 65 31 66 36 67 32 68 33 69 35 70
REMARK SMILES IDX 37 71 34 72 56 73 57 74 62 75 58 76 59 77 61 78 63 79 60 80
REMARK SMILES IDX 44 81 45 82 50 83 46 84 47 85 49 86 51 87 48 88
REMARK H PARENT 14 4 9 10 1 18 1 19 1 20 18 31 68 50 42 61
REMARK Flexibility Score: inf
ROOT
ATOM      1  C   UNL A   1      32.995  28.875  27.062  1.00  0.00     0.222 C 
ATOM      2  O   UNL A   1      34.123  28.662  27.511  1.00  0.00    -0.275 OA
ATOM      3  N   UNL A   1      32.810  30.009  26.347  1.00  0.00    -0.356 N 
ATOM      4  H   UNL A   1      33.634  30.498  26.123  1.00  0.00     0.163 HD
ENDROOT
BRANCH   1   5
ATOM      5  C   UNL A   1      31.899  27.849  27.191  1.00  0.00     0.130 C 
BRANCH   5   6
ATOM      6  C   UNL A   1      31.890  26.655  26.241  1.00  0.00     0.132 C 
BRANCH   6   7
ATOM      7  N   UNL A   1      31.321  25.420  26.815  1.00  0.00    -0.346 N 
ATOM      8  C   UNL A   1      31.532  24.088  26.591  1.00  0.00     0.249 C 
ATOM      9  O   UNL A   1      30.893  23.282  27.270  1.00  0.00    -0.272 OA
ATOM     10  H   UNL A   1      30.644  25.593  27.509  1.00  0.00     0.164 HD
BRANCH   8  11
ATOM     11  C   UNL A   1      32.500  23.644  25.496  1.00  0.00     0.207 C 
ATOM     12  C   UNL A   1      33.418  21.560  24.966  1.00  0.00     0.174 C 
ATOM     13  C   UNL A   1      32.974  22.249  23.685  1.00  0.00     0.041 C 
ATOM     14  O   UNL A   1      33.335  22.579  25.983  1.00  0.00    -0.359 OA
ATOM     15  C   UNL A   1      31.887  23.171  24.190  1.00  0.00     0.045 C 
BRANCH  12  16
ATOM     16  C   UNL A   1      32.503  20.368  25.323  1.00  0.00     0.291 C 
BRANCH  16  17
ATOM     17  N   UNL A   1      33.037  19.557  26.421  1.00  0.00    -0.355 N 
ATOM     18  H   UNL A   1      33.311  18.641  26.064  1.00  0.00     0.344 HD
ATOM     19  H   UNL A   1      32.322  19.442  27.138  1.00  0.00     0.344 HD
ATOM     20  H   UNL A   1      33.851  20.023  26.822  1.00  0.00     0.344 HD
ENDBRANCH  16  17
ENDBRANCH  12  16
ENDBRANCH   8  11
ENDBRANCH   6   7
BRANCH   6  21
ATOM     21  C   UNL A   1      31.325  26.912  24.860  1.00  0.00     0.027 A 
ATOM     22  C   UNL A   1      30.040  27.264  24.477  1.00  0.00     0.017 A 
ATOM     23  S   UNL A   1      32.380  26.925  23.492  1.00  0.00    -0.147 S 
ATOM     24  C   UNL A   1      29.931  27.551  23.085  1.00  0.00     0.012 A 
ATOM     25  C   UNL A   1      31.128  27.386  22.429  1.00  0.00     0.065 A 
ENDBRANCH   6  21
ENDBRANCH   5   6
ENDBRANCH   1   5
BRANCH   3  26
ATOM     26  C   UNL A   1      31.590  30.616  25.858  1.00  0.00     0.117 C 
BRANCH  26  27
ATOM     27  C   UNL A   1      31.323  31.934  26.577  1.00  0.00     0.042 C 
BRANCH  27  28
ATOM     28  C   UNL A   1      32.573  32.563  27.185  1.00  0.00     0.118 C 
BRANCH  28  29
ATOM     29  N   UNL A   1      32.378  33.962  27.528  1.00  0.00    -0.352 N 
ATOM     30  C   UNL A   1      33.021  34.725  28.469  1.00  0.00     0.251 C 
ATOM     31  H   UNL A   1      31.684  34.430  27.010  1.00  0.00     0.163 HD
ATOM     32  O   UNL A   1      32.576  35.826  28.774  1.00  0.00    -0.269 OA
BRANCH  30  33
ATOM     33  C   UNL A   1      34.239  34.207  29.121  1.00  0.00     0.039 A 
ATOM     34  C   UNL A   1      34.112  33.467  30.298  1.00  0.00     0.014 A 
ATOM     35  C   UNL A   1      35.502  34.460  28.577  1.00  0.00     0.014 A 
ATOM     36  C   UNL A   1      35.251  32.934  30.901  1.00  0.00     0.010 A 
ATOM     37  C   UNL A   1      36.625  33.856  29.128  1.00  0.00     0.010 A 
ATOM     38  C   UNL A   1      36.512  33.098  30.304  1.00  0.00    -0.014 A 
BRANCH  38  39
ATOM     39  C   UNL A   1      37.728  32.497  30.904  1.00  0.00     0.031 A 
ATOM     40  C   UNL A   1      38.346  31.273  30.289  1.00  0.00     0.074 A 
ATOM     41  C   UNL A   1      38.239  33.022  32.035  1.00  0.00     0.049 A 
ATOM     42  N   UNL A   1      39.375  30.573  30.695  1.00  0.00    -0.248 NA
ATOM     43  C   UNL A   1      37.707  30.748  29.071  1.00  0.00     0.031 C 
ATOM     44  C   UNL A   1      37.697  34.178  32.752  1.00  0.00     0.029 A 
ATOM     45  N   UNL A   1      39.326  32.647  32.783  1.00  0.00    -0.354 N 
ATOM     46  C   UNL A   1      39.496  29.524  29.794  1.00  0.00     0.074 A 
ATOM     47  C   UNL A   1      38.403  29.641  28.855  1.00  0.00     0.031 C 
ATOM     48  C   UNL A   1      38.469  34.434  33.820  1.00  0.00     0.029 A 
ATOM     49  C   UNL A   1      39.534  33.439  33.885  1.00  0.00     0.049 A 
ATOM     50  H   UNL A   1      39.901  31.883  32.551  1.00  0.00     0.167 HD
ATOM     51  C   UNL A   1      40.450  28.564  29.737  1.00  0.00     0.037 A 
ATOM     52  C   UNL A   1      40.476  33.365  34.845  1.00  0.00     0.037 A 
ATOM     53  C   UNL A   1      41.548  28.464  30.662  1.00  0.00     0.049 A 
ATOM     54  C   UNL A   1      41.516  32.282  34.767  1.00  0.00     0.074 A 
ATOM     55  C   UNL A   1      42.598  27.565  30.659  1.00  0.00     0.029 A 
ATOM     56  N   UNL A   1      41.732  29.293  31.759  1.00  0.00    -0.354 N 
ATOM     57  N   UNL A   1      41.662  31.339  33.867  1.00  0.00    -0.248 NA
ATOM     58  C   UNL A   1      42.527  32.258  35.832  1.00  0.00     0.031 C 
ATOM     59  C   UNL A   1      43.390  27.815  31.784  1.00  0.00     0.029 A 
ATOM     60  C   UNL A   1      42.866  28.909  32.455  1.00  0.00     0.049 A 
ATOM     61  H   UNL A   1      41.144  30.043  32.007  1.00  0.00     0.167 HD
ATOM     62  C   UNL A   1      42.797  30.631  34.240  1.00  0.00     0.074 A 
ATOM     63  C   UNL A   1      43.308  31.262  35.438  1.00  0.00     0.031 C 
ATOM     64  C   UNL A   1      43.366  29.555  33.642  1.00  0.00     0.037 A 
BRANCH  51  65
ATOM     65  C   UNL A   1      40.346  27.547  28.636  1.00  0.00     0.057 A 
ATOM     66  C   UNL A   1      39.573  26.385  28.771  1.00  0.00     0.134 A 
ATOM     67  C   UNL A   1      41.003  27.745  27.415  1.00  0.00     0.134 A 
ATOM     68  F   UNL A   1      38.929  26.127  29.918  1.00  0.00    -0.206 F 
ATOM     69  C   UNL A   1      39.480  25.445  27.743  1.00  0.00     0.040 A 
ATOM     70  C   UNL A   1      40.892  26.828  26.369  1.00  0.00     0.040 A 
ATOM     71  F   UNL A   1      41.756  28.837  27.215  1.00  0.00    -0.206 F 
ATOM     72  C   UNL A   1      40.135  25.669  26.534  1.00  0.00     0.006 A 
ENDBRANCH  51  65
BRANCH  52  73
ATOM     73  C   UNL A   1      40.492  34.358  35.949  1.00  0.00     0.057 A 
ATOM     74  C   UNL A   1      39.798  34.122  37.142  1.00  0.00     0.134 A 
ATOM     75  C   UNL A   1      41.190  35.566  35.839  1.00  0.00     0.134 A 
ATOM     76  F   UNL A   1      39.097  32.991  37.304  1.00  0.00    -0.206 F 
ATOM     77  C   UNL A   1      39.779  35.062  38.176  1.00  0.00     0.040 A 
ATOM     78  C   UNL A   1      41.203  36.502  36.874  1.00  0.00     0.040 A 
ATOM     79  F   UNL A   1      41.884  35.848  34.726  1.00  0.00    -0.206 F 
ATOM     80  C   UNL A   1      40.487  36.254  38.044  1.00  0.00     0.006 A 
ENDBRANCH  52  73
BRANCH  64  81
ATOM     81  C   UNL A   1      44.629  29.018  34.252  1.00  0.00     0.057 A 
ATOM     82  C   UNL A   1      44.615  28.000  35.214  1.00  0.00     0.134 A 
ATOM     83  C   UNL A   1      45.877  29.500  33.838  1.00  0.00     0.134 A 
ATOM     84  F   UNL A   1      43.452  27.503  35.662  1.00  0.00    -0.206 F 
ATOM     85  C   UNL A   1      45.798  27.498  35.760  1.00  0.00     0.040 A 
ATOM     86  C   UNL A   1      47.066  28.986  34.355  1.00  0.00     0.040 A 
ATOM     87  F   UNL A   1      45.962  30.468  32.913  1.00  0.00    -0.206 F 
ATOM     88  C   UNL A   1      47.028  27.986  35.324  1.00  0.00     0.006 A 
ENDBRANCH  64  81
ENDBRANCH  38  39
ENDBRANCH  30  33
ENDBRANCH  28  29
ENDBRANCH  27  28
ENDBRANCH  26  27
ENDBRANCH   3  26
TORSDOF 16
ENDMDL
MODEL 3
REMARK VINA RESULT:     -10.9      4.751      8.972
REMARK SMILES [NH3+]C[C@H]1CC[C@@H](C(=O)N[C@H](CC(=O)NCCCNC(=O)c2ccc(-c3c4nc(c(-c5c(F)cccc5F)c5ccc([nH]5)c(-c5c(F)cccc5F)c5nc(c(-c6c(F)cccc6F)c6ccc3[nH]6)C=C5)C=C4)cc2)c2cccs2)O1
REMARK SMILES IDX 12 1 13 2 14 3 11 5 10 6 9 7 7 8 8 9 6 11 3 12 4 13 80 14
REMARK SMILES IDX 5 15 2 16 1 17 75 21 76 22 79 23 77 24 78 25 15 26 16 27
REMARK SMILES IDX 17 28 18 29 19 30 20 32 21 33 22 34 74 35 23 36 73 37 24 38
REMARK SMILES IDX 25 39 26 40 67 41 27 42 72 43 66 44 68 45 28 46 71 47 65 48
REMARK SMILES IDX 64 49 29 51 55 52 38 53 54 54 39 55 42 56 53 57 69 58 40 59
REMARK SMILES IDX 41 60 52 62 70 63 43 64 30 65 31 66 36 67 32 68 33 69 35 70
REMARK SMILES IDX 37 71 34 72 56 73 57 74 62 75 58 76 59 77 61 78 63 79 60 80
REMARK SMILES IDX 44 81 45 82 50 83 46 84 47 85 49 86 51 87 48 88
REMARK H PARENT 14 4 9 10 1 18 1 19 1 20 18 31 68 50 42 61
REMARK Flexibility Score: inf
ROOT
ATOM      1  C   UNL A   1      32.952  29.036  27.170  1.00  0.00     0.222 C 
ATOM      2  O   UNL A   1      34.093  28.845  27.594  1.00  0.00    -0.275 OA
ATOM      3  N   UNL A   1      32.704  30.213  26.549  1.00  0.00    -0.356 N 
ATOM      4  H   UNL A   1      33.501  30.758  26.359  1.00  0.00     0.163 HD
ENDROOT
BRANCH   1   5
ATOM      5  C   UNL A   1      31.909  27.950  27.226  1.00  0.00     0.130 C 
BRANCH   5   6
ATOM      6  C   UNL A   1      31.992  26.795  26.231  1.00  0.00     0.132 C 
BRANCH   6   7
ATOM      7  N   UNL A   1      31.600  25.484  26.782  1.00  0.00    -0.346 N 
ATOM      8  C   UNL A   1      32.041  24.204  26.583  1.00  0.00     0.249 C 
ATOM      9  O   UNL A   1      31.502  23.304  27.230  1.00  0.00    -0.272 OA
ATOM     10  H   UNL A   1      30.863  25.542  27.432  1.00  0.00     0.164 HD
BRANCH   8  11
ATOM     11  C   UNL A   1      33.134  23.926  25.554  1.00  0.00     0.207 C 
ATOM     12  C   UNL A   1      34.563  22.103  25.238  1.00  0.00     0.174 C 
ATOM     13  C   UNL A   1      34.016  22.545  23.890  1.00  0.00     0.041 C 
ATOM     14  O   UNL A   1      34.186  23.152  26.153  1.00  0.00    -0.359 OA
ATOM     15  C   UNL A   1      32.712  23.203  24.286  1.00  0.00     0.045 C 
BRANCH  12  16
ATOM     16  C   UNL A   1      33.961  20.754  25.689  1.00  0.00     0.291 C 
BRANCH  16  17
ATOM     17  N   UNL A   1      33.464  20.790  27.067  1.00  0.00    -0.355 N 
ATOM     18  H   UNL A   1      33.226  21.750  27.318  1.00  0.00     0.344 HD
ATOM     19  H   UNL A   1      34.185  20.443  27.698  1.00  0.00     0.344 HD
ATOM     20  H   UNL A   1      32.632  20.204  27.144  1.00  0.00     0.344 HD
ENDBRANCH  16  17
ENDBRANCH  12  16
ENDBRANCH   8  11
ENDBRANCH   6   7
BRANCH   6  21
ATOM     21  C   UNL A   1      31.334  27.030  24.888  1.00  0.00     0.027 A 
ATOM     22  C   UNL A   1      30.025  26.810  24.489  1.00  0.00     0.017 A 
ATOM     23  S   UNL A   1      32.220  27.808  23.625  1.00  0.00    -0.147 S 
ATOM     24  C   UNL A   1      29.755  27.286  23.173  1.00  0.00     0.012 A 
ATOM     25  C   UNL A   1      30.868  27.834  22.583  1.00  0.00     0.065 A 
ENDBRANCH   6  21
ENDBRANCH   5   6
ENDBRANCH   1   5
BRANCH   3  26
ATOM     26  C   UNL A   1      31.451  30.794  26.118  1.00  0.00     0.117 C 
BRANCH  26  27
ATOM     27  C   UNL A   1      31.357  32.251  26.560  1.00  0.00     0.042 C 
BRANCH  27  28
ATOM     28  C   UNL A   1      32.620  32.764  27.246  1.00  0.00     0.118 C 
BRANCH  28  29
ATOM     29  N   UNL A   1      32.447  34.096  27.801  1.00  0.00    -0.352 N 
ATOM     30  C   UNL A   1      33.137  34.714  28.812  1.00  0.00     0.251 C 
ATOM     31  H   UNL A   1      31.730  34.633  27.392  1.00  0.00     0.163 HD
ATOM     32  O   UNL A   1      32.711  35.756  29.297  1.00  0.00    -0.269 OA
BRANCH  30  33
ATOM     33  C   UNL A   1      34.383  34.110  29.322  1.00  0.00     0.039 A 
ATOM     34  C   UNL A   1      34.326  33.303  30.458  1.00  0.00     0.014 A 
ATOM     35  C   UNL A   1      35.604  34.348  28.683  1.00  0.00     0.014 A 
ATOM     36  C   UNL A   1      35.488  32.690  30.925  1.00  0.00     0.010 A 
ATOM     37  C   UNL A   1      36.743  33.668  29.095  1.00  0.00     0.010 A 
ATOM     38  C   UNL A   1      36.699  32.842  30.229  1.00  0.00    -0.014 A 
BRANCH  38  39
ATOM     39  C   UNL A   1      37.935  32.158  30.683  1.00  0.00     0.031 A 
ATOM     40  C   UNL A   1      38.756  32.747  31.796  1.00  0.00     0.074 A 
ATOM     41  C   UNL A   1      38.344  31.039  30.054  1.00  0.00     0.049 A 
ATOM     42  N   UNL A   1      39.890  32.327  32.297  1.00  0.00    -0.248 NA
ATOM     43  C   UNL A   1      38.251  33.986  32.409  1.00  0.00     0.031 C 
ATOM     44  C   UNL A   1      37.657  30.402  28.928  1.00  0.00     0.029 A 
ATOM     45  N   UNL A   1      39.440  30.244  30.268  1.00  0.00    -0.354 N 
ATOM     46  C   UNL A   1      40.238  33.255  33.270  1.00  0.00     0.074 A 
ATOM     47  C   UNL A   1      39.230  34.291  33.249  1.00  0.00     0.031 C 
ATOM     48  C   UNL A   1      38.333  29.299  28.569  1.00  0.00     0.029 A 
ATOM     49  C   UNL A   1      39.519  29.174  29.409  1.00  0.00     0.049 A 
ATOM     50  H   UNL A   1      40.106  30.423  30.969  1.00  0.00     0.167 HD
ATOM     51  C   UNL A   1      41.289  33.231  34.123  1.00  0.00     0.037 A 
ATOM     52  C   UNL A   1      40.448  28.205  29.309  1.00  0.00     0.037 A 
ATOM     53  C   UNL A   1      42.279  32.186  34.154  1.00  0.00     0.049 A 
ATOM     54  C   UNL A   1      41.613  28.208  30.260  1.00  0.00     0.074 A 
ATOM     55  C   UNL A   1      43.350  32.038  35.015  1.00  0.00     0.029 A 
ATOM     56  N   UNL A   1      42.317  31.112  33.277  1.00  0.00    -0.354 N 
ATOM     57  N   UNL A   1      41.891  29.052  31.225  1.00  0.00    -0.248 NA
ATOM     58  C   UNL A   1      42.588  27.119  30.115  1.00  0.00     0.031 C 
ATOM     59  C   UNL A   1      44.068  30.903  34.627  1.00  0.00     0.029 A 
ATOM     60  C   UNL A   1      43.410  30.310  33.561  1.00  0.00     0.049 A 
ATOM     61  H   UNL A   1      41.665  30.944  32.558  1.00  0.00     0.167 HD
ATOM     62  C   UNL A   1      43.054  28.579  31.820  1.00  0.00     0.074 A 
ATOM     63  C   UNL A   1      43.420  27.368  31.117  1.00  0.00     0.031 C 
ATOM     64  C   UNL A   1      43.755  29.102  32.856  1.00  0.00     0.037 A 
BRANCH  51  65
ATOM     65  C   UNL A   1      41.420  34.369  35.095  1.00  0.00     0.057 A 
ATOM     66  C   UNL A   1      40.817  34.337  36.360  1.00  0.00     0.134 A 
ATOM     67  C   UNL A   1      42.183  35.500  34.775  1.00  0.00     0.134 A 
ATOM     68  F   UNL A   1      40.062  33.292  36.726  1.00  0.00    -0.206 F 
ATOM     69  C   UNL A   1      40.944  35.398  37.258  1.00  0.00     0.040 A 
ATOM     70  C   UNL A   1      42.343  36.553  35.676  1.00  0.00     0.040 A 
ATOM     71  F   UNL A   1      42.793  35.595  33.583  1.00  0.00    -0.206 F 
ATOM     72  C   UNL A   1      41.716  36.508  36.919  1.00  0.00     0.006 A 
ENDBRANCH  51  65
BRANCH  52  73
ATOM     73  C   UNL A   1      40.304  27.140  28.285  1.00  0.00     0.057 A 
ATOM     74  C   UNL A   1      39.548  25.990  28.541  1.00  0.00     0.134 A 
ATOM     75  C   UNL A   1      40.923  27.238  27.033  1.00  0.00     0.134 A 
ATOM     76  F   UNL A   1      38.943  25.829  29.726  1.00  0.00    -0.206 F 
ATOM     77  C   UNL A   1      39.431  24.966  27.598  1.00  0.00     0.040 A 
ATOM     78  C   UNL A   1      40.792  26.235  26.071  1.00  0.00     0.040 A 
ATOM     79  F   UNL A   1      41.654  28.319  26.721  1.00  0.00    -0.206 F 
ATOM     80  C   UNL A   1      40.051  25.090  26.357  1.00  0.00     0.006 A 
ENDBRANCH  52  73
BRANCH  64  81
ATOM     81  C   UNL A   1      44.965  28.342  33.320  1.00  0.00     0.057 A 
ATOM     82  C   UNL A   1      44.889  27.356  34.311  1.00  0.00     0.134 A 
ATOM     83  C   UNL A   1      46.216  28.576  32.734  1.00  0.00     0.134 A 
ATOM     84  F   UNL A   1      43.722  27.093  34.920  1.00  0.00    -0.206 F 
ATOM     85  C   UNL A   1      46.018  26.646  34.720  1.00  0.00     0.040 A 
ATOM     86  C   UNL A   1      47.346  27.851  33.114  1.00  0.00     0.040 A 
ATOM     87  F   UNL A   1      46.357  29.499  31.771  1.00  0.00    -0.206 F 
ATOM     88  C   UNL A   1      47.250  26.887  34.115  1.00  0.00     0.006 A 
ENDBRANCH  64  81
ENDBRANCH  38  39
ENDBRANCH  30  33
ENDBRANCH  28  29
ENDBRANCH  27  28
ENDBRANCH  26  27
ENDBRANCH   3  26
TORSDOF 16
ENDMDL
