MODEL 1
REMARK VINA RESULT:     -10.9      0.000      0.000
REMARK SMILES CCc1cccc(NC(=O)NCC(=O)NCCCNC(=O)c2ccc(-c3c4nc(c(-c5c(F)cccc5F)c5ccc([nH]5)c(-c5c(F)cccc5F)c5nc(c(-c6c(F)cccc6F)c6ccc3[nH]6)C=C5)C=C4)cc2)c1
REMARK SMILES IDX 16 1 15 2 13 3 14 4 12 6 11 7 8 8 9 9 10 11 7 13 3 14 4 15
REMARK SMILES IDX 76 16 5 17 6 18 2 19 1 20 17 21 18 22 19 23 20 24 21 26
REMARK SMILES IDX 22 27 23 28 75 29 24 30 74 31 25 32 26 33 27 34 68 35 28 36
REMARK SMILES IDX 73 37 67 38 69 39 29 40 72 41 66 42 65 43 30 45 56 46 39 47
REMARK SMILES IDX 55 48 40 49 43 50 54 51 70 52 41 53 42 54 53 56 71 57 44 58
REMARK SMILES IDX 31 59 32 60 37 61 33 62 34 63 36 64 38 65 35 66 57 67 58 68
REMARK SMILES IDX 63 69 59 70 60 71 62 72 64 73 61 74 45 75 46 76 51 77 47 78
REMARK SMILES IDX 48 79 50 80 52 81 49 82
REMARK H PARENT 15 5 8 10 11 12 19 25 69 44 43 55
REMARK Flexibility Score: inf
ROOT
ATOM      1  C   UNL A   1      33.279  34.196  28.013  1.00  0.00     0.117 C 
ENDROOT
BRANCH   1   2
ATOM      2  N   UNL A   1      33.284  35.612  28.330  1.00  0.00    -0.355 N 
ATOM      3  C   UNL A   1      33.077  36.283  29.494  1.00  0.00     0.239 C 
ATOM      4  O   UNL A   1      33.277  37.504  29.461  1.00  0.00    -0.273 OA
ATOM      5  H   UNL A   1      33.473  36.193  27.559  1.00  0.00     0.163 HD
BRANCH   3   6
ATOM      6  C   UNL A   1      32.737  35.612  30.841  1.00  0.00     0.217 C 
BRANCH   6   7
ATOM      7  N   UNL A   1      32.891  36.339  32.079  1.00  0.00    -0.329 N 
ATOM      8  N   UNL A   1      34.898  35.724  33.257  1.00  0.00    -0.308 N 
ATOM      9  C   UNL A   1      33.834  36.489  33.000  1.00  0.00     0.319 C 
ATOM     10  H   UNL A   1      35.460  36.172  33.929  1.00  0.00     0.171 HD
ATOM     11  O   UNL A   1      33.672  37.455  33.760  1.00  0.00    -0.248 OA
ATOM     12  H   UNL A   1      32.085  36.860  32.296  1.00  0.00     0.165 HD
BRANCH   8  13
ATOM     13  C   UNL A   1      35.498  34.499  32.904  1.00  0.00     0.043 A 
ATOM     14  C   UNL A   1      37.275  33.449  31.544  1.00  0.00    -0.046 A 
ATOM     15  C   UNL A   1      36.911  32.201  32.049  1.00  0.00     0.004 A 
ATOM     16  C   UNL A   1      36.541  34.579  31.961  1.00  0.00     0.029 A 
ATOM     17  C   UNL A   1      35.893  32.103  32.988  1.00  0.00     0.002 A 
ATOM     18  C   UNL A   1      35.214  33.245  33.420  1.00  0.00     0.026 A 
BRANCH  14  19
ATOM     19  C   UNL A   1      38.427  33.642  30.583  1.00  0.00     0.032 C 
ATOM     20  C   UNL A   1      38.150  33.298  29.123  1.00  0.00     0.009 C 
ENDBRANCH  14  19
ENDBRANCH   8  13
ENDBRANCH   6   7
ENDBRANCH   3   6
ENDBRANCH   1   2
BRANCH   1  21
ATOM     21  C   UNL A   1      34.640  33.545  28.196  1.00  0.00     0.042 C 
BRANCH  21  22
ATOM     22  C   UNL A   1      34.599  32.346  29.137  1.00  0.00     0.118 C 
BRANCH  22  23
ATOM     23  N   UNL A   1      34.086  31.141  28.493  1.00  0.00    -0.352 N 
ATOM     24  C   UNL A   1      34.749  30.019  28.058  1.00  0.00     0.251 C 
ATOM     25  H   UNL A   1      33.113  31.131  28.345  1.00  0.00     0.163 HD
ATOM     26  O   UNL A   1      34.151  29.175  27.395  1.00  0.00    -0.269 OA
BRANCH  24  27
ATOM     27  C   UNL A   1      36.185  29.837  28.355  1.00  0.00     0.039 A 
ATOM     28  C   UNL A   1      36.560  29.398  29.628  1.00  0.00     0.014 A 
ATOM     29  C   UNL A   1      37.160  30.085  27.385  1.00  0.00     0.014 A 
ATOM     30  C   UNL A   1      37.901  29.121  29.898  1.00  0.00     0.010 A 
ATOM     31  C   UNL A   1      38.483  29.729  27.629  1.00  0.00     0.010 A 
ATOM     32  C   UNL A   1      38.866  29.234  28.884  1.00  0.00    -0.014 A 
BRANCH  32  33
ATOM     33  C   UNL A   1      40.270  28.804  29.104  1.00  0.00     0.031 A 
ATOM     34  C   UNL A   1      41.267  29.747  29.719  1.00  0.00     0.074 A 
ATOM     35  C   UNL A   1      40.666  27.590  28.671  1.00  0.00     0.049 A 
ATOM     36  N   UNL A   1      42.552  29.580  29.909  1.00  0.00    -0.248 NA
ATOM     37  C   UNL A   1      40.762  31.059  30.152  1.00  0.00     0.031 C 
ATOM     38  C   UNL A   1      39.807  26.605  28.009  1.00  0.00     0.029 A 
ATOM     39  N   UNL A   1      41.895  26.982  28.712  1.00  0.00    -0.354 N 
ATOM     40  C   UNL A   1      43.008  30.768  30.465  1.00  0.00     0.074 A 
ATOM     41  C   UNL A   1      41.875  31.663  30.540  1.00  0.00     0.031 C 
ATOM     42  C   UNL A   1      40.529  25.509  27.728  1.00  0.00     0.029 A 
ATOM     43  C   UNL A   1      41.909  25.728  28.150  1.00  0.00     0.049 A 
ATOM     44  H   UNL A   1      42.692  27.404  29.106  1.00  0.00     0.167 HD
ATOM     45  C   UNL A   1      44.255  31.076  30.893  1.00  0.00     0.037 A 
ATOM     46  C   UNL A   1      42.920  24.856  27.984  1.00  0.00     0.037 A 
ATOM     47  C   UNL A   1      45.374  30.172  30.848  1.00  0.00     0.049 A 
ATOM     48  C   UNL A   1      44.295  25.227  28.467  1.00  0.00     0.074 A 
ATOM     49  C   UNL A   1      46.658  30.366  31.328  1.00  0.00     0.029 A 
ATOM     50  N   UNL A   1      45.344  28.905  30.286  1.00  0.00    -0.354 N 
ATOM     51  N   UNL A   1      44.695  26.324  29.060  1.00  0.00    -0.248 NA
ATOM     52  C   UNL A   1      45.360  24.234  28.258  1.00  0.00     0.031 C 
ATOM     53  C   UNL A   1      47.416  29.233  31.019  1.00  0.00     0.029 A 
ATOM     54  C   UNL A   1      46.593  28.315  30.386  1.00  0.00     0.049 A 
ATOM     55  H   UNL A   1      44.552  28.486  29.879  1.00  0.00     0.167 HD
ATOM     56  C   UNL A   1      46.047  26.147  29.318  1.00  0.00     0.074 A 
ATOM     57  C   UNL A   1      46.396  24.828  28.832  1.00  0.00     0.031 C 
ATOM     58  C   UNL A   1      46.923  26.999  29.903  1.00  0.00     0.037 A 
BRANCH  45  59
ATOM     59  C   UNL A   1      44.478  32.447  31.460  1.00  0.00     0.057 A 
ATOM     60  C   UNL A   1      44.820  33.534  30.645  1.00  0.00     0.134 A 
ATOM     61  C   UNL A   1      44.295  32.696  32.826  1.00  0.00     0.134 A 
ATOM     62  F   UNL A   1      45.022  33.362  29.330  1.00  0.00    -0.206 F 
ATOM     63  C   UNL A   1      44.990  34.816  31.171  1.00  0.00     0.040 A 
ATOM     64  C   UNL A   1      44.436  33.978  33.360  1.00  0.00     0.040 A 
ATOM     65  F   UNL A   1      43.961  31.700  33.660  1.00  0.00    -0.206 F 
ATOM     66  C   UNL A   1      44.789  35.041  32.532  1.00  0.00     0.006 A 
ENDBRANCH  45  59
BRANCH  46  67
ATOM     67  C   UNL A   1      42.675  23.538  27.345  1.00  0.00     0.057 A 
ATOM     68  C   UNL A   1      42.272  22.433  28.103  1.00  0.00     0.134 A 
ATOM     69  C   UNL A   1      42.859  23.345  25.970  1.00  0.00     0.134 A 
ATOM     70  F   UNL A   1      42.100  22.552  29.428  1.00  0.00    -0.206 F 
ATOM     71  C   UNL A   1      42.081  21.178  27.524  1.00  0.00     0.040 A 
ATOM     72  C   UNL A   1      42.646  22.101  25.373  1.00  0.00     0.040 A 
ATOM     73  F   UNL A   1      43.240  24.365  25.188  1.00  0.00    -0.206 F 
ATOM     74  C   UNL A   1      42.266  21.011  26.153  1.00  0.00     0.006 A 
ENDBRANCH  46  67
BRANCH  58  75
ATOM     75  C   UNL A   1      48.334  26.520  30.074  1.00  0.00     0.057 A 
ATOM     76  C   UNL A   1      48.738  25.809  31.210  1.00  0.00     0.134 A 
ATOM     77  C   UNL A   1      49.290  26.746  29.075  1.00  0.00     0.134 A 
ATOM     78  F   UNL A   1      47.874  25.574  32.209  1.00  0.00    -0.206 F 
ATOM     79  C   UNL A   1      50.051  25.357  31.358  1.00  0.00     0.040 A 
ATOM     80  C   UNL A   1      50.598  26.276  29.200  1.00  0.00     0.040 A 
ATOM     81  F   UNL A   1      48.964  27.414  27.958  1.00  0.00    -0.206 F 
ATOM     82  C   UNL A   1      50.983  25.586  30.347  1.00  0.00     0.006 A 
ENDBRANCH  58  75
ENDBRANCH  32  33
ENDBRANCH  24  27
ENDBRANCH  22  23
ENDBRANCH  21  22
ENDBRANCH   1  21
TORSDOF 13
ENDMDL
MODEL 2
REMARK VINA RESULT:     -10.5      4.341      9.293
REMARK SMILES CCc1cccc(NC(=O)NCC(=O)NCCCNC(=O)c2ccc(-c3c4nc(c(-c5c(F)cccc5F)c5ccc([nH]5)c(-c5c(F)cccc5F)c5nc(c(-c6c(F)cccc6F)c6ccc3[nH]6)C=C5)C=C4)cc2)c1
REMARK SMILES IDX 16 1 15 2 13 3 14 4 12 6 11 7 8 8 9 9 10 11 7 13 3 14 4 15
REMARK SMILES IDX 76 16 5 17 6 18 2 19 1 20 17 21 18 22 19 23 20 24 21 26
REMARK SMILES IDX 22 27 23 28 75 29 24 30 74 31 25 32 26 33 27 34 68 35 28 36
REMARK SMILES IDX 73 37 67 38 69 39 29 40 72 41 66 42 65 43 30 45 56 46 39 47
REMARK SMILES IDX 55 48 40 49 43 50 54 51 70 52 41 53 42 54 53 56 71 57 44 58
REMARK SMILES IDX 31 59 32 60 37 61 33 62 34 63 36 64 38 65 35 66 57 67 58 68
REMARK SMILES IDX 63 69 59 70 60 71 62 72 64 73 61 74 45 75 46 76 51 77 47 78
REMARK SMILES IDX 48 79 50 80 52 81 49 82
REMARK H PARENT 15 5 8 10 11 12 19 25 69 44 43 55
REMARK Flexibility Score: inf
ROOT
ATOM      1  C   UNL A   1      35.747  21.159  25.541  1.00  0.00     0.117 C 
ENDROOT
BRANCH   1   2
ATOM      2  N   UNL A   1      34.559  20.326  25.529  1.00  0.00    -0.355 N 
ATOM      3  C   UNL A   1      33.236  20.630  25.595  1.00  0.00     0.239 C 
ATOM      4  O   UNL A   1      32.452  19.687  25.432  1.00  0.00    -0.273 OA
ATOM      5  H   UNL A   1      34.747  19.362  25.459  1.00  0.00     0.163 HD
BRANCH   3   6
ATOM      6  C   UNL A   1      32.674  22.061  25.736  1.00  0.00     0.217 C 
BRANCH   6   7
ATOM      7  N   UNL A   1      31.548  22.321  26.602  1.00  0.00    -0.329 N 
ATOM      8  N   UNL A   1      30.961  24.655  26.661  1.00  0.00    -0.308 N 
ATOM      9  C   UNL A   1      30.760  23.353  26.877  1.00  0.00     0.319 C 
ATOM     10  H   UNL A   1      30.137  25.146  26.878  1.00  0.00     0.171 HD
ATOM     11  O   UNL A   1      29.708  23.063  27.465  1.00  0.00    -0.248 OA
ATOM     12  H   UNL A   1      31.300  21.525  27.123  1.00  0.00     0.165 HD
BRANCH   8  13
ATOM     13  C   UNL A   1      31.939  25.572  26.230  1.00  0.00     0.043 A 
ATOM     14  C   UNL A   1      32.821  27.862  26.536  1.00  0.00    -0.046 A 
ATOM     15  C   UNL A   1      33.809  27.597  25.588  1.00  0.00     0.004 A 
ATOM     16  C   UNL A   1      31.881  26.850  26.823  1.00  0.00     0.029 A 
ATOM     17  C   UNL A   1      33.889  26.341  25.002  1.00  0.00     0.002 A 
ATOM     18  C   UNL A   1      32.974  25.340  25.340  1.00  0.00     0.026 A 
BRANCH  14  19
ATOM     19  C   UNL A   1      32.724  29.178  27.275  1.00  0.00     0.032 C 
ATOM     20  C   UNL A   1      31.867  30.256  26.620  1.00  0.00     0.009 C 
ENDBRANCH  14  19
ENDBRANCH   8  13
ENDBRANCH   6   7
ENDBRANCH   3   6
ENDBRANCH   1   2
BRANCH   1  21
ATOM     21  C   UNL A   1      36.947  20.485  24.895  1.00  0.00     0.042 C 
BRANCH  21  22
ATOM     22  C   UNL A   1      38.265  20.860  25.562  1.00  0.00     0.118 C 
BRANCH  22  23
ATOM     23  N   UNL A   1      39.229  19.764  25.563  1.00  0.00    -0.352 N 
ATOM     24  C   UNL A   1      40.558  19.754  25.910  1.00  0.00     0.251 C 
ATOM     25  H   UNL A   1      38.871  18.897  25.267  1.00  0.00     0.163 HD
ATOM     26  O   UNL A   1      41.239  18.756  25.690  1.00  0.00    -0.269 OA
BRANCH  24  27
ATOM     27  C   UNL A   1      41.181  20.948  26.517  1.00  0.00     0.039 A 
ATOM     28  C   UNL A   1      41.774  21.899  25.680  1.00  0.00     0.014 A 
ATOM     29  C   UNL A   1      41.175  21.142  27.901  1.00  0.00     0.014 A 
ATOM     30  C   UNL A   1      42.276  23.083  26.223  1.00  0.00     0.010 A 
ATOM     31  C   UNL A   1      41.600  22.357  28.431  1.00  0.00     0.010 A 
ATOM     32  C   UNL A   1      42.144  23.344  27.597  1.00  0.00    -0.014 A 
BRANCH  32  33
ATOM     33  C   UNL A   1      42.535  24.655  28.174  1.00  0.00     0.031 A 
ATOM     34  C   UNL A   1      41.508  25.733  28.380  1.00  0.00     0.074 A 
ATOM     35  C   UNL A   1      43.835  24.902  28.433  1.00  0.00     0.049 A 
ATOM     36  N   UNL A   1      41.674  26.965  28.789  1.00  0.00    -0.248 NA
ATOM     37  C   UNL A   1      40.112  25.391  28.060  1.00  0.00     0.031 C 
ATOM     38  C   UNL A   1      44.936  23.958  28.224  1.00  0.00     0.029 A 
ATOM     39  N   UNL A   1      44.453  26.027  28.918  1.00  0.00    -0.354 N 
ATOM     40  C   UNL A   1      40.415  27.548  28.757  1.00  0.00     0.074 A 
ATOM     41  C   UNL A   1      39.500  26.551  28.247  1.00  0.00     0.031 C 
ATOM     42  C   UNL A   1      46.088  24.535  28.600  1.00  0.00     0.029 A 
ATOM     43  C   UNL A   1      45.816  25.900  29.036  1.00  0.00     0.049 A 
ATOM     44  H   UNL A   1      43.966  26.848  29.158  1.00  0.00     0.167 HD
ATOM     45  C   UNL A   1      40.050  28.795  29.139  1.00  0.00     0.037 A 
ATOM     46  C   UNL A   1      46.744  26.787  29.441  1.00  0.00     0.037 A 
ATOM     47  C   UNL A   1      40.957  29.774  29.677  1.00  0.00     0.049 A 
ATOM     48  C   UNL A   1      46.311  28.165  29.857  1.00  0.00     0.074 A 
ATOM     49  C   UNL A   1      40.669  31.038  30.164  1.00  0.00     0.029 A 
ATOM     50  N   UNL A   1      42.327  29.602  29.797  1.00  0.00    -0.354 N 
ATOM     51  N   UNL A   1      45.105  28.676  29.893  1.00  0.00    -0.248 NA
ATOM     52  C   UNL A   1      47.369  29.089  30.288  1.00  0.00     0.031 C 
ATOM     53  C   UNL A   1      41.871  31.647  30.538  1.00  0.00     0.029 A 
ATOM     54  C   UNL A   1      42.902  30.745  30.326  1.00  0.00     0.049 A 
ATOM     55  H   UNL A   1      42.818  28.788  29.544  1.00  0.00     0.167 HD
ATOM     56  C   UNL A   1      45.255  29.970  30.374  1.00  0.00     0.074 A 
ATOM     57  C   UNL A   1      46.667  30.160  30.633  1.00  0.00     0.031 C 
ATOM     58  C   UNL A   1      44.309  30.917  30.583  1.00  0.00     0.037 A 
BRANCH  45  59
ATOM     59  C   UNL A   1      38.605  29.172  28.999  1.00  0.00     0.057 A 
ATOM     60  C   UNL A   1      37.729  29.153  30.091  1.00  0.00     0.134 A 
ATOM     61  C   UNL A   1      38.097  29.613  27.770  1.00  0.00     0.134 A 
ATOM     62  F   UNL A   1      38.149  28.731  31.294  1.00  0.00    -0.206 F 
ATOM     63  C   UNL A   1      36.394  29.542  29.963  1.00  0.00     0.040 A 
ATOM     64  C   UNL A   1      36.771  30.029  27.635  1.00  0.00     0.040 A 
ATOM     65  F   UNL A   1      38.884  29.661  26.685  1.00  0.00    -0.206 F 
ATOM     66  C   UNL A   1      35.915  29.989  28.733  1.00  0.00     0.006 A 
ENDBRANCH  45  59
BRANCH  46  67
ATOM     67  C   UNL A   1      48.178  26.400  29.490  1.00  0.00     0.057 A 
ATOM     68  C   UNL A   1      48.718  25.778  30.621  1.00  0.00     0.134 A 
ATOM     69  C   UNL A   1      49.044  26.661  28.421  1.00  0.00     0.134 A 
ATOM     70  F   UNL A   1      47.941  25.521  31.684  1.00  0.00    -0.206 F 
ATOM     71  C   UNL A   1      50.072  25.450  30.699  1.00  0.00     0.040 A 
ATOM     72  C   UNL A   1      50.395  26.314  28.476  1.00  0.00     0.040 A 
ATOM     73  F   UNL A   1      48.587  27.250  27.307  1.00  0.00    -0.206 F 
ATOM     74  C   UNL A   1      50.914  25.716  29.622  1.00  0.00     0.006 A 
ENDBRANCH  46  67
BRANCH  58  75
ATOM     75  C   UNL A   1      44.767  32.231  31.142  1.00  0.00     0.057 A 
ATOM     76  C   UNL A   1      45.142  33.295  30.312  1.00  0.00     0.134 A 
ATOM     77  C   UNL A   1      44.801  32.444  32.526  1.00  0.00     0.134 A 
ATOM     78  F   UNL A   1      45.144  33.149  28.979  1.00  0.00    -0.206 F 
ATOM     79  C   UNL A   1      45.557  34.519  30.840  1.00  0.00     0.040 A 
ATOM     80  C   UNL A   1      45.190  33.671  33.065  1.00  0.00     0.040 A 
ATOM     81  F   UNL A   1      44.447  31.467  33.375  1.00  0.00    -0.206 F 
ATOM     82  C   UNL A   1      45.575  34.710  32.221  1.00  0.00     0.006 A 
ENDBRANCH  58  75
ENDBRANCH  32  33
ENDBRANCH  24  27
ENDBRANCH  22  23
ENDBRANCH  21  22
ENDBRANCH   1  21
TORSDOF 13
ENDMDL
MODEL 3
REMARK VINA RESULT:     -10.4      4.316      9.541
REMARK SMILES CCc1cccc(NC(=O)NCC(=O)NCCCNC(=O)c2ccc(-c3c4nc(c(-c5c(F)cccc5F)c5ccc([nH]5)c(-c5c(F)cccc5F)c5nc(c(-c6c(F)cccc6F)c6ccc3[nH]6)C=C5)C=C4)cc2)c1
REMARK SMILES IDX 16 1 15 2 13 3 14 4 12 6 11 7 8 8 9 9 10 11 7 13 3 14 4 15
REMARK SMILES IDX 76 16 5 17 6 18 2 19 1 20 17 21 18 22 19 23 20 24 21 26
REMARK SMILES IDX 22 27 23 28 75 29 24 30 74 31 25 32 26 33 27 34 68 35 28 36
REMARK SMILES IDX 73 37 67 38 69 39 29 40 72 41 66 42 65 43 30 45 56 46 39 47
REMARK SMILES IDX 55 48 40 49 43 50 54 51 70 52 41 53 42 54 53 56 71 57 44 58
REMARK SMILES IDX 31 59 32 60 37 61 33 62 34 63 36 64 38 65 35 66 57 67 58 68
REMARK SMILES IDX 63 69 59 70 60 71 62 72 64 73 61 74 45 75 46 76 51 77 47 78
REMARK SMILES IDX 48 79 50 80 52 81 49 82
REMARK H PARENT 15 5 8 10 11 12 19 25 69 44 43 55
REMARK Flexibility Score: inf
ROOT
ATOM      1  C   UNL A   1      35.949  21.003  25.351  1.00  0.00     0.117 C 
ENDROOT
BRANCH   1   2
ATOM      2  N   UNL A   1      34.704  20.259  25.360  1.00  0.00    -0.355 N 
ATOM      3  C   UNL A   1      33.425  20.632  25.627  1.00  0.00     0.239 C 
ATOM      4  O   UNL A   1      32.554  19.777  25.424  1.00  0.00    -0.273 OA
ATOM      5  H   UNL A   1      34.805  19.308  25.129  1.00  0.00     0.163 HD
BRANCH   3   6
ATOM      6  C   UNL A   1      32.998  22.057  26.041  1.00  0.00     0.217 C 
BRANCH   6   7
ATOM      7  N   UNL A   1      31.792  22.265  26.807  1.00  0.00    -0.329 N 
ATOM      8  N   UNL A   1      31.041  24.550  26.729  1.00  0.00    -0.308 N 
ATOM      9  C   UNL A   1      30.915  23.245  26.981  1.00  0.00     0.319 C 
ATOM     10  H   UNL A   1      30.171  24.988  26.863  1.00  0.00     0.171 HD
ATOM     11  O   UNL A   1      29.842  22.900  27.498  1.00  0.00    -0.248 OA
ATOM     12  H   UNL A   1      31.559  21.471  27.339  1.00  0.00     0.165 HD
BRANCH   8  13
ATOM     13  C   UNL A   1      31.984  25.521  26.339  1.00  0.00     0.043 A 
ATOM     14  C   UNL A   1      32.651  27.890  26.581  1.00  0.00    -0.046 A 
ATOM     15  C   UNL A   1      33.748  27.656  25.754  1.00  0.00     0.004 A 
ATOM     16  C   UNL A   1      31.767  26.820  26.839  1.00  0.00     0.029 A 
ATOM     17  C   UNL A   1      33.985  26.380  25.260  1.00  0.00     0.002 A 
ATOM     18  C   UNL A   1      33.121  25.327  25.571  1.00  0.00     0.026 A 
BRANCH  14  19
ATOM     19  C   UNL A   1      32.376  29.232  27.222  1.00  0.00     0.032 C 
ATOM     20  C   UNL A   1      32.194  30.408  26.268  1.00  0.00     0.009 C 
ENDBRANCH  14  19
ENDBRANCH   8  13
ENDBRANCH   6   7
ENDBRANCH   3   6
ENDBRANCH   1   2
BRANCH   1  21
ATOM     21  C   UNL A   1      37.144  20.150  24.957  1.00  0.00     0.042 C 
BRANCH  21  22
ATOM     22  C   UNL A   1      38.450  20.645  25.568  1.00  0.00     0.118 C 
BRANCH  22  23
ATOM     23  N   UNL A   1      39.475  19.607  25.626  1.00  0.00    -0.352 N 
ATOM     24  C   UNL A   1      40.797  19.688  25.990  1.00  0.00     0.251 C 
ATOM     25  H   UNL A   1      39.171  18.709  25.362  1.00  0.00     0.163 HD
ATOM     26  O   UNL A   1      41.537  18.722  25.820  1.00  0.00    -0.269 OA
BRANCH  24  27
ATOM     27  C   UNL A   1      41.342  20.940  26.554  1.00  0.00     0.039 A 
ATOM     28  C   UNL A   1      41.960  21.854  25.695  1.00  0.00     0.014 A 
ATOM     29  C   UNL A   1      41.239  21.223  27.918  1.00  0.00     0.014 A 
ATOM     30  C   UNL A   1      42.389  23.087  26.188  1.00  0.00     0.010 A 
ATOM     31  C   UNL A   1      41.590  22.484  28.391  1.00  0.00     0.010 A 
ATOM     32  C   UNL A   1      42.159  23.432  27.530  1.00  0.00    -0.014 A 
BRANCH  32  33
ATOM     33  C   UNL A   1      42.471  24.791  28.041  1.00  0.00     0.031 A 
ATOM     34  C   UNL A   1      43.866  25.136  28.482  1.00  0.00     0.074 A 
ATOM     35  C   UNL A   1      41.476  25.688  28.185  1.00  0.00     0.049 A 
ATOM     36  N   UNL A   1      44.309  26.238  29.034  1.00  0.00    -0.248 NA
ATOM     37  C   UNL A   1      44.895  24.099  28.307  1.00  0.00     0.031 C 
ATOM     38  C   UNL A   1      40.069  25.456  27.844  1.00  0.00     0.029 A 
ATOM     39  N   UNL A   1      41.490  26.973  28.667  1.00  0.00    -0.354 N 
ATOM     40  C   UNL A   1      45.656  26.020  29.287  1.00  0.00     0.074 A 
ATOM     41  C   UNL A   1      45.951  24.666  28.871  1.00  0.00     0.031 C 
ATOM     42  C   UNL A   1      39.364  26.567  28.106  1.00  0.00     0.029 A 
ATOM     43  C   UNL A   1      40.255  27.575  28.670  1.00  0.00     0.049 A 
ATOM     44  H   UNL A   1      42.309  27.421  28.981  1.00  0.00     0.167 HD
ATOM     45  C   UNL A   1      46.570  26.877  29.800  1.00  0.00     0.037 A 
ATOM     46  C   UNL A   1      39.881  28.798  29.090  1.00  0.00     0.037 A 
ATOM     47  C   UNL A   1      46.281  28.234  30.183  1.00  0.00     0.049 A 
ATOM     48  C   UNL A   1      40.916  29.728  29.658  1.00  0.00     0.074 A 
ATOM     49  C   UNL A   1      47.157  29.205  30.640  1.00  0.00     0.029 A 
ATOM     50  N   UNL A   1      45.022  28.813  30.156  1.00  0.00    -0.354 N 
ATOM     51  N   UNL A   1      42.202  29.533  29.820  1.00  0.00    -0.248 NA
ATOM     52  C   UNL A   1      40.448  31.049  30.101  1.00  0.00     0.031 C 
ATOM     53  C   UNL A   1      46.420  30.357  30.931  1.00  0.00     0.029 A 
ATOM     54  C   UNL A   1      45.092  30.118  30.612  1.00  0.00     0.049 A 
ATOM     55  H   UNL A   1      44.200  28.363  29.856  1.00  0.00     0.167 HD
ATOM     56  C   UNL A   1      42.700  30.713  30.358  1.00  0.00     0.074 A 
ATOM     57  C   UNL A   1      41.581  31.624  30.479  1.00  0.00     0.031 C 
ATOM     58  C   UNL A   1      43.970  31.015  30.721  1.00  0.00     0.037 A 
BRANCH  45  59
ATOM     59  C   UNL A   1      47.974  26.379  29.970  1.00  0.00     0.057 A 
ATOM     60  C   UNL A   1      48.401  25.770  31.157  1.00  0.00     0.134 A 
ATOM     61  C   UNL A   1      48.895  26.459  28.918  1.00  0.00     0.134 A 
ATOM     62  F   UNL A   1      47.573  25.672  32.208  1.00  0.00    -0.206 F 
ATOM     63  C   UNL A   1      49.699  25.274  31.298  1.00  0.00     0.040 A 
ATOM     64  C   UNL A   1      50.187  25.944  29.037  1.00  0.00     0.040 A 
ATOM     65  F   UNL A   1      48.549  27.026  27.752  1.00  0.00    -0.206 F 
ATOM     66  C   UNL A   1      50.593  25.353  30.231  1.00  0.00     0.006 A 
ENDBRANCH  45  59
BRANCH  46  67
ATOM     67  C   UNL A   1      38.463  29.225  28.979  1.00  0.00     0.057 A 
ATOM     68  C   UNL A   1      37.941  29.681  27.763  1.00  0.00     0.134 A 
ATOM     69  C   UNL A   1      37.604  29.210  30.085  1.00  0.00     0.134 A 
ATOM     70  F   UNL A   1      38.722  29.737  26.674  1.00  0.00    -0.206 F 
ATOM     71  C   UNL A   1      36.624  30.128  27.654  1.00  0.00     0.040 A 
ATOM     72  C   UNL A   1      36.276  29.630  29.984  1.00  0.00     0.040 A 
ATOM     73  F   UNL A   1      38.042  28.780  31.277  1.00  0.00    -0.206 F 
ATOM     74  C   UNL A   1      35.786  30.100  28.767  1.00  0.00     0.006 A 
ENDBRANCH  46  67
BRANCH  58  75
ATOM     75  C   UNL A   1      44.220  32.393  31.255  1.00  0.00     0.057 A 
ATOM     76  C   UNL A   1      44.508  33.471  30.409  1.00  0.00     0.134 A 
ATOM     77  C   UNL A   1      44.139  32.651  32.630  1.00  0.00     0.134 A 
ATOM     78  F   UNL A   1      44.615  33.286  29.085  1.00  0.00    -0.206 F 
ATOM     79  C   UNL A   1      44.729  34.754  30.914  1.00  0.00     0.040 A 
ATOM     80  C   UNL A   1      44.331  33.934  33.143  1.00  0.00     0.040 A 
ATOM     81  F   UNL A   1      43.858  31.663  33.493  1.00  0.00    -0.206 F 
ATOM     82  C   UNL A   1      44.634  34.988  32.285  1.00  0.00     0.006 A 
ENDBRANCH  58  75
ENDBRANCH  32  33
ENDBRANCH  24  27
ENDBRANCH  22  23
ENDBRANCH  21  22
ENDBRANCH   1  21
TORSDOF 13
ENDMDL
