MODEL 1
REMARK VINA RESULT:     -11.1      0.000      0.000
REMARK SMILES CC(C)CC[C@H](C(=O)NCCCNC(=O)c1ccc(-c2c3nc(c(-c4c(F)cccc4F)c4ccc([nH]4)c(-c4c(F)cccc4F)c4nc(c(-c5c(F)cccc5F)c5ccc2[nH]5)C=C4)C=C3)cc1)c1ccc(F)cc1
REMARK SMILES IDX 10 1 9 2 7 3 8 4 6 6 5 7 4 8 2 9 1 10 3 11 70 12 71 13 76 14
REMARK SMILES IDX 72 15 75 16 73 17 74 18 11 19 12 20 13 21 14 22 15 24 16 25
REMARK SMILES IDX 17 26 69 27 18 28 68 29 19 30 20 31 21 32 62 33 22 34 67 35
REMARK SMILES IDX 61 36 63 37 23 38 66 39 60 40 59 41 24 43 50 44 33 45 49 46
REMARK SMILES IDX 34 47 37 48 48 49 64 50 35 51 36 52 47 54 65 55 38 56 25 57
REMARK SMILES IDX 26 58 31 59 27 60 28 61 30 62 32 63 29 64 51 65 52 66 57 67
REMARK SMILES IDX 53 68 54 69 56 70 58 71 55 72 39 73 40 74 45 75 41 76 42 77
REMARK SMILES IDX 44 78 46 79 43 80
REMARK H PARENT 9 5 13 23 63 42 37 53
REMARK Flexibility Score: inf
ROOT
ATOM      1  C   UNL A   1      37.077  20.766  24.629  1.00  0.00     0.117 C 
ENDROOT
BRANCH   1   2
ATOM      2  N   UNL A   1      36.192  21.038  25.745  1.00  0.00    -0.356 N 
ATOM      3  C   UNL A   1      34.840  21.105  25.856  1.00  0.00     0.227 C 
ATOM      4  O   UNL A   1      34.395  21.453  26.957  1.00  0.00    -0.274 OA
ATOM      5  H   UNL A   1      36.666  21.209  26.591  1.00  0.00     0.163 HD
BRANCH   3   6
ATOM      6  C   UNL A   1      33.873  20.695  24.742  1.00  0.00     0.108 C 
BRANCH   6   7
ATOM      7  C   UNL A   1      32.819  19.632  25.099  1.00  0.00     0.018 C 
BRANCH   7   8
ATOM      8  C   UNL A   1      33.031  18.116  24.840  1.00  0.00     0.004 C 
BRANCH   8   9
ATOM      9  C   UNL A   1      34.330  17.488  24.287  1.00  0.00    -0.017 C 
ATOM     10  C   UNL A   1      34.888  16.282  25.048  1.00  0.00     0.007 C 
ATOM     11  C   UNL A   1      34.028  16.954  22.872  1.00  0.00     0.007 C 
ENDBRANCH   8   9
ENDBRANCH   7   8
ENDBRANCH   6   7
BRANCH   6  12
ATOM     12  C   UNL A   1      33.354  21.991  24.083  1.00  0.00    -0.035 A 
ATOM     13  C   UNL A   1      34.165  22.919  23.411  1.00  0.00     0.007 A 
ATOM     14  C   UNL A   1      31.959  22.225  24.099  1.00  0.00     0.007 A 
ATOM     15  C   UNL A   1      33.595  24.015  22.749  1.00  0.00     0.039 A 
ATOM     16  C   UNL A   1      31.392  23.309  23.427  1.00  0.00     0.039 A 
ATOM     17  C   UNL A   1      32.217  24.193  22.752  1.00  0.00     0.123 A 
ATOM     18  F   UNL A   1      31.678  25.224  22.088  1.00  0.00    -0.207 F 
ENDBRANCH   6  12
ENDBRANCH   3   6
ENDBRANCH   1   2
BRANCH   1  19
ATOM     19  C   UNL A   1      38.043  19.620  24.926  1.00  0.00     0.042 C 
BRANCH  19  20
ATOM     20  C   UNL A   1      39.060  19.924  26.022  1.00  0.00     0.118 C 
BRANCH  20  21
ATOM     21  N   UNL A   1      40.163  18.984  26.017  1.00  0.00    -0.352 N 
ATOM     22  C   UNL A   1      41.510  19.243  26.065  1.00  0.00     0.251 C 
ATOM     23  H   UNL A   1      39.913  18.032  25.973  1.00  0.00     0.163 HD
ATOM     24  O   UNL A   1      42.316  18.351  25.831  1.00  0.00    -0.269 OA
BRANCH  22  25
ATOM     25  C   UNL A   1      41.990  20.607  26.386  1.00  0.00     0.039 A 
ATOM     26  C   UNL A   1      42.169  20.958  27.725  1.00  0.00     0.014 A 
ATOM     27  C   UNL A   1      42.221  21.547  25.377  1.00  0.00     0.014 A 
ATOM     28  C   UNL A   1      42.596  22.247  28.054  1.00  0.00     0.010 A 
ATOM     29  C   UNL A   1      42.711  22.811  25.703  1.00  0.00     0.010 A 
ATOM     30  C   UNL A   1      42.882  23.183  27.046  1.00  0.00    -0.014 A 
BRANCH  30  31
ATOM     31  C   UNL A   1      43.287  24.571  27.388  1.00  0.00     0.031 A 
ATOM     32  C   UNL A   1      44.739  24.967  27.300  1.00  0.00     0.074 A 
ATOM     33  C   UNL A   1      42.367  25.472  27.783  1.00  0.00     0.049 A 
ATOM     34  N   UNL A   1      45.308  26.108  27.603  1.00  0.00    -0.248 NA
ATOM     35  C   UNL A   1      45.679  23.939  26.825  1.00  0.00     0.031 C 
ATOM     36  C   UNL A   1      40.933  25.213  27.926  1.00  0.00     0.029 A 
ATOM     37  N   UNL A   1      42.501  26.791  28.142  1.00  0.00    -0.354 N 
ATOM     38  C   UNL A   1      46.664  25.931  27.354  1.00  0.00     0.074 A 
ATOM     39  C   UNL A   1      46.845  24.558  26.942  1.00  0.00     0.031 C 
ATOM     40  C   UNL A   1      40.318  26.341  28.321  1.00  0.00     0.029 A 
ATOM     41  C   UNL A   1      41.316  27.391  28.499  1.00  0.00     0.049 A 
ATOM     42  H   UNL A   1      43.365  27.263  28.145  1.00  0.00     0.167 HD
ATOM     43  C   UNL A   1      47.665  26.840  27.427  1.00  0.00     0.037 A 
ATOM     44  C   UNL A   1      41.067  28.642  28.931  1.00  0.00     0.037 A 
ATOM     45  C   UNL A   1      47.485  28.212  27.821  1.00  0.00     0.049 A 
ATOM     46  C   UNL A   1      42.210  29.617  29.055  1.00  0.00     0.074 A 
ATOM     47  C   UNL A   1      48.436  29.212  27.921  1.00  0.00     0.029 A 
ATOM     48  N   UNL A   1      46.270  28.777  28.172  1.00  0.00    -0.354 N 
ATOM     49  N   UNL A   1      43.480  29.445  28.778  1.00  0.00    -0.248 NA
ATOM     50  C   UNL A   1      41.884  30.965  29.546  1.00  0.00     0.031 C 
ATOM     51  C   UNL A   1      47.803  30.375  28.368  1.00  0.00     0.029 A 
ATOM     52  C   UNL A   1      46.448  30.112  28.495  1.00  0.00     0.049 A 
ATOM     53  H   UNL A   1      45.407  28.302  28.189  1.00  0.00     0.167 HD
ATOM     54  C   UNL A   1      44.092  30.670  29.015  1.00  0.00     0.074 A 
ATOM     55  C   UNL A   1      43.054  31.580  29.449  1.00  0.00     0.031 C 
ATOM     56  C   UNL A   1      45.396  31.013  28.887  1.00  0.00     0.037 A 
BRANCH  43  57
ATOM     57  C   UNL A   1      49.046  26.387  27.052  1.00  0.00     0.057 A 
ATOM     58  C   UNL A   1      49.501  26.446  25.727  1.00  0.00     0.134 A 
ATOM     59  C   UNL A   1      49.949  25.940  28.025  1.00  0.00     0.134 A 
ATOM     60  F   UNL A   1      48.682  26.853  24.745  1.00  0.00    -0.206 F 
ATOM     61  C   UNL A   1      50.797  26.060  25.382  1.00  0.00     0.040 A 
ATOM     62  C   UNL A   1      51.257  25.579  27.695  1.00  0.00     0.040 A 
ATOM     63  F   UNL A   1      49.582  25.865  29.312  1.00  0.00    -0.206 F 
ATOM     64  C   UNL A   1      51.682  25.635  26.370  1.00  0.00     0.006 A 
ENDBRANCH  43  57
BRANCH  44  65
ATOM     65  C   UNL A   1      39.686  29.065  29.284  1.00  0.00     0.057 A 
ATOM     66  C   UNL A   1      39.204  28.953  30.595  1.00  0.00     0.134 A 
ATOM     67  C   UNL A   1      38.791  29.528  28.311  1.00  0.00     0.134 A 
ATOM     68  F   UNL A   1      40.004  28.498  31.571  1.00  0.00    -0.206 F 
ATOM     69  C   UNL A   1      37.876  29.241  30.916  1.00  0.00     0.040 A 
ATOM     70  C   UNL A   1      37.469  29.851  28.624  1.00  0.00     0.040 A 
ATOM     71  F   UNL A   1      39.188  29.668  27.037  1.00  0.00    -0.206 F 
ATOM     72  C   UNL A   1      37.004  29.692  29.928  1.00  0.00     0.006 A 
ENDBRANCH  44  65
BRANCH  56  73
ATOM     73  C   UNL A   1      45.768  32.444  29.145  1.00  0.00     0.057 A 
ATOM     74  C   UNL A   1      46.206  32.885  30.400  1.00  0.00     0.134 A 
ATOM     75  C   UNL A   1      45.738  33.381  28.103  1.00  0.00     0.134 A 
ATOM     76  F   UNL A   1      46.247  32.041  31.442  1.00  0.00    -0.206 F 
ATOM     77  C   UNL A   1      46.581  34.213  30.614  1.00  0.00     0.040 A 
ATOM     78  C   UNL A   1      46.139  34.703  28.298  1.00  0.00     0.040 A 
ATOM     79  F   UNL A   1      45.338  33.022  26.875  1.00  0.00    -0.206 F 
ATOM     80  C   UNL A   1      46.557  35.123  29.559  1.00  0.00     0.006 A 
ENDBRANCH  56  73
ENDBRANCH  30  31
ENDBRANCH  22  25
ENDBRANCH  20  21
ENDBRANCH  19  20
ENDBRANCH   1  19
TORSDOF 14
ENDMDL
MODEL 2
REMARK VINA RESULT:     -11.1      6.066     10.371
REMARK SMILES CC(C)CC[C@H](C(=O)NCCCNC(=O)c1ccc(-c2c3nc(c(-c4c(F)cccc4F)c4ccc([nH]4)c(-c4c(F)cccc4F)c4nc(c(-c5c(F)cccc5F)c5ccc2[nH]5)C=C4)C=C3)cc1)c1ccc(F)cc1
REMARK SMILES IDX 10 1 9 2 7 3 8 4 6 6 5 7 4 8 2 9 1 10 3 11 70 12 71 13 76 14
REMARK SMILES IDX 72 15 75 16 73 17 74 18 11 19 12 20 13 21 14 22 15 24 16 25
REMARK SMILES IDX 17 26 69 27 18 28 68 29 19 30 20 31 21 32 62 33 22 34 67 35
REMARK SMILES IDX 61 36 63 37 23 38 66 39 60 40 59 41 24 43 50 44 33 45 49 46
REMARK SMILES IDX 34 47 37 48 48 49 64 50 35 51 36 52 47 54 65 55 38 56 25 57
REMARK SMILES IDX 26 58 31 59 27 60 28 61 30 62 32 63 29 64 51 65 52 66 57 67
REMARK SMILES IDX 53 68 54 69 56 70 58 71 55 72 39 73 40 74 45 75 41 76 42 77
REMARK SMILES IDX 44 78 46 79 43 80
REMARK H PARENT 9 5 13 23 63 42 37 53
REMARK Flexibility Score: inf
ROOT
ATOM      1  C   UNL A   1      31.446  30.623  26.416  1.00  0.00     0.117 C 
ENDROOT
BRANCH   1   2
ATOM      2  N   UNL A   1      32.345  30.153  25.379  1.00  0.00    -0.356 N 
ATOM      3  C   UNL A   1      32.196  29.268  24.360  1.00  0.00     0.227 C 
ATOM      4  O   UNL A   1      33.209  29.021  23.693  1.00  0.00    -0.274 OA
ATOM      5  H   UNL A   1      33.242  30.555  25.423  1.00  0.00     0.163 HD
BRANCH   3   6
ATOM      6  C   UNL A   1      30.852  28.652  23.956  1.00  0.00     0.108 C 
BRANCH   6   7
ATOM      7  C   UNL A   1      30.342  28.976  22.541  1.00  0.00     0.018 C 
BRANCH   7   8
ATOM      8  C   UNL A   1      29.435  30.198  22.233  1.00  0.00     0.004 C 
BRANCH   8   9
ATOM      9  C   UNL A   1      27.913  30.256  22.491  1.00  0.00    -0.017 C 
ATOM     10  C   UNL A   1      27.277  29.017  23.125  1.00  0.00     0.007 C 
ATOM     11  C   UNL A   1      27.651  31.393  23.500  1.00  0.00     0.007 C 
ENDBRANCH   8   9
ENDBRANCH   7   8
ENDBRANCH   6   7
BRANCH   6  12
ATOM     12  C   UNL A   1      30.893  27.161  24.354  1.00  0.00    -0.035 A 
ATOM     13  C   UNL A   1      30.860  26.692  25.678  1.00  0.00     0.007 A 
ATOM     14  C   UNL A   1      30.894  26.202  23.315  1.00  0.00     0.007 A 
ATOM     15  C   UNL A   1      30.791  25.317  25.944  1.00  0.00     0.039 A 
ATOM     16  C   UNL A   1      30.812  24.834  23.582  1.00  0.00     0.039 A 
ATOM     17  C   UNL A   1      30.755  24.404  24.897  1.00  0.00     0.123 A 
ATOM     18  F   UNL A   1      30.655  23.094  25.161  1.00  0.00    -0.207 F 
ENDBRANCH   6  12
ENDBRANCH   3   6
ENDBRANCH   1   2
BRANCH   1  19
ATOM     19  C   UNL A   1      31.429  32.148  26.515  1.00  0.00     0.042 C 
BRANCH  19  20
ATOM     20  C   UNL A   1      32.626  32.742  27.251  1.00  0.00     0.118 C 
BRANCH  20  21
ATOM     21  N   UNL A   1      32.412  34.132  27.605  1.00  0.00    -0.352 N 
ATOM     22  C   UNL A   1      32.979  34.852  28.627  1.00  0.00     0.251 C 
ATOM     23  H   UNL A   1      31.774  34.623  27.038  1.00  0.00     0.163 HD
ATOM     24  O   UNL A   1      32.528  35.952  28.927  1.00  0.00    -0.269 OA
BRANCH  22  25
ATOM     25  C   UNL A   1      34.129  34.295  29.376  1.00  0.00     0.039 A 
ATOM     26  C   UNL A   1      35.413  34.464  28.857  1.00  0.00     0.014 A 
ATOM     27  C   UNL A   1      33.938  33.575  30.559  1.00  0.00     0.014 A 
ATOM     28  C   UNL A   1      36.512  33.925  29.532  1.00  0.00     0.010 A 
ATOM     29  C   UNL A   1      35.040  33.096  31.267  1.00  0.00     0.010 A 
ATOM     30  C   UNL A   1      36.337  33.245  30.749  1.00  0.00    -0.014 A 
BRANCH  30  31
ATOM     31  C   UNL A   1      37.492  32.625  31.449  1.00  0.00     0.031 A 
ATOM     32  C   UNL A   1      38.177  31.427  30.841  1.00  0.00     0.074 A 
ATOM     33  C   UNL A   1      37.923  33.122  32.624  1.00  0.00     0.049 A 
ATOM     34  N   UNL A   1      39.165  30.708  31.314  1.00  0.00    -0.248 NA
ATOM     35  C   UNL A   1      37.672  30.965  29.538  1.00  0.00     0.031 C 
ATOM     36  C   UNL A   1      37.339  34.266  33.326  1.00  0.00     0.029 A 
ATOM     37  N   UNL A   1      38.955  32.726  33.440  1.00  0.00    -0.354 N 
ATOM     38  C   UNL A   1      39.397  29.717  30.367  1.00  0.00     0.074 A 
ATOM     39  C   UNL A   1      38.406  29.882  29.329  1.00  0.00     0.031 C 
ATOM     40  C   UNL A   1      38.033  34.492  34.455  1.00  0.00     0.029 A 
ATOM     41  C   UNL A   1      39.084  33.487  34.579  1.00  0.00     0.049 A 
ATOM     42  H   UNL A   1      39.546  31.967  33.231  1.00  0.00     0.167 HD
ATOM     43  C   UNL A   1      40.369  28.775  30.347  1.00  0.00     0.037 A 
ATOM     44  C   UNL A   1      39.945  33.377  35.609  1.00  0.00     0.037 A 
ATOM     45  C   UNL A   1      41.367  28.620  31.371  1.00  0.00     0.049 A 
ATOM     46  C   UNL A   1      40.983  32.284  35.584  1.00  0.00     0.074 A 
ATOM     47  C   UNL A   1      42.399  27.699  31.437  1.00  0.00     0.029 A 
ATOM     48  N   UNL A   1      41.462  29.411  32.504  1.00  0.00    -0.354 N 
ATOM     49  N   UNL A   1      41.213  31.380  34.663  1.00  0.00    -0.248 NA
ATOM     50  C   UNL A   1      41.887  32.200  36.741  1.00  0.00     0.031 C 
ATOM     51  C   UNL A   1      43.096  27.910  32.629  1.00  0.00     0.029 A 
ATOM     52  C   UNL A   1      42.532  28.996  33.279  1.00  0.00     0.049 A 
ATOM     53  H   UNL A   1      40.860  30.158  32.725  1.00  0.00     0.167 HD
ATOM     54  C   UNL A   1      42.312  30.655  35.106  1.00  0.00     0.074 A 
ATOM     55  C   UNL A   1      42.711  31.228  36.373  1.00  0.00     0.031 C 
ATOM     56  C   UNL A   1      42.938  29.606  34.519  1.00  0.00     0.037 A 
BRANCH  43  57
ATOM     57  C   UNL A   1      40.417  27.850  29.165  1.00  0.00     0.057 A 
ATOM     58  C   UNL A   1      39.651  26.677  29.123  1.00  0.00     0.134 A 
ATOM     59  C   UNL A   1      41.189  28.159  28.037  1.00  0.00     0.134 A 
ATOM     60  F   UNL A   1      38.901  26.317  30.175  1.00  0.00    -0.206 F 
ATOM     61  C   UNL A   1      39.666  25.835  28.010  1.00  0.00     0.040 A 
ATOM     62  C   UNL A   1      41.188  27.338  26.907  1.00  0.00     0.040 A 
ATOM     63  F   UNL A   1      41.939  29.269  28.008  1.00  0.00    -0.206 F 
ATOM     64  C   UNL A   1      40.428  26.171  26.894  1.00  0.00     0.006 A 
ENDBRANCH  43  57
BRANCH  44  65
ATOM     65  C   UNL A   1      39.880  34.316  36.759  1.00  0.00     0.057 A 
ATOM     66  C   UNL A   1      39.065  34.052  37.868  1.00  0.00     0.134 A 
ATOM     67  C   UNL A   1      40.575  35.531  36.752  1.00  0.00     0.134 A 
ATOM     68  F   UNL A   1      38.357  32.914  37.929  1.00  0.00    -0.206 F 
ATOM     69  C   UNL A   1      38.909  34.977  38.902  1.00  0.00     0.040 A 
ATOM     70  C   UNL A   1      40.454  36.452  37.795  1.00  0.00     0.040 A 
ATOM     71  F   UNL A   1      41.380  35.846  35.725  1.00  0.00    -0.206 F 
ATOM     72  C   UNL A   1      39.606  36.183  38.867  1.00  0.00     0.006 A 
ENDBRANCH  44  65
BRANCH  56  73
ATOM     73  C   UNL A   1      44.159  29.056  35.195  1.00  0.00     0.057 A 
ATOM     74  C   UNL A   1      45.444  29.547  34.930  1.00  0.00     0.134 A 
ATOM     75  C   UNL A   1      44.037  28.054  36.167  1.00  0.00     0.134 A 
ATOM     76  F   UNL A   1      45.630  30.498  34.002  1.00  0.00    -0.206 F 
ATOM     77  C   UNL A   1      46.565  29.047  35.593  1.00  0.00     0.040 A 
ATOM     78  C   UNL A   1      45.147  27.567  36.858  1.00  0.00     0.040 A 
ATOM     79  F   UNL A   1      42.835  27.546  36.476  1.00  0.00    -0.206 F 
ATOM     80  C   UNL A   1      46.417  28.061  36.567  1.00  0.00     0.006 A 
ENDBRANCH  56  73
ENDBRANCH  30  31
ENDBRANCH  22  25
ENDBRANCH  20  21
ENDBRANCH  19  20
ENDBRANCH   1  19
TORSDOF 14
ENDMDL
MODEL 3
REMARK VINA RESULT:     -11.0      3.156      7.756
REMARK SMILES CC(C)CC[C@H](C(=O)NCCCNC(=O)c1ccc(-c2c3nc(c(-c4c(F)cccc4F)c4ccc([nH]4)c(-c4c(F)cccc4F)c4nc(c(-c5c(F)cccc5F)c5ccc2[nH]5)C=C4)C=C3)cc1)c1ccc(F)cc1
REMARK SMILES IDX 10 1 9 2 7 3 8 4 6 6 5 7 4 8 2 9 1 10 3 11 70 12 71 13 76 14
REMARK SMILES IDX 72 15 75 16 73 17 74 18 11 19 12 20 13 21 14 22 15 24 16 25
REMARK SMILES IDX 17 26 69 27 18 28 68 29 19 30 20 31 21 32 62 33 22 34 67 35
REMARK SMILES IDX 61 36 63 37 23 38 66 39 60 40 59 41 24 43 50 44 33 45 49 46
REMARK SMILES IDX 34 47 37 48 48 49 64 50 35 51 36 52 47 54 65 55 38 56 25 57
REMARK SMILES IDX 26 58 31 59 27 60 28 61 30 62 32 63 29 64 51 65 52 66 57 67
REMARK SMILES IDX 53 68 54 69 56 70 58 71 55 72 39 73 40 74 45 75 41 76 42 77
REMARK SMILES IDX 44 78 46 79 43 80
REMARK H PARENT 9 5 13 23 63 42 37 53
REMARK Flexibility Score: inf
ROOT
ATOM      1  C   UNL A   1      32.810  27.408  25.023  1.00  0.00     0.117 C 
ENDROOT
BRANCH   1   2
ATOM      2  N   UNL A   1      33.231  26.909  23.728  1.00  0.00    -0.356 N 
ATOM      3  C   UNL A   1      33.599  25.678  23.288  1.00  0.00     0.227 C 
ATOM      4  O   UNL A   1      33.994  25.607  22.117  1.00  0.00    -0.274 OA
ATOM      5  H   UNL A   1      33.254  27.600  23.028  1.00  0.00     0.163 HD
BRANCH   3   6
ATOM      6  C   UNL A   1      33.466  24.400  24.123  1.00  0.00     0.108 C 
BRANCH   6   7
ATOM      7  C   UNL A   1      32.457  23.351  23.623  1.00  0.00     0.018 C 
BRANCH   7   8
ATOM      8  C   UNL A   1      31.694  22.395  24.579  1.00  0.00     0.004 C 
BRANCH   8   9
ATOM      9  C   UNL A   1      32.186  20.993  25.002  1.00  0.00    -0.017 C 
ATOM     10  C   UNL A   1      32.886  20.157  23.927  1.00  0.00     0.007 C 
ATOM     11  C   UNL A   1      33.246  21.180  26.106  1.00  0.00     0.007 C 
ENDBRANCH   8   9
ENDBRANCH   7   8
ENDBRANCH   6   7
BRANCH   6  12
ATOM     12  C   UNL A   1      34.894  23.899  24.426  1.00  0.00    -0.035 A 
ATOM     13  C   UNL A   1      35.652  24.289  25.542  1.00  0.00     0.007 A 
ATOM     14  C   UNL A   1      35.450  22.930  23.559  1.00  0.00     0.007 A 
ATOM     15  C   UNL A   1      36.898  23.701  25.797  1.00  0.00     0.039 A 
ATOM     16  C   UNL A   1      36.685  22.335  23.822  1.00  0.00     0.039 A 
ATOM     17  C   UNL A   1      37.397  22.723  24.945  1.00  0.00     0.123 A 
ATOM     18  F   UNL A   1      38.573  22.143  25.215  1.00  0.00    -0.207 F 
ENDBRANCH   6  12
ENDBRANCH   3   6
ENDBRANCH   1   2
BRANCH   1  19
ATOM     19  C   UNL A   1      33.765  28.469  25.570  1.00  0.00     0.042 C 
BRANCH  19  20
ATOM     20  C   UNL A   1      33.818  28.539  27.093  1.00  0.00     0.118 C 
BRANCH  20  21
ATOM     21  N   UNL A   1      33.701  29.900  27.579  1.00  0.00    -0.352 N 
ATOM     22  C   UNL A   1      34.613  30.635  28.296  1.00  0.00     0.251 C 
ATOM     23  H   UNL A   1      32.855  30.358  27.367  1.00  0.00     0.163 HD
ATOM     24  O   UNL A   1      34.276  31.691  28.818  1.00  0.00    -0.269 OA
BRANCH  22  25
ATOM     25  C   UNL A   1      36.002  30.144  28.449  1.00  0.00     0.039 A 
ATOM     26  C   UNL A   1      36.390  29.602  29.675  1.00  0.00     0.014 A 
ATOM     27  C   UNL A   1      36.926  30.255  27.406  1.00  0.00     0.014 A 
ATOM     28  C   UNL A   1      37.702  29.154  29.853  1.00  0.00     0.010 A 
ATOM     29  C   UNL A   1      38.216  29.748  27.562  1.00  0.00     0.010 A 
ATOM     30  C   UNL A   1      38.625  29.214  28.795  1.00  0.00    -0.014 A 
BRANCH  30  31
ATOM     31  C   UNL A   1      40.036  28.788  28.989  1.00  0.00     0.031 A 
ATOM     32  C   UNL A   1      41.022  29.738  29.619  1.00  0.00     0.074 A 
ATOM     33  C   UNL A   1      40.437  27.563  28.597  1.00  0.00     0.049 A 
ATOM     34  N   UNL A   1      42.305  29.582  29.829  1.00  0.00    -0.248 NA
ATOM     35  C   UNL A   1      40.499  31.043  30.055  1.00  0.00     0.031 C 
ATOM     36  C   UNL A   1      39.588  26.556  27.960  1.00  0.00     0.029 A 
ATOM     37  N   UNL A   1      41.667  26.957  28.673  1.00  0.00    -0.354 N 
ATOM     38  C   UNL A   1      42.737  30.765  30.421  1.00  0.00     0.074 A 
ATOM     39  C   UNL A   1      41.598  31.653  30.473  1.00  0.00     0.031 C 
ATOM     40  C   UNL A   1      40.316  25.451  27.723  1.00  0.00     0.029 A 
ATOM     41  C   UNL A   1      41.691  25.684  28.153  1.00  0.00     0.049 A 
ATOM     42  H   UNL A   1      42.459  27.393  29.064  1.00  0.00     0.167 HD
ATOM     43  C   UNL A   1      43.962  31.070  30.908  1.00  0.00     0.037 A 
ATOM     44  C   UNL A   1      42.709  24.811  28.028  1.00  0.00     0.037 A 
ATOM     45  C   UNL A   1      45.092  30.182  30.872  1.00  0.00     0.049 A 
ATOM     46  C   UNL A   1      44.076  25.201  28.531  1.00  0.00     0.074 A 
ATOM     47  C   UNL A   1      46.375  30.398  31.346  1.00  0.00     0.029 A 
ATOM     48  N   UNL A   1      45.072  28.903  30.339  1.00  0.00    -0.354 N 
ATOM     49  N   UNL A   1      44.457  26.307  29.122  1.00  0.00    -0.248 NA
ATOM     50  C   UNL A   1      45.154  24.216  28.355  1.00  0.00     0.031 C 
ATOM     51  C   UNL A   1      47.141  29.263  31.066  1.00  0.00     0.029 A 
ATOM     52  C   UNL A   1      46.322  28.320  30.465  1.00  0.00     0.049 A 
ATOM     53  H   UNL A   1      44.286  28.472  29.930  1.00  0.00     0.167 HD
ATOM     54  C   UNL A   1      45.801  26.132  29.429  1.00  0.00     0.074 A 
ATOM     55  C   UNL A   1      46.168  24.810  28.968  1.00  0.00     0.031 C 
ATOM     56  C   UNL A   1      46.658  26.988  30.037  1.00  0.00     0.037 A 
BRANCH  43  57
ATOM     57  C   UNL A   1      44.141  32.418  31.545  1.00  0.00     0.057 A 
ATOM     58  C   UNL A   1      44.502  33.543  30.789  1.00  0.00     0.134 A 
ATOM     59  C   UNL A   1      43.897  32.609  32.911  1.00  0.00     0.134 A 
ATOM     60  F   UNL A   1      44.762  33.426  29.479  1.00  0.00    -0.206 F 
ATOM     61  C   UNL A   1      44.632  34.804  31.374  1.00  0.00     0.040 A 
ATOM     62  C   UNL A   1      43.997  33.871  33.500  1.00  0.00     0.040 A 
ATOM     63  F   UNL A   1      43.541  31.578  33.691  1.00  0.00    -0.206 F 
ATOM     64  C   UNL A   1      44.369  34.972  32.731  1.00  0.00     0.006 A 
ENDBRANCH  43  57
BRANCH  44  65
ATOM     65  C   UNL A   1      42.497  23.479  27.403  1.00  0.00     0.057 A 
ATOM     66  C   UNL A   1      42.663  23.288  26.025  1.00  0.00     0.134 A 
ATOM     67  C   UNL A   1      42.059  22.381  28.152  1.00  0.00     0.134 A 
ATOM     68  F   UNL A   1      43.064  24.305  25.246  1.00  0.00    -0.206 F 
ATOM     69  C   UNL A   1      42.360  22.072  25.410  1.00  0.00     0.040 A 
ATOM     70  C   UNL A   1      41.783  21.149  27.556  1.00  0.00     0.040 A 
ATOM     71  F   UNL A   1      41.886  22.490  29.479  1.00  0.00    -0.206 F 
ATOM     72  C   UNL A   1      41.918  20.996  26.177  1.00  0.00     0.006 A 
ENDBRANCH  44  65
BRANCH  56  73
ATOM     73  C   UNL A   1      48.052  26.502  30.308  1.00  0.00     0.057 A 
ATOM     74  C   UNL A   1      48.391  25.830  31.489  1.00  0.00     0.134 A 
ATOM     75  C   UNL A   1      49.056  26.666  29.344  1.00  0.00     0.134 A 
ATOM     76  F   UNL A   1      47.478  25.651  32.455  1.00  0.00    -0.206 F 
ATOM     77  C   UNL A   1      49.685  25.355  31.710  1.00  0.00     0.040 A 
ATOM     78  C   UNL A   1      50.345  26.170  29.542  1.00  0.00     0.040 A 
ATOM     79  F   UNL A   1      48.796  27.293  28.188  1.00  0.00    -0.206 F 
ATOM     80  C   UNL A   1      50.663  25.517  30.730  1.00  0.00     0.006 A 
ENDBRANCH  56  73
ENDBRANCH  30  31
ENDBRANCH  22  25
ENDBRANCH  20  21
ENDBRANCH  19  20
ENDBRANCH   1  19
TORSDOF 14
ENDMDL
