MODEL 1
REMARK VINA RESULT:     -13.0      0.000      0.000
REMARK SMILES Cc1ccc2c(c1)c(-c1ccnc3c(C)cccc13)c(C)n2CC(=O)NCCCNC(=O)c1ccc(-c2c3nc(c(-c4c(F)cccc4F)c4ccc([nH]4)c(-c4c(F)cccc4F)c4nc(c(-c5c(F)cccc5F)c5ccc2[nH]5)C=C4)C=C3)cc1
REMARK SMILES IDX 28 1 27 2 26 3 24 4 25 5 23 7 22 8 1 9 2 10 3 11 7 12 4 13
REMARK SMILES IDX 6 14 5 15 8 16 20 17 21 18 9 19 10 20 19 21 11 22 13 23
REMARK SMILES IDX 18 24 12 25 14 26 17 27 15 28 16 29 29 30 30 31 31 32 32 34
REMARK SMILES IDX 33 35 34 36 86 37 35 38 85 39 36 40 37 41 38 42 79 43 39 44
REMARK SMILES IDX 84 45 78 46 80 47 40 48 83 49 77 50 76 51 41 53 67 54 50 55
REMARK SMILES IDX 66 56 51 57 54 58 65 59 81 60 52 61 53 62 64 64 82 65 55 66
REMARK SMILES IDX 42 67 43 68 48 69 44 70 45 71 47 72 49 73 46 74 68 75 69 76
REMARK SMILES IDX 74 77 70 78 71 79 73 80 75 81 72 82 56 83 57 84 62 85 58 86
REMARK SMILES IDX 59 87 61 88 63 89 60 90
REMARK H PARENT 26 6 30 33 80 52 54 63
REMARK Flexibility Score: inf
ROOT
ATOM      1  C   UNL A   1      32.740  30.788  26.874  1.00  0.00     0.042 C 
ENDROOT
BRANCH   1   2
ATOM      2  C   UNL A   1      32.674  29.640  25.865  1.00  0.00     0.117 C 
BRANCH   2   3
ATOM      3  N   UNL A   1      31.766  28.581  26.269  1.00  0.00    -0.354 N 
ATOM      4  C   UNL A   1      31.997  27.251  26.474  1.00  0.00     0.239 C 
ATOM      5  O   UNL A   1      31.051  26.564  26.862  1.00  0.00    -0.273 OA
ATOM      6  H   UNL A   1      30.837  28.868  26.418  1.00  0.00     0.163 HD
BRANCH   4   7
ATOM      7  C   UNL A   1      33.378  26.653  26.290  1.00  0.00     0.222 C 
BRANCH   7   8
ATOM      8  N   UNL A   1      33.413  25.548  25.339  1.00  0.00    -0.335 N 
ATOM      9  C   UNL A   1      32.619  25.260  19.744  1.00  0.00     0.044 C 
ATOM     10  C   UNL A   1      32.846  25.407  21.221  1.00  0.00    -0.050 A 
ATOM     11  C   UNL A   1      32.977  26.675  21.784  1.00  0.00     0.005 A 
ATOM     12  C   UNL A   1      32.979  24.273  22.035  1.00  0.00     0.014 A 
ATOM     13  C   UNL A   1      33.199  26.843  23.155  1.00  0.00     0.027 A 
ATOM     14  C   UNL A   1      33.201  24.414  23.424  1.00  0.00     0.008 A 
ATOM     15  C   UNL A   1      33.284  25.697  23.966  1.00  0.00     0.049 A 
ATOM     16  C   UNL A   1      33.373  23.490  24.494  1.00  0.00     0.011 A 
ATOM     17  C   UNL A   1      33.575  24.212  25.660  1.00  0.00     0.024 A 
ATOM     18  C   UNL A   1      33.865  23.715  27.041  1.00  0.00     0.065 C 
BRANCH  16  19
ATOM     19  C   UNL A   1      33.377  22.033  24.429  1.00  0.00    -0.005 A 
ATOM     20  C   UNL A   1      32.155  21.392  24.237  1.00  0.00     0.029 A 
ATOM     21  C   UNL A   1      34.564  21.272  24.594  1.00  0.00     0.008 A 
ATOM     22  C   UNL A   1      32.149  20.018  24.205  1.00  0.00     0.112 A 
ATOM     23  C   UNL A   1      34.447  19.863  24.546  1.00  0.00     0.074 A 
ATOM     24  C   UNL A   1      35.839  21.849  24.812  1.00  0.00     0.011 A 
ATOM     25  N   UNL A   1      33.255  19.260  24.352  1.00  0.00    -0.256 NA
ATOM     26  C   UNL A   1      35.604  19.088  24.712  1.00  0.00    -0.025 A 
ATOM     27  C   UNL A   1      36.975  21.067  24.977  1.00  0.00     0.001 A 
ATOM     28  C   UNL A   1      35.556  17.581  24.674  1.00  0.00     0.047 C 
ATOM     29  C   UNL A   1      36.857  19.689  24.928  1.00  0.00     0.005 A 
ENDBRANCH  16  19
ENDBRANCH   7   8
ENDBRANCH   4   7
ENDBRANCH   2   3
ENDBRANCH   1   2
BRANCH   1  30
ATOM     30  C   UNL A   1      34.127  31.005  27.481  1.00  0.00     0.118 C 
BRANCH  30  31
ATOM     31  N   UNL A   1      34.115  31.719  28.744  1.00  0.00    -0.352 N 
ATOM     32  C   UNL A   1      35.008  31.938  29.749  1.00  0.00     0.251 C 
ATOM     33  H   UNL A   1      33.247  32.152  28.917  1.00  0.00     0.163 HD
ATOM     34  O   UNL A   1      34.623  32.703  30.646  1.00  0.00    -0.269 OA
BRANCH  32  35
ATOM     35  C   UNL A   1      36.342  31.299  29.891  1.00  0.00     0.039 A 
ATOM     36  C   UNL A   1      37.576  31.923  29.704  1.00  0.00     0.014 A 
ATOM     37  C   UNL A   1      36.325  29.922  30.196  1.00  0.00     0.014 A 
ATOM     38  C   UNL A   1      38.749  31.169  29.716  1.00  0.00     0.010 A 
ATOM     39  C   UNL A   1      37.491  29.170  30.221  1.00  0.00     0.010 A 
ATOM     40  C   UNL A   1      38.701  29.787  29.929  1.00  0.00    -0.014 A 
BRANCH  40  41
ATOM     41  C   UNL A   1      39.953  29.036  29.959  1.00  0.00     0.031 A 
ATOM     42  C   UNL A   1      40.547  28.910  31.318  1.00  0.00     0.074 A 
ATOM     43  C   UNL A   1      40.481  28.413  28.884  1.00  0.00     0.049 A 
ATOM     44  N   UNL A   1      41.657  29.419  31.744  1.00  0.00    -0.248 NA
ATOM     45  C   UNL A   1      39.751  28.255  32.367  1.00  0.00     0.031 C 
ATOM     46  C   UNL A   1      39.864  28.238  27.565  1.00  0.00     0.029 A 
ATOM     47  N   UNL A   1      41.661  27.730  28.761  1.00  0.00    -0.354 N 
ATOM     48  C   UNL A   1      41.801  28.978  33.060  1.00  0.00     0.074 A 
ATOM     49  C   UNL A   1      40.535  28.409  33.437  1.00  0.00     0.031 C 
ATOM     50  C   UNL A   1      40.569  27.330  26.852  1.00  0.00     0.029 A 
ATOM     51  C   UNL A   1      41.764  26.973  27.597  1.00  0.00     0.049 A 
ATOM     52  H   UNL A   1      42.375  27.770  29.438  1.00  0.00     0.167 HD
ATOM     53  C   UNL A   1      43.035  28.887  33.629  1.00  0.00     0.037 A 
ATOM     54  C   UNL A   1      42.755  26.108  27.263  1.00  0.00     0.037 A 
ATOM     55  C   UNL A   1      44.004  29.624  32.858  1.00  0.00     0.049 A 
ATOM     56  C   UNL A   1      43.945  26.452  28.066  1.00  0.00     0.074 A 
ATOM     57  C   UNL A   1      44.344  30.943  32.657  1.00  0.00     0.029 A 
ATOM     58  N   UNL A   1      44.574  28.894  31.851  1.00  0.00    -0.354 N 
ATOM     59  N   UNL A   1      44.645  27.535  27.883  1.00  0.00    -0.248 NA
ATOM     60  C   UNL A   1      44.194  25.752  29.321  1.00  0.00     0.031 C 
ATOM     61  C   UNL A   1      44.952  30.997  31.366  1.00  0.00     0.029 A 
ATOM     62  C   UNL A   1      44.996  29.708  30.838  1.00  0.00     0.049 A 
ATOM     63  H   UNL A   1      44.667  27.915  31.856  1.00  0.00     0.167 HD
ATOM     64  C   UNL A   1      45.064  27.886  29.150  1.00  0.00     0.074 A 
ATOM     65  C   UNL A   1      44.929  26.675  29.948  1.00  0.00     0.031 C 
ATOM     66  C   UNL A   1      45.169  29.200  29.499  1.00  0.00     0.037 A 
BRANCH  53  67
ATOM     67  C   UNL A   1      43.489  27.750  34.530  1.00  0.00     0.057 A 
ATOM     68  C   UNL A   1      43.547  27.818  35.935  1.00  0.00     0.134 A 
ATOM     69  C   UNL A   1      43.519  26.441  34.001  1.00  0.00     0.134 A 
ATOM     70  F   UNL A   1      43.489  28.973  36.605  1.00  0.00    -0.206 F 
ATOM     71  C   UNL A   1      43.563  26.681  36.751  1.00  0.00     0.040 A 
ATOM     72  C   UNL A   1      43.491  25.299  34.810  1.00  0.00     0.040 A 
ATOM     73  F   UNL A   1      43.483  26.232  32.675  1.00  0.00    -0.206 F 
ATOM     74  C   UNL A   1      43.495  25.417  36.193  1.00  0.00     0.006 A 
ENDBRANCH  53  67
BRANCH  54  75
ATOM     75  C   UNL A   1      42.727  24.900  26.412  1.00  0.00     0.057 A 
ATOM     76  C   UNL A   1      42.092  23.729  26.854  1.00  0.00     0.134 A 
ATOM     77  C   UNL A   1      43.559  24.767  25.290  1.00  0.00     0.134 A 
ATOM     78  F   UNL A   1      41.328  23.737  27.957  1.00  0.00    -0.206 F 
ATOM     79  C   UNL A   1      42.298  22.489  26.239  1.00  0.00     0.040 A 
ATOM     80  C   UNL A   1      43.775  23.531  24.664  1.00  0.00     0.040 A 
ATOM     81  F   UNL A   1      44.235  25.822  24.812  1.00  0.00    -0.206 F 
ATOM     82  C   UNL A   1      43.154  22.384  25.149  1.00  0.00     0.006 A 
ENDBRANCH  54  75
BRANCH  66  83
ATOM     83  C   UNL A   1      45.293  30.182  28.377  1.00  0.00     0.057 A 
ATOM     84  C   UNL A   1      46.573  30.511  27.924  1.00  0.00     0.134 A 
ATOM     85  C   UNL A   1      44.210  30.831  27.769  1.00  0.00     0.134 A 
ATOM     86  F   UNL A   1      47.655  29.958  28.494  1.00  0.00    -0.206 F 
ATOM     87  C   UNL A   1      46.774  31.431  26.895  1.00  0.00     0.040 A 
ATOM     88  C   UNL A   1      44.395  31.730  26.714  1.00  0.00     0.040 A 
ATOM     89  F   UNL A   1      42.955  30.636  28.193  1.00  0.00    -0.206 F 
ATOM     90  C   UNL A   1      45.681  32.033  26.276  1.00  0.00     0.006 A 
ENDBRANCH  66  83
ENDBRANCH  40  41
ENDBRANCH  32  35
ENDBRANCH  30  31
ENDBRANCH   1  30
TORSDOF 12
ENDMDL
MODEL 2
REMARK VINA RESULT:     -13.0      2.004      5.968
REMARK SMILES Cc1ccc2c(c1)c(-c1ccnc3c(C)cccc13)c(C)n2CC(=O)NCCCNC(=O)c1ccc(-c2c3nc(c(-c4c(F)cccc4F)c4ccc([nH]4)c(-c4c(F)cccc4F)c4nc(c(-c5c(F)cccc5F)c5ccc2[nH]5)C=C4)C=C3)cc1
REMARK SMILES IDX 28 1 27 2 26 3 24 4 25 5 23 7 22 8 1 9 2 10 3 11 7 12 4 13
REMARK SMILES IDX 6 14 5 15 8 16 20 17 21 18 9 19 10 20 19 21 11 22 13 23
REMARK SMILES IDX 18 24 12 25 14 26 17 27 15 28 16 29 29 30 30 31 31 32 32 34
REMARK SMILES IDX 33 35 34 36 86 37 35 38 85 39 36 40 37 41 38 42 79 43 39 44
REMARK SMILES IDX 84 45 78 46 80 47 40 48 83 49 77 50 76 51 41 53 67 54 50 55
REMARK SMILES IDX 66 56 51 57 54 58 65 59 81 60 52 61 53 62 64 64 82 65 55 66
REMARK SMILES IDX 42 67 43 68 48 69 44 70 45 71 47 72 49 73 46 74 68 75 69 76
REMARK SMILES IDX 74 77 70 78 71 79 73 80 75 81 72 82 56 83 57 84 62 85 58 86
REMARK SMILES IDX 59 87 61 88 63 89 60 90
REMARK H PARENT 26 6 30 33 80 52 54 63
REMARK Flexibility Score: inf
ROOT
ATOM      1  C   UNL A   1      34.342  28.121  26.892  1.00  0.00     0.042 C 
ENDROOT
BRANCH   1   2
ATOM      2  C   UNL A   1      32.852  28.084  27.234  1.00  0.00     0.117 C 
BRANCH   2   3
ATOM      3  N   UNL A   1      32.015  28.644  26.187  1.00  0.00    -0.354 N 
ATOM      4  C   UNL A   1      31.036  28.064  25.434  1.00  0.00     0.239 C 
ATOM      5  O   UNL A   1      30.437  28.780  24.630  1.00  0.00    -0.273 OA
ATOM      6  H   UNL A   1      32.181  29.594  25.988  1.00  0.00     0.163 HD
BRANCH   4   7
ATOM      7  C   UNL A   1      30.656  26.608  25.621  1.00  0.00     0.222 C 
BRANCH   7   8
ATOM      8  N   UNL A   1      31.494  25.685  24.864  1.00  0.00    -0.335 N 
ATOM      9  C   UNL A   1      32.754  25.259  19.365  1.00  0.00     0.044 C 
ATOM     10  C   UNL A   1      32.404  25.441  20.813  1.00  0.00    -0.050 A 
ATOM     11  C   UNL A   1      31.753  26.600  21.232  1.00  0.00     0.005 A 
ATOM     12  C   UNL A   1      32.772  24.475  21.761  1.00  0.00     0.014 A 
ATOM     13  C   UNL A   1      31.423  26.803  22.576  1.00  0.00     0.027 A 
ATOM     14  C   UNL A   1      32.448  24.655  23.124  1.00  0.00     0.008 A 
ATOM     15  C   UNL A   1      31.758  25.804  23.507  1.00  0.00     0.049 A 
ATOM     16  C   UNL A   1      32.671  23.882  24.300  1.00  0.00     0.011 A 
ATOM     17  C   UNL A   1      32.136  24.572  25.378  1.00  0.00     0.024 A 
ATOM     18  C   UNL A   1      32.163  24.221  26.831  1.00  0.00     0.065 C 
BRANCH  16  19
ATOM     19  C   UNL A   1      33.361  22.603  24.416  1.00  0.00    -0.005 A 
ATOM     20  C   UNL A   1      32.581  21.448  24.420  1.00  0.00     0.029 A 
ATOM     21  C   UNL A   1      34.770  22.514  24.562  1.00  0.00     0.008 A 
ATOM     22  C   UNL A   1      33.223  20.240  24.559  1.00  0.00     0.112 A 
ATOM     23  C   UNL A   1      35.330  21.222  24.700  1.00  0.00     0.074 A 
ATOM     24  C   UNL A   1      35.626  23.641  24.587  1.00  0.00     0.011 A 
ATOM     25  N   UNL A   1      34.560  20.114  24.695  1.00  0.00    -0.256 NA
ATOM     26  C   UNL A   1      36.720  21.107  24.852  1.00  0.00    -0.025 A 
ATOM     27  C   UNL A   1      37.001  23.510  24.740  1.00  0.00     0.001 A 
ATOM     28  C   UNL A   1      37.387  19.763  25.005  1.00  0.00     0.047 C 
ATOM     29  C   UNL A   1      37.546  22.245  24.873  1.00  0.00     0.005 A 
ENDBRANCH  16  19
ENDBRANCH   7   8
ENDBRANCH   4   7
ENDBRANCH   2   3
ENDBRANCH   1   2
BRANCH   1  30
ATOM     30  C   UNL A   1      34.983  29.500  27.046  1.00  0.00     0.118 C 
BRANCH  30  31
ATOM     31  N   UNL A   1      35.168  29.916  28.423  1.00  0.00    -0.352 N 
ATOM     32  C   UNL A   1      36.205  29.928  29.307  1.00  0.00     0.251 C 
ATOM     33  H   UNL A   1      34.342  30.279  28.816  1.00  0.00     0.163 HD
ATOM     34  O   UNL A   1      35.967  30.466  30.399  1.00  0.00    -0.269 OA
BRANCH  32  35
ATOM     35  C   UNL A   1      37.539  29.305  29.104  1.00  0.00     0.039 A 
ATOM     36  C   UNL A   1      38.156  28.388  29.957  1.00  0.00     0.014 A 
ATOM     37  C   UNL A   1      38.241  29.737  27.960  1.00  0.00     0.014 A 
ATOM     38  C   UNL A   1      39.476  28.000  29.727  1.00  0.00     0.010 A 
ATOM     39  C   UNL A   1      39.551  29.344  27.721  1.00  0.00     0.010 A 
ATOM     40  C   UNL A   1      40.185  28.514  28.636  1.00  0.00    -0.014 A 
BRANCH  40  41
ATOM     41  C   UNL A   1      41.557  28.064  28.415  1.00  0.00     0.031 A 
ATOM     42  C   UNL A   1      41.657  26.754  27.717  1.00  0.00     0.074 A 
ATOM     43  C   UNL A   1      42.648  28.805  28.711  1.00  0.00     0.049 A 
ATOM     44  N   UNL A   1      42.112  25.640  28.190  1.00  0.00    -0.248 NA
ATOM     45  C   UNL A   1      41.056  26.631  26.380  1.00  0.00     0.031 C 
ATOM     46  C   UNL A   1      42.680  30.204  29.149  1.00  0.00     0.029 A 
ATOM     47  N   UNL A   1      43.975  28.488  28.608  1.00  0.00    -0.354 N 
ATOM     48  C   UNL A   1      42.044  24.721  27.143  1.00  0.00     0.074 A 
ATOM     49  C   UNL A   1      41.245  25.335  26.117  1.00  0.00     0.031 C 
ATOM     50  C   UNL A   1      43.946  30.674  29.072  1.00  0.00     0.029 A 
ATOM     51  C   UNL A   1      44.833  29.576  28.726  1.00  0.00     0.049 A 
ATOM     52  H   UNL A   1      44.294  27.568  28.462  1.00  0.00     0.167 HD
ATOM     53  C   UNL A   1      42.874  23.642  27.113  1.00  0.00     0.037 A 
ATOM     54  C   UNL A   1      46.179  29.586  28.550  1.00  0.00     0.037 A 
ATOM     55  C   UNL A   1      43.476  23.430  28.404  1.00  0.00     0.049 A 
ATOM     56  C   UNL A   1      46.666  28.201  28.705  1.00  0.00     0.074 A 
ATOM     57  C   UNL A   1      43.093  22.930  29.629  1.00  0.00     0.029 A 
ATOM     58  N   UNL A   1      44.635  24.134  28.592  1.00  0.00    -0.354 N 
ATOM     59  N   UNL A   1      46.685  27.572  29.845  1.00  0.00    -0.248 NA
ATOM     60  C   UNL A   1      46.839  27.362  27.526  1.00  0.00     0.031 C 
ATOM     61  C   UNL A   1      43.948  23.551  30.589  1.00  0.00     0.029 A 
ATOM     62  C   UNL A   1      44.847  24.380  29.919  1.00  0.00     0.049 A 
ATOM     63  H   UNL A   1      45.234  24.424  27.867  1.00  0.00     0.167 HD
ATOM     64  C   UNL A   1      46.419  26.259  29.512  1.00  0.00     0.074 A 
ATOM     65  C   UNL A   1      46.715  26.157  28.089  1.00  0.00     0.031 C 
ATOM     66  C   UNL A   1      45.681  25.475  30.348  1.00  0.00     0.037 A 
BRANCH  53  67
ATOM     67  C   UNL A   1      43.556  23.111  25.862  1.00  0.00     0.057 A 
ATOM     68  C   UNL A   1      44.440  23.854  25.057  1.00  0.00     0.134 A 
ATOM     69  C   UNL A   1      43.614  21.714  25.667  1.00  0.00     0.134 A 
ATOM     70  F   UNL A   1      44.545  25.184  25.139  1.00  0.00    -0.206 F 
ATOM     71  C   UNL A   1      45.354  23.259  24.181  1.00  0.00     0.040 A 
ATOM     72  C   UNL A   1      44.556  21.107  24.826  1.00  0.00     0.040 A 
ATOM     73  F   UNL A   1      42.817  20.886  26.361  1.00  0.00    -0.206 F 
ATOM     74  C   UNL A   1      45.444  21.881  24.092  1.00  0.00     0.006 A 
ENDBRANCH  53  67
BRANCH  54  75
ATOM     75  C   UNL A   1      47.080  30.670  28.105  1.00  0.00     0.057 A 
ATOM     76  C   UNL A   1      48.001  31.244  28.995  1.00  0.00     0.134 A 
ATOM     77  C   UNL A   1      46.867  31.363  26.904  1.00  0.00     0.134 A 
ATOM     78  F   UNL A   1      48.226  30.695  30.198  1.00  0.00    -0.206 F 
ATOM     79  C   UNL A   1      48.647  32.456  28.725  1.00  0.00     0.040 A 
ATOM     80  C   UNL A   1      47.508  32.577  26.619  1.00  0.00     0.040 A 
ATOM     81  F   UNL A   1      45.982  30.911  26.003  1.00  0.00    -0.206 F 
ATOM     82  C   UNL A   1      48.390  33.134  27.539  1.00  0.00     0.006 A 
ENDBRANCH  54  75
BRANCH  66  83
ATOM     83  C   UNL A   1      45.604  25.909  31.778  1.00  0.00     0.057 A 
ATOM     84  C   UNL A   1      44.466  26.600  32.200  1.00  0.00     0.134 A 
ATOM     85  C   UNL A   1      46.618  25.704  32.724  1.00  0.00     0.134 A 
ATOM     86  F   UNL A   1      43.477  26.868  31.332  1.00  0.00    -0.206 F 
ATOM     87  C   UNL A   1      44.326  27.054  33.511  1.00  0.00     0.040 A 
ATOM     88  C   UNL A   1      46.476  26.124  34.050  1.00  0.00     0.040 A 
ATOM     89  F   UNL A   1      47.775  25.121  32.387  1.00  0.00    -0.206 F 
ATOM     90  C   UNL A   1      45.328  26.803  34.445  1.00  0.00     0.006 A 
ENDBRANCH  66  83
ENDBRANCH  40  41
ENDBRANCH  32  35
ENDBRANCH  30  31
ENDBRANCH   1  30
TORSDOF 12
ENDMDL
MODEL 3
REMARK VINA RESULT:     -13.0      4.509      8.878
REMARK SMILES Cc1ccc2c(c1)c(-c1ccnc3c(C)cccc13)c(C)n2CC(=O)NCCCNC(=O)c1ccc(-c2c3nc(c(-c4c(F)cccc4F)c4ccc([nH]4)c(-c4c(F)cccc4F)c4nc(c(-c5c(F)cccc5F)c5ccc2[nH]5)C=C4)C=C3)cc1
REMARK SMILES IDX 28 1 27 2 26 3 24 4 25 5 23 7 22 8 1 9 2 10 3 11 7 12 4 13
REMARK SMILES IDX 6 14 5 15 8 16 20 17 21 18 9 19 10 20 19 21 11 22 13 23
REMARK SMILES IDX 18 24 12 25 14 26 17 27 15 28 16 29 29 30 30 31 31 32 32 34
REMARK SMILES IDX 33 35 34 36 86 37 35 38 85 39 36 40 37 41 38 42 79 43 39 44
REMARK SMILES IDX 84 45 78 46 80 47 40 48 83 49 77 50 76 51 41 53 67 54 50 55
REMARK SMILES IDX 66 56 51 57 54 58 65 59 81 60 52 61 53 62 64 64 82 65 55 66
REMARK SMILES IDX 42 67 43 68 48 69 44 70 45 71 47 72 49 73 46 74 68 75 69 76
REMARK SMILES IDX 74 77 70 78 71 79 73 80 75 81 72 82 56 83 57 84 62 85 58 86
REMARK SMILES IDX 59 87 61 88 63 89 60 90
REMARK H PARENT 26 6 30 33 80 52 54 63
REMARK Flexibility Score: inf
ROOT
ATOM      1  C   UNL A   1      34.285  35.491  28.407  1.00  0.00     0.042 C 
ENDROOT
BRANCH   1   2
ATOM      2  C   UNL A   1      33.318  35.288  29.574  1.00  0.00     0.117 C 
BRANCH   2   3
ATOM      3  N   UNL A   1      33.754  35.943  30.794  1.00  0.00    -0.354 N 
ATOM      4  C   UNL A   1      34.539  35.483  31.812  1.00  0.00     0.239 C 
ATOM      5  O   UNL A   1      34.801  36.266  32.726  1.00  0.00    -0.273 OA
ATOM      6  H   UNL A   1      33.433  36.867  30.905  1.00  0.00     0.163 HD
BRANCH   4   7
ATOM      7  C   UNL A   1      35.118  34.082  31.789  1.00  0.00     0.222 C 
BRANCH   7   8
ATOM      8  N   UNL A   1      36.475  34.003  32.315  1.00  0.00    -0.335 N 
ATOM      9  C   UNL A   1      41.572  34.390  29.889  1.00  0.00     0.044 C 
ATOM     10  C   UNL A   1      40.193  34.325  30.477  1.00  0.00    -0.050 A 
ATOM     11  C   UNL A   1      39.088  34.689  29.708  1.00  0.00     0.005 A 
ATOM     12  C   UNL A   1      40.007  33.947  31.816  1.00  0.00     0.014 A 
ATOM     13  C   UNL A   1      37.792  34.648  30.232  1.00  0.00     0.027 A 
ATOM     14  C   UNL A   1      38.708  33.895  32.368  1.00  0.00     0.008 A 
ATOM     15  C   UNL A   1      37.618  34.223  31.561  1.00  0.00     0.049 A 
ATOM     16  C   UNL A   1      38.196  33.558  33.654  1.00  0.00     0.011 A 
ATOM     17  C   UNL A   1      36.817  33.702  33.622  1.00  0.00     0.024 A 
ATOM     18  C   UNL A   1      35.824  33.531  34.727  1.00  0.00     0.065 C 
BRANCH  16  19
ATOM     19  C   UNL A   1      38.944  33.158  34.840  1.00  0.00    -0.005 A 
ATOM     20  C   UNL A   1      38.904  31.814  35.205  1.00  0.00     0.029 A 
ATOM     21  C   UNL A   1      39.660  34.092  35.634  1.00  0.00     0.008 A 
ATOM     22  C   UNL A   1      39.582  31.436  36.340  1.00  0.00     0.112 A 
ATOM     23  C   UNL A   1      40.322  33.598  36.783  1.00  0.00     0.074 A 
ATOM     24  C   UNL A   1      39.731  35.476  35.340  1.00  0.00     0.011 A 
ATOM     25  N   UNL A   1      40.278  32.292  37.116  1.00  0.00    -0.256 NA
ATOM     26  C   UNL A   1      41.032  34.502  37.587  1.00  0.00    -0.025 A 
ATOM     27  C   UNL A   1      40.437  36.358  36.148  1.00  0.00     0.001 A 
ATOM     28  C   UNL A   1      41.761  34.049  38.827  1.00  0.00     0.047 C 
ATOM     29  C   UNL A   1      41.085  35.872  37.270  1.00  0.00     0.005 A 
ENDBRANCH  16  19
ENDBRANCH   7   8
ENDBRANCH   4   7
ENDBRANCH   2   3
ENDBRANCH   1   2
BRANCH   1  30
ATOM     30  C   UNL A   1      35.095  34.246  28.044  1.00  0.00     0.118 C 
BRANCH  30  31
ATOM     31  N   UNL A   1      34.291  33.057  27.838  1.00  0.00    -0.352 N 
ATOM     32  C   UNL A   1      34.498  31.713  27.923  1.00  0.00     0.251 C 
ATOM     33  H   UNL A   1      33.368  33.274  27.572  1.00  0.00     0.163 HD
ATOM     34  O   UNL A   1      33.493  31.007  27.748  1.00  0.00    -0.269 OA
BRANCH  32  35
ATOM     35  C   UNL A   1      35.806  31.038  28.133  1.00  0.00     0.039 A 
ATOM     36  C   UNL A   1      36.072  29.683  27.935  1.00  0.00     0.014 A 
ATOM     37  C   UNL A   1      36.839  31.862  28.624  1.00  0.00     0.014 A 
ATOM     38  C   UNL A   1      37.302  29.149  28.319  1.00  0.00     0.010 A 
ATOM     39  C   UNL A   1      38.069  31.337  28.996  1.00  0.00     0.010 A 
ATOM     40  C   UNL A   1      38.282  29.969  28.891  1.00  0.00    -0.014 A 
BRANCH  40  41
ATOM     41  C   UNL A   1      39.566  29.378  29.257  1.00  0.00     0.031 A 
ATOM     42  C   UNL A   1      39.886  29.484  30.706  1.00  0.00     0.074 A 
ATOM     43  C   UNL A   1      40.353  28.698  28.395  1.00  0.00     0.049 A 
ATOM     44  N   UNL A   1      40.837  30.165  31.257  1.00  0.00    -0.248 NA
ATOM     45  C   UNL A   1      38.960  28.869  31.670  1.00  0.00     0.031 C 
ATOM     46  C   UNL A   1      40.030  28.298  27.022  1.00  0.00     0.029 A 
ATOM     47  N   UNL A   1      41.591  28.148  28.590  1.00  0.00    -0.354 N 
ATOM     48  C   UNL A   1      40.755  29.903  32.625  1.00  0.00     0.074 A 
ATOM     49  C   UNL A   1      39.497  29.239  32.835  1.00  0.00     0.031 C 
ATOM     50  C   UNL A   1      40.944  27.401  26.585  1.00  0.00     0.029 A 
ATOM     51  C   UNL A   1      41.993  27.276  27.582  1.00  0.00     0.049 A 
ATOM     52  H   UNL A   1      42.148  28.350  29.376  1.00  0.00     0.167 HD
ATOM     53  C   UNL A   1      41.854  30.024  33.420  1.00  0.00     0.037 A 
ATOM     54  C   UNL A   1      43.106  26.500  27.561  1.00  0.00     0.037 A 
ATOM     55  C   UNL A   1      42.885  30.773  32.749  1.00  0.00     0.049 A 
ATOM     56  C   UNL A   1      44.075  27.072  28.516  1.00  0.00     0.074 A 
ATOM     57  C   UNL A   1      43.136  32.090  32.434  1.00  0.00     0.029 A 
ATOM     58  N   UNL A   1      43.709  30.001  31.976  1.00  0.00    -0.354 N 
ATOM     59  N   UNL A   1      44.695  28.200  28.318  1.00  0.00    -0.248 NA
ATOM     60  C   UNL A   1      44.132  26.560  29.880  1.00  0.00     0.031 C 
ATOM     61  C   UNL A   1      43.983  32.061  31.284  1.00  0.00     0.029 A 
ATOM     62  C   UNL A   1      44.249  30.733  30.957  1.00  0.00     0.049 A 
ATOM     63  H   UNL A   1      43.889  29.046  32.134  1.00  0.00     0.167 HD
ATOM     64  C   UNL A   1      44.819  28.745  29.580  1.00  0.00     0.074 A 
ATOM     65  C   UNL A   1      44.639  27.629  30.499  1.00  0.00     0.031 C 
ATOM     66  C   UNL A   1      44.731  30.094  29.757  1.00  0.00     0.037 A 
BRANCH  53  67
ATOM     67  C   UNL A   1      42.221  29.062  34.539  1.00  0.00     0.057 A 
ATOM     68  C   UNL A   1      42.338  27.667  34.387  1.00  0.00     0.134 A 
ATOM     69  C   UNL A   1      42.829  29.581  35.703  1.00  0.00     0.134 A 
ATOM     70  F   UNL A   1      41.856  27.015  33.324  1.00  0.00    -0.206 F 
ATOM     71  C   UNL A   1      43.055  26.862  35.278  1.00  0.00     0.040 A 
ATOM     72  C   UNL A   1      43.586  28.790  36.576  1.00  0.00     0.040 A 
ATOM     73  F   UNL A   1      42.783  30.894  35.978  1.00  0.00    -0.206 F 
ATOM     74  C   UNL A   1      43.716  27.427  36.355  1.00  0.00     0.006 A 
ENDBRANCH  53  67
BRANCH  54  75
ATOM     75  C   UNL A   1      43.360  25.204  26.896  1.00  0.00     0.057 A 
ATOM     76  C   UNL A   1      44.012  25.155  25.654  1.00  0.00     0.134 A 
ATOM     77  C   UNL A   1      42.722  24.024  27.307  1.00  0.00     0.134 A 
ATOM     78  F   UNL A   1      44.596  26.249  25.141  1.00  0.00    -0.206 F 
ATOM     79  C   UNL A   1      44.002  24.010  24.849  1.00  0.00     0.040 A 
ATOM     80  C   UNL A   1      42.704  22.870  26.512  1.00  0.00     0.040 A 
ATOM     81  F   UNL A   1      42.045  23.982  28.464  1.00  0.00    -0.206 F 
ATOM     82  C   UNL A   1      43.334  22.866  25.271  1.00  0.00     0.006 A 
ENDBRANCH  54  75
BRANCH  66  83
ATOM     83  C   UNL A   1      44.987  30.945  28.553  1.00  0.00     0.057 A 
ATOM     84  C   UNL A   1      46.286  31.410  28.334  1.00  0.00     0.134 A 
ATOM     85  C   UNL A   1      43.999  31.345  27.641  1.00  0.00     0.134 A 
ATOM     86  F   UNL A   1      47.269  31.099  29.194  1.00  0.00    -0.206 F 
ATOM     87  C   UNL A   1      46.601  32.222  27.245  1.00  0.00     0.040 A 
ATOM     88  C   UNL A   1      44.308  32.130  26.527  1.00  0.00     0.040 A 
ATOM     89  F   UNL A   1      42.715  31.011  27.818  1.00  0.00    -0.206 F 
ATOM     90  C   UNL A   1      45.613  32.573  26.329  1.00  0.00     0.006 A 
ENDBRANCH  66  83
ENDBRANCH  40  41
ENDBRANCH  32  35
ENDBRANCH  30  31
ENDBRANCH   1  30
TORSDOF 12
ENDMDL
