MODEL 1
REMARK VINA RESULT:     -13.3      0.000      0.000
REMARK SMILES Cc1nc2ccc(Cl)cc2cc1C(=O)N1CCC(C(=O)NCCCNC(=O)c2ccc(-c3c4nc(c(-c5c(F)cccc5F)c5ccc([nH]5)c(-c5c(F)cccc5F)c5nc(c(-c6c(F)cccc6F)c6ccc3[nH]6)C=C5)C=C4)cc2)CC1
REMARK SMILES IDX 23 1 22 2 21 3 19 4 20 5 18 7 13 8 14 9 15 10 16 11 83 12
REMARK SMILES IDX 17 13 82 14 12 15 1 16 2 17 3 18 4 19 11 20 5 21 10 22 6 23
REMARK SMILES IDX 9 24 7 25 8 26 24 27 25 28 26 29 27 31 28 32 29 33 81 34
REMARK SMILES IDX 30 35 80 36 31 37 32 38 33 39 74 40 34 41 79 42 73 43 75 44
REMARK SMILES IDX 35 45 78 46 72 47 71 48 36 50 62 51 45 52 61 53 46 54 49 55
REMARK SMILES IDX 60 56 76 57 47 58 48 59 59 61 77 62 50 63 37 64 38 65 43 66
REMARK SMILES IDX 39 67 40 68 42 69 44 70 41 71 63 72 64 73 69 74 65 75 66 76
REMARK SMILES IDX 68 77 70 78 67 79 51 80 52 81 57 82 53 83 54 84 56 85 58 86
REMARK SMILES IDX 55 87
REMARK H PARENT 21 6 25 30 75 49 49 60
REMARK Flexibility Score: inf
ROOT
ATOM      1  C   UNL A   1      31.472  32.199  26.585  1.00  0.00     0.042 C 
ENDROOT
BRANCH   1   2
ATOM      2  C   UNL A   1      31.627  30.708  26.323  1.00  0.00     0.117 C 
BRANCH   2   3
ATOM      3  N   UNL A   1      31.150  30.329  25.001  1.00  0.00    -0.356 N 
ATOM      4  C   UNL A   1      31.472  29.274  24.205  1.00  0.00     0.223 C 
ATOM      5  O   UNL A   1      30.932  29.199  23.099  1.00  0.00    -0.275 OA
ATOM      6  H   UNL A   1      30.479  30.939  24.618  1.00  0.00     0.163 HD
BRANCH   4   7
ATOM      7  C   UNL A   1      32.465  28.217  24.653  1.00  0.00     0.082 C 
ATOM      8  C   UNL A   1      32.920  24.158  25.818  1.00  0.00     0.255 C 
ATOM      9  O   UNL A   1      32.070  23.771  26.615  1.00  0.00    -0.269 OA
ATOM     10  N   UNL A   1      32.989  25.493  25.404  1.00  0.00    -0.339 N 
ATOM     11  C   UNL A   1      32.932  26.496  26.452  1.00  0.00     0.120 C 
ATOM     12  C   UNL A   1      33.449  25.940  24.089  1.00  0.00     0.120 C 
ATOM     13  C   UNL A   1      32.119  27.706  26.055  1.00  0.00     0.035 C 
ATOM     14  C   UNL A   1      32.652  27.132  23.581  1.00  0.00     0.035 C 
BRANCH   8  15
ATOM     15  C   UNL A   1      34.044  23.252  25.451  1.00  0.00     0.061 A 
ATOM     16  C   UNL A   1      32.567  21.500  24.315  1.00  0.00     0.067 C 
ATOM     17  C   UNL A   1      33.884  22.026  24.805  1.00  0.00     0.051 A 
ATOM     18  N   UNL A   1      34.931  21.162  24.626  1.00  0.00    -0.252 NA
ATOM     19  C   UNL A   1      36.156  21.492  25.078  1.00  0.00     0.071 A 
ATOM     20  C   UNL A   1      35.319  23.562  25.938  1.00  0.00     0.026 A 
ATOM     21  C   UNL A   1      37.228  20.620  24.930  1.00  0.00     0.030 A 
ATOM     22  C   UNL A   1      36.399  22.712  25.727  1.00  0.00     0.002 A 
ATOM     23  C   UNL A   1      38.514  20.952  25.376  1.00  0.00     0.023 A 
ATOM     24  C   UNL A   1      37.682  23.063  26.171  1.00  0.00     0.030 A 
ATOM     25  C   UNL A   1      38.738  22.181  25.983  1.00  0.00     0.041 A 
ATOM     26  Cl  UNL A   1      40.316  22.620  26.504  1.00  0.00    -0.084 Cl
ENDBRANCH   8  15
ENDBRANCH   4   7
ENDBRANCH   2   3
ENDBRANCH   1   2
BRANCH   1  27
ATOM     27  C   UNL A   1      32.685  32.825  27.251  1.00  0.00     0.118 C 
BRANCH  27  28
ATOM     28  N   UNL A   1      32.457  34.214  27.626  1.00  0.00    -0.352 N 
ATOM     29  C   UNL A   1      33.024  34.957  28.629  1.00  0.00     0.251 C 
ATOM     30  H   UNL A   1      31.796  34.693  27.076  1.00  0.00     0.163 HD
ATOM     31  O   UNL A   1      32.548  36.052  28.925  1.00  0.00    -0.269 OA
BRANCH  29  32
ATOM     32  C   UNL A   1      34.193  34.437  29.367  1.00  0.00     0.039 A 
ATOM     33  C   UNL A   1      33.994  33.798  30.593  1.00  0.00     0.014 A 
ATOM     34  C   UNL A   1      35.484  34.581  28.852  1.00  0.00     0.014 A 
ATOM     35  C   UNL A   1      35.083  33.243  31.267  1.00  0.00     0.010 A 
ATOM     36  C   UNL A   1      36.549  33.940  29.471  1.00  0.00     0.010 A 
ATOM     37  C   UNL A   1      36.364  33.273  30.690  1.00  0.00    -0.014 A 
BRANCH  37  38
ATOM     38  C   UNL A   1      37.525  32.624  31.345  1.00  0.00     0.031 A 
ATOM     39  C   UNL A   1      38.221  31.472  30.675  1.00  0.00     0.074 A 
ATOM     40  C   UNL A   1      37.900  33.017  32.578  1.00  0.00     0.049 A 
ATOM     41  N   UNL A   1      39.192  30.717  31.124  1.00  0.00    -0.248 NA
ATOM     42  C   UNL A   1      37.739  31.098  29.336  1.00  0.00     0.031 C 
ATOM     43  C   UNL A   1      37.267  34.082  33.357  1.00  0.00     0.029 A 
ATOM     44  N   UNL A   1      38.896  32.550  33.400  1.00  0.00    -0.354 N 
ATOM     45  C   UNL A   1      39.423  29.774  30.131  1.00  0.00     0.074 A 
ATOM     46  C   UNL A   1      38.448  30.009  29.088  1.00  0.00     0.031 C 
ATOM     47  C   UNL A   1      37.897  34.198  34.536  1.00  0.00     0.029 A 
ATOM     48  C   UNL A   1      38.949  33.189  34.614  1.00  0.00     0.049 A 
ATOM     49  H   UNL A   1      39.512  31.827  33.143  1.00  0.00     0.167 HD
ATOM     50  C   UNL A   1      40.378  28.814  30.080  1.00  0.00     0.037 A 
ATOM     51  C   UNL A   1      39.745  32.974  35.679  1.00  0.00     0.037 A 
ATOM     52  C   UNL A   1      41.352  28.594  31.115  1.00  0.00     0.049 A 
ATOM     53  C   UNL A   1      40.793  31.899  35.606  1.00  0.00     0.074 A 
ATOM     54  C   UNL A   1      42.399  27.690  31.136  1.00  0.00     0.029 A 
ATOM     55  N   UNL A   1      41.393  29.281  32.320  1.00  0.00    -0.354 N 
ATOM     56  N   UNL A   1      41.053  31.064  34.630  1.00  0.00    -0.248 NA
ATOM     57  C   UNL A   1      41.663  31.742  36.780  1.00  0.00     0.031 C 
ATOM     58  C   UNL A   1      43.040  27.791  32.376  1.00  0.00     0.029 A 
ATOM     59  C   UNL A   1      42.430  28.801  33.104  1.00  0.00     0.049 A 
ATOM     60  H   UNL A   1      40.777  30.003  32.580  1.00  0.00     0.167 HD
ATOM     61  C   UNL A   1      42.130  30.299  35.060  1.00  0.00     0.074 A 
ATOM     62  C   UNL A   1      42.483  30.781  36.379  1.00  0.00     0.031 C 
ATOM     63  C   UNL A   1      42.769  29.290  34.417  1.00  0.00     0.037 A 
BRANCH  50  64
ATOM     64  C   UNL A   1      40.401  27.931  28.865  1.00  0.00     0.057 A 
ATOM     65  C   UNL A   1      41.167  28.246  27.732  1.00  0.00     0.134 A 
ATOM     66  C   UNL A   1      39.653  26.748  28.824  1.00  0.00     0.134 A 
ATOM     67  F   UNL A   1      41.899  29.370  27.698  1.00  0.00    -0.206 F 
ATOM     68  C   UNL A   1      41.154  27.440  26.592  1.00  0.00     0.040 A 
ATOM     69  C   UNL A   1      39.658  25.917  27.702  1.00  0.00     0.040 A 
ATOM     70  F   UNL A   1      38.903  26.379  29.874  1.00  0.00    -0.206 F 
ATOM     71  C   UNL A   1      40.402  26.269  26.577  1.00  0.00     0.006 A 
ENDBRANCH  50  64
BRANCH  51  72
ATOM     72  C   UNL A   1      39.582  33.807  36.897  1.00  0.00     0.057 A 
ATOM     73  C   UNL A   1      40.280  35.009  37.054  1.00  0.00     0.134 A 
ATOM     74  C   UNL A   1      38.710  33.430  37.926  1.00  0.00     0.134 A 
ATOM     75  F   UNL A   1      41.143  35.416  36.111  1.00  0.00    -0.206 F 
ATOM     76  C   UNL A   1      40.130  35.799  38.195  1.00  0.00     0.040 A 
ATOM     77  C   UNL A   1      38.528  34.223  39.060  1.00  0.00     0.040 A 
ATOM     78  F   UNL A   1      38.003  32.293  37.832  1.00  0.00    -0.206 F 
ATOM     79  C   UNL A   1      39.245  35.409  39.199  1.00  0.00     0.006 A 
ENDBRANCH  51  72
BRANCH  63  80
ATOM     80  C   UNL A   1      43.936  28.657  35.119  1.00  0.00     0.057 A 
ATOM     81  C   UNL A   1      43.787  27.532  35.941  1.00  0.00     0.134 A 
ATOM     82  C   UNL A   1      45.233  29.151  34.929  1.00  0.00     0.134 A 
ATOM     83  F   UNL A   1      42.570  27.017  36.174  1.00  0.00    -0.206 F 
ATOM     84  C   UNL A   1      44.883  26.937  36.567  1.00  0.00     0.040 A 
ATOM     85  C   UNL A   1      46.340  28.546  35.525  1.00  0.00     0.040 A 
ATOM     86  F   UNL A   1      45.447  30.220  34.147  1.00  0.00    -0.206 F 
ATOM     87  C   UNL A   1      46.166  27.439  36.351  1.00  0.00     0.006 A 
ENDBRANCH  63  80
ENDBRANCH  37  38
ENDBRANCH  29  32
ENDBRANCH  27  28
ENDBRANCH   1  27
TORSDOF 11
ENDMDL
MODEL 2
REMARK VINA RESULT:     -13.2      5.118     10.726
REMARK SMILES Cc1nc2ccc(Cl)cc2cc1C(=O)N1CCC(C(=O)NCCCNC(=O)c2ccc(-c3c4nc(c(-c5c(F)cccc5F)c5ccc([nH]5)c(-c5c(F)cccc5F)c5nc(c(-c6c(F)cccc6F)c6ccc3[nH]6)C=C5)C=C4)cc2)CC1
REMARK SMILES IDX 23 1 22 2 21 3 19 4 20 5 18 7 13 8 14 9 15 10 16 11 83 12
REMARK SMILES IDX 17 13 82 14 12 15 1 16 2 17 3 18 4 19 11 20 5 21 10 22 6 23
REMARK SMILES IDX 9 24 7 25 8 26 24 27 25 28 26 29 27 31 28 32 29 33 81 34
REMARK SMILES IDX 30 35 80 36 31 37 32 38 33 39 74 40 34 41 79 42 73 43 75 44
REMARK SMILES IDX 35 45 78 46 72 47 71 48 36 50 62 51 45 52 61 53 46 54 49 55
REMARK SMILES IDX 60 56 76 57 47 58 48 59 59 61 77 62 50 63 37 64 38 65 43 66
REMARK SMILES IDX 39 67 40 68 42 69 44 70 41 71 63 72 64 73 69 74 65 75 66 76
REMARK SMILES IDX 68 77 70 78 67 79 51 80 52 81 57 82 53 83 54 84 56 85 58 86
REMARK SMILES IDX 55 87
REMARK H PARENT 21 6 25 30 75 49 49 60
REMARK Flexibility Score: inf
ROOT
ATOM      1  C   UNL A   1      37.994  19.589  25.064  1.00  0.00     0.042 C 
ENDROOT
BRANCH   1   2
ATOM      2  C   UNL A   1      36.963  20.685  24.838  1.00  0.00     0.117 C 
BRANCH   2   3
ATOM      3  N   UNL A   1      35.602  20.213  25.047  1.00  0.00    -0.356 N 
ATOM      4  C   UNL A   1      34.464  20.885  25.372  1.00  0.00     0.223 C 
ATOM      5  O   UNL A   1      33.429  20.232  25.518  1.00  0.00    -0.275 OA
ATOM      6  H   UNL A   1      35.484  19.242  24.934  1.00  0.00     0.163 HD
BRANCH   4   7
ATOM      7  C   UNL A   1      34.458  22.393  25.551  1.00  0.00     0.082 C 
ATOM      8  C   UNL A   1      33.353  26.091  23.778  1.00  0.00     0.255 C 
ATOM      9  O   UNL A   1      33.649  26.181  22.590  1.00  0.00    -0.269 OA
ATOM     10  N   UNL A   1      33.731  24.988  24.551  1.00  0.00    -0.339 N 
ATOM     11  C   UNL A   1      35.119  24.576  24.449  1.00  0.00     0.120 C 
ATOM     12  C   UNL A   1      32.965  24.449  25.675  1.00  0.00     0.120 C 
ATOM     13  C   UNL A   1      35.282  23.074  24.453  1.00  0.00     0.035 C 
ATOM     14  C   UNL A   1      33.030  22.930  25.734  1.00  0.00     0.035 C 
BRANCH   8  15
ATOM     15  C   UNL A   1      32.776  27.272  24.480  1.00  0.00     0.061 A 
ATOM     16  C   UNL A   1      30.561  27.242  23.202  1.00  0.00     0.067 C 
ATOM     17  C   UNL A   1      31.527  27.822  24.193  1.00  0.00     0.051 A 
ATOM     18  N   UNL A   1      31.107  28.996  24.759  1.00  0.00    -0.252 NA
ATOM     19  C   UNL A   1      31.911  29.648  25.621  1.00  0.00     0.071 A 
ATOM     20  C   UNL A   1      33.607  27.981  25.355  1.00  0.00     0.026 A 
ATOM     21  C   UNL A   1      31.516  30.854  26.187  1.00  0.00     0.030 A 
ATOM     22  C   UNL A   1      33.177  29.153  25.968  1.00  0.00     0.002 A 
ATOM     23  C   UNL A   1      32.329  31.539  27.100  1.00  0.00     0.023 A 
ATOM     24  C   UNL A   1      33.998  29.822  26.887  1.00  0.00     0.030 A 
ATOM     25  C   UNL A   1      33.563  31.011  27.457  1.00  0.00     0.041 A 
ATOM     26  Cl  UNL A   1      34.558  31.819  28.602  1.00  0.00    -0.084 Cl
ENDBRANCH   8  15
ENDBRANCH   4   7
ENDBRANCH   2   3
ENDBRANCH   1   2
BRANCH   1  27
ATOM     27  C   UNL A   1      39.251  20.077  25.762  1.00  0.00     0.118 C 
BRANCH  27  28
ATOM     28  N   UNL A   1      40.256  19.030  25.893  1.00  0.00    -0.352 N 
ATOM     29  C   UNL A   1      41.607  19.131  26.096  1.00  0.00     0.251 C 
ATOM     30  H   UNL A   1      39.912  18.110  25.825  1.00  0.00     0.163 HD
ATOM     31  O   UNL A   1      42.322  18.137  25.967  1.00  0.00    -0.269 OA
BRANCH  29  32
ATOM     32  C   UNL A   1      42.209  20.432  26.452  1.00  0.00     0.039 A 
ATOM     33  C   UNL A   1      42.739  21.236  25.440  1.00  0.00     0.014 A 
ATOM     34  C   UNL A   1      42.253  20.858  27.782  1.00  0.00     0.014 A 
ATOM     35  C   UNL A   1      43.248  22.496  25.756  1.00  0.00     0.010 A 
ATOM     36  C   UNL A   1      42.665  22.150  28.080  1.00  0.00     0.010 A 
ATOM     37  C   UNL A   1      43.177  22.980  27.073  1.00  0.00    -0.014 A 
BRANCH  37  38
ATOM     38  C   UNL A   1      43.639  24.345  27.423  1.00  0.00     0.031 A 
ATOM     39  C   UNL A   1      42.644  25.394  27.834  1.00  0.00     0.074 A 
ATOM     40  C   UNL A   1      44.942  24.662  27.292  1.00  0.00     0.049 A 
ATOM     41  N   UNL A   1      42.838  26.663  28.091  1.00  0.00    -0.248 NA
ATOM     42  C   UNL A   1      41.240  24.968  27.938  1.00  0.00     0.031 C 
ATOM     43  C   UNL A   1      45.995  23.749  26.846  1.00  0.00     0.029 A 
ATOM     44  N   UNL A   1      45.598  25.849  27.506  1.00  0.00    -0.354 N 
ATOM     45  C   UNL A   1      41.581  27.186  28.369  1.00  0.00     0.074 A 
ATOM     46  C   UNL A   1      40.627  26.115  28.185  1.00  0.00     0.031 C 
ATOM     47  C   UNL A   1      47.166  24.403  26.832  1.00  0.00     0.029 A 
ATOM     48  C   UNL A   1      46.942  25.790  27.227  1.00  0.00     0.049 A 
ATOM     49  H   UNL A   1      45.149  26.663  27.828  1.00  0.00     0.167 HD
ATOM     50  C   UNL A   1      41.254  28.439  28.767  1.00  0.00     0.037 A 
ATOM     51  C   UNL A   1      47.884  26.751  27.267  1.00  0.00     0.037 A 
ATOM     52  C   UNL A   1      42.210  29.496  28.961  1.00  0.00     0.049 A 
ATOM     53  C   UNL A   1      47.500  28.137  27.704  1.00  0.00     0.074 A 
ATOM     54  C   UNL A   1      41.992  30.783  29.420  1.00  0.00     0.029 A 
ATOM     55  N   UNL A   1      43.568  29.391  28.696  1.00  0.00    -0.354 N 
ATOM     56  N   UNL A   1      46.320  28.599  28.041  1.00  0.00    -0.248 NA
ATOM     57  C   UNL A   1      48.578  29.132  27.775  1.00  0.00     0.031 C 
ATOM     58  C   UNL A   1      43.208  31.473  29.381  1.00  0.00     0.029 A 
ATOM     59  C   UNL A   1      44.196  30.599  28.955  1.00  0.00     0.049 A 
ATOM     60  H   UNL A   1      44.019  28.578  28.372  1.00  0.00     0.167 HD
ATOM     61  C   UNL A   1      46.517  29.931  28.386  1.00  0.00     0.074 A 
ATOM     62  C   UNL A   1      47.933  30.196  28.232  1.00  0.00     0.031 C 
ATOM     63  C   UNL A   1      45.607  30.849  28.795  1.00  0.00     0.037 A 
BRANCH  50  64
ATOM     64  C   UNL A   1      39.799  28.725  29.011  1.00  0.00     0.057 A 
ATOM     65  C   UNL A   1      39.213  28.569  30.276  1.00  0.00     0.134 A 
ATOM     66  C   UNL A   1      38.971  29.166  27.971  1.00  0.00     0.134 A 
ATOM     67  F   UNL A   1      39.944  28.140  31.316  1.00  0.00    -0.206 F 
ATOM     68  C   UNL A   1      37.853  28.801  30.487  1.00  0.00     0.040 A 
ATOM     69  C   UNL A   1      37.617  29.433  28.177  1.00  0.00     0.040 A 
ATOM     70  F   UNL A   1      39.465  29.345  26.736  1.00  0.00    -0.206 F 
ATOM     71  C   UNL A   1      37.051  29.239  29.436  1.00  0.00     0.006 A 
ENDBRANCH  50  64
BRANCH  51  72
ATOM     72  C   UNL A   1      49.283  26.424  26.893  1.00  0.00     0.057 A 
ATOM     73  C   UNL A   1      50.171  25.864  27.817  1.00  0.00     0.134 A 
ATOM     74  C   UNL A   1      49.760  26.646  25.595  1.00  0.00     0.134 A 
ATOM     75  F   UNL A   1      49.778  25.643  29.081  1.00  0.00    -0.206 F 
ATOM     76  C   UNL A   1      51.487  25.551  27.471  1.00  0.00     0.040 A 
ATOM     77  C   UNL A   1      51.064  26.312  25.227  1.00  0.00     0.040 A 
ATOM     78  F   UNL A   1      48.955  27.170  24.658  1.00  0.00    -0.206 F 
ATOM     79  C   UNL A   1      51.934  25.768  26.170  1.00  0.00     0.006 A 
ENDBRANCH  51  72
BRANCH  63  80
ATOM     80  C   UNL A   1      46.117  32.220  29.135  1.00  0.00     0.057 A 
ATOM     81  C   UNL A   1      46.573  32.543  30.420  1.00  0.00     0.134 A 
ATOM     82  C   UNL A   1      46.197  33.213  28.152  1.00  0.00     0.134 A 
ATOM     83  F   UNL A   1      46.512  31.642  31.411  1.00  0.00    -0.206 F 
ATOM     84  C   UNL A   1      47.069  33.814  30.718  1.00  0.00     0.040 A 
ATOM     85  C   UNL A   1      46.719  34.477  28.430  1.00  0.00     0.040 A 
ATOM     86  F   UNL A   1      45.785  32.966  26.898  1.00  0.00    -0.206 F 
ATOM     87  C   UNL A   1      47.152  34.781  29.718  1.00  0.00     0.006 A 
ENDBRANCH  63  80
ENDBRANCH  37  38
ENDBRANCH  29  32
ENDBRANCH  27  28
ENDBRANCH   1  27
TORSDOF 11
ENDMDL
MODEL 3
REMARK VINA RESULT:     -13.1      4.829     10.022
REMARK SMILES Cc1nc2ccc(Cl)cc2cc1C(=O)N1CCC(C(=O)NCCCNC(=O)c2ccc(-c3c4nc(c(-c5c(F)cccc5F)c5ccc([nH]5)c(-c5c(F)cccc5F)c5nc(c(-c6c(F)cccc6F)c6ccc3[nH]6)C=C5)C=C4)cc2)CC1
REMARK SMILES IDX 23 1 22 2 21 3 19 4 20 5 18 7 13 8 14 9 15 10 16 11 83 12
REMARK SMILES IDX 17 13 82 14 12 15 1 16 2 17 3 18 4 19 11 20 5 21 10 22 6 23
REMARK SMILES IDX 9 24 7 25 8 26 24 27 25 28 26 29 27 31 28 32 29 33 81 34
REMARK SMILES IDX 30 35 80 36 31 37 32 38 33 39 74 40 34 41 79 42 73 43 75 44
REMARK SMILES IDX 35 45 78 46 72 47 71 48 36 50 62 51 45 52 61 53 46 54 49 55
REMARK SMILES IDX 60 56 76 57 47 58 48 59 59 61 77 62 50 63 37 64 38 65 43 66
REMARK SMILES IDX 39 67 40 68 42 69 44 70 41 71 63 72 64 73 69 74 65 75 66 76
REMARK SMILES IDX 68 77 70 78 67 79 51 80 52 81 57 82 53 83 54 84 56 85 58 86
REMARK SMILES IDX 55 87
REMARK H PARENT 21 6 25 30 75 49 49 60
REMARK Flexibility Score: inf
ROOT
ATOM      1  C   UNL A   1      37.642  20.299  24.670  1.00  0.00     0.042 C 
ENDROOT
BRANCH   1   2
ATOM      2  C   UNL A   1      36.223  20.558  25.154  1.00  0.00     0.117 C 
BRANCH   2   3
ATOM      3  N   UNL A   1      35.353  19.410  24.947  1.00  0.00    -0.356 N 
ATOM      4  C   UNL A   1      34.033  19.338  24.624  1.00  0.00     0.223 C 
ATOM      5  O   UNL A   1      33.521  18.220  24.533  1.00  0.00    -0.275 OA
ATOM      6  H   UNL A   1      35.794  18.538  25.059  1.00  0.00     0.163 HD
BRANCH   4   7
ATOM      7  C   UNL A   1      33.207  20.588  24.382  1.00  0.00     0.082 C 
ATOM      8  C   UNL A   1      31.920  24.274  26.056  1.00  0.00     0.255 C 
ATOM      9  O   UNL A   1      31.541  24.186  27.220  1.00  0.00    -0.269 OA
ATOM     10  N   UNL A   1      32.281  23.146  25.310  1.00  0.00    -0.339 N 
ATOM     11  C   UNL A   1      31.359  22.026  25.350  1.00  0.00     0.120 C 
ATOM     12  C   UNL A   1      33.296  23.127  24.255  1.00  0.00     0.120 C 
ATOM     13  C   UNL A   1      32.067  20.692  25.400  1.00  0.00     0.035 C 
ATOM     14  C   UNL A   1      34.097  21.834  24.257  1.00  0.00     0.035 C 
BRANCH   8  15
ATOM     15  C   UNL A   1      31.785  25.573  25.339  1.00  0.00     0.061 A 
ATOM     16  C   UNL A   1      34.151  26.382  25.876  1.00  0.00     0.067 C 
ATOM     17  C   UNL A   1      32.779  26.549  25.289  1.00  0.00     0.051 A 
ATOM     18  N   UNL A   1      32.552  27.786  24.748  1.00  0.00    -0.252 NA
ATOM     19  C   UNL A   1      31.339  28.082  24.242  1.00  0.00     0.071 A 
ATOM     20  C   UNL A   1      30.524  25.911  24.833  1.00  0.00     0.026 A 
ATOM     21  C   UNL A   1      31.078  29.339  23.710  1.00  0.00     0.030 A 
ATOM     22  C   UNL A   1      30.291  27.149  24.244  1.00  0.00     0.002 A 
ATOM     23  C   UNL A   1      29.829  29.661  23.162  1.00  0.00     0.023 A 
ATOM     24  C   UNL A   1      29.038  27.453  23.691  1.00  0.00     0.030 A 
ATOM     25  C   UNL A   1      28.817  28.709  23.142  1.00  0.00     0.041 A 
ATOM     26  Cl  UNL A   1      27.292  29.075  22.442  1.00  0.00    -0.084 Cl
ENDBRANCH   8  15
ENDBRANCH   4   7
ENDBRANCH   2   3
ENDBRANCH   1   2
BRANCH   1  27
ATOM     27  C   UNL A   1      38.701  20.589  25.719  1.00  0.00     0.118 C 
BRANCH  27  28
ATOM     28  N   UNL A   1      39.733  19.561  25.766  1.00  0.00    -0.352 N 
ATOM     29  C   UNL A   1      41.070  19.672  26.044  1.00  0.00     0.251 C 
ATOM     30  H   UNL A   1      39.422  18.648  25.569  1.00  0.00     0.163 HD
ATOM     31  O   UNL A   1      41.822  18.722  25.827  1.00  0.00    -0.269 OA
BRANCH  29  32
ATOM     32  C   UNL A   1      41.614  20.933  26.587  1.00  0.00     0.039 A 
ATOM     33  C   UNL A   1      42.092  21.904  25.704  1.00  0.00     0.014 A 
ATOM     34  C   UNL A   1      41.653  21.158  27.966  1.00  0.00     0.014 A 
ATOM     35  C   UNL A   1      42.544  23.127  26.202  1.00  0.00     0.010 A 
ATOM     36  C   UNL A   1      42.006  22.410  28.451  1.00  0.00     0.010 A 
ATOM     37  C   UNL A   1      42.465  23.405  27.576  1.00  0.00    -0.014 A 
BRANCH  37  38
ATOM     38  C   UNL A   1      42.866  24.724  28.124  1.00  0.00     0.031 A 
ATOM     39  C   UNL A   1      41.829  25.786  28.363  1.00  0.00     0.074 A 
ATOM     40  C   UNL A   1      44.170  24.992  28.329  1.00  0.00     0.049 A 
ATOM     41  N   UNL A   1      41.989  27.027  28.749  1.00  0.00    -0.248 NA
ATOM     42  C   UNL A   1      40.430  25.415  28.100  1.00  0.00     0.031 C 
ATOM     43  C   UNL A   1      45.275  24.066  28.080  1.00  0.00     0.029 A 
ATOM     44  N   UNL A   1      44.787  26.134  28.778  1.00  0.00    -0.354 N 
ATOM     45  C   UNL A   1      40.717  27.584  28.759  1.00  0.00     0.074 A 
ATOM     46  C   UNL A   1      39.806  26.568  28.277  1.00  0.00     0.031 C 
ATOM     47  C   UNL A   1      46.432  24.669  28.392  1.00  0.00     0.029 A 
ATOM     48  C   UNL A   1      46.156  26.036  28.822  1.00  0.00     0.049 A 
ATOM     49  H   UNL A   1      44.295  26.944  29.042  1.00  0.00     0.167 HD
ATOM     50  C   UNL A   1      40.337  28.821  29.159  1.00  0.00     0.037 A 
ATOM     51  C   UNL A   1      47.086  26.951  29.153  1.00  0.00     0.037 A 
ATOM     52  C   UNL A   1      41.246  29.822  29.649  1.00  0.00     0.049 A 
ATOM     53  C   UNL A   1      46.645  28.321  29.586  1.00  0.00     0.074 A 
ATOM     54  C   UNL A   1      40.958  31.085  30.136  1.00  0.00     0.029 A 
ATOM     55  N   UNL A   1      42.625  29.676  29.707  1.00  0.00    -0.354 N 
ATOM     56  N   UNL A   1      45.432  28.811  29.666  1.00  0.00    -0.248 NA
ATOM     57  C   UNL A   1      47.701  29.262  29.983  1.00  0.00     0.031 C 
ATOM     58  C   UNL A   1      42.166  31.724  30.435  1.00  0.00     0.029 A 
ATOM     59  C   UNL A   1      43.204  30.837  30.193  1.00  0.00     0.049 A 
ATOM     60  H   UNL A   1      43.119  28.867  29.440  1.00  0.00     0.167 HD
ATOM     61  C   UNL A   1      45.576  30.108  30.144  1.00  0.00     0.074 A 
ATOM     62  C   UNL A   1      46.993  30.321  30.349  1.00  0.00     0.031 C 
ATOM     63  C   UNL A   1      44.618  31.036  30.391  1.00  0.00     0.037 A 
BRANCH  50  64
ATOM     64  C   UNL A   1      38.874  29.153  29.071  1.00  0.00     0.057 A 
ATOM     65  C   UNL A   1      38.026  29.077  30.187  1.00  0.00     0.134 A 
ATOM     66  C   UNL A   1      38.302  29.557  27.858  1.00  0.00     0.134 A 
ATOM     67  F   UNL A   1      38.504  28.686  31.377  1.00  0.00    -0.206 F 
ATOM     68  C   UNL A   1      36.661  29.351  30.089  1.00  0.00     0.040 A 
ATOM     69  C   UNL A   1      36.945  29.866  27.755  1.00  0.00     0.040 A 
ATOM     70  F   UNL A   1      39.053  29.660  26.751  1.00  0.00    -0.206 F 
ATOM     71  C   UNL A   1      36.117  29.751  28.871  1.00  0.00     0.006 A 
ENDBRANCH  50  64
BRANCH  51  72
ATOM     72  C   UNL A   1      48.525  26.589  29.099  1.00  0.00     0.057 A 
ATOM     73  C   UNL A   1      49.307  26.883  27.976  1.00  0.00     0.134 A 
ATOM     74  C   UNL A   1      49.158  25.956  30.176  1.00  0.00     0.134 A 
ATOM     75  F   UNL A   1      48.754  27.473  26.906  1.00  0.00    -0.206 F 
ATOM     76  C   UNL A   1      50.661  26.548  27.919  1.00  0.00     0.040 A 
ATOM     77  C   UNL A   1      50.517  25.640  30.145  1.00  0.00     0.040 A 
ATOM     78  F   UNL A   1      48.467  25.655  31.286  1.00  0.00    -0.206 F 
ATOM     79  C   UNL A   1      51.271  25.931  29.010  1.00  0.00     0.006 A 
ENDBRANCH  51  72
BRANCH  63  80
ATOM     80  C   UNL A   1      45.068  32.359  30.941  1.00  0.00     0.057 A 
ATOM     81  C   UNL A   1      45.366  33.446  30.108  1.00  0.00     0.134 A 
ATOM     82  C   UNL A   1      45.156  32.562  32.324  1.00  0.00     0.134 A 
ATOM     83  F   UNL A   1      45.314  33.315  28.774  1.00  0.00    -0.206 F 
ATOM     84  C   UNL A   1      45.758  34.679  30.632  1.00  0.00     0.040 A 
ATOM     85  C   UNL A   1      45.516  33.799  32.859  1.00  0.00     0.040 A 
ATOM     86  F   UNL A   1      44.875  31.566  33.178  1.00  0.00    -0.206 F 
ATOM     87  C   UNL A   1      45.824  34.860  32.012  1.00  0.00     0.006 A 
ENDBRANCH  63  80
ENDBRANCH  37  38
ENDBRANCH  29  32
ENDBRANCH  27  28
ENDBRANCH   1  27
TORSDOF 11
ENDMDL
