MODEL 1
REMARK VINA RESULT:     -12.6      0.000      0.000
REMARK SMILES CC(C)NC(=O)c1cccc(NC(=O)[C@@H]2[C@H](C(=O)NCCCNC(=O)c3ccc(-c4c5nc(c(-c6c(F)cccc6F)c6ccc([nH]6)c(-c6c(F)cccc6F)c6nc(c(-c7c(F)cccc7F)c7ccc4[nH]7)C=C6)C=C5)cc3)C2(C)C)c1
REMARK SMILES IDX 20 1 19 2 17 3 18 4 16 6 15 7 80 8 81 9 82 10 13 11 12 12
REMARK SMILES IDX 14 14 11 15 7 16 8 17 83 18 9 19 10 20 5 21 4 22 6 24 2 25
REMARK SMILES IDX 1 26 3 27 21 28 22 29 23 30 24 31 25 33 26 34 27 35 79 36
REMARK SMILES IDX 28 37 78 38 29 39 30 40 31 41 72 42 32 43 77 44 71 45 73 46
REMARK SMILES IDX 33 47 76 48 70 49 69 50 34 52 60 53 43 54 59 55 44 56 47 57
REMARK SMILES IDX 58 58 74 59 45 60 46 61 57 63 75 64 48 65 35 66 36 67 41 68
REMARK SMILES IDX 37 69 38 70 40 71 42 72 39 73 61 74 62 75 67 76 63 77 64 78
REMARK SMILES IDX 66 79 68 80 65 81 49 82 50 83 55 84 51 85 52 86 54 87 56 88
REMARK SMILES IDX 53 89
REMARK H PARENT 19 5 12 13 4 23 23 32 73 51 47 62
REMARK Flexibility Score: inf
ROOT
ATOM      1  C   UNL A   1      36.546  20.669  24.995  1.00  0.00     0.117 C 
ENDROOT
BRANCH   1   2
ATOM      2  N   UNL A   1      35.319  19.943  25.278  1.00  0.00    -0.356 N 
ATOM      3  C   UNL A   1      34.026  20.355  25.081  1.00  0.00     0.224 C 
ATOM      4  O   UNL A   1      33.094  19.586  25.276  1.00  0.00    -0.275 OA
ATOM      5  H   UNL A   1      35.430  19.043  25.662  1.00  0.00     0.163 HD
BRANCH   3   6
ATOM      6  C   UNL A   1      33.848  21.698  24.505  1.00  0.00     0.098 C 
ATOM      7  C   UNL A   1      32.668  22.623  24.580  1.00  0.00     0.098 C 
ATOM      8  C   UNL A   1      33.952  22.950  25.362  1.00  0.00    -0.011 C 
ATOM      9  C   UNL A   1      34.873  24.040  24.872  1.00  0.00     0.013 C 
ATOM     10  C   UNL A   1      33.894  22.852  26.874  1.00  0.00     0.013 C 
BRANCH   7  11
ATOM     11  C   UNL A   1      31.396  22.491  25.327  1.00  0.00     0.228 C 
ATOM     12  N   UNL A   1      30.648  23.619  25.616  1.00  0.00    -0.326 N 
ATOM     13  H   UNL A   1      29.794  23.416  26.062  1.00  0.00     0.169 HD
ATOM     14  O   UNL A   1      30.983  21.399  25.701  1.00  0.00    -0.274 OA
BRANCH  12  15
ATOM     15  C   UNL A   1      30.854  25.000  25.404  1.00  0.00     0.041 A 
ATOM     16  C   UNL A   1      30.740  26.860  23.832  1.00  0.00     0.041 A 
ATOM     17  C   UNL A   1      30.953  27.768  24.873  1.00  0.00     0.014 A 
ATOM     18  C   UNL A   1      30.718  25.480  24.093  1.00  0.00     0.040 A 
ATOM     19  C   UNL A   1      31.177  27.298  26.154  1.00  0.00     0.003 A 
ATOM     20  C   UNL A   1      31.153  25.926  26.402  1.00  0.00     0.026 A 
BRANCH  16  21
ATOM     21  C   UNL A   1      30.628  27.438  22.476  1.00  0.00     0.251 C 
ATOM     22  N   UNL A   1      31.382  26.989  21.429  1.00  0.00    -0.350 N 
ATOM     23  H   UNL A   1      31.251  27.491  20.592  1.00  0.00     0.164 HD
ATOM     24  O   UNL A   1      29.800  28.325  22.277  1.00  0.00    -0.269 OA
BRANCH  22  25
ATOM     25  C   UNL A   1      32.344  25.899  21.329  1.00  0.00     0.076 C 
ATOM     26  C   UNL A   1      32.565  25.528  19.867  1.00  0.00     0.030 C 
ATOM     27  C   UNL A   1      33.647  26.332  21.994  1.00  0.00     0.030 C 
ENDBRANCH  22  25
ENDBRANCH  16  21
ENDBRANCH  12  15
ENDBRANCH   7  11
ENDBRANCH   3   6
ENDBRANCH   1   2
BRANCH   1  28
ATOM     28  C   UNL A   1      37.751  19.745  24.894  1.00  0.00     0.042 C 
BRANCH  28  29
ATOM     29  C   UNL A   1      38.923  20.179  25.761  1.00  0.00     0.118 C 
BRANCH  29  30
ATOM     30  N   UNL A   1      39.950  19.153  25.857  1.00  0.00    -0.352 N 
ATOM     31  C   UNL A   1      41.295  19.271  26.092  1.00  0.00     0.251 C 
ATOM     32  H   UNL A   1      39.629  18.230  25.735  1.00  0.00     0.163 HD
ATOM     33  O   UNL A   1      42.025  18.295  25.943  1.00  0.00    -0.269 OA
BRANCH  31  34
ATOM     34  C   UNL A   1      41.873  20.571  26.497  1.00  0.00     0.039 A 
ATOM     35  C   UNL A   1      42.344  21.430  25.501  1.00  0.00     0.014 A 
ATOM     36  C   UNL A   1      41.967  20.938  27.842  1.00  0.00     0.014 A 
ATOM     37  C   UNL A   1      42.848  22.683  25.851  1.00  0.00     0.010 A 
ATOM     38  C   UNL A   1      42.388  22.221  28.182  1.00  0.00     0.010 A 
ATOM     39  C   UNL A   1      42.835  23.107  27.191  1.00  0.00    -0.014 A 
BRANCH  39  40
ATOM     40  C   UNL A   1      43.266  24.479  27.558  1.00  0.00     0.031 A 
ATOM     41  C   UNL A   1      42.256  25.521  27.951  1.00  0.00     0.074 A 
ATOM     42  C   UNL A   1      44.573  24.799  27.490  1.00  0.00     0.049 A 
ATOM     43  N   UNL A   1      42.447  26.774  28.278  1.00  0.00    -0.248 NA
ATOM     44  C   UNL A   1      40.843  25.109  27.957  1.00  0.00     0.031 C 
ATOM     45  C   UNL A   1      45.646  23.894  27.074  1.00  0.00     0.029 A 
ATOM     46  N   UNL A   1      45.223  25.976  27.766  1.00  0.00    -0.354 N 
ATOM     47  C   UNL A   1      41.185  27.300  28.521  1.00  0.00     0.074 A 
ATOM     48  C   UNL A   1      40.230  26.247  28.247  1.00  0.00     0.031 C 
ATOM     49  C   UNL A   1      46.820  24.537  27.153  1.00  0.00     0.029 A 
ATOM     50  C   UNL A   1      46.582  25.911  27.581  1.00  0.00     0.049 A 
ATOM     51  H   UNL A   1      44.759  26.790  28.068  1.00  0.00     0.167 HD
ATOM     52  C   UNL A   1      40.851  28.539  28.956  1.00  0.00     0.037 A 
ATOM     53  C   UNL A   1      47.532  26.854  27.731  1.00  0.00     0.037 A 
ATOM     54  C   UNL A   1      41.805  29.582  29.236  1.00  0.00     0.049 A 
ATOM     55  C   UNL A   1      47.133  28.229  28.190  1.00  0.00     0.074 A 
ATOM     56  C   UNL A   1      41.571  30.851  29.732  1.00  0.00     0.029 A 
ATOM     57  N   UNL A   1      43.174  29.478  29.032  1.00  0.00    -0.354 N 
ATOM     58  N   UNL A   1      45.942  28.688  28.491  1.00  0.00    -0.248 NA
ATOM     59  C   UNL A   1      48.211  29.215  28.338  1.00  0.00     0.031 C 
ATOM     60  C   UNL A   1      42.790  31.537  29.773  1.00  0.00     0.029 A 
ATOM     61  C   UNL A   1      43.792  30.674  29.363  1.00  0.00     0.049 A 
ATOM     62  H   UNL A   1      43.636  28.675  28.702  1.00  0.00     0.167 HD
ATOM     63  C   UNL A   1      46.132  30.006  28.887  1.00  0.00     0.074 A 
ATOM     64  C   UNL A   1      47.554  30.264  28.811  1.00  0.00     0.031 C 
ATOM     65  C   UNL A   1      45.210  30.921  29.280  1.00  0.00     0.037 A 
BRANCH  52  66
ATOM     66  C   UNL A   1      39.391  28.837  29.152  1.00  0.00     0.057 A 
ATOM     67  C   UNL A   1      38.759  28.664  30.391  1.00  0.00     0.134 A 
ATOM     68  C   UNL A   1      38.617  29.343  28.100  1.00  0.00     0.134 A 
ATOM     69  F   UNL A   1      39.439  28.174  31.439  1.00  0.00    -0.206 F 
ATOM     70  C   UNL A   1      37.405  28.955  30.568  1.00  0.00     0.040 A 
ATOM     71  C   UNL A   1      37.270  29.667  28.273  1.00  0.00     0.040 A 
ATOM     72  F   UNL A   1      39.159  29.541  26.888  1.00  0.00    -0.206 F 
ATOM     73  C   UNL A   1      36.659  29.467  29.508  1.00  0.00     0.006 A 
ENDBRANCH  52  66
BRANCH  53  74
ATOM     74  C   UNL A   1      48.956  26.529  27.457  1.00  0.00     0.057 A 
ATOM     75  C   UNL A   1      49.522  26.760  26.199  1.00  0.00     0.134 A 
ATOM     76  C   UNL A   1      49.779  25.967  28.440  1.00  0.00     0.134 A 
ATOM     77  F   UNL A   1      48.780  27.280  25.210  1.00  0.00    -0.206 F 
ATOM     78  C   UNL A   1      50.847  26.423  25.919  1.00  0.00     0.040 A 
ATOM     79  C   UNL A   1      51.114  25.652  28.183  1.00  0.00     0.040 A 
ATOM     80  F   UNL A   1      49.301  25.728  29.671  1.00  0.00    -0.206 F 
ATOM     81  C   UNL A   1      51.648  25.871  26.916  1.00  0.00     0.006 A 
ENDBRANCH  53  74
BRANCH  65  82
ATOM     82  C   UNL A   1      45.718  32.275  29.683  1.00  0.00     0.057 A 
ATOM     83  C   UNL A   1      46.113  32.561  30.996  1.00  0.00     0.134 A 
ATOM     84  C   UNL A   1      45.835  33.303  28.737  1.00  0.00     0.134 A 
ATOM     85  F   UNL A   1      46.015  31.626  31.954  1.00  0.00    -0.206 F 
ATOM     86  C   UNL A   1      46.575  33.826  31.362  1.00  0.00     0.040 A 
ATOM     87  C   UNL A   1      46.326  34.563  29.084  1.00  0.00     0.040 A 
ATOM     88  F   UNL A   1      45.484  33.097  27.459  1.00  0.00    -0.206 F 
ATOM     89  C   UNL A   1      46.689  34.830  30.402  1.00  0.00     0.006 A 
ENDBRANCH  65  82
ENDBRANCH  39  40
ENDBRANCH  31  34
ENDBRANCH  29  30
ENDBRANCH  28  29
ENDBRANCH   1  28
TORSDOF 14
ENDMDL
MODEL 2
REMARK VINA RESULT:     -12.6      1.327      6.341
REMARK SMILES CC(C)NC(=O)c1cccc(NC(=O)[C@@H]2[C@H](C(=O)NCCCNC(=O)c3ccc(-c4c5nc(c(-c6c(F)cccc6F)c6ccc([nH]6)c(-c6c(F)cccc6F)c6nc(c(-c7c(F)cccc7F)c7ccc4[nH]7)C=C6)C=C5)cc3)C2(C)C)c1
REMARK SMILES IDX 20 1 19 2 17 3 18 4 16 6 15 7 80 8 81 9 82 10 13 11 12 12
REMARK SMILES IDX 14 14 11 15 7 16 8 17 83 18 9 19 10 20 5 21 4 22 6 24 2 25
REMARK SMILES IDX 1 26 3 27 21 28 22 29 23 30 24 31 25 33 26 34 27 35 79 36
REMARK SMILES IDX 28 37 78 38 29 39 30 40 31 41 72 42 32 43 77 44 71 45 73 46
REMARK SMILES IDX 33 47 76 48 70 49 69 50 34 52 60 53 43 54 59 55 44 56 47 57
REMARK SMILES IDX 58 58 74 59 45 60 46 61 57 63 75 64 48 65 35 66 36 67 41 68
REMARK SMILES IDX 37 69 38 70 40 71 42 72 39 73 61 74 62 75 67 76 63 77 64 78
REMARK SMILES IDX 66 79 68 80 65 81 49 82 50 83 55 84 51 85 52 86 54 87 56 88
REMARK SMILES IDX 53 89
REMARK H PARENT 19 5 12 13 4 23 23 32 73 51 47 62
REMARK Flexibility Score: inf
ROOT
ATOM      1  C   UNL A   1      36.506  20.669  24.970  1.00  0.00     0.117 C 
ENDROOT
BRANCH   1   2
ATOM      2  N   UNL A   1      35.267  19.971  25.269  1.00  0.00    -0.356 N 
ATOM      3  C   UNL A   1      33.981  20.406  25.075  1.00  0.00     0.224 C 
ATOM      4  O   UNL A   1      33.036  19.658  25.285  1.00  0.00    -0.275 OA
ATOM      5  H   UNL A   1      35.362  19.073  25.662  1.00  0.00     0.163 HD
BRANCH   3   6
ATOM      6  C   UNL A   1      33.826  21.747  24.486  1.00  0.00     0.098 C 
ATOM      7  C   UNL A   1      32.658  22.688  24.542  1.00  0.00     0.098 C 
ATOM      8  C   UNL A   1      33.940  23.005  25.332  1.00  0.00    -0.011 C 
ATOM      9  C   UNL A   1      34.879  24.078  24.840  1.00  0.00     0.013 C 
ATOM     10  C   UNL A   1      33.868  22.921  26.844  1.00  0.00     0.013 C 
BRANCH   7  11
ATOM     11  C   UNL A   1      31.378  22.580  25.280  1.00  0.00     0.228 C 
ATOM     12  N   UNL A   1      30.657  23.723  25.578  1.00  0.00    -0.326 N 
ATOM     13  H   UNL A   1      29.796  23.537  26.016  1.00  0.00     0.169 HD
ATOM     14  O   UNL A   1      30.935  21.495  25.637  1.00  0.00    -0.274 OA
BRANCH  12  15
ATOM     15  C   UNL A   1      30.901  25.101  25.384  1.00  0.00     0.041 A 
ATOM     16  C   UNL A   1      30.669  27.024  23.903  1.00  0.00     0.041 A 
ATOM     17  C   UNL A   1      31.064  27.880  24.934  1.00  0.00     0.014 A 
ATOM     18  C   UNL A   1      30.615  25.636  24.120  1.00  0.00     0.040 A 
ATOM     19  C   UNL A   1      31.434  27.352  26.157  1.00  0.00     0.003 A 
ATOM     20  C   UNL A   1      31.377  25.974  26.361  1.00  0.00     0.026 A 
BRANCH  16  21
ATOM     21  C   UNL A   1      30.404  27.657  22.594  1.00  0.00     0.251 C 
ATOM     22  N   UNL A   1      29.450  28.622  22.432  1.00  0.00    -0.350 N 
ATOM     23  H   UNL A   1      29.336  28.924  21.502  1.00  0.00     0.164 HD
ATOM     24  O   UNL A   1      31.093  27.332  21.628  1.00  0.00    -0.269 OA
BRANCH  22  25
ATOM     25  C   UNL A   1      28.573  29.283  23.389  1.00  0.00     0.076 C 
ATOM     26  C   UNL A   1      28.818  30.787  23.372  1.00  0.00     0.030 C 
ATOM     27  C   UNL A   1      27.126  28.952  23.039  1.00  0.00     0.030 C 
ENDBRANCH  22  25
ENDBRANCH  16  21
ENDBRANCH  12  15
ENDBRANCH   7  11
ENDBRANCH   3   6
ENDBRANCH   1   2
BRANCH   1  28
ATOM     28  C   UNL A   1      37.708  19.735  24.970  1.00  0.00     0.042 C 
BRANCH  28  29
ATOM     29  C   UNL A   1      38.929  20.316  25.666  1.00  0.00     0.118 C 
BRANCH  29  30
ATOM     30  N   UNL A   1      40.019  19.357  25.760  1.00  0.00    -0.352 N 
ATOM     31  C   UNL A   1      41.334  19.549  26.100  1.00  0.00     0.251 C 
ATOM     32  H   UNL A   1      39.776  18.427  25.548  1.00  0.00     0.163 HD
ATOM     33  O   UNL A   1      42.141  18.639  25.933  1.00  0.00    -0.269 OA
BRANCH  31  34
ATOM     34  C   UNL A   1      41.787  20.849  26.639  1.00  0.00     0.039 A 
ATOM     35  C   UNL A   1      42.285  21.802  25.748  1.00  0.00     0.014 A 
ATOM     36  C   UNL A   1      41.737  21.127  28.008  1.00  0.00     0.014 A 
ATOM     37  C   UNL A   1      42.673  23.056  26.223  1.00  0.00     0.010 A 
ATOM     38  C   UNL A   1      42.041  22.406  28.467  1.00  0.00     0.010 A 
ATOM     39  C   UNL A   1      42.514  23.384  27.579  1.00  0.00    -0.014 A 
BRANCH  39  40
ATOM     40  C   UNL A   1      42.819  24.751  28.072  1.00  0.00     0.031 A 
ATOM     41  C   UNL A   1      44.228  25.143  28.424  1.00  0.00     0.074 A 
ATOM     42  C   UNL A   1      41.812  25.628  28.248  1.00  0.00     0.049 A 
ATOM     43  N   UNL A   1      44.675  26.281  28.892  1.00  0.00    -0.248 NA
ATOM     44  C   UNL A   1      45.267  24.116  28.251  1.00  0.00     0.031 C 
ATOM     45  C   UNL A   1      40.396  25.353  27.992  1.00  0.00     0.029 A 
ATOM     46  N   UNL A   1      41.821  26.928  28.687  1.00  0.00    -0.354 N 
ATOM     47  C   UNL A   1      46.041  26.105  29.073  1.00  0.00     0.074 A 
ATOM     48  C   UNL A   1      46.340  24.734  28.722  1.00  0.00     0.031 C 
ATOM     49  C   UNL A   1      39.680  26.458  28.246  1.00  0.00     0.029 A 
ATOM     50  C   UNL A   1      40.576  27.505  28.726  1.00  0.00     0.049 A 
ATOM     51  H   UNL A   1      42.643  27.402  28.949  1.00  0.00     0.167 HD
ATOM     52  C   UNL A   1      46.966  27.011  29.473  1.00  0.00     0.037 A 
ATOM     53  C   UNL A   1      40.195  28.738  29.112  1.00  0.00     0.037 A 
ATOM     54  C   UNL A   1      46.666  28.378  29.813  1.00  0.00     0.049 A 
ATOM     55  C   UNL A   1      41.238  29.716  29.576  1.00  0.00     0.074 A 
ATOM     56  C   UNL A   1      47.540  29.386  30.176  1.00  0.00     0.029 A 
ATOM     57  N   UNL A   1      45.391  28.924  29.844  1.00  0.00    -0.354 N 
ATOM     58  N   UNL A   1      42.536  29.559  29.667  1.00  0.00    -0.248 NA
ATOM     59  C   UNL A   1      40.763  31.045  29.983  1.00  0.00     0.031 C 
ATOM     60  C   UNL A   1      46.790  30.526  30.484  1.00  0.00     0.029 A 
ATOM     61  C   UNL A   1      45.454  30.248  30.252  1.00  0.00     0.049 A 
ATOM     62  H   UNL A   1      44.565  28.443  29.611  1.00  0.00     0.167 HD
ATOM     63  C   UNL A   1      43.035  30.775  30.117  1.00  0.00     0.074 A 
ATOM     64  C   UNL A   1      41.902  31.665  30.257  1.00  0.00     0.031 C 
ATOM     65  C   UNL A   1      44.318  31.124  30.390  1.00  0.00     0.037 A 
BRANCH  52  66
ATOM     66  C   UNL A   1      48.393  26.550  29.567  1.00  0.00     0.057 A 
ATOM     67  C   UNL A   1      49.290  26.687  28.499  1.00  0.00     0.134 A 
ATOM     68  C   UNL A   1      48.890  25.999  30.757  1.00  0.00     0.134 A 
ATOM     69  F   UNL A   1      48.879  27.197  27.327  1.00  0.00    -0.206 F 
ATOM     70  C   UNL A   1      50.618  26.267  28.599  1.00  0.00     0.040 A 
ATOM     71  C   UNL A   1      50.223  25.605  30.879  1.00  0.00     0.040 A 
ATOM     72  F   UNL A   1      48.090  25.845  31.823  1.00  0.00    -0.206 F 
ATOM     73  C   UNL A   1      51.090  25.732  29.796  1.00  0.00     0.006 A 
ENDBRANCH  52  66
BRANCH  53  74
ATOM     74  C   UNL A   1      38.760  29.123  29.066  1.00  0.00     0.057 A 
ATOM     75  C   UNL A   1      37.947  29.025  30.200  1.00  0.00     0.134 A 
ATOM     76  C   UNL A   1      38.165  29.585  27.886  1.00  0.00     0.134 A 
ATOM     77  F   UNL A   1      38.454  28.572  31.357  1.00  0.00    -0.206 F 
ATOM     78  C   UNL A   1      36.589  29.347  30.159  1.00  0.00     0.040 A 
ATOM     79  C   UNL A   1      36.817  29.940  27.837  1.00  0.00     0.040 A 
ATOM     80  F   UNL A   1      38.892  29.712  26.765  1.00  0.00    -0.206 F 
ATOM     81  C   UNL A   1      36.023  29.812  28.973  1.00  0.00     0.006 A 
ENDBRANCH  53  74
BRANCH  65  82
ATOM     82  C   UNL A   1      44.563  32.536  30.839  1.00  0.00     0.057 A 
ATOM     83  C   UNL A   1      44.592  32.892  32.194  1.00  0.00     0.134 A 
ATOM     84  C   UNL A   1      44.797  33.551  29.902  1.00  0.00     0.134 A 
ATOM     85  F   UNL A   1      44.363  31.971  33.143  1.00  0.00    -0.206 F 
ATOM     86  C   UNL A   1      44.811  34.209  32.599  1.00  0.00     0.040 A 
ATOM     87  C   UNL A   1      45.050  34.866  30.295  1.00  0.00     0.040 A 
ATOM     88  F   UNL A   1      44.793  33.280  28.587  1.00  0.00    -0.206 F 
ATOM     89  C   UNL A   1      45.048  35.200  31.648  1.00  0.00     0.006 A 
ENDBRANCH  65  82
ENDBRANCH  39  40
ENDBRANCH  31  34
ENDBRANCH  29  30
ENDBRANCH  28  29
ENDBRANCH   1  28
TORSDOF 14
ENDMDL
MODEL 3
REMARK VINA RESULT:     -12.6      4.598      9.218
REMARK SMILES CC(C)NC(=O)c1cccc(NC(=O)[C@@H]2[C@H](C(=O)NCCCNC(=O)c3ccc(-c4c5nc(c(-c6c(F)cccc6F)c6ccc([nH]6)c(-c6c(F)cccc6F)c6nc(c(-c7c(F)cccc7F)c7ccc4[nH]7)C=C6)C=C5)cc3)C2(C)C)c1
REMARK SMILES IDX 20 1 19 2 17 3 18 4 16 6 15 7 80 8 81 9 82 10 13 11 12 12
REMARK SMILES IDX 14 14 11 15 7 16 8 17 83 18 9 19 10 20 5 21 4 22 6 24 2 25
REMARK SMILES IDX 1 26 3 27 21 28 22 29 23 30 24 31 25 33 26 34 27 35 79 36
REMARK SMILES IDX 28 37 78 38 29 39 30 40 31 41 72 42 32 43 77 44 71 45 73 46
REMARK SMILES IDX 33 47 76 48 70 49 69 50 34 52 60 53 43 54 59 55 44 56 47 57
REMARK SMILES IDX 58 58 74 59 45 60 46 61 57 63 75 64 48 65 35 66 36 67 41 68
REMARK SMILES IDX 37 69 38 70 40 71 42 72 39 73 61 74 62 75 67 76 63 77 64 78
REMARK SMILES IDX 66 79 68 80 65 81 49 82 50 83 55 84 51 85 52 86 54 87 56 88
REMARK SMILES IDX 53 89
REMARK H PARENT 19 5 12 13 4 23 23 32 73 51 47 62
REMARK Flexibility Score: inf
ROOT
ATOM      1  C   UNL A   1      31.537  30.530  25.944  1.00  0.00     0.117 C 
ENDROOT
BRANCH   1   2
ATOM      2  N   UNL A   1      30.977  30.456  24.605  1.00  0.00    -0.356 N 
ATOM      3  C   UNL A   1      30.717  29.337  23.856  1.00  0.00     0.224 C 
ATOM      4  O   UNL A   1      30.147  29.432  22.778  1.00  0.00    -0.275 OA
ATOM      5  H   UNL A   1      30.758  31.317  24.181  1.00  0.00     0.163 HD
BRANCH   3   6
ATOM      6  C   UNL A   1      31.037  28.043  24.481  1.00  0.00     0.098 C 
ATOM      7  C   UNL A   1      31.302  26.711  23.841  1.00  0.00     0.098 C 
ATOM      8  C   UNL A   1      32.456  27.495  24.491  1.00  0.00    -0.011 C 
ATOM      9  C   UNL A   1      33.009  27.051  25.823  1.00  0.00     0.013 C 
ATOM     10  C   UNL A   1      33.510  28.078  23.570  1.00  0.00     0.013 C 
BRANCH   7  11
ATOM     11  C   UNL A   1      31.412  26.342  22.411  1.00  0.00     0.228 C 
ATOM     12  N   UNL A   1      32.073  25.182  22.048  1.00  0.00    -0.326 N 
ATOM     13  H   UNL A   1      32.037  24.999  21.082  1.00  0.00     0.169 HD
ATOM     14  O   UNL A   1      30.927  27.043  21.530  1.00  0.00    -0.274 OA
BRANCH  12  15
ATOM     15  C   UNL A   1      32.788  24.205  22.777  1.00  0.00     0.041 A 
ATOM     16  C   UNL A   1      32.671  22.188  24.142  1.00  0.00     0.041 A 
ATOM     17  C   UNL A   1      34.056  22.030  24.048  1.00  0.00     0.014 A 
ATOM     18  C   UNL A   1      32.043  23.287  23.531  1.00  0.00     0.040 A 
ATOM     19  C   UNL A   1      34.809  22.980  23.381  1.00  0.00     0.003 A 
ATOM     20  C   UNL A   1      34.175  24.067  22.779  1.00  0.00     0.026 A 
BRANCH  16  21
ATOM     21  C   UNL A   1      31.956  21.195  24.971  1.00  0.00     0.251 C 
ATOM     22  N   UNL A   1      31.132  21.562  25.998  1.00  0.00    -0.350 N 
ATOM     23  H   UNL A   1      30.758  20.805  26.505  1.00  0.00     0.164 HD
ATOM     24  O   UNL A   1      32.076  20.002  24.700  1.00  0.00    -0.269 OA
BRANCH  22  25
ATOM     25  C   UNL A   1      30.708  22.872  26.475  1.00  0.00     0.076 C 
ATOM     26  C   UNL A   1      29.460  22.735  27.340  1.00  0.00     0.030 C 
ATOM     27  C   UNL A   1      31.856  23.505  27.254  1.00  0.00     0.030 C 
ENDBRANCH  22  25
ENDBRANCH  16  21
ENDBRANCH  12  15
ENDBRANCH   7  11
ENDBRANCH   3   6
ENDBRANCH   1   2
BRANCH   1  28
ATOM     28  C   UNL A   1      31.377  31.913  26.559  1.00  0.00     0.042 C 
BRANCH  28  29
ATOM     29  C   UNL A   1      32.666  32.469  27.146  1.00  0.00     0.118 C 
BRANCH  29  30
ATOM     30  N   UNL A   1      32.521  33.847  27.590  1.00  0.00    -0.352 N 
ATOM     31  C   UNL A   1      33.196  34.535  28.565  1.00  0.00     0.251 C 
ATOM     32  H   UNL A   1      31.831  34.367  27.117  1.00  0.00     0.163 HD
ATOM     33  O   UNL A   1      32.792  35.638  28.919  1.00  0.00    -0.269 OA
BRANCH  31  34
ATOM     34  C   UNL A   1      34.390  33.944  29.208  1.00  0.00     0.039 A 
ATOM     35  C   UNL A   1      34.203  33.032  30.249  1.00  0.00     0.014 A 
ATOM     36  C   UNL A   1      35.682  34.291  28.804  1.00  0.00     0.014 A 
ATOM     37  C   UNL A   1      35.309  32.421  30.840  1.00  0.00     0.010 A 
ATOM     38  C   UNL A   1      36.779  33.616  29.334  1.00  0.00     0.010 A 
ATOM     39  C   UNL A   1      36.605  32.675  30.359  1.00  0.00    -0.014 A 
BRANCH  39  40
ATOM     40  C   UNL A   1      37.777  31.946  30.907  1.00  0.00     0.031 A 
ATOM     41  C   UNL A   1      38.328  32.291  32.263  1.00  0.00     0.074 A 
ATOM     42  C   UNL A   1      38.374  31.002  30.156  1.00  0.00     0.049 A 
ATOM     43  N   UNL A   1      39.358  31.779  32.889  1.00  0.00    -0.248 NA
ATOM     44  C   UNL A   1      37.650  33.366  33.003  1.00  0.00     0.031 C 
ATOM     45  C   UNL A   1      37.967  30.611  28.805  1.00  0.00     0.029 A 
ATOM     46  N   UNL A   1      39.456  30.198  30.420  1.00  0.00    -0.354 N 
ATOM     47  C   UNL A   1      39.453  32.471  34.090  1.00  0.00     0.074 A 
ATOM     48  C   UNL A   1      38.415  33.479  34.079  1.00  0.00     0.031 C 
ATOM     49  C   UNL A   1      38.765  29.623  28.373  1.00  0.00     0.029 A 
ATOM     50  C   UNL A   1      39.768  29.341  29.394  1.00  0.00     0.049 A 
ATOM     51  H   UNL A   1      39.960  30.234  31.265  1.00  0.00     0.167 HD
ATOM     52  C   UNL A   1      40.313  32.269  35.118  1.00  0.00     0.037 A 
ATOM     53  C   UNL A   1      40.756  28.433  29.283  1.00  0.00     0.037 A 
ATOM     54  C   UNL A   1      41.339  31.259  35.128  1.00  0.00     0.049 A 
ATOM     55  C   UNL A   1      41.713  28.247  30.428  1.00  0.00     0.074 A 
ATOM     56  C   UNL A   1      42.223  30.940  36.144  1.00  0.00     0.029 A 
ATOM     57  N   UNL A   1      41.627  30.412  34.068  1.00  0.00    -0.354 N 
ATOM     58  N   UNL A   1      41.742  28.855  31.589  1.00  0.00    -0.248 NA
ATOM     59  C   UNL A   1      42.768  27.241  30.250  1.00  0.00     0.031 C 
ATOM     60  C   UNL A   1      43.084  29.941  35.677  1.00  0.00     0.029 A 
ATOM     61  C   UNL A   1      42.697  29.592  34.395  1.00  0.00     0.049 A 
ATOM     62  H   UNL A   1      41.143  30.395  33.211  1.00  0.00     0.167 HD
ATOM     63  C   UNL A   1      42.801  28.290  32.288  1.00  0.00     0.074 A 
ATOM     64  C   UNL A   1      43.372  27.274  31.429  1.00  0.00     0.031 C 
ATOM     65  C   UNL A   1      43.259  28.586  33.530  1.00  0.00     0.037 A 
BRANCH  52  66
ATOM     66  C   UNL A   1      40.181  33.165  36.318  1.00  0.00     0.057 A 
ATOM     67  C   UNL A   1      40.957  34.322  36.468  1.00  0.00     0.134 A 
ATOM     68  C   UNL A   1      39.238  32.888  37.317  1.00  0.00     0.134 A 
ATOM     69  F   UNL A   1      41.885  34.642  35.553  1.00  0.00    -0.206 F 
ATOM     70  C   UNL A   1      40.820  35.156  37.580  1.00  0.00     0.040 A 
ATOM     71  C   UNL A   1      39.071  33.730  38.418  1.00  0.00     0.040 A 
ATOM     72  F   UNL A   1      38.457  31.800  37.235  1.00  0.00    -0.206 F 
ATOM     73  C   UNL A   1      39.868  34.864  38.555  1.00  0.00     0.006 A 
ENDBRANCH  52  66
BRANCH  53  74
ATOM     74  C   UNL A   1      40.886  27.620  28.045  1.00  0.00     0.057 A 
ATOM     75  C   UNL A   1      40.236  26.389  27.916  1.00  0.00     0.134 A 
ATOM     76  C   UNL A   1      41.673  28.048  26.969  1.00  0.00     0.134 A 
ATOM     77  F   UNL A   1      39.481  25.916  28.920  1.00  0.00    -0.206 F 
ATOM     78  C   UNL A   1      40.381  25.599  26.774  1.00  0.00     0.040 A 
ATOM     79  C   UNL A   1      41.804  27.284  25.809  1.00  0.00     0.040 A 
ATOM     80  F   UNL A   1      42.316  29.225  27.024  1.00  0.00    -0.206 F 
ATOM     81  C   UNL A   1      41.165  26.051  25.714  1.00  0.00     0.006 A 
ENDBRANCH  53  74
BRANCH  65  82
ATOM     82  C   UNL A   1      44.417  27.779  34.043  1.00  0.00     0.057 A 
ATOM     83  C   UNL A   1      45.744  28.203  33.894  1.00  0.00     0.134 A 
ATOM     84  C   UNL A   1      44.200  26.569  34.717  1.00  0.00     0.134 A 
ATOM     85  F   UNL A   1      46.024  29.346  33.248  1.00  0.00    -0.206 F 
ATOM     86  C   UNL A   1      46.813  27.440  34.367  1.00  0.00     0.040 A 
ATOM     87  C   UNL A   1      45.258  25.813  35.223  1.00  0.00     0.040 A 
ATOM     88  F   UNL A   1      42.954  26.106  34.904  1.00  0.00    -0.206 F 
ATOM     89  C   UNL A   1      46.571  26.244  35.040  1.00  0.00     0.006 A 
ENDBRANCH  65  82
ENDBRANCH  39  40
ENDBRANCH  31  34
ENDBRANCH  29  30
ENDBRANCH  28  29
ENDBRANCH   1  28
TORSDOF 14
ENDMDL
