MODEL 1
REMARK VINA RESULT:     -13.9      0.000      0.000
REMARK SMILES Cc1ccccc1C(=O)Nc1ccc(OCC(=O)NCCCNC(=O)c2ccc(-c3c4nc(c(-c5c(F)cccc5F)c5ccc([nH]5)c(-c5c(F)cccc5F)c5nc(c(-c6c(F)cccc6F)c6ccc3[nH]6)C=C5)C=C4)cc2)c(-c2nc3ccccc3s2)c1
REMARK SMILES IDX 20 1 19 2 17 3 18 4 16 6 15 7 14 8 11 9 12 10 90 11 13 12
REMARK SMILES IDX 80 13 10 14 8 15 9 16 7 18 1 19 2 20 3 21 4 22 6 23 5 24
REMARK SMILES IDX 81 25 82 26 89 27 83 28 88 29 84 30 87 31 85 32 86 33 21 34
REMARK SMILES IDX 22 35 23 36 24 37 25 39 26 40 27 41 79 42 28 43 78 44 29 45
REMARK SMILES IDX 30 46 31 47 72 48 32 49 77 50 71 51 73 52 33 53 76 54 70 55
REMARK SMILES IDX 69 56 34 58 60 59 43 60 59 61 44 62 47 63 58 64 74 65 45 66
REMARK SMILES IDX 46 67 57 69 75 70 48 71 35 72 36 73 41 74 37 75 38 76 40 77
REMARK SMILES IDX 42 78 39 79 61 80 62 81 67 82 63 83 64 84 66 85 68 86 65 87
REMARK SMILES IDX 49 88 50 89 55 90 51 91 52 92 54 93 56 94 53 95
REMARK H PARENT 19 5 10 17 23 38 73 57 47 68
REMARK Flexibility Score: inf
ROOT
ATOM      1  C   UNL A   1      31.785  30.298  26.126  1.00  0.00     0.117 C 
ENDROOT
BRANCH   1   2
ATOM      2  N   UNL A   1      32.562  29.700  25.059  1.00  0.00    -0.353 N 
ATOM      3  C   UNL A   1      33.227  28.503  25.072  1.00  0.00     0.257 C 
ATOM      4  O   UNL A   1      33.999  28.290  24.141  1.00  0.00    -0.271 OA
ATOM      5  H   UNL A   1      32.618  30.217  24.224  1.00  0.00     0.163 HD
BRANCH   3   6
ATOM      6  C   UNL A   1      32.942  27.503  26.232  1.00  0.00     0.329 C 
BRANCH   6   7
ATOM      7  O   UNL A   1      31.658  26.946  26.501  1.00  0.00    -0.483 OA
BRANCH   7   8
ATOM      8  C   UNL A   1      31.514  25.659  26.060  1.00  0.00     0.130 A 
ATOM      9  C   UNL A   1      31.440  23.014  25.186  1.00  0.00     0.042 A 
ATOM     10  C   UNL A   1      31.966  23.311  26.443  1.00  0.00     0.030 A 
ATOM     11  C   UNL A   1      30.820  24.020  24.441  1.00  0.00     0.041 A 
ATOM     12  C   UNL A   1      32.036  24.638  26.863  1.00  0.00     0.049 A 
ATOM     13  C   UNL A   1      30.804  25.363  24.880  1.00  0.00     0.055 A 
BRANCH   9  14
ATOM     14  N   UNL A   1      31.610  21.705  24.716  1.00  0.00    -0.322 N 
ATOM     15  C   UNL A   1      32.692  21.097  24.113  1.00  0.00     0.255 C 
ATOM     16  O   UNL A   1      32.531  19.983  23.610  1.00  0.00    -0.269 OA
ATOM     17  H   UNL A   1      30.826  21.122  24.835  1.00  0.00     0.170 HD
BRANCH  15  18
ATOM     18  C   UNL A   1      34.069  21.677  24.127  1.00  0.00     0.043 A 
ATOM     19  C   UNL A   1      33.676  23.457  22.296  1.00  0.00     0.045 C 
ATOM     20  C   UNL A   1      34.522  22.726  23.297  1.00  0.00    -0.038 A 
ATOM     21  C   UNL A   1      35.858  23.155  23.420  1.00  0.00     0.004 A 
ATOM     22  C   UNL A   1      36.692  22.649  24.416  1.00  0.00     0.000 A 
ATOM     23  C   UNL A   1      34.911  21.202  25.149  1.00  0.00     0.014 A 
ATOM     24  C   UNL A   1      36.209  21.693  25.300  1.00  0.00     0.001 A 
ENDBRANCH  15  18
ENDBRANCH   9  14
BRANCH  13  25
ATOM     25  C   UNL A   1      30.114  26.354  24.015  1.00  0.00     0.128 A 
ATOM     26  N   UNL A   1      30.756  27.227  23.257  1.00  0.00    -0.236 NA
ATOM     27  S   UNL A   1      28.397  26.501  23.911  1.00  0.00    -0.114 S 
ATOM     28  C   UNL A   1      29.891  28.224  22.841  1.00  0.00     0.082 A 
ATOM     29  C   UNL A   1      28.561  28.050  23.212  1.00  0.00     0.055 A 
ATOM     30  C   UNL A   1      30.244  29.390  22.136  1.00  0.00     0.030 A 
ATOM     31  C   UNL A   1      27.582  29.030  22.996  1.00  0.00     0.021 A 
ATOM     32  C   UNL A   1      29.279  30.375  21.905  1.00  0.00     0.002 A 
ATOM     33  C   UNL A   1      27.971  30.207  22.353  1.00  0.00     0.002 A 
ENDBRANCH  13  25
ENDBRANCH   7   8
ENDBRANCH   6   7
ENDBRANCH   3   6
ENDBRANCH   1   2
BRANCH   1  34
ATOM     34  C   UNL A   1      32.617  31.330  26.881  1.00  0.00     0.042 C 
BRANCH  34  35
ATOM     35  C   UNL A   1      33.797  30.707  27.613  1.00  0.00     0.118 C 
BRANCH  35  36
ATOM     36  N   UNL A   1      34.373  31.573  28.632  1.00  0.00    -0.352 N 
ATOM     37  C   UNL A   1      35.523  31.427  29.391  1.00  0.00     0.251 C 
ATOM     38  H   UNL A   1      33.862  32.395  28.812  1.00  0.00     0.163 HD
ATOM     39  O   UNL A   1      35.800  32.276  30.221  1.00  0.00    -0.269 OA
BRANCH  37  40
ATOM     40  C   UNL A   1      36.483  30.334  29.092  1.00  0.00     0.039 A 
ATOM     41  C   UNL A   1      36.668  29.350  30.073  1.00  0.00     0.014 A 
ATOM     42  C   UNL A   1      37.324  30.373  27.985  1.00  0.00     0.014 A 
ATOM     43  C   UNL A   1      37.838  28.595  30.076  1.00  0.00     0.010 A 
ATOM     44  C   UNL A   1      38.529  29.705  28.037  1.00  0.00     0.010 A 
ATOM     45  C   UNL A   1      38.812  28.871  29.120  1.00  0.00    -0.014 A 
BRANCH  45  46
ATOM     46  C   UNL A   1      40.193  28.431  29.238  1.00  0.00     0.031 A 
ATOM     47  C   UNL A   1      40.623  27.147  28.657  1.00  0.00     0.074 A 
ATOM     48  C   UNL A   1      41.096  29.262  29.803  1.00  0.00     0.049 A 
ATOM     49  N   UNL A   1      41.639  26.473  29.072  1.00  0.00    -0.248 NA
ATOM     50  C   UNL A   1      39.905  26.498  27.567  1.00  0.00     0.031 C 
ATOM     51  C   UNL A   1      42.550  29.146  29.771  1.00  0.00     0.029 A 
ATOM     52  N   UNL A   1      40.847  30.304  30.708  1.00  0.00    -0.354 N 
ATOM     53  C   UNL A   1      41.875  25.469  28.161  1.00  0.00     0.074 A 
ATOM     54  C   UNL A   1      40.731  25.489  27.277  1.00  0.00     0.031 C 
ATOM     55  C   UNL A   1      43.062  29.851  30.792  1.00  0.00     0.029 A 
ATOM     56  C   UNL A   1      41.945  30.320  31.595  1.00  0.00     0.049 A 
ATOM     57  H   UNL A   1      40.066  30.904  30.723  1.00  0.00     0.167 HD
ATOM     58  C   UNL A   1      43.077  24.822  28.171  1.00  0.00     0.037 A 
ATOM     59  C   UNL A   1      41.788  30.075  32.928  1.00  0.00     0.037 A 
ATOM     60  C   UNL A   1      43.935  25.329  29.238  1.00  0.00     0.049 A 
ATOM     61  C   UNL A   1      42.571  28.884  33.423  1.00  0.00     0.074 A 
ATOM     62  C   UNL A   1      44.937  26.286  29.243  1.00  0.00     0.029 A 
ATOM     63  N   UNL A   1      43.606  25.094  30.567  1.00  0.00    -0.354 N 
ATOM     64  N   UNL A   1      43.012  27.932  32.648  1.00  0.00    -0.248 NA
ATOM     65  C   UNL A   1      42.906  28.660  34.826  1.00  0.00     0.031 C 
ATOM     66  C   UNL A   1      45.180  26.662  30.585  1.00  0.00     0.029 A 
ATOM     67  C   UNL A   1      44.340  25.919  31.397  1.00  0.00     0.049 A 
ATOM     68  H   UNL A   1      42.944  24.434  30.874  1.00  0.00     0.167 HD
ATOM     69  C   UNL A   1      43.653  26.985  33.404  1.00  0.00     0.074 A 
ATOM     70  C   UNL A   1      43.576  27.496  34.760  1.00  0.00     0.031 C 
ATOM     71  C   UNL A   1      44.187  25.859  32.842  1.00  0.00     0.037 A 
BRANCH  58  72
ATOM     72  C   UNL A   1      43.578  23.969  27.028  1.00  0.00     0.057 A 
ATOM     73  C   UNL A   1      44.284  24.540  25.951  1.00  0.00     0.134 A 
ATOM     74  C   UNL A   1      43.354  22.588  26.904  1.00  0.00     0.134 A 
ATOM     75  F   UNL A   1      44.686  25.818  25.967  1.00  0.00    -0.206 F 
ATOM     76  C   UNL A   1      44.619  23.827  24.793  1.00  0.00     0.040 A 
ATOM     77  C   UNL A   1      43.634  21.872  25.730  1.00  0.00     0.040 A 
ATOM     78  F   UNL A   1      42.904  21.859  27.934  1.00  0.00    -0.206 F 
ATOM     79  C   UNL A   1      44.255  22.498  24.660  1.00  0.00     0.006 A 
ENDBRANCH  58  72
BRANCH  59  80
ATOM     80  C   UNL A   1      40.471  30.513  33.457  1.00  0.00     0.057 A 
ATOM     81  C   UNL A   1      40.281  31.877  33.739  1.00  0.00     0.134 A 
ATOM     82  C   UNL A   1      39.324  29.726  33.319  1.00  0.00     0.134 A 
ATOM     83  F   UNL A   1      41.341  32.689  33.883  1.00  0.00    -0.206 F 
ATOM     84  C   UNL A   1      39.010  32.457  33.769  1.00  0.00     0.040 A 
ATOM     85  C   UNL A   1      38.045  30.295  33.355  1.00  0.00     0.040 A 
ATOM     86  F   UNL A   1      39.423  28.421  33.029  1.00  0.00    -0.206 F 
ATOM     87  C   UNL A   1      37.888  31.668  33.541  1.00  0.00     0.006 A 
ENDBRANCH  59  80
BRANCH  71  88
ATOM     88  C   UNL A   1      44.702  24.643  33.576  1.00  0.00     0.057 A 
ATOM     89  C   UNL A   1      46.055  24.290  33.671  1.00  0.00     0.134 A 
ATOM     90  C   UNL A   1      43.825  23.856  34.360  1.00  0.00     0.134 A 
ATOM     91  F   UNL A   1      47.015  25.008  33.074  1.00  0.00    -0.206 F 
ATOM     92  C   UNL A   1      46.497  23.205  34.443  1.00  0.00     0.040 A 
ATOM     93  C   UNL A   1      44.261  22.808  35.176  1.00  0.00     0.040 A 
ATOM     94  F   UNL A   1      42.503  24.085  34.389  1.00  0.00    -0.206 F 
ATOM     95  C   UNL A   1      45.602  22.469  35.209  1.00  0.00     0.006 A 
ENDBRANCH  71  88
ENDBRANCH  45  46
ENDBRANCH  37  40
ENDBRANCH  35  36
ENDBRANCH  34  35
ENDBRANCH   1  34
TORSDOF 15
ENDMDL
MODEL 2
REMARK VINA RESULT:     -13.8      3.768      9.266
REMARK SMILES Cc1ccccc1C(=O)Nc1ccc(OCC(=O)NCCCNC(=O)c2ccc(-c3c4nc(c(-c5c(F)cccc5F)c5ccc([nH]5)c(-c5c(F)cccc5F)c5nc(c(-c6c(F)cccc6F)c6ccc3[nH]6)C=C5)C=C4)cc2)c(-c2nc3ccccc3s2)c1
REMARK SMILES IDX 20 1 19 2 17 3 18 4 16 6 15 7 14 8 11 9 12 10 90 11 13 12
REMARK SMILES IDX 80 13 10 14 8 15 9 16 7 18 1 19 2 20 3 21 4 22 6 23 5 24
REMARK SMILES IDX 81 25 82 26 89 27 83 28 88 29 84 30 87 31 85 32 86 33 21 34
REMARK SMILES IDX 22 35 23 36 24 37 25 39 26 40 27 41 79 42 28 43 78 44 29 45
REMARK SMILES IDX 30 46 31 47 72 48 32 49 77 50 71 51 73 52 33 53 76 54 70 55
REMARK SMILES IDX 69 56 34 58 60 59 43 60 59 61 44 62 47 63 58 64 74 65 45 66
REMARK SMILES IDX 46 67 57 69 75 70 48 71 35 72 36 73 41 74 37 75 38 76 40 77
REMARK SMILES IDX 42 78 39 79 61 80 62 81 67 82 63 83 64 84 66 85 68 86 65 87
REMARK SMILES IDX 49 88 50 89 55 90 51 91 52 92 54 93 56 94 53 95
REMARK H PARENT 19 5 10 17 23 38 73 57 47 68
REMARK Flexibility Score: inf
ROOT
ATOM      1  C   UNL A   1      37.234  21.356  25.062  1.00  0.00     0.117 C 
ENDROOT
BRANCH   1   2
ATOM      2  N   UNL A   1      36.197  21.668  26.025  1.00  0.00    -0.353 N 
ATOM      3  C   UNL A   1      35.461  22.818  26.126  1.00  0.00     0.257 C 
ATOM      4  O   UNL A   1      34.790  22.956  27.146  1.00  0.00    -0.271 OA
ATOM      5  H   UNL A   1      35.998  20.967  26.687  1.00  0.00     0.163 HD
BRANCH   3   6
ATOM      6  C   UNL A   1      35.507  23.839  24.951  1.00  0.00     0.329 C 
BRANCH   6   7
ATOM      7  O   UNL A   1      35.042  23.552  23.634  1.00  0.00    -0.483 OA
BRANCH   7   8
ATOM      8  C   UNL A   1      33.922  24.255  23.282  1.00  0.00     0.130 A 
ATOM      9  C   UNL A   1      31.697  25.837  22.718  1.00  0.00     0.042 A 
ATOM     10  C   UNL A   1      32.976  26.383  22.618  1.00  0.00     0.030 A 
ATOM     11  C   UNL A   1      31.548  24.467  22.953  1.00  0.00     0.041 A 
ATOM     12  C   UNL A   1      34.086  25.602  22.936  1.00  0.00     0.049 A 
ATOM     13  C   UNL A   1      32.662  23.633  23.199  1.00  0.00     0.055 A 
BRANCH   9  14
ATOM     14  N   UNL A   1      30.615  26.721  22.622  1.00  0.00    -0.322 N 
ATOM     15  C   UNL A   1      30.107  27.625  23.531  1.00  0.00     0.255 C 
ATOM     16  O   UNL A   1      29.021  28.155  23.283  1.00  0.00    -0.269 OA
ATOM     17  H   UNL A   1      30.138  26.692  21.761  1.00  0.00     0.170 HD
BRANCH  15  18
ATOM     18  C   UNL A   1      30.849  28.066  24.750  1.00  0.00     0.043 A 
ATOM     19  C   UNL A   1      30.484  25.916  26.134  1.00  0.00     0.045 C 
ATOM     20  C   UNL A   1      31.005  27.308  25.930  1.00  0.00    -0.038 A 
ATOM     21  C   UNL A   1      31.725  27.870  27.003  1.00  0.00     0.004 A 
ATOM     22  C   UNL A   1      32.377  29.095  26.875  1.00  0.00     0.000 A 
ATOM     23  C   UNL A   1      31.543  29.284  24.623  1.00  0.00     0.014 A 
ATOM     24  C   UNL A   1      32.311  29.788  25.673  1.00  0.00     0.001 A 
ENDBRANCH  15  18
ENDBRANCH   9  14
BRANCH  13  25
ATOM     25  C   UNL A   1      32.393  22.191  23.432  1.00  0.00     0.128 A 
ATOM     26  N   UNL A   1      32.540  21.606  24.609  1.00  0.00    -0.236 NA
ATOM     27  S   UNL A   1      31.880  21.101  22.195  1.00  0.00    -0.114 S 
ATOM     28  C   UNL A   1      32.557  20.230  24.460  1.00  0.00     0.082 A 
ATOM     29  C   UNL A   1      32.326  19.770  23.167  1.00  0.00     0.055 A 
ATOM     30  C   UNL A   1      32.828  19.288  25.469  1.00  0.00     0.030 A 
ATOM     31  C   UNL A   1      32.447  18.419  22.813  1.00  0.00     0.021 A 
ATOM     32  C   UNL A   1      32.945  17.935  25.136  1.00  0.00     0.002 A 
ATOM     33  C   UNL A   1      32.783  17.511  23.819  1.00  0.00     0.002 A 
ENDBRANCH  13  25
ENDBRANCH   7   8
ENDBRANCH   6   7
ENDBRANCH   3   6
ENDBRANCH   1   2
BRANCH   1  34
ATOM     34  C   UNL A   1      38.610  21.424  25.717  1.00  0.00     0.042 C 
BRANCH  34  35
ATOM     35  C   UNL A   1      38.949  22.819  26.223  1.00  0.00     0.118 C 
BRANCH  35  36
ATOM     36  N   UNL A   1      40.349  22.982  26.588  1.00  0.00    -0.352 N 
ATOM     37  C   UNL A   1      41.052  24.111  26.977  1.00  0.00     0.251 C 
ATOM     38  H   UNL A   1      40.884  22.156  26.552  1.00  0.00     0.163 HD
ATOM     39  O   UNL A   1      42.245  24.019  27.209  1.00  0.00    -0.269 OA
BRANCH  37  40
ATOM     40  C   UNL A   1      40.332  25.381  27.255  1.00  0.00     0.039 A 
ATOM     41  C   UNL A   1      40.687  26.504  26.495  1.00  0.00     0.014 A 
ATOM     42  C   UNL A   1      39.488  25.525  28.351  1.00  0.00     0.014 A 
ATOM     43  C   UNL A   1      40.419  27.779  26.988  1.00  0.00     0.010 A 
ATOM     44  C   UNL A   1      39.309  26.779  28.896  1.00  0.00     0.010 A 
ATOM     45  C   UNL A   1      39.837  27.897  28.248  1.00  0.00    -0.014 A 
BRANCH  45  46
ATOM     46  C   UNL A   1      39.849  29.130  29.019  1.00  0.00     0.031 A 
ATOM     47  C   UNL A   1      38.781  30.131  28.846  1.00  0.00     0.074 A 
ATOM     48  C   UNL A   1      40.799  29.299  29.964  1.00  0.00     0.049 A 
ATOM     49  N   UNL A   1      38.921  31.386  29.108  1.00  0.00    -0.248 NA
ATOM     50  C   UNL A   1      37.464  29.793  28.324  1.00  0.00     0.031 C 
ATOM     51  C   UNL A   1      40.830  30.306  31.020  1.00  0.00     0.029 A 
ATOM     52  N   UNL A   1      42.057  28.683  30.029  1.00  0.00    -0.354 N 
ATOM     53  C   UNL A   1      37.674  31.965  29.056  1.00  0.00     0.074 A 
ATOM     54  C   UNL A   1      36.811  30.946  28.503  1.00  0.00     0.031 C 
ATOM     55  C   UNL A   1      42.097  30.452  31.440  1.00  0.00     0.029 A 
ATOM     56  C   UNL A   1      42.936  29.649  30.566  1.00  0.00     0.049 A 
ATOM     57  H   UNL A   1      42.283  27.764  29.757  1.00  0.00     0.167 HD
ATOM     58  C   UNL A   1      37.482  33.195  29.614  1.00  0.00     0.037 A 
ATOM     59  C   UNL A   1      43.993  30.126  29.849  1.00  0.00     0.037 A 
ATOM     60  C   UNL A   1      38.725  33.716  30.174  1.00  0.00     0.049 A 
ATOM     61  C   UNL A   1      43.950  31.617  29.623  1.00  0.00     0.074 A 
ATOM     62  C   UNL A   1      39.244  33.690  31.459  1.00  0.00     0.029 A 
ATOM     63  N   UNL A   1      39.771  34.075  29.332  1.00  0.00    -0.354 N 
ATOM     64  N   UNL A   1      42.863  32.333  29.707  1.00  0.00    -0.248 NA
ATOM     65  C   UNL A   1      45.119  32.418  29.267  1.00  0.00     0.031 C 
ATOM     66  C   UNL A   1      40.624  33.991  31.382  1.00  0.00     0.029 A 
ATOM     67  C   UNL A   1      40.940  34.220  30.054  1.00  0.00     0.049 A 
ATOM     68  H   UNL A   1      39.691  34.206  28.361  1.00  0.00     0.167 HD
ATOM     69  C   UNL A   1      43.152  33.641  29.416  1.00  0.00     0.074 A 
ATOM     70  C   UNL A   1      44.581  33.646  29.164  1.00  0.00     0.031 C 
ATOM     71  C   UNL A   1      42.182  34.604  29.402  1.00  0.00     0.037 A 
BRANCH  58  72
ATOM     72  C   UNL A   1      36.118  33.768  29.927  1.00  0.00     0.057 A 
ATOM     73  C   UNL A   1      35.271  34.228  28.899  1.00  0.00     0.134 A 
ATOM     74  C   UNL A   1      35.602  33.940  31.221  1.00  0.00     0.134 A 
ATOM     75  F   UNL A   1      35.556  34.031  27.605  1.00  0.00    -0.206 F 
ATOM     76  C   UNL A   1      34.077  34.920  29.145  1.00  0.00     0.040 A 
ATOM     77  C   UNL A   1      34.437  34.677  31.487  1.00  0.00     0.040 A 
ATOM     78  F   UNL A   1      36.173  33.357  32.284  1.00  0.00    -0.206 F 
ATOM     79  C   UNL A   1      33.678  35.186  30.444  1.00  0.00     0.006 A 
ENDBRANCH  58  72
BRANCH  59  80
ATOM     80  C   UNL A   1      44.560  29.133  28.901  1.00  0.00     0.057 A 
ATOM     81  C   UNL A   1      44.168  29.192  27.552  1.00  0.00     0.134 A 
ATOM     82  C   UNL A   1      45.724  28.417  29.194  1.00  0.00     0.134 A 
ATOM     83  F   UNL A   1      43.059  29.865  27.202  1.00  0.00    -0.206 F 
ATOM     84  C   UNL A   1      44.957  28.663  26.527  1.00  0.00     0.040 A 
ATOM     85  C   UNL A   1      46.518  27.875  28.176  1.00  0.00     0.040 A 
ATOM     86  F   UNL A   1      46.174  28.332  30.454  1.00  0.00    -0.206 F 
ATOM     87  C   UNL A   1      46.156  28.032  26.838  1.00  0.00     0.006 A 
ENDBRANCH  59  80
BRANCH  71  88
ATOM     88  C   UNL A   1      42.318  36.014  28.875  1.00  0.00     0.057 A 
ATOM     89  C   UNL A   1      43.057  37.026  29.501  1.00  0.00     0.134 A 
ATOM     90  C   UNL A   1      41.812  36.351  27.596  1.00  0.00     0.134 A 
ATOM     91  F   UNL A   1      43.689  36.821  30.664  1.00  0.00    -0.206 F 
ATOM     92  C   UNL A   1      43.235  38.293  28.927  1.00  0.00     0.040 A 
ATOM     93  C   UNL A   1      42.030  37.591  26.991  1.00  0.00     0.040 A 
ATOM     94  F   UNL A   1      41.102  35.480  26.864  1.00  0.00    -0.206 F 
ATOM     95  C   UNL A   1      42.733  38.576  27.663  1.00  0.00     0.006 A 
ENDBRANCH  71  88
ENDBRANCH  45  46
ENDBRANCH  37  40
ENDBRANCH  35  36
ENDBRANCH  34  35
ENDBRANCH   1  34
TORSDOF 15
ENDMDL
MODEL 3
REMARK VINA RESULT:     -13.5      1.485      2.221
REMARK SMILES Cc1ccccc1C(=O)Nc1ccc(OCC(=O)NCCCNC(=O)c2ccc(-c3c4nc(c(-c5c(F)cccc5F)c5ccc([nH]5)c(-c5c(F)cccc5F)c5nc(c(-c6c(F)cccc6F)c6ccc3[nH]6)C=C5)C=C4)cc2)c(-c2nc3ccccc3s2)c1
REMARK SMILES IDX 20 1 19 2 17 3 18 4 16 6 15 7 14 8 11 9 12 10 90 11 13 12
REMARK SMILES IDX 80 13 10 14 8 15 9 16 7 18 1 19 2 20 3 21 4 22 6 23 5 24
REMARK SMILES IDX 81 25 82 26 89 27 83 28 88 29 84 30 87 31 85 32 86 33 21 34
REMARK SMILES IDX 22 35 23 36 24 37 25 39 26 40 27 41 79 42 28 43 78 44 29 45
REMARK SMILES IDX 30 46 31 47 72 48 32 49 77 50 71 51 73 52 33 53 76 54 70 55
REMARK SMILES IDX 69 56 34 58 60 59 43 60 59 61 44 62 47 63 58 64 74 65 45 66
REMARK SMILES IDX 46 67 57 69 75 70 48 71 35 72 36 73 41 74 37 75 38 76 40 77
REMARK SMILES IDX 42 78 39 79 61 80 62 81 67 82 63 83 64 84 66 85 68 86 65 87
REMARK SMILES IDX 49 88 50 89 55 90 51 91 52 92 54 93 56 94 53 95
REMARK H PARENT 19 5 10 17 23 38 73 57 47 68
REMARK Flexibility Score: inf
ROOT
ATOM      1  C   UNL A   1      33.668  28.377  26.959  1.00  0.00     0.117 C 
ENDROOT
BRANCH   1   2
ATOM      2  N   UNL A   1      32.465  28.914  26.354  1.00  0.00    -0.353 N 
ATOM      3  C   UNL A   1      32.310  29.407  25.086  1.00  0.00     0.257 C 
ATOM      4  O   UNL A   1      31.265  30.009  24.853  1.00  0.00    -0.271 OA
ATOM      5  H   UNL A   1      31.663  28.925  26.925  1.00  0.00     0.163 HD
BRANCH   3   6
ATOM      6  C   UNL A   1      33.436  29.150  24.042  1.00  0.00     0.329 C 
BRANCH   6   7
ATOM      7  O   UNL A   1      33.216  28.547  22.770  1.00  0.00    -0.483 OA
BRANCH   7   8
ATOM      8  C   UNL A   1      32.810  27.242  22.844  1.00  0.00     0.130 A 
ATOM      9  C   UNL A   1      32.139  24.537  22.846  1.00  0.00     0.042 A 
ATOM     10  C   UNL A   1      33.442  24.925  23.156  1.00  0.00     0.030 A 
ATOM     11  C   UNL A   1      31.148  25.509  22.686  1.00  0.00     0.041 A 
ATOM     12  C   UNL A   1      33.786  26.276  23.118  1.00  0.00     0.049 A 
ATOM     13  C   UNL A   1      31.452  26.889  22.723  1.00  0.00     0.055 A 
BRANCH   9  14
ATOM     14  N   UNL A   1      31.907  23.167  22.666  1.00  0.00    -0.322 N 
ATOM     15  C   UNL A   1      32.314  22.079  23.409  1.00  0.00     0.255 C 
ATOM     16  O   UNL A   1      32.145  20.952  22.938  1.00  0.00    -0.269 OA
ATOM     17  H   UNL A   1      31.363  22.945  21.877  1.00  0.00     0.170 HD
BRANCH  15  18
ATOM     18  C   UNL A   1      32.858  22.192  24.796  1.00  0.00     0.043 A 
ATOM     19  C   UNL A   1      30.644  22.860  25.947  1.00  0.00     0.045 C 
ATOM     20  C   UNL A   1      32.115  22.562  25.937  1.00  0.00    -0.038 A 
ATOM     21  C   UNL A   1      32.776  22.638  27.179  1.00  0.00     0.004 A 
ATOM     22  C   UNL A   1      34.106  22.242  27.316  1.00  0.00     0.000 A 
ATOM     23  C   UNL A   1      34.188  21.763  24.957  1.00  0.00     0.014 A 
ATOM     24  C   UNL A   1      34.804  21.776  26.210  1.00  0.00     0.001 A 
ENDBRANCH  15  18
ENDBRANCH   9  14
BRANCH  13  25
ATOM     25  C   UNL A   1      30.324  27.838  22.546  1.00  0.00     0.128 A 
ATOM     26  N   UNL A   1      30.357  28.855  21.701  1.00  0.00    -0.236 NA
ATOM     27  S   UNL A   1      28.847  27.745  23.434  1.00  0.00    -0.114 S 
ATOM     28  C   UNL A   1      29.340  29.748  21.990  1.00  0.00     0.082 A 
ATOM     29  C   UNL A   1      28.473  29.354  23.004  1.00  0.00     0.055 A 
ATOM     30  C   UNL A   1      29.146  31.008  21.392  1.00  0.00     0.030 A 
ATOM     31  C   UNL A   1      27.478  30.198  23.517  1.00  0.00     0.021 A 
ATOM     32  C   UNL A   1      28.152  31.859  21.885  1.00  0.00     0.002 A 
ATOM     33  C   UNL A   1      27.347  31.468  22.952  1.00  0.00     0.002 A 
ENDBRANCH  13  25
ENDBRANCH   7   8
ENDBRANCH   6   7
ENDBRANCH   3   6
ENDBRANCH   1   2
BRANCH   1  34
ATOM     34  C   UNL A   1      34.213  29.338  28.011  1.00  0.00     0.042 C 
BRANCH  34  35
ATOM     35  C   UNL A   1      34.673  30.660  27.412  1.00  0.00     0.118 C 
BRANCH  35  36
ATOM     36  N   UNL A   1      35.436  31.484  28.339  1.00  0.00    -0.352 N 
ATOM     37  C   UNL A   1      36.586  31.201  29.057  1.00  0.00     0.251 C 
ATOM     38  H   UNL A   1      35.076  32.389  28.479  1.00  0.00     0.163 HD
ATOM     39  O   UNL A   1      37.042  32.044  29.810  1.00  0.00    -0.269 OA
BRANCH  37  40
ATOM     40  C   UNL A   1      37.339  29.946  28.799  1.00  0.00     0.039 A 
ATOM     41  C   UNL A   1      37.469  29.040  29.861  1.00  0.00     0.014 A 
ATOM     42  C   UNL A   1      38.066  29.750  27.629  1.00  0.00     0.014 A 
ATOM     43  C   UNL A   1      38.508  28.113  29.849  1.00  0.00     0.010 A 
ATOM     44  C   UNL A   1      39.157  28.907  27.654  1.00  0.00     0.010 A 
ATOM     45  C   UNL A   1      39.415  28.142  28.793  1.00  0.00    -0.014 A 
BRANCH  45  46
ATOM     46  C   UNL A   1      40.720  27.502  28.845  1.00  0.00     0.031 A 
ATOM     47  C   UNL A   1      40.875  26.086  28.467  1.00  0.00     0.074 A 
ATOM     48  C   UNL A   1      41.802  28.251  29.151  1.00  0.00     0.049 A 
ATOM     49  N   UNL A   1      41.828  25.328  28.891  1.00  0.00    -0.248 NA
ATOM     50  C   UNL A   1      39.933  25.397  27.596  1.00  0.00     0.031 C 
ATOM     51  C   UNL A   1      43.206  27.888  28.990  1.00  0.00     0.029 A 
ATOM     52  N   UNL A   1      41.831  29.454  29.871  1.00  0.00    -0.354 N 
ATOM     53  C   UNL A   1      41.791  24.163  28.160  1.00  0.00     0.074 A 
ATOM     54  C   UNL A   1      40.556  24.229  27.411  1.00  0.00     0.031 C 
ATOM     55  C   UNL A   1      43.947  28.655  29.805  1.00  0.00     0.029 A 
ATOM     56  C   UNL A   1      43.026  29.431  30.621  1.00  0.00     0.049 A 
ATOM     57  H   UNL A   1      41.155  30.170  29.857  1.00  0.00     0.167 HD
ATOM     58  C   UNL A   1      42.875  23.334  28.163  1.00  0.00     0.037 A 
ATOM     59  C   UNL A   1      43.013  29.438  31.985  1.00  0.00     0.037 A 
ATOM     60  C   UNL A   1      43.932  23.858  29.023  1.00  0.00     0.049 A 
ATOM     61  C   UNL A   1      43.671  28.230  32.605  1.00  0.00     0.074 A 
ATOM     62  C   UNL A   1      45.056  24.621  28.749  1.00  0.00     0.029 A 
ATOM     63  N   UNL A   1      43.750  23.903  30.400  1.00  0.00    -0.354 N 
ATOM     64  N   UNL A   1      43.860  27.103  31.976  1.00  0.00    -0.248 NA
ATOM     65  C   UNL A   1      44.151  28.187  33.983  1.00  0.00     0.031 C 
ATOM     66  C   UNL A   1      45.526  25.166  29.967  1.00  0.00     0.029 A 
ATOM     67  C   UNL A   1      44.701  24.718  30.983  1.00  0.00     0.049 A 
ATOM     68  H   UNL A   1      43.045  23.423  30.890  1.00  0.00     0.167 HD
ATOM     69  C   UNL A   1      44.450  26.199  32.822  1.00  0.00     0.074 A 
ATOM     70  C   UNL A   1      44.628  26.932  34.062  1.00  0.00     0.031 C 
ATOM     71  C   UNL A   1      44.733  24.923  32.424  1.00  0.00     0.037 A 
BRANCH  58  72
ATOM     72  C   UNL A   1      43.090  22.233  27.150  1.00  0.00     0.057 A 
ATOM     73  C   UNL A   1      42.320  21.054  27.185  1.00  0.00     0.134 A 
ATOM     74  C   UNL A   1      44.071  22.252  26.146  1.00  0.00     0.134 A 
ATOM     75  F   UNL A   1      41.264  20.921  28.000  1.00  0.00    -0.206 F 
ATOM     76  C   UNL A   1      42.592  19.939  26.381  1.00  0.00     0.040 A 
ATOM     77  C   UNL A   1      44.392  21.126  25.371  1.00  0.00     0.040 A 
ATOM     78  F   UNL A   1      44.728  23.376  25.833  1.00  0.00    -0.206 F 
ATOM     79  C   UNL A   1      43.660  19.956  25.500  1.00  0.00     0.006 A 
ENDBRANCH  58  72
BRANCH  59  80
ATOM     80  C   UNL A   1      41.856  30.172  32.559  1.00  0.00     0.057 A 
ATOM     81  C   UNL A   1      41.910  31.575  32.611  1.00  0.00     0.134 A 
ATOM     82  C   UNL A   1      40.596  29.579  32.682  1.00  0.00     0.134 A 
ATOM     83  F   UNL A   1      43.090  32.208  32.498  1.00  0.00    -0.206 F 
ATOM     84  C   UNL A   1      40.755  32.360  32.667  1.00  0.00     0.040 A 
ATOM     85  C   UNL A   1      39.432  30.355  32.747  1.00  0.00     0.040 A 
ATOM     86  F   UNL A   1      40.460  28.247  32.621  1.00  0.00    -0.206 F 
ATOM     87  C   UNL A   1      39.508  31.747  32.700  1.00  0.00     0.006 A 
ENDBRANCH  59  80
BRANCH  71  88
ATOM     88  C   UNL A   1      45.156  23.774  33.310  1.00  0.00     0.057 A 
ATOM     89  C   UNL A   1      46.433  23.633  33.867  1.00  0.00     0.134 A 
ATOM     90  C   UNL A   1      44.202  22.830  33.760  1.00  0.00     0.134 A 
ATOM     91  F   UNL A   1      47.411  24.516  33.622  1.00  0.00    -0.206 F 
ATOM     92  C   UNL A   1      46.754  22.602  34.762  1.00  0.00     0.040 A 
ATOM     93  C   UNL A   1      44.497  21.833  34.693  1.00  0.00     0.040 A 
ATOM     94  F   UNL A   1      42.931  22.848  33.332  1.00  0.00    -0.206 F 
ATOM     95  C   UNL A   1      45.783  21.705  35.188  1.00  0.00     0.006 A 
ENDBRANCH  71  88
ENDBRANCH  45  46
ENDBRANCH  37  40
ENDBRANCH  35  36
ENDBRANCH  34  35
ENDBRANCH   1  34
TORSDOF 15
ENDMDL
