MODEL 1
REMARK VINA RESULT:     -11.9      0.000      0.000
REMARK SMILES O=C(CCn1c(N2CC[NH2+]CC2)nc2ccccc2c1=O)NCCCNC(=O)c1ccc(-c2c3nc(c(-c4c(F)cccc4F)c4ccc([nH]4)c(-c4c(F)cccc4F)c4nc(c(-c5c(F)cccc5F)c5ccc2[nH]5)C=C4)C=C3)cc1
REMARK SMILES IDX 23 1 22 2 1 3 2 4 3 6 4 7 5 8 6 9 20 10 13 11 19 12 21 13
REMARK SMILES IDX 14 14 18 15 15 16 17 17 16 18 7 19 8 20 12 21 9 22 11 23
REMARK SMILES IDX 10 24 24 27 25 28 26 29 27 30 28 32 29 33 30 34 82 35 31 36
REMARK SMILES IDX 81 37 32 38 33 39 34 40 75 41 35 42 80 43 74 44 76 45 36 46
REMARK SMILES IDX 79 47 73 48 72 49 37 51 63 52 46 53 62 54 47 55 50 56 61 57
REMARK SMILES IDX 77 58 48 59 49 60 60 62 78 63 51 64 38 65 39 66 44 67 40 68
REMARK SMILES IDX 41 69 43 70 45 71 42 72 64 73 65 74 70 75 66 76 67 77 69 78
REMARK SMILES IDX 71 79 68 80 52 81 53 82 58 83 54 84 55 85 57 86 59 87 56 88
REMARK H PARENT 22 5 10 25 10 26 26 31 76 50 50 61
REMARK Flexibility Score: inf
ROOT
ATOM      1  C   UNL A   1      31.492  27.720  26.491  1.00  0.00     0.117 C 
ENDROOT
BRANCH   1   2
ATOM      2  N   UNL A   1      31.390  26.294  26.731  1.00  0.00    -0.356 N 
ATOM      3  O   UNL A   1      29.869  25.839  25.071  1.00  0.00    -0.275 OA
ATOM      4  C   UNL A   1      30.678  25.449  25.906  1.00  0.00     0.221 C 
ATOM      5  H   UNL A   1      31.845  25.913  27.517  1.00  0.00     0.163 HD
BRANCH   4   6
ATOM      6  C   UNL A   1      31.062  23.990  26.029  1.00  0.00     0.122 C 
BRANCH   6   7
ATOM      7  C   UNL A   1      31.296  23.341  24.650  1.00  0.00     0.139 C 
BRANCH   7   8
ATOM      8  N   UNL A   1      32.721  23.126  24.373  1.00  0.00    -0.278 N 
ATOM      9  C   UNL A   1      33.573  24.100  23.841  1.00  0.00     0.209 A 
ATOM     10  C   UNL A   1      33.174  21.828  24.639  1.00  0.00     0.262 A 
ATOM     11  N   UNL A   1      34.864  23.903  23.799  1.00  0.00    -0.214 NA
ATOM     12  C   UNL A   1      34.620  21.611  24.595  1.00  0.00     0.066 A 
ATOM     13  O   UNL A   1      32.440  20.893  24.956  1.00  0.00    -0.269 OA
ATOM     14  C   UNL A   1      35.412  22.692  24.235  1.00  0.00     0.080 A 
ATOM     15  C   UNL A   1      35.178  20.382  24.970  1.00  0.00     0.016 A 
ATOM     16  C   UNL A   1      36.799  22.539  24.277  1.00  0.00     0.029 A 
ATOM     17  C   UNL A   1      36.563  20.239  25.002  1.00  0.00     0.001 A 
ATOM     18  C   UNL A   1      37.374  21.322  24.666  1.00  0.00     0.002 A 
BRANCH   9  19
ATOM     19  N   UNL A   1      33.083  25.268  23.276  1.00  0.00    -0.331 N 
ATOM     20  C   UNL A   1      32.503  25.189  21.916  1.00  0.00     0.181 C 
ATOM     21  C   UNL A   1      33.612  26.611  23.546  1.00  0.00     0.181 C 
ATOM     22  C   UNL A   1      31.437  26.289  21.720  1.00  0.00     0.282 C 
ATOM     23  C   UNL A   1      32.518  27.680  23.352  1.00  0.00     0.282 C 
ATOM     24  N   UNL A   1      31.921  27.656  22.003  1.00  0.00    -0.343 N 
ATOM     25  H   UNL A   1      31.141  28.312  21.962  1.00  0.00     0.346 HD
ATOM     26  H   UNL A   1      32.620  27.926  21.310  1.00  0.00     0.346 HD
ENDBRANCH   9  19
ENDBRANCH   7   8
ENDBRANCH   6   7
ENDBRANCH   4   6
ENDBRANCH   1   2
BRANCH   1  27
ATOM     27  C   UNL A   1      32.084  28.496  27.648  1.00  0.00     0.042 C 
BRANCH  27  28
ATOM     28  C   UNL A   1      33.429  29.143  27.352  1.00  0.00     0.118 C 
BRANCH  28  29
ATOM     29  N   UNL A   1      33.640  30.446  27.977  1.00  0.00    -0.352 N 
ATOM     30  C   UNL A   1      34.811  30.971  28.492  1.00  0.00     0.251 C 
ATOM     31  H   UNL A   1      32.847  31.025  28.040  1.00  0.00     0.163 HD
ATOM     32  O   UNL A   1      34.832  32.071  29.028  1.00  0.00    -0.269 OA
BRANCH  30  33
ATOM     33  C   UNL A   1      36.043  30.152  28.435  1.00  0.00     0.039 A 
ATOM     34  C   UNL A   1      36.468  29.451  29.564  1.00  0.00     0.014 A 
ATOM     35  C   UNL A   1      36.842  30.195  27.289  1.00  0.00     0.014 A 
ATOM     36  C   UNL A   1      37.786  29.015  29.634  1.00  0.00     0.010 A 
ATOM     37  C   UNL A   1      38.132  29.656  27.328  1.00  0.00     0.010 A 
ATOM     38  C   UNL A   1      38.645  29.139  28.528  1.00  0.00    -0.014 A 
BRANCH  38  39
ATOM     39  C   UNL A   1      40.084  28.787  28.681  1.00  0.00     0.031 A 
ATOM     40  C   UNL A   1      41.039  29.725  29.380  1.00  0.00     0.074 A 
ATOM     41  C   UNL A   1      40.520  27.580  28.272  1.00  0.00     0.049 A 
ATOM     42  N   UNL A   1      42.320  29.574  29.620  1.00  0.00    -0.248 NA
ATOM     43  C   UNL A   1      40.490  30.998  29.874  1.00  0.00     0.031 C 
ATOM     44  C   UNL A   1      39.699  26.568  27.604  1.00  0.00     0.029 A 
ATOM     45  N   UNL A   1      41.750  26.985  28.392  1.00  0.00    -0.354 N 
ATOM     46  C   UNL A   1      42.732  30.740  30.254  1.00  0.00     0.074 A 
ATOM     47  C   UNL A   1      41.572  31.599  30.350  1.00  0.00     0.031 C 
ATOM     48  C   UNL A   1      40.427  25.455  27.434  1.00  0.00     0.029 A 
ATOM     49  C   UNL A   1      41.781  25.696  27.918  1.00  0.00     0.049 A 
ATOM     50  H   UNL A   1      42.533  27.437  28.780  1.00  0.00     0.167 HD
ATOM     51  C   UNL A   1      43.961  31.065  30.726  1.00  0.00     0.037 A 
ATOM     52  C   UNL A   1      42.791  24.808  27.866  1.00  0.00     0.037 A 
ATOM     53  C   UNL A   1      45.110  30.198  30.676  1.00  0.00     0.049 A 
ATOM     54  C   UNL A   1      44.147  25.201  28.373  1.00  0.00     0.074 A 
ATOM     55  C   UNL A   1      46.390  30.431  31.150  1.00  0.00     0.029 A 
ATOM     56  N   UNL A   1      45.114  28.925  30.129  1.00  0.00    -0.354 N 
ATOM     57  N   UNL A   1      44.521  26.316  28.949  1.00  0.00    -0.248 NA
ATOM     58  C   UNL A   1      45.224  24.216  28.203  1.00  0.00     0.031 C 
ATOM     59  C   UNL A   1      47.176  29.310  30.864  1.00  0.00     0.029 A 
ATOM     60  C   UNL A   1      46.377  28.366  30.241  1.00  0.00     0.049 A 
ATOM     61  H   UNL A   1      44.334  28.482  29.722  1.00  0.00     0.167 HD
ATOM     62  C   UNL A   1      45.876  26.168  29.213  1.00  0.00     0.074 A 
ATOM     63  C   UNL A   1      46.251  24.845  28.758  1.00  0.00     0.031 C 
ATOM     64  C   UNL A   1      46.735  27.052  29.775  1.00  0.00     0.037 A 
BRANCH  51  65
ATOM     65  C   UNL A   1      44.134  32.428  31.329  1.00  0.00     0.057 A 
ATOM     66  C   UNL A   1      43.933  32.632  32.700  1.00  0.00     0.134 A 
ATOM     67  C   UNL A   1      44.460  33.546  30.550  1.00  0.00     0.134 A 
ATOM     68  F   UNL A   1      43.612  31.604  33.501  1.00  0.00    -0.206 F 
ATOM     69  C   UNL A   1      44.051  33.898  33.276  1.00  0.00     0.040 A 
ATOM     70  C   UNL A   1      44.599  34.814  31.118  1.00  0.00     0.040 A 
ATOM     71  F   UNL A   1      44.677  33.416  29.233  1.00  0.00    -0.206 F 
ATOM     72  C   UNL A   1      44.388  34.994  32.484  1.00  0.00     0.006 A 
ENDBRANCH  51  65
BRANCH  52  73
ATOM     73  C   UNL A   1      42.558  23.461  27.294  1.00  0.00     0.057 A 
ATOM     74  C   UNL A   1      42.738  23.207  25.929  1.00  0.00     0.134 A 
ATOM     75  C   UNL A   1      42.148  22.395  28.103  1.00  0.00     0.134 A 
ATOM     76  F   UNL A   1      43.127  24.191  25.105  1.00  0.00    -0.206 F 
ATOM     77  C   UNL A   1      42.505  21.944  25.385  1.00  0.00     0.040 A 
ATOM     78  C   UNL A   1      41.934  21.121  27.575  1.00  0.00     0.040 A 
ATOM     79  F   UNL A   1      41.980  22.574  29.421  1.00  0.00    -0.206 F 
ATOM     80  C   UNL A   1      42.106  20.896  26.211  1.00  0.00     0.006 A 
ENDBRANCH  52  73
BRANCH  64  81
ATOM     81  C   UNL A   1      48.156  26.607  29.929  1.00  0.00     0.057 A 
ATOM     82  C   UNL A   1      48.573  25.922  31.077  1.00  0.00     0.134 A 
ATOM     83  C   UNL A   1      49.114  26.861  28.939  1.00  0.00     0.134 A 
ATOM     84  F   UNL A   1      47.703  25.652  32.062  1.00  0.00    -0.206 F 
ATOM     85  C   UNL A   1      49.894  25.503  31.234  1.00  0.00     0.040 A 
ATOM     86  C   UNL A   1      50.434  26.429  29.076  1.00  0.00     0.040 A 
ATOM     87  F   UNL A   1      48.771  27.497  27.809  1.00  0.00    -0.206 F 
ATOM     88  C   UNL A   1      50.827  25.751  30.228  1.00  0.00     0.006 A 
ENDBRANCH  64  81
ENDBRANCH  38  39
ENDBRANCH  30  33
ENDBRANCH  28  29
ENDBRANCH  27  28
ENDBRANCH   1  27
TORSDOF 13
ENDMDL
MODEL 2
REMARK VINA RESULT:     -11.8      2.095      7.714
REMARK SMILES O=C(CCn1c(N2CC[NH2+]CC2)nc2ccccc2c1=O)NCCCNC(=O)c1ccc(-c2c3nc(c(-c4c(F)cccc4F)c4ccc([nH]4)c(-c4c(F)cccc4F)c4nc(c(-c5c(F)cccc5F)c5ccc2[nH]5)C=C4)C=C3)cc1
REMARK SMILES IDX 23 1 22 2 1 3 2 4 3 6 4 7 5 8 6 9 20 10 13 11 19 12 21 13
REMARK SMILES IDX 14 14 18 15 15 16 17 17 16 18 7 19 8 20 12 21 9 22 11 23
REMARK SMILES IDX 10 24 24 27 25 28 26 29 27 30 28 32 29 33 30 34 82 35 31 36
REMARK SMILES IDX 81 37 32 38 33 39 34 40 75 41 35 42 80 43 74 44 76 45 36 46
REMARK SMILES IDX 79 47 73 48 72 49 37 51 63 52 46 53 62 54 47 55 50 56 61 57
REMARK SMILES IDX 77 58 48 59 49 60 60 62 78 63 51 64 38 65 39 66 44 67 40 68
REMARK SMILES IDX 41 69 43 70 45 71 42 72 64 73 65 74 70 75 66 76 67 77 69 78
REMARK SMILES IDX 71 79 68 80 52 81 53 82 58 83 54 84 55 85 57 86 59 87 56 88
REMARK H PARENT 22 5 10 25 10 26 26 31 76 50 50 61
REMARK Flexibility Score: inf
ROOT
ATOM      1  C   UNL A   1      35.944  21.626  24.811  1.00  0.00     0.117 C 
ENDROOT
BRANCH   1   2
ATOM      2  N   UNL A   1      35.090  22.632  24.209  1.00  0.00    -0.356 N 
ATOM      3  O   UNL A   1      35.027  24.057  26.009  1.00  0.00    -0.275 OA
ATOM      4  C   UNL A   1      34.812  23.835  24.823  1.00  0.00     0.221 C 
ATOM      5  H   UNL A   1      34.693  22.449  23.328  1.00  0.00     0.163 HD
BRANCH   4   6
ATOM      6  C   UNL A   1      34.320  24.915  23.882  1.00  0.00     0.122 C 
BRANCH   6   7
ATOM      7  C   UNL A   1      33.732  26.117  24.648  1.00  0.00     0.139 C 
BRANCH   7   8
ATOM      8  N   UNL A   1      32.387  26.470  24.177  1.00  0.00    -0.278 N 
ATOM      9  C   UNL A   1      31.229  25.755  24.502  1.00  0.00     0.209 A 
ATOM     10  C   UNL A   1      32.345  27.574  23.317  1.00  0.00     0.262 A 
ATOM     11  N   UNL A   1      30.049  26.232  24.209  1.00  0.00    -0.214 NA
ATOM     12  C   UNL A   1      31.022  28.108  22.992  1.00  0.00     0.066 A 
ATOM     13  O   UNL A   1      33.342  28.140  22.873  1.00  0.00    -0.269 OA
ATOM     14  C   UNL A   1      29.924  27.440  23.514  1.00  0.00     0.080 A 
ATOM     15  C   UNL A   1      30.881  29.284  22.244  1.00  0.00     0.016 A 
ATOM     16  C   UNL A   1      28.656  27.984  23.299  1.00  0.00     0.029 A 
ATOM     17  C   UNL A   1      29.611  29.813  22.031  1.00  0.00     0.001 A 
ATOM     18  C   UNL A   1      28.499  29.168  22.568  1.00  0.00     0.002 A 
BRANCH   9  19
ATOM     19  N   UNL A   1      31.287  24.493  25.076  1.00  0.00    -0.331 N 
ATOM     20  C   UNL A   1      30.979  23.328  24.217  1.00  0.00     0.181 C 
ATOM     21  C   UNL A   1      30.991  24.204  26.485  1.00  0.00     0.181 C 
ATOM     22  C   UNL A   1      31.721  22.072  24.726  1.00  0.00     0.282 C 
ATOM     23  C   UNL A   1      31.758  22.953  26.959  1.00  0.00     0.282 C 
ATOM     24  N   UNL A   1      31.469  21.756  26.147  1.00  0.00    -0.343 N 
ATOM     25  H   UNL A   1      32.073  20.989  26.440  1.00  0.00     0.346 HD
ATOM     26  H   UNL A   1      30.495  21.480  26.272  1.00  0.00     0.346 HD
ENDBRANCH   9  19
ENDBRANCH   7   8
ENDBRANCH   6   7
ENDBRANCH   4   6
ENDBRANCH   1   2
BRANCH   1  27
ATOM     27  C   UNL A   1      37.420  21.838  24.547  1.00  0.00     0.042 C 
BRANCH  27  28
ATOM     28  C   UNL A   1      38.328  21.471  25.711  1.00  0.00     0.118 C 
BRANCH  28  29
ATOM     29  N   UNL A   1      39.069  20.224  25.549  1.00  0.00    -0.352 N 
ATOM     30  C   UNL A   1      40.376  19.948  25.911  1.00  0.00     0.251 C 
ATOM     31  H   UNL A   1      38.577  19.484  25.127  1.00  0.00     0.163 HD
ATOM     32  O   UNL A   1      40.884  18.860  25.675  1.00  0.00    -0.269 OA
BRANCH  30  33
ATOM     33  C   UNL A   1      41.178  21.018  26.546  1.00  0.00     0.039 A 
ATOM     34  C   UNL A   1      41.170  21.168  27.933  1.00  0.00     0.014 A 
ATOM     35  C   UNL A   1      41.831  21.955  25.739  1.00  0.00     0.014 A 
ATOM     36  C   UNL A   1      41.590  22.370  28.487  1.00  0.00     0.010 A 
ATOM     37  C   UNL A   1      42.352  23.118  26.317  1.00  0.00     0.010 A 
ATOM     38  C   UNL A   1      42.158  23.375  27.683  1.00  0.00    -0.014 A 
BRANCH  38  39
ATOM     39  C   UNL A   1      42.471  24.700  28.286  1.00  0.00     0.031 A 
ATOM     40  C   UNL A   1      43.893  25.078  28.625  1.00  0.00     0.074 A 
ATOM     41  C   UNL A   1      41.487  25.607  28.446  1.00  0.00     0.049 A 
ATOM     42  N   UNL A   1      44.352  26.195  29.138  1.00  0.00    -0.248 NA
ATOM     43  C   UNL A   1      44.937  24.076  28.358  1.00  0.00     0.031 C 
ATOM     44  C   UNL A   1      40.074  25.381  28.137  1.00  0.00     0.029 A 
ATOM     45  N   UNL A   1      41.532  26.909  28.871  1.00  0.00    -0.354 N 
ATOM     46  C   UNL A   1      45.722  26.015  29.287  1.00  0.00     0.074 A 
ATOM     47  C   UNL A   1      46.023  24.676  28.827  1.00  0.00     0.031 C 
ATOM     48  C   UNL A   1      39.398  26.525  28.317  1.00  0.00     0.029 A 
ATOM     49  C   UNL A   1      40.314  27.543  28.820  1.00  0.00     0.049 A 
ATOM     50  H   UNL A   1      42.356  27.348  29.184  1.00  0.00     0.167 HD
ATOM     51  C   UNL A   1      46.651  26.886  29.753  1.00  0.00     0.037 A 
ATOM     52  C   UNL A   1      39.967  28.800  29.150  1.00  0.00     0.037 A 
ATOM     53  C   UNL A   1      46.368  28.235  30.169  1.00  0.00     0.049 A 
ATOM     54  C   UNL A   1      41.010  29.737  29.686  1.00  0.00     0.074 A 
ATOM     55  C   UNL A   1      47.248  29.199  30.633  1.00  0.00     0.029 A 
ATOM     56  N   UNL A   1      45.110  28.815  30.160  1.00  0.00    -0.354 N 
ATOM     57  N   UNL A   1      42.295  29.540  29.839  1.00  0.00    -0.248 NA
ATOM     58  C   UNL A   1      40.545  31.064  30.112  1.00  0.00     0.031 C 
ATOM     59  C   UNL A   1      46.517  30.354  30.932  1.00  0.00     0.029 A 
ATOM     60  C   UNL A   1      45.187  30.119  30.624  1.00  0.00     0.049 A 
ATOM     61  H   UNL A   1      44.283  28.368  29.868  1.00  0.00     0.167 HD
ATOM     62  C   UNL A   1      42.796  30.717  30.378  1.00  0.00     0.074 A 
ATOM     63  C   UNL A   1      41.679  31.632  30.499  1.00  0.00     0.031 C 
ATOM     64  C   UNL A   1      44.065  31.012  30.746  1.00  0.00     0.037 A 
BRANCH  51  65
ATOM     65  C   UNL A   1      48.068  26.401  29.852  1.00  0.00     0.057 A 
ATOM     66  C   UNL A   1      48.943  26.530  28.766  1.00  0.00     0.134 A 
ATOM     67  C   UNL A   1      48.557  25.773  31.005  1.00  0.00     0.134 A 
ATOM     68  F   UNL A   1      48.535  27.116  27.629  1.00  0.00    -0.206 F 
ATOM     69  C   UNL A   1      50.253  26.051  28.822  1.00  0.00     0.040 A 
ATOM     70  C   UNL A   1      49.871  25.308  31.080  1.00  0.00     0.040 A 
ATOM     71  F   UNL A   1      47.773  25.631  32.084  1.00  0.00    -0.206 F 
ATOM     72  C   UNL A   1      50.721  25.441  29.984  1.00  0.00     0.006 A 
ENDBRANCH  51  65
BRANCH  52  73
ATOM     73  C   UNL A   1      38.561  29.240  28.998  1.00  0.00     0.057 A 
ATOM     74  C   UNL A   1      38.066  29.686  27.766  1.00  0.00     0.134 A 
ATOM     75  C   UNL A   1      37.679  29.226  30.084  1.00  0.00     0.134 A 
ATOM     76  F   UNL A   1      38.866  29.725  26.691  1.00  0.00    -0.206 F 
ATOM     77  C   UNL A   1      36.748  30.116  27.623  1.00  0.00     0.040 A 
ATOM     78  C   UNL A   1      36.350  29.632  29.948  1.00  0.00     0.040 A 
ATOM     79  F   UNL A   1      38.090  28.790  31.283  1.00  0.00    -0.206 F 
ATOM     80  C   UNL A   1      35.884  30.085  28.715  1.00  0.00     0.006 A 
ENDBRANCH  52  73
BRANCH  64  81
ATOM     81  C   UNL A   1      44.305  32.380  31.307  1.00  0.00     0.057 A 
ATOM     82  C   UNL A   1      44.598  33.459  30.465  1.00  0.00     0.134 A 
ATOM     83  C   UNL A   1      44.247  32.627  32.685  1.00  0.00     0.134 A 
ATOM     84  F   UNL A   1      44.672  33.286  29.136  1.00  0.00    -0.206 F 
ATOM     85  C   UNL A   1      44.825  34.738  30.974  1.00  0.00     0.040 A 
ATOM     86  C   UNL A   1      44.451  33.906  33.204  1.00  0.00     0.040 A 
ATOM     87  F   UNL A   1      43.951  31.636  33.540  1.00  0.00    -0.206 F 
ATOM     88  C   UNL A   1      44.745  34.965  32.347  1.00  0.00     0.006 A 
ENDBRANCH  64  81
ENDBRANCH  38  39
ENDBRANCH  30  33
ENDBRANCH  28  29
ENDBRANCH  27  28
ENDBRANCH   1  27
TORSDOF 13
ENDMDL
MODEL 3
REMARK VINA RESULT:     -11.8      2.293      7.214
REMARK SMILES O=C(CCn1c(N2CC[NH2+]CC2)nc2ccccc2c1=O)NCCCNC(=O)c1ccc(-c2c3nc(c(-c4c(F)cccc4F)c4ccc([nH]4)c(-c4c(F)cccc4F)c4nc(c(-c5c(F)cccc5F)c5ccc2[nH]5)C=C4)C=C3)cc1
REMARK SMILES IDX 23 1 22 2 1 3 2 4 3 6 4 7 5 8 6 9 20 10 13 11 19 12 21 13
REMARK SMILES IDX 14 14 18 15 15 16 17 17 16 18 7 19 8 20 12 21 9 22 11 23
REMARK SMILES IDX 10 24 24 27 25 28 26 29 27 30 28 32 29 33 30 34 82 35 31 36
REMARK SMILES IDX 81 37 32 38 33 39 34 40 75 41 35 42 80 43 74 44 76 45 36 46
REMARK SMILES IDX 79 47 73 48 72 49 37 51 63 52 46 53 62 54 47 55 50 56 61 57
REMARK SMILES IDX 77 58 48 59 49 60 60 62 78 63 51 64 38 65 39 66 44 67 40 68
REMARK SMILES IDX 41 69 43 70 45 71 42 72 64 73 65 74 70 75 66 76 67 77 69 78
REMARK SMILES IDX 71 79 68 80 52 81 53 82 58 83 54 84 55 85 57 86 59 87 56 88
REMARK H PARENT 22 5 10 25 10 26 26 31 76 50 50 61
REMARK Flexibility Score: inf
ROOT
ATOM      1  C   UNL A   1      37.300  22.365  24.281  1.00  0.00     0.117 C 
ENDROOT
BRANCH   1   2
ATOM      2  N   UNL A   1      36.471  23.369  24.919  1.00  0.00    -0.356 N 
ATOM      3  O   UNL A   1      35.194  23.885  23.080  1.00  0.00    -0.275 OA
ATOM      4  C   UNL A   1      35.392  23.952  24.288  1.00  0.00     0.221 C 
ATOM      5  H   UNL A   1      36.687  23.646  25.838  1.00  0.00     0.163 HD
BRANCH   4   6
ATOM      6  C   UNL A   1      34.394  24.595  25.229  1.00  0.00     0.122 C 
BRANCH   6   7
ATOM      7  C   UNL A   1      33.749  23.561  26.173  1.00  0.00     0.139 C 
BRANCH   7   8
ATOM      8  N   UNL A   1      33.202  22.410  25.444  1.00  0.00    -0.278 N 
ATOM      9  C   UNL A   1      32.076  22.470  24.616  1.00  0.00     0.209 A 
ATOM     10  C   UNL A   1      33.872  21.203  25.678  1.00  0.00     0.262 A 
ATOM     11  N   UNL A   1      31.759  21.458  23.851  1.00  0.00    -0.214 NA
ATOM     12  C   UNL A   1      33.517  20.074  24.818  1.00  0.00     0.066 A 
ATOM     13  O   UNL A   1      34.763  21.060  26.513  1.00  0.00    -0.269 OA
ATOM     14  C   UNL A   1      32.507  20.277  23.890  1.00  0.00     0.080 A 
ATOM     15  C   UNL A   1      34.218  18.863  24.890  1.00  0.00     0.016 A 
ATOM     16  C   UNL A   1      32.215  19.247  22.994  1.00  0.00     0.029 A 
ATOM     17  C   UNL A   1      33.914  17.840  23.996  1.00  0.00     0.001 A 
ATOM     18  C   UNL A   1      32.918  18.036  23.040  1.00  0.00     0.002 A 
BRANCH   9  19
ATOM     19  N   UNL A   1      31.220  23.561  24.625  1.00  0.00    -0.331 N 
ATOM     20  C   UNL A   1      30.396  23.784  25.835  1.00  0.00     0.181 C 
ATOM     21  C   UNL A   1      30.569  24.120  23.433  1.00  0.00     0.181 C 
ATOM     22  C   UNL A   1      30.070  25.285  25.996  1.00  0.00     0.282 C 
ATOM     23  C   UNL A   1      30.270  25.621  23.627  1.00  0.00     0.282 C 
ATOM     24  N   UNL A   1      29.434  25.895  24.810  1.00  0.00    -0.343 N 
ATOM     25  H   UNL A   1      29.351  26.902  24.945  1.00  0.00     0.346 HD
ATOM     26  H   UNL A   1      28.503  25.499  24.675  1.00  0.00     0.346 HD
ENDBRANCH   9  19
ENDBRANCH   7   8
ENDBRANCH   6   7
ENDBRANCH   4   6
ENDBRANCH   1   2
BRANCH   1  27
ATOM     27  C   UNL A   1      37.642  21.194  25.178  1.00  0.00     0.042 C 
BRANCH  27  28
ATOM     28  C   UNL A   1      39.024  21.265  25.811  1.00  0.00     0.118 C 
BRANCH  28  29
ATOM     29  N   UNL A   1      39.828  20.054  25.682  1.00  0.00    -0.352 N 
ATOM     30  C   UNL A   1      41.155  19.864  26.023  1.00  0.00     0.251 C 
ATOM     31  H   UNL A   1      39.367  19.272  25.302  1.00  0.00     0.163 HD
ATOM     32  O   UNL A   1      41.716  18.796  25.819  1.00  0.00    -0.269 OA
BRANCH  30  33
ATOM     33  C   UNL A   1      41.911  21.001  26.595  1.00  0.00     0.039 A 
ATOM     34  C   UNL A   1      42.010  21.149  27.978  1.00  0.00     0.014 A 
ATOM     35  C   UNL A   1      42.406  21.992  25.742  1.00  0.00     0.014 A 
ATOM     36  C   UNL A   1      42.368  22.384  28.504  1.00  0.00     0.010 A 
ATOM     37  C   UNL A   1      42.870  23.197  26.282  1.00  0.00     0.010 A 
ATOM     38  C   UNL A   1      42.774  23.435  27.662  1.00  0.00    -0.014 A 
BRANCH  38  39
ATOM     39  C   UNL A   1      43.019  24.783  28.246  1.00  0.00     0.031 A 
ATOM     40  C   UNL A   1      44.423  25.252  28.543  1.00  0.00     0.074 A 
ATOM     41  C   UNL A   1      41.985  25.628  28.425  1.00  0.00     0.049 A 
ATOM     42  N   UNL A   1      44.825  26.400  29.035  1.00  0.00    -0.248 NA
ATOM     43  C   UNL A   1      45.520  24.314  28.256  1.00  0.00     0.031 C 
ATOM     44  C   UNL A   1      40.581  25.313  28.156  1.00  0.00     0.029 A 
ATOM     45  N   UNL A   1      41.959  26.935  28.839  1.00  0.00    -0.354 N 
ATOM     46  C   UNL A   1      46.207  26.307  29.149  1.00  0.00     0.074 A 
ATOM     47  C   UNL A   1      46.578  24.985  28.691  1.00  0.00     0.031 C 
ATOM     48  C   UNL A   1      39.840  26.413  28.346  1.00  0.00     0.029 A 
ATOM     49  C   UNL A   1      40.703  27.491  28.815  1.00  0.00     0.049 A 
ATOM     50  H   UNL A   1      42.762  27.427  29.126  1.00  0.00     0.167 HD
ATOM     51  C   UNL A   1      47.092  27.238  29.582  1.00  0.00     0.037 A 
ATOM     52  C   UNL A   1      40.288  28.727  29.145  1.00  0.00     0.037 A 
ATOM     53  C   UNL A   1      46.736  28.571  29.996  1.00  0.00     0.049 A 
ATOM     54  C   UNL A   1      41.284  29.732  29.645  1.00  0.00     0.074 A 
ATOM     55  C   UNL A   1      47.566  29.592  30.429  1.00  0.00     0.029 A 
ATOM     56  N   UNL A   1      45.444  29.072  30.016  1.00  0.00    -0.354 N 
ATOM     57  N   UNL A   1      42.582  29.617  29.766  1.00  0.00    -0.248 NA
ATOM     58  C   UNL A   1      40.748  31.032  30.073  1.00  0.00     0.031 C 
ATOM     59  C   UNL A   1      46.772  30.702  30.738  1.00  0.00     0.029 A 
ATOM     60  C   UNL A   1      45.452  30.382  30.468  1.00  0.00     0.049 A 
ATOM     61  H   UNL A   1      44.640  28.571  29.750  1.00  0.00     0.167 HD
ATOM     62  C   UNL A   1      43.023  30.828  30.281  1.00  0.00     0.074 A 
ATOM     63  C   UNL A   1      41.855  31.673  30.425  1.00  0.00     0.031 C 
ATOM     64  C   UNL A   1      44.280  31.205  30.613  1.00  0.00     0.037 A 
BRANCH  51  65
ATOM     65  C   UNL A   1      48.538  26.844  29.647  1.00  0.00     0.057 A 
ATOM     66  C   UNL A   1      49.402  27.128  28.582  1.00  0.00     0.134 A 
ATOM     67  C   UNL A   1      49.068  26.150  30.742  1.00  0.00     0.134 A 
ATOM     68  F   UNL A   1      48.957  27.784  27.500  1.00  0.00    -0.206 F 
ATOM     69  C   UNL A   1      50.742  26.736  28.604  1.00  0.00     0.040 A 
ATOM     70  C   UNL A   1      50.411  25.770  30.784  1.00  0.00     0.040 A 
ATOM     71  F   UNL A   1      48.295  25.858  31.800  1.00  0.00    -0.206 F 
ATOM     72  C   UNL A   1      51.251  26.058  29.710  1.00  0.00     0.006 A 
ENDBRANCH  51  65
BRANCH  52  73
ATOM     73  C   UNL A   1      38.853  29.078  29.028  1.00  0.00     0.057 A 
ATOM     74  C   UNL A   1      38.305  29.508  27.813  1.00  0.00     0.134 A 
ATOM     75  C   UNL A   1      37.996  28.991  30.131  1.00  0.00     0.134 A 
ATOM     76  F   UNL A   1      39.079  29.614  26.723  1.00  0.00    -0.206 F 
ATOM     77  C   UNL A   1      36.959  29.854  27.702  1.00  0.00     0.040 A 
ATOM     78  C   UNL A   1      36.642  29.313  30.027  1.00  0.00     0.040 A 
ATOM     79  F   UNL A   1      38.460  28.566  31.314  1.00  0.00    -0.206 F 
ATOM     80  C   UNL A   1      36.122  29.752  28.810  1.00  0.00     0.006 A 
ENDBRANCH  52  73
BRANCH  64  81
ATOM     81  C   UNL A   1      44.448  32.591  31.157  1.00  0.00     0.057 A 
ATOM     82  C   UNL A   1      44.666  33.676  30.299  1.00  0.00     0.134 A 
ATOM     83  C   UNL A   1      44.398  32.848  32.533  1.00  0.00     0.134 A 
ATOM     84  F   UNL A   1      44.728  33.493  28.972  1.00  0.00    -0.206 F 
ATOM     85  C   UNL A   1      44.825  34.971  30.793  1.00  0.00     0.040 A 
ATOM     86  C   UNL A   1      44.536  34.142  33.036  1.00  0.00     0.040 A 
ATOM     87  F   UNL A   1      44.175  31.851  33.402  1.00  0.00    -0.206 F 
ATOM     88  C   UNL A   1      44.754  35.207  32.165  1.00  0.00     0.006 A 
ENDBRANCH  64  81
ENDBRANCH  38  39
ENDBRANCH  30  33
ENDBRANCH  28  29
ENDBRANCH  27  28
ENDBRANCH   1  27
TORSDOF 13
ENDMDL
