MODEL 1
REMARK VINA RESULT:     -11.0      0.000      0.000
REMARK SMILES CC(C)[C@H](NS(=O)(=O)c1cccc(F)c1)C(=O)NCCCNC(=O)c1ccc(-c2c3nc(c(-c4c(F)cccc4F)c4ccc([nH]4)c(-c4c(F)cccc4F)c4nc(c(-c5c(F)cccc5F)c5ccc2[nH]5)C=C4)C=C3)cc1
REMARK SMILES IDX 19 1 18 2 16 3 17 4 4 6 2 7 1 8 3 9 5 10 6 12 7 13 8 14 9 15
REMARK SMILES IDX 10 16 15 17 11 18 13 19 12 20 14 21 20 22 21 23 22 24 23 25
REMARK SMILES IDX 24 27 25 28 26 29 78 30 27 31 77 32 28 33 29 34 30 35 71 36
REMARK SMILES IDX 31 37 76 38 70 39 72 40 32 41 75 42 69 43 68 44 33 46 59 47
REMARK SMILES IDX 42 48 58 49 43 50 46 51 57 52 73 53 44 54 45 55 56 57 74 58
REMARK SMILES IDX 47 59 34 60 35 61 40 62 36 63 37 64 39 65 41 66 38 67 60 68
REMARK SMILES IDX 61 69 66 70 62 71 63 72 65 73 67 74 64 75 48 76 49 77 54 78
REMARK SMILES IDX 50 79 51 80 53 81 55 82 52 83
REMARK H PARENT 18 5 5 11 22 26 72 45 46 56
REMARK Flexibility Score: inf
ROOT
ATOM      1  C   UNL A   1      33.166  29.399  24.898  1.00  0.00     0.117 C 
ENDROOT
BRANCH   1   2
ATOM      2  N   UNL A   1      33.556  29.229  23.513  1.00  0.00    -0.355 N 
ATOM      3  C   UNL A   1      33.667  28.115  22.745  1.00  0.00     0.238 C 
ATOM      4  O   UNL A   1      34.293  28.258  21.686  1.00  0.00    -0.273 OA
ATOM      5  H   UNL A   1      33.779  30.067  23.048  1.00  0.00     0.163 HD
BRANCH   3   6
ATOM      6  C   UNL A   1      33.036  26.750  23.066  1.00  0.00     0.161 C 
BRANCH   6   7
ATOM      7  C   UNL A   1      33.856  25.458  22.840  1.00  0.00     0.010 C 
ATOM      8  C   UNL A   1      34.349  24.810  24.137  1.00  0.00     0.009 C 
ATOM      9  C   UNL A   1      33.005  24.412  22.093  1.00  0.00     0.009 C 
ENDBRANCH   6   7
BRANCH   6  10
ATOM     10  N   UNL A   1      31.598  26.568  22.778  1.00  0.00    -0.198 NA
ATOM     11  H   UNL A   1      31.545  25.661  22.314  1.00  0.00     0.142 HD
BRANCH  10  12
ATOM     12  S   UNL A   1      30.311  26.570  23.828  1.00  0.00     0.241 S 
ATOM     13  O   UNL A   1      29.620  25.324  23.608  1.00  0.00    -0.207 OA
ATOM     14  O   UNL A   1      30.791  26.928  25.142  1.00  0.00    -0.207 OA
BRANCH  12  15
ATOM     15  C   UNL A   1      29.241  27.859  23.248  1.00  0.00     0.085 A 
ATOM     16  C   UNL A   1      27.862  27.795  23.483  1.00  0.00     0.022 A 
ATOM     17  C   UNL A   1      29.792  28.952  22.581  1.00  0.00     0.061 A 
ATOM     18  C   UNL A   1      27.047  28.881  23.160  1.00  0.00     0.004 A 
ATOM     19  C   UNL A   1      28.967  30.020  22.254  1.00  0.00     0.124 A 
ATOM     20  C   UNL A   1      27.608  30.005  22.556  1.00  0.00     0.039 A 
ATOM     21  F   UNL A   1      29.494  31.098  21.660  1.00  0.00    -0.207 F 
ENDBRANCH  12  15
ENDBRANCH  10  12
ENDBRANCH   6  10
ENDBRANCH   3   6
ENDBRANCH   1   2
BRANCH   1  22
ATOM     22  C   UNL A   1      34.070  28.573  25.812  1.00  0.00     0.042 C 
BRANCH  22  23
ATOM     23  C   UNL A   1      33.705  28.665  27.283  1.00  0.00     0.118 C 
BRANCH  23  24
ATOM     24  N   UNL A   1      33.740  30.038  27.768  1.00  0.00    -0.352 N 
ATOM     25  C   UNL A   1      34.711  30.740  28.443  1.00  0.00     0.251 C 
ATOM     26  H   UNL A   1      32.924  30.555  27.578  1.00  0.00     0.163 HD
ATOM     27  O   UNL A   1      34.399  31.811  28.962  1.00  0.00    -0.269 OA
BRANCH  25  28
ATOM     28  C   UNL A   1      36.107  30.247  28.578  1.00  0.00     0.039 A 
ATOM     29  C   UNL A   1      36.508  29.691  29.800  1.00  0.00     0.014 A 
ATOM     30  C   UNL A   1      37.055  30.398  27.567  1.00  0.00     0.014 A 
ATOM     31  C   UNL A   1      37.825  29.252  29.984  1.00  0.00     0.010 A 
ATOM     32  C   UNL A   1      38.334  29.858  27.708  1.00  0.00     0.010 A 
ATOM     33  C   UNL A   1      38.745  29.304  28.927  1.00  0.00    -0.014 A 
BRANCH  33  34
ATOM     34  C   UNL A   1      40.154  28.848  29.083  1.00  0.00     0.031 A 
ATOM     35  C   UNL A   1      41.183  29.768  29.689  1.00  0.00     0.074 A 
ATOM     36  C   UNL A   1      40.530  27.632  28.640  1.00  0.00     0.049 A 
ATOM     37  N   UNL A   1      42.477  29.606  29.805  1.00  0.00    -0.248 NA
ATOM     38  C   UNL A   1      40.697  31.059  30.204  1.00  0.00     0.031 C 
ATOM     39  C   UNL A   1      39.647  26.650  28.009  1.00  0.00     0.029 A 
ATOM     40  N   UNL A   1      41.757  27.016  28.651  1.00  0.00    -0.354 N 
ATOM     41  C   UNL A   1      42.957  30.779  30.374  1.00  0.00     0.074 A 
ATOM     42  C   UNL A   1      41.828  31.667  30.530  1.00  0.00     0.031 C 
ATOM     43  C   UNL A   1      40.350  25.540  27.735  1.00  0.00     0.029 A 
ATOM     44  C   UNL A   1      41.741  25.746  28.127  1.00  0.00     0.049 A 
ATOM     45  H   UNL A   1      42.571  27.445  29.002  1.00  0.00     0.167 HD
ATOM     46  C   UNL A   1      44.219  31.083  30.763  1.00  0.00     0.037 A 
ATOM     47  C   UNL A   1      42.735  24.849  27.977  1.00  0.00     0.037 A 
ATOM     48  C   UNL A   1      45.338  30.184  30.657  1.00  0.00     0.049 A 
ATOM     49  C   UNL A   1      44.127  25.205  28.414  1.00  0.00     0.074 A 
ATOM     50  C   UNL A   1      46.646  30.386  31.059  1.00  0.00     0.029 A 
ATOM     51  N   UNL A   1      45.274  28.907  30.122  1.00  0.00    -0.354 N 
ATOM     52  N   UNL A   1      44.562  26.313  28.961  1.00  0.00    -0.248 NA
ATOM     53  C   UNL A   1      45.168  24.187  28.211  1.00  0.00     0.031 C 
ATOM     54  C   UNL A   1      47.381  29.239  30.746  1.00  0.00     0.029 A 
ATOM     55  C   UNL A   1      46.522  28.310  30.182  1.00  0.00     0.049 A 
ATOM     56  H   UNL A   1      44.463  28.487  29.755  1.00  0.00     0.167 HD
ATOM     57  C   UNL A   1      45.919  26.120  29.187  1.00  0.00     0.074 A 
ATOM     58  C   UNL A   1      46.234  24.784  28.727  1.00  0.00     0.031 C 
ATOM     59  C   UNL A   1      46.819  26.975  29.728  1.00  0.00     0.037 A 
BRANCH  46  60
ATOM     60  C   UNL A   1      44.451  32.440  31.361  1.00  0.00     0.057 A 
ATOM     61  C   UNL A   1      44.838  33.523  30.561  1.00  0.00     0.134 A 
ATOM     62  C   UNL A   1      44.320  32.668  32.738  1.00  0.00     0.134 A 
ATOM     63  F   UNL A   1      44.989  33.372  29.237  1.00  0.00    -0.206 F 
ATOM     64  C   UNL A   1      45.086  34.783  31.109  1.00  0.00     0.040 A 
ATOM     65  C   UNL A   1      44.539  33.929  33.293  1.00  0.00     0.040 A 
ATOM     66  F   UNL A   1      43.940  31.677  33.557  1.00  0.00    -0.206 F 
ATOM     67  C   UNL A   1      44.930  34.990  32.478  1.00  0.00     0.006 A 
ENDBRANCH  46  60
BRANCH  47  68
ATOM     68  C   UNL A   1      42.429  23.504  27.431  1.00  0.00     0.057 A 
ATOM     69  C   UNL A   1      42.403  23.254  26.055  1.00  0.00     0.134 A 
ATOM     70  C   UNL A   1      42.117  22.443  28.287  1.00  0.00     0.134 A 
ATOM     71  F   UNL A   1      42.688  24.232  25.182  1.00  0.00    -0.206 F 
ATOM     72  C   UNL A   1      42.060  21.999  25.548  1.00  0.00     0.040 A 
ATOM     73  C   UNL A   1      41.791  21.178  27.796  1.00  0.00     0.040 A 
ATOM     74  F   UNL A   1      42.144  22.619  29.617  1.00  0.00    -0.206 F 
ATOM     75  C   UNL A   1      41.754  20.956  26.421  1.00  0.00     0.006 A 
ENDBRANCH  47  68
BRANCH  59  76
ATOM     76  C   UNL A   1      48.229  26.491  29.883  1.00  0.00     0.057 A 
ATOM     77  C   UNL A   1      48.628  25.818  31.044  1.00  0.00     0.134 A 
ATOM     78  C   UNL A   1      49.208  26.765  28.921  1.00  0.00     0.134 A 
ATOM     79  F   UNL A   1      47.738  25.535  32.008  1.00  0.00    -0.206 F 
ATOM     80  C   UNL A   1      49.955  25.443  31.249  1.00  0.00     0.040 A 
ATOM     81  C   UNL A   1      50.537  26.376  29.105  1.00  0.00     0.040 A 
ATOM     82  F   UNL A   1      48.887  27.398  27.783  1.00  0.00    -0.206 F 
ATOM     83  C   UNL A   1      50.915  25.721  30.277  1.00  0.00     0.006 A 
ENDBRANCH  59  76
ENDBRANCH  33  34
ENDBRANCH  25  28
ENDBRANCH  23  24
ENDBRANCH  22  23
ENDBRANCH   1  22
TORSDOF 14
ENDMDL
MODEL 2
REMARK VINA RESULT:     -11.0      4.072      6.961
REMARK SMILES CC(C)[C@H](NS(=O)(=O)c1cccc(F)c1)C(=O)NCCCNC(=O)c1ccc(-c2c3nc(c(-c4c(F)cccc4F)c4ccc([nH]4)c(-c4c(F)cccc4F)c4nc(c(-c5c(F)cccc5F)c5ccc2[nH]5)C=C4)C=C3)cc1
REMARK SMILES IDX 19 1 18 2 16 3 17 4 4 6 2 7 1 8 3 9 5 10 6 12 7 13 8 14 9 15
REMARK SMILES IDX 10 16 15 17 11 18 13 19 12 20 14 21 20 22 21 23 22 24 23 25
REMARK SMILES IDX 24 27 25 28 26 29 78 30 27 31 77 32 28 33 29 34 30 35 71 36
REMARK SMILES IDX 31 37 76 38 70 39 72 40 32 41 75 42 69 43 68 44 33 46 59 47
REMARK SMILES IDX 42 48 58 49 43 50 46 51 57 52 73 53 44 54 45 55 56 57 74 58
REMARK SMILES IDX 47 59 34 60 35 61 40 62 36 63 37 64 39 65 41 66 38 67 60 68
REMARK SMILES IDX 61 69 66 70 62 71 63 72 65 73 67 74 64 75 48 76 49 77 54 78
REMARK SMILES IDX 50 79 51 80 53 81 55 82 52 83
REMARK H PARENT 18 5 5 11 22 26 72 45 46 56
REMARK Flexibility Score: inf
ROOT
ATOM      1  C   UNL A   1      34.737  33.077  31.050  1.00  0.00     0.117 C 
ENDROOT
BRANCH   1   2
ATOM      2  N   UNL A   1      35.151  34.172  31.903  1.00  0.00    -0.355 N 
ATOM      3  C   UNL A   1      36.365  34.497  32.416  1.00  0.00     0.238 C 
ATOM      4  O   UNL A   1      36.351  35.325  33.336  1.00  0.00    -0.273 OA
ATOM      5  H   UNL A   1      34.426  34.789  32.155  1.00  0.00     0.163 HD
BRANCH   3   6
ATOM      6  C   UNL A   1      37.715  33.965  31.904  1.00  0.00     0.161 C 
BRANCH   6   7
ATOM      7  C   UNL A   1      38.199  34.352  30.487  1.00  0.00     0.010 C 
ATOM      8  C   UNL A   1      39.677  34.753  30.432  1.00  0.00     0.009 C 
ATOM      9  C   UNL A   1      38.004  33.169  29.517  1.00  0.00     0.009 C 
ENDBRANCH   6   7
BRANCH   6  10
ATOM     10  N   UNL A   1      38.106  32.592  32.284  1.00  0.00    -0.198 NA
ATOM     11  H   UNL A   1      38.881  32.366  31.659  1.00  0.00     0.142 HD
BRANCH  10  12
ATOM     12  S   UNL A   1      38.590  32.013  33.763  1.00  0.00     0.241 S 
ATOM     13  O   UNL A   1      39.545  32.966  34.269  1.00  0.00    -0.207 OA
ATOM     14  O   UNL A   1      37.414  31.666  34.528  1.00  0.00    -0.207 OA
BRANCH  12  15
ATOM     15  C   UNL A   1      39.489  30.526  33.408  1.00  0.00     0.085 A 
ATOM     16  C   UNL A   1      40.857  30.440  33.693  1.00  0.00     0.022 A 
ATOM     17  C   UNL A   1      38.810  29.434  32.869  1.00  0.00     0.061 A 
ATOM     18  C   UNL A   1      41.524  29.222  33.553  1.00  0.00     0.004 A 
ATOM     19  C   UNL A   1      39.490  28.231  32.723  1.00  0.00     0.124 A 
ATOM     20  C   UNL A   1      40.831  28.109  33.080  1.00  0.00     0.039 A 
ATOM     21  F   UNL A   1      38.836  27.160  32.256  1.00  0.00    -0.207 F 
ENDBRANCH  12  15
ENDBRANCH  10  12
ENDBRANCH   6  10
ENDBRANCH   3   6
ENDBRANCH   1   2
BRANCH   1  22
ATOM     22  C   UNL A   1      34.280  33.604  29.690  1.00  0.00     0.042 C 
BRANCH  22  23
ATOM     23  C   UNL A   1      34.844  32.830  28.511  1.00  0.00     0.118 C 
BRANCH  23  24
ATOM     24  N   UNL A   1      34.103  31.601  28.262  1.00  0.00    -0.352 N 
ATOM     25  C   UNL A   1      34.528  30.321  27.994  1.00  0.00     0.251 C 
ATOM     26  H   UNL A   1      33.125  31.705  28.290  1.00  0.00     0.163 HD
ATOM     27  O   UNL A   1      33.704  29.510  27.571  1.00  0.00    -0.269 OA
BRANCH  25  28
ATOM     28  C   UNL A   1      35.939  29.890  28.182  1.00  0.00     0.039 A 
ATOM     29  C   UNL A   1      36.313  29.329  29.410  1.00  0.00     0.014 A 
ATOM     30  C   UNL A   1      36.922  30.105  27.216  1.00  0.00     0.014 A 
ATOM     31  C   UNL A   1      37.640  28.948  29.643  1.00  0.00     0.010 A 
ATOM     32  C   UNL A   1      38.217  29.622  27.404  1.00  0.00     0.010 A 
ATOM     33  C   UNL A   1      38.601  29.064  28.629  1.00  0.00    -0.014 A 
BRANCH  33  34
ATOM     34  C   UNL A   1      40.022  28.670  28.839  1.00  0.00     0.031 A 
ATOM     35  C   UNL A   1      40.987  29.636  29.479  1.00  0.00     0.074 A 
ATOM     36  C   UNL A   1      40.467  27.471  28.414  1.00  0.00     0.049 A 
ATOM     37  N   UNL A   1      42.282  29.531  29.643  1.00  0.00    -0.248 NA
ATOM     38  C   UNL A   1      40.426  30.905  29.971  1.00  0.00     0.031 C 
ATOM     39  C   UNL A   1      39.652  26.449  27.755  1.00  0.00     0.029 A 
ATOM     40  N   UNL A   1      41.718  26.910  28.473  1.00  0.00    -0.354 N 
ATOM     41  C   UNL A   1      42.689  30.725  30.225  1.00  0.00     0.074 A 
ATOM     42  C   UNL A   1      41.516  31.563  30.335  1.00  0.00     0.031 C 
ATOM     43  C   UNL A   1      40.412  25.371  27.512  1.00  0.00     0.029 A 
ATOM     44  C   UNL A   1      41.778  25.639  27.953  1.00  0.00     0.049 A 
ATOM     45  H   UNL A   1      42.499  27.374  28.852  1.00  0.00     0.167 HD
ATOM     46  C   UNL A   1      43.921  31.085  30.658  1.00  0.00     0.037 A 
ATOM     47  C   UNL A   1      42.814  24.786  27.843  1.00  0.00     0.037 A 
ATOM     48  C   UNL A   1      45.081  30.236  30.597  1.00  0.00     0.049 A 
ATOM     49  C   UNL A   1      44.173  25.204  28.330  1.00  0.00     0.074 A 
ATOM     50  C   UNL A   1      46.363  30.496  31.046  1.00  0.00     0.029 A 
ATOM     51  N   UNL A   1      45.093  28.957  30.065  1.00  0.00    -0.354 N 
ATOM     52  N   UNL A   1      44.538  26.331  28.888  1.00  0.00    -0.248 NA
ATOM     53  C   UNL A   1      45.264  24.232  28.169  1.00  0.00     0.031 C 
ATOM     54  C   UNL A   1      47.159  29.381  30.765  1.00  0.00     0.029 A 
ATOM     55  C   UNL A   1      46.362  28.414  30.172  1.00  0.00     0.049 A 
ATOM     56  H   UNL A   1      44.315  28.500  29.670  1.00  0.00     0.167 HD
ATOM     57  C   UNL A   1      45.893  26.198  29.165  1.00  0.00     0.074 A 
ATOM     58  C   UNL A   1      46.283  24.876  28.721  1.00  0.00     0.031 C 
ATOM     59  C   UNL A   1      46.734  27.093  29.735  1.00  0.00     0.037 A 
BRANCH  46  60
ATOM     60  C   UNL A   1      44.071  32.452  31.260  1.00  0.00     0.057 A 
ATOM     61  C   UNL A   1      44.253  33.579  30.448  1.00  0.00     0.134 A 
ATOM     62  C   UNL A   1      44.065  32.649  32.647  1.00  0.00     0.134 A 
ATOM     63  F   UNL A   1      44.277  33.460  29.113  1.00  0.00    -0.206 F 
ATOM     64  C   UNL A   1      44.424  34.852  30.996  1.00  0.00     0.040 A 
ATOM     65  C   UNL A   1      44.208  33.920  33.205  1.00  0.00     0.040 A 
ATOM     66  F   UNL A   1      43.881  31.614  33.479  1.00  0.00    -0.206 F 
ATOM     67  C   UNL A   1      44.395  35.026  32.378  1.00  0.00     0.006 A 
ENDBRANCH  46  60
BRANCH  47  68
ATOM     68  C   UNL A   1      42.588  23.428  27.291  1.00  0.00     0.057 A 
ATOM     69  C   UNL A   1      42.681  23.162  25.921  1.00  0.00     0.134 A 
ATOM     70  C   UNL A   1      42.235  22.368  28.133  1.00  0.00     0.134 A 
ATOM     71  F   UNL A   1      43.011  24.138  25.062  1.00  0.00    -0.206 F 
ATOM     72  C   UNL A   1      42.412  21.893  25.404  1.00  0.00     0.040 A 
ATOM     73  C   UNL A   1      41.982  21.090  27.634  1.00  0.00     0.040 A 
ATOM     74  F   UNL A   1      42.148  22.559  29.458  1.00  0.00    -0.206 F 
ATOM     75  C   UNL A   1      42.062  20.852  26.263  1.00  0.00     0.006 A 
ENDBRANCH  47  68
BRANCH  59  76
ATOM     76  C   UNL A   1      48.158  26.672  29.944  1.00  0.00     0.057 A 
ATOM     77  C   UNL A   1      49.121  26.907  28.956  1.00  0.00     0.134 A 
ATOM     78  C   UNL A   1      48.554  25.963  31.084  1.00  0.00     0.134 A 
ATOM     79  F   UNL A   1      48.802  27.572  27.835  1.00  0.00    -0.206 F 
ATOM     80  C   UNL A   1      50.430  26.441  29.088  1.00  0.00     0.040 A 
ATOM     81  C   UNL A   1      49.865  25.510  31.238  1.00  0.00     0.040 A 
ATOM     82  F   UNL A   1      47.679  25.715  32.069  1.00  0.00    -0.206 F 
ATOM     83  C   UNL A   1      50.805  25.740  30.233  1.00  0.00     0.006 A 
ENDBRANCH  59  76
ENDBRANCH  33  34
ENDBRANCH  25  28
ENDBRANCH  23  24
ENDBRANCH  22  23
ENDBRANCH   1  22
TORSDOF 14
ENDMDL
MODEL 3
REMARK VINA RESULT:     -10.9      3.147      7.555
REMARK SMILES CC(C)[C@H](NS(=O)(=O)c1cccc(F)c1)C(=O)NCCCNC(=O)c1ccc(-c2c3nc(c(-c4c(F)cccc4F)c4ccc([nH]4)c(-c4c(F)cccc4F)c4nc(c(-c5c(F)cccc5F)c5ccc2[nH]5)C=C4)C=C3)cc1
REMARK SMILES IDX 19 1 18 2 16 3 17 4 4 6 2 7 1 8 3 9 5 10 6 12 7 13 8 14 9 15
REMARK SMILES IDX 10 16 15 17 11 18 13 19 12 20 14 21 20 22 21 23 22 24 23 25
REMARK SMILES IDX 24 27 25 28 26 29 78 30 27 31 77 32 28 33 29 34 30 35 71 36
REMARK SMILES IDX 31 37 76 38 70 39 72 40 32 41 75 42 69 43 68 44 33 46 59 47
REMARK SMILES IDX 42 48 58 49 43 50 46 51 57 52 73 53 44 54 45 55 56 57 74 58
REMARK SMILES IDX 47 59 34 60 35 61 40 62 36 63 37 64 39 65 41 66 38 67 60 68
REMARK SMILES IDX 61 69 66 70 62 71 63 72 65 73 67 74 64 75 48 76 49 77 54 78
REMARK SMILES IDX 50 79 51 80 53 81 55 82 52 83
REMARK H PARENT 18 5 5 11 22 26 72 45 46 56
REMARK Flexibility Score: inf
ROOT
ATOM      1  C   UNL A   1      35.751  20.363  24.999  1.00  0.00     0.117 C 
ENDROOT
BRANCH   1   2
ATOM      2  N   UNL A   1      34.652  19.419  24.987  1.00  0.00    -0.355 N 
ATOM      3  C   UNL A   1      33.312  19.606  25.099  1.00  0.00     0.238 C 
ATOM      4  O   UNL A   1      32.650  18.586  25.336  1.00  0.00    -0.273 OA
ATOM      5  H   UNL A   1      34.923  18.479  24.878  1.00  0.00     0.163 HD
BRANCH   3   6
ATOM      6  C   UNL A   1      32.582  20.945  24.896  1.00  0.00     0.161 C 
BRANCH   6   7
ATOM      7  C   UNL A   1      32.260  21.428  23.463  1.00  0.00     0.010 C 
ATOM      8  C   UNL A   1      33.266  22.448  22.919  1.00  0.00     0.009 C 
ATOM      9  C   UNL A   1      32.240  20.233  22.490  1.00  0.00     0.009 C 
ENDBRANCH   6   7
BRANCH   6  10
ATOM     10  N   UNL A   1      32.913  22.057  25.811  1.00  0.00    -0.198 NA
ATOM     11  H   UNL A   1      33.504  22.676  25.255  1.00  0.00     0.142 HD
BRANCH  10  12
ATOM     12  S   UNL A   1      31.891  23.084  26.623  1.00  0.00     0.241 S 
ATOM     13  O   UNL A   1      30.601  22.938  25.994  1.00  0.00    -0.207 OA
ATOM     14  O   UNL A   1      32.051  22.866  28.042  1.00  0.00    -0.207 OA
BRANCH  12  15
ATOM     15  C   UNL A   1      32.467  24.715  26.235  1.00  0.00     0.085 A 
ATOM     16  C   UNL A   1      33.758  24.909  25.728  1.00  0.00     0.022 A 
ATOM     17  C   UNL A   1      31.609  25.799  26.413  1.00  0.00     0.061 A 
ATOM     18  C   UNL A   1      34.152  26.172  25.283  1.00  0.00     0.004 A 
ATOM     19  C   UNL A   1      32.019  27.054  25.978  1.00  0.00     0.124 A 
ATOM     20  C   UNL A   1      33.270  27.245  25.396  1.00  0.00     0.039 A 
ATOM     21  F   UNL A   1      31.184  28.094  26.094  1.00  0.00    -0.207 F 
ENDBRANCH  12  15
ENDBRANCH  10  12
ENDBRANCH   6  10
ENDBRANCH   3   6
ENDBRANCH   1   2
BRANCH   1  22
ATOM     22  C   UNL A   1      37.075  19.641  24.754  1.00  0.00     0.042 C 
BRANCH  22  23
ATOM     23  C   UNL A   1      38.274  20.327  25.387  1.00  0.00     0.118 C 
BRANCH  23  24
ATOM     24  N   UNL A   1      39.372  19.398  25.620  1.00  0.00    -0.352 N 
ATOM     25  C   UNL A   1      40.674  19.608  26.007  1.00  0.00     0.251 C 
ATOM     26  H   UNL A   1      39.140  18.453  25.474  1.00  0.00     0.163 HD
ATOM     27  O   UNL A   1      41.474  18.680  25.889  1.00  0.00    -0.269 OA
BRANCH  25  28
ATOM     28  C   UNL A   1      41.149  20.910  26.545  1.00  0.00     0.039 A 
ATOM     29  C   UNL A   1      41.113  21.120  27.930  1.00  0.00     0.014 A 
ATOM     30  C   UNL A   1      41.545  21.962  25.718  1.00  0.00     0.014 A 
ATOM     31  C   UNL A   1      41.513  22.347  28.475  1.00  0.00     0.010 A 
ATOM     32  C   UNL A   1      42.050  23.142  26.265  1.00  0.00     0.010 A 
ATOM     33  C   UNL A   1      42.015  23.362  27.648  1.00  0.00    -0.014 A 
BRANCH  33  34
ATOM     34  C   UNL A   1      42.449  24.679  28.189  1.00  0.00     0.031 A 
ATOM     35  C   UNL A   1      41.434  25.769  28.427  1.00  0.00     0.074 A 
ATOM     36  C   UNL A   1      43.753  24.924  28.422  1.00  0.00     0.049 A 
ATOM     37  N   UNL A   1      41.622  27.016  28.780  1.00  0.00    -0.248 NA
ATOM     38  C   UNL A   1      40.021  25.419  28.207  1.00  0.00     0.031 C 
ATOM     39  C   UNL A   1      44.845  23.973  28.211  1.00  0.00     0.029 A 
ATOM     40  N   UNL A   1      44.382  26.053  28.887  1.00  0.00    -0.354 N 
ATOM     41  C   UNL A   1      40.361  27.600  28.793  1.00  0.00     0.074 A 
ATOM     42  C   UNL A   1      39.422  26.590  28.360  1.00  0.00     0.031 C 
ATOM     43  C   UNL A   1      46.001  24.541  28.586  1.00  0.00     0.029 A 
ATOM     44  C   UNL A   1      45.742  25.911  29.020  1.00  0.00     0.049 A 
ATOM     45  H   UNL A   1      43.903  26.885  29.103  1.00  0.00     0.167 HD
ATOM     46  C   UNL A   1      40.008  28.855  29.162  1.00  0.00     0.037 A 
ATOM     47  C   UNL A   1      46.676  26.784  29.445  1.00  0.00     0.037 A 
ATOM     48  C   UNL A   1      40.931  29.849  29.642  1.00  0.00     0.049 A 
ATOM     49  C   UNL A   1      46.263  28.172  29.849  1.00  0.00     0.074 A 
ATOM     50  C   UNL A   1      40.664  31.135  30.076  1.00  0.00     0.029 A 
ATOM     51  N   UNL A   1      42.299  29.659  29.764  1.00  0.00    -0.354 N 
ATOM     52  N   UNL A   1      45.067  28.704  29.867  1.00  0.00    -0.248 NA
ATOM     53  C   UNL A   1      47.333  29.080  30.289  1.00  0.00     0.031 C 
ATOM     54  C   UNL A   1      41.875  31.733  30.440  1.00  0.00     0.029 A 
ATOM     55  C   UNL A   1      42.890  30.806  30.265  1.00  0.00     0.049 A 
ATOM     56  H   UNL A   1      42.779  28.832  29.530  1.00  0.00     0.167 HD
ATOM     57  C   UNL A   1      45.233  29.999  30.339  1.00  0.00     0.074 A 
ATOM     58  C   UNL A   1      46.646  30.170  30.605  1.00  0.00     0.031 C 
ATOM     59  C   UNL A   1      44.297  30.959  30.534  1.00  0.00     0.037 A 
BRANCH  46  60
ATOM     60  C   UNL A   1      38.553  29.217  29.081  1.00  0.00     0.057 A 
ATOM     61  C   UNL A   1      37.720  29.105  30.201  1.00  0.00     0.134 A 
ATOM     62  C   UNL A   1      37.969  29.648  27.882  1.00  0.00     0.134 A 
ATOM     63  F   UNL A   1      38.212  28.691  31.378  1.00  0.00    -0.206 F 
ATOM     64  C   UNL A   1      36.359  29.410  30.131  1.00  0.00     0.040 A 
ATOM     65  C   UNL A   1      36.616  29.981  27.806  1.00  0.00     0.040 A 
ATOM     66  F   UNL A   1      38.715  29.789  26.776  1.00  0.00    -0.206 F 
ATOM     67  C   UNL A   1      35.806  29.856  28.933  1.00  0.00     0.006 A 
ENDBRANCH  46  60
BRANCH  47  68
ATOM     68  C   UNL A   1      48.089  26.347  29.555  1.00  0.00     0.057 A 
ATOM     69  C   UNL A   1      48.996  26.504  28.502  1.00  0.00     0.134 A 
ATOM     70  C   UNL A   1      48.551  25.724  30.720  1.00  0.00     0.134 A 
ATOM     71  F   UNL A   1      48.611  27.090  27.358  1.00  0.00    -0.206 F 
ATOM     72  C   UNL A   1      50.309  26.040  28.595  1.00  0.00     0.040 A 
ATOM     73  C   UNL A   1      49.866  25.272  30.835  1.00  0.00     0.040 A 
ATOM     74  F   UNL A   1      47.731  25.563  31.770  1.00  0.00    -0.206 F 
ATOM     75  C   UNL A   1      50.747  25.423  29.766  1.00  0.00     0.006 A 
ENDBRANCH  47  68
BRANCH  59  76
ATOM     76  C   UNL A   1      44.756  32.274  31.087  1.00  0.00     0.057 A 
ATOM     77  C   UNL A   1      45.171  33.301  30.230  1.00  0.00     0.134 A 
ATOM     78  C   UNL A   1      44.863  32.493  32.465  1.00  0.00     0.134 A 
ATOM     79  F   UNL A   1      45.102  33.148  28.899  1.00  0.00    -0.206 F 
ATOM     80  C   UNL A   1      45.689  34.498  30.724  1.00  0.00     0.040 A 
ATOM     81  C   UNL A   1      45.361  33.695  32.973  1.00  0.00     0.040 A 
ATOM     82  F   UNL A   1      44.473  31.552  33.336  1.00  0.00    -0.206 F 
ATOM     83  C   UNL A   1      45.785  34.698  32.101  1.00  0.00     0.006 A 
ENDBRANCH  59  76
ENDBRANCH  33  34
ENDBRANCH  25  28
ENDBRANCH  23  24
ENDBRANCH  22  23
ENDBRANCH   1  22
TORSDOF 14
ENDMDL
