MODEL 1
REMARK VINA RESULT:     -10.6      0.000      0.000
REMARK SMILES CC(C)C[C@@H](CNc1ccc(C(=O)N(C)C)nn1)C(=O)NCCCNC(=O)c1ccc(-c2c3nc(c(-c4c(F)cccc4F)c4ccc([nH]4)c(-c4c(F)cccc4F)c4nc(c(-c5c(F)cccc5F)c5ccc2[nH]5)C=C4)C=C3)cc1
REMARK SMILES IDX 22 1 21 2 19 3 20 4 5 6 4 7 2 8 1 9 3 10 6 11 7 12 8 14 9 15
REMARK SMILES IDX 18 16 10 17 17 18 11 19 12 20 13 21 14 22 15 23 16 24 23 25
REMARK SMILES IDX 24 26 25 27 26 28 27 30 28 31 29 32 81 33 30 34 80 35 31 36
REMARK SMILES IDX 32 37 33 38 74 39 34 40 79 41 73 42 75 43 35 44 78 45 72 46
REMARK SMILES IDX 71 47 36 49 62 50 45 51 61 52 46 53 49 54 60 55 76 56 47 57
REMARK SMILES IDX 48 58 59 60 77 61 50 62 37 63 38 64 43 65 39 66 40 67 42 68
REMARK SMILES IDX 44 69 41 70 63 71 64 72 69 73 65 74 66 75 68 76 70 77 67 78
REMARK SMILES IDX 51 79 52 80 57 81 53 82 54 83 56 84 58 85 55 86
REMARK H PARENT 21 5 7 13 25 29 75 48 49 59
REMARK Flexibility Score: inf
ROOT
ATOM      1  C   UNL A   1      32.004  27.240  26.033  1.00  0.00     0.117 C 
ENDROOT
BRANCH   1   2
ATOM      2  N   UNL A   1      31.326  26.135  26.675  1.00  0.00    -0.356 N 
ATOM      3  C   UNL A   1      31.428  24.802  26.431  1.00  0.00     0.224 C 
ATOM      4  O   UNL A   1      30.957  24.034  27.275  1.00  0.00    -0.275 OA
ATOM      5  H   UNL A   1      30.702  26.384  27.394  1.00  0.00     0.163 HD
BRANCH   3   6
ATOM      6  C   UNL A   1      32.077  24.242  25.166  1.00  0.00     0.098 C 
BRANCH   6   7
ATOM      7  C   UNL A   1      33.453  23.604  25.434  1.00  0.00     0.018 C 
BRANCH   7   8
ATOM      8  C   UNL A   1      34.676  24.501  25.179  1.00  0.00    -0.017 C 
ATOM      9  C   UNL A   1      35.954  23.697  24.945  1.00  0.00     0.007 C 
ATOM     10  C   UNL A   1      34.402  25.398  23.966  1.00  0.00     0.007 C 
ENDBRANCH   7   8
ENDBRANCH   6   7
BRANCH   6  11
ATOM     11  C   UNL A   1      31.077  23.533  24.234  1.00  0.00     0.128 C 
BRANCH  11  12
ATOM     12  N   UNL A   1      30.647  24.265  23.054  1.00  0.00    -0.368 N 
ATOM     13  H   UNL A   1      30.505  23.756  22.223  1.00  0.00     0.162 HD
BRANCH  12  14
ATOM     14  C   UNL A   1      30.424  25.625  23.019  1.00  0.00     0.148 A 
ATOM     15  C   UNL A   1      31.214  26.517  22.309  1.00  0.00     0.051 A 
ATOM     16  N   UNL A   1      29.401  26.111  23.751  1.00  0.00    -0.132 NA
ATOM     17  C   UNL A   1      31.005  27.895  22.416  1.00  0.00     0.040 A 
ATOM     18  N   UNL A   1      29.185  27.480  23.877  1.00  0.00    -0.143 NA
ATOM     19  C   UNL A   1      29.973  28.352  23.215  1.00  0.00     0.151 A 
BRANCH  19  20
ATOM     20  C   UNL A   1      29.750  29.803  23.488  1.00  0.00     0.273 C 
ATOM     21  O   UNL A   1      30.347  30.307  24.441  1.00  0.00    -0.267 OA
ATOM     22  N   UNL A   1      28.918  30.575  22.661  1.00  0.00    -0.343 N 
ATOM     23  C   UNL A   1      28.030  30.077  21.624  1.00  0.00     0.146 C 
ATOM     24  C   UNL A   1      28.835  31.997  22.957  1.00  0.00     0.146 C 
ENDBRANCH  19  20
ENDBRANCH  12  14
ENDBRANCH  11  12
ENDBRANCH   6  11
ENDBRANCH   3   6
ENDBRANCH   1   2
BRANCH   1  25
ATOM     25  C   UNL A   1      33.128  27.825  26.860  1.00  0.00     0.042 C 
BRANCH  25  26
ATOM     26  C   UNL A   1      33.924  28.870  26.105  1.00  0.00     0.118 C 
BRANCH  26  27
ATOM     27  N   UNL A   1      33.815  30.203  26.688  1.00  0.00    -0.352 N 
ATOM     28  C   UNL A   1      34.584  30.836  27.630  1.00  0.00     0.251 C 
ATOM     29  H   UNL A   1      33.062  30.739  26.348  1.00  0.00     0.163 HD
ATOM     30  O   UNL A   1      34.230  31.915  28.097  1.00  0.00    -0.269 OA
BRANCH  28  31
ATOM     31  C   UNL A   1      35.829  30.215  28.112  1.00  0.00     0.039 A 
ATOM     32  C   UNL A   1      37.013  30.439  27.406  1.00  0.00     0.014 A 
ATOM     33  C   UNL A   1      35.833  29.413  29.253  1.00  0.00     0.014 A 
ATOM     34  C   UNL A   1      38.209  29.911  27.887  1.00  0.00     0.010 A 
ATOM     35  C   UNL A   1      37.038  29.008  29.805  1.00  0.00     0.010 A 
ATOM     36  C   UNL A   1      38.236  29.225  29.112  1.00  0.00    -0.014 A 
BRANCH  36  37
ATOM     37  C   UNL A   1      39.498  28.683  29.662  1.00  0.00     0.031 A 
ATOM     38  C   UNL A   1      40.103  29.306  30.891  1.00  0.00     0.074 A 
ATOM     39  C   UNL A   1      40.119  27.672  29.028  1.00  0.00     0.049 A 
ATOM     40  N   UNL A   1      41.222  29.011  31.502  1.00  0.00    -0.248 NA
ATOM     41  C   UNL A   1      39.377  30.439  31.492  1.00  0.00     0.031 C 
ATOM     42  C   UNL A   1      39.659  27.032  27.793  1.00  0.00     0.029 A 
ATOM     43  N   UNL A   1      41.273  27.000  29.339  1.00  0.00    -0.354 N 
ATOM     44  C   UNL A   1      41.338  29.930  32.538  1.00  0.00     0.074 A 
ATOM     45  C   UNL A   1      40.223  30.840  32.428  1.00  0.00     0.031 C 
ATOM     46  C   UNL A   1      40.497  26.032  27.476  1.00  0.00     0.029 A 
ATOM     47  C   UNL A   1      41.572  25.987  28.462  1.00  0.00     0.049 A 
ATOM     48  H   UNL A   1      41.834  27.222  30.117  1.00  0.00     0.167 HD
ATOM     49  C   UNL A   1      42.270  29.987  33.518  1.00  0.00     0.037 A 
ATOM     50  C   UNL A   1      42.598  25.116  28.459  1.00  0.00     0.037 A 
ATOM     51  C   UNL A   1      43.356  29.053  33.640  1.00  0.00     0.049 A 
ATOM     52  C   UNL A   1      43.609  25.188  29.570  1.00  0.00     0.074 A 
ATOM     53  C   UNL A   1      44.326  28.981  34.624  1.00  0.00     0.029 A 
ATOM     54  N   UNL A   1      43.611  28.022  32.748  1.00  0.00    -0.354 N 
ATOM     55  N   UNL A   1      43.671  26.017  30.583  1.00  0.00    -0.248 NA
ATOM     56  C   UNL A   1      44.687  24.190  29.543  1.00  0.00     0.031 C 
ATOM     57  C   UNL A   1      45.195  27.933  34.301  1.00  0.00     0.029 A 
ATOM     58  C   UNL A   1      44.732  27.317  33.149  1.00  0.00     0.049 A 
ATOM     59  H   UNL A   1      43.073  27.821  31.948  1.00  0.00     0.167 HD
ATOM     60  C   UNL A   1      44.771  25.623  31.332  1.00  0.00     0.074 A 
ATOM     61  C   UNL A   1      45.336  24.469  30.664  1.00  0.00     0.031 C 
ATOM     62  C   UNL A   1      45.272  26.166  32.470  1.00  0.00     0.037 A 
BRANCH  49  63
ATOM     63  C   UNL A   1      42.142  31.089  34.531  1.00  0.00     0.057 A 
ATOM     64  C   UNL A   1      41.345  30.952  35.678  1.00  0.00     0.134 A 
ATOM     65  C   UNL A   1      42.828  32.297  34.365  1.00  0.00     0.134 A 
ATOM     66  F   UNL A   1      40.645  29.827  35.891  1.00  0.00    -0.206 F 
ATOM     67  C   UNL A   1      41.213  31.988  36.604  1.00  0.00     0.040 A 
ATOM     68  C   UNL A   1      42.731  33.328  35.302  1.00  0.00     0.040 A 
ATOM     69  F   UNL A   1      43.610  32.496  33.293  1.00  0.00    -0.206 F 
ATOM     70  C   UNL A   1      41.913  33.178  36.420  1.00  0.00     0.006 A 
ENDBRANCH  49  63
BRANCH  50  71
ATOM     71  C   UNL A   1      42.696  24.079  27.401  1.00  0.00     0.057 A 
ATOM     72  C   UNL A   1      43.335  24.346  26.184  1.00  0.00     0.134 A 
ATOM     73  C   UNL A   1      42.145  22.804  27.572  1.00  0.00     0.134 A 
ATOM     74  F   UNL A   1      43.870  25.554  25.954  1.00  0.00    -0.206 F 
ATOM     75  C   UNL A   1      43.401  23.393  25.167  1.00  0.00     0.040 A 
ATOM     76  C   UNL A   1      42.229  21.831  26.575  1.00  0.00     0.040 A 
ATOM     77  F   UNL A   1      41.531  22.480  28.719  1.00  0.00    -0.206 F 
ATOM     78  C   UNL A   1      42.849  22.129  25.363  1.00  0.00     0.006 A 
ENDBRANCH  50  71
BRANCH  62  79
ATOM     79  C   UNL A   1      46.459  25.483  33.084  1.00  0.00     0.057 A 
ATOM     80  C   UNL A   1      46.323  24.476  34.048  1.00  0.00     0.134 A 
ATOM     81  C   UNL A   1      47.758  25.829  32.688  1.00  0.00     0.134 A 
ATOM     82  F   UNL A   1      45.107  24.105  34.477  1.00  0.00    -0.206 F 
ATOM     83  C   UNL A   1      47.437  23.865  34.625  1.00  0.00     0.040 A 
ATOM     84  C   UNL A   1      48.878  25.202  33.234  1.00  0.00     0.040 A 
ATOM     85  F   UNL A   1      47.960  26.776  31.759  1.00  0.00    -0.206 F 
ATOM     86  C   UNL A   1      48.719  24.224  34.213  1.00  0.00     0.006 A 
ENDBRANCH  62  79
ENDBRANCH  36  37
ENDBRANCH  28  31
ENDBRANCH  26  27
ENDBRANCH  25  26
ENDBRANCH   1  25
TORSDOF 16
ENDMDL
MODEL 2
REMARK VINA RESULT:     -10.6      2.633      5.194
REMARK SMILES CC(C)C[C@@H](CNc1ccc(C(=O)N(C)C)nn1)C(=O)NCCCNC(=O)c1ccc(-c2c3nc(c(-c4c(F)cccc4F)c4ccc([nH]4)c(-c4c(F)cccc4F)c4nc(c(-c5c(F)cccc5F)c5ccc2[nH]5)C=C4)C=C3)cc1
REMARK SMILES IDX 22 1 21 2 19 3 20 4 5 6 4 7 2 8 1 9 3 10 6 11 7 12 8 14 9 15
REMARK SMILES IDX 18 16 10 17 17 18 11 19 12 20 13 21 14 22 15 23 16 24 23 25
REMARK SMILES IDX 24 26 25 27 26 28 27 30 28 31 29 32 81 33 30 34 80 35 31 36
REMARK SMILES IDX 32 37 33 38 74 39 34 40 79 41 73 42 75 43 35 44 78 45 72 46
REMARK SMILES IDX 71 47 36 49 62 50 45 51 61 52 46 53 49 54 60 55 76 56 47 57
REMARK SMILES IDX 48 58 59 60 77 61 50 62 37 63 38 64 43 65 39 66 40 67 42 68
REMARK SMILES IDX 44 69 41 70 63 71 64 72 69 73 65 74 66 75 68 76 70 77 67 78
REMARK SMILES IDX 51 79 52 80 57 81 53 82 54 83 56 84 58 85 55 86
REMARK H PARENT 21 5 7 13 25 29 75 48 49 59
REMARK Flexibility Score: inf
ROOT
ATOM      1  C   UNL A   1      31.500  30.254  26.444  1.00  0.00     0.117 C 
ENDROOT
BRANCH   1   2
ATOM      2  N   UNL A   1      32.497  29.845  25.479  1.00  0.00    -0.356 N 
ATOM      3  C   UNL A   1      32.332  29.272  24.258  1.00  0.00     0.224 C 
ATOM      4  O   UNL A   1      33.309  29.254  23.504  1.00  0.00    -0.275 OA
ATOM      5  H   UNL A   1      33.431  30.007  25.744  1.00  0.00     0.163 HD
BRANCH   3   6
ATOM      6  C   UNL A   1      31.010  28.650  23.810  1.00  0.00     0.098 C 
BRANCH   6   7
ATOM      7  C   UNL A   1      30.267  29.512  22.772  1.00  0.00     0.018 C 
BRANCH   7   8
ATOM      8  C   UNL A   1      28.892  30.053  23.201  1.00  0.00    -0.017 C 
ATOM      9  C   UNL A   1      28.958  31.499  23.690  1.00  0.00     0.007 C 
ATOM     10  C   UNL A   1      27.918  29.953  22.022  1.00  0.00     0.007 C 
ENDBRANCH   7   8
ENDBRANCH   6   7
BRANCH   6  11
ATOM     11  C   UNL A   1      31.092  27.125  23.616  1.00  0.00     0.128 C 
BRANCH  11  12
ATOM     12  N   UNL A   1      32.200  26.622  22.822  1.00  0.00    -0.368 N 
ATOM     13  H   UNL A   1      32.345  27.018  21.932  1.00  0.00     0.162 HD
BRANCH  12  14
ATOM     14  C   UNL A   1      33.064  25.628  23.230  1.00  0.00     0.148 A 
ATOM     15  C   UNL A   1      33.812  25.690  24.397  1.00  0.00     0.051 A 
ATOM     16  N   UNL A   1      33.214  24.558  22.424  1.00  0.00    -0.132 NA
ATOM     17  C   UNL A   1      34.759  24.703  24.688  1.00  0.00     0.040 A 
ATOM     18  N   UNL A   1      34.159  23.572  22.694  1.00  0.00    -0.143 NA
ATOM     19  C   UNL A   1      34.912  23.647  23.810  1.00  0.00     0.151 A 
BRANCH  19  20
ATOM     20  C   UNL A   1      35.978  22.614  23.972  1.00  0.00     0.273 C 
ATOM     21  O   UNL A   1      37.066  22.821  23.431  1.00  0.00    -0.267 OA
ATOM     22  N   UNL A   1      35.760  21.465  24.750  1.00  0.00    -0.343 N 
ATOM     23  C   UNL A   1      34.488  21.018  25.291  1.00  0.00     0.146 C 
ATOM     24  C   UNL A   1      36.890  20.563  24.920  1.00  0.00     0.146 C 
ENDBRANCH  19  20
ENDBRANCH  12  14
ENDBRANCH  11  12
ENDBRANCH   6  11
ENDBRANCH   3   6
ENDBRANCH   1   2
BRANCH   1  25
ATOM     25  C   UNL A   1      31.370  31.754  26.583  1.00  0.00     0.042 C 
BRANCH  25  26
ATOM     26  C   UNL A   1      32.689  32.426  26.908  1.00  0.00     0.118 C 
BRANCH  26  27
ATOM     27  N   UNL A   1      32.526  33.768  27.462  1.00  0.00    -0.352 N 
ATOM     28  C   UNL A   1      33.189  34.405  28.477  1.00  0.00     0.251 C 
ATOM     29  H   UNL A   1      31.820  34.305  27.032  1.00  0.00     0.163 HD
ATOM     30  O   UNL A   1      32.793  35.492  28.890  1.00  0.00    -0.269 OA
BRANCH  28  31
ATOM     31  C   UNL A   1      34.365  33.780  29.104  1.00  0.00     0.039 A 
ATOM     32  C   UNL A   1      34.170  32.753  30.031  1.00  0.00     0.014 A 
ATOM     33  C   UNL A   1      35.656  34.202  28.784  1.00  0.00     0.014 A 
ATOM     34  C   UNL A   1      35.275  32.109  30.583  1.00  0.00     0.010 A 
ATOM     35  C   UNL A   1      36.747  33.471  29.225  1.00  0.00     0.010 A 
ATOM     36  C   UNL A   1      36.571  32.437  30.154  1.00  0.00    -0.014 A 
BRANCH  36  37
ATOM     37  C   UNL A   1      37.760  31.745  30.699  1.00  0.00     0.031 A 
ATOM     38  C   UNL A   1      38.247  32.078  32.083  1.00  0.00     0.074 A 
ATOM     39  C   UNL A   1      38.424  30.861  29.932  1.00  0.00     0.049 A 
ATOM     40  N   UNL A   1      39.291  31.620  32.725  1.00  0.00    -0.248 NA
ATOM     41  C   UNL A   1      37.483  33.091  32.834  1.00  0.00     0.031 C 
ATOM     42  C   UNL A   1      38.082  30.507  28.552  1.00  0.00     0.029 A 
ATOM     43  N   UNL A   1      39.527  30.095  30.206  1.00  0.00    -0.354 N 
ATOM     44  C   UNL A   1      39.316  32.302  33.936  1.00  0.00     0.074 A 
ATOM     45  C   UNL A   1      38.236  33.259  33.910  1.00  0.00     0.031 C 
ATOM     46  C   UNL A   1      38.930  29.561  28.117  1.00  0.00     0.029 A 
ATOM     47  C   UNL A   1      39.896  29.273  29.171  1.00  0.00     0.049 A 
ATOM     48  H   UNL A   1      40.009  30.131  31.064  1.00  0.00     0.167 HD
ATOM     49  C   UNL A   1      40.144  32.120  34.991  1.00  0.00     0.037 A 
ATOM     50  C   UNL A   1      40.902  28.381  29.087  1.00  0.00     0.037 A 
ATOM     51  C   UNL A   1      41.194  31.139  35.022  1.00  0.00     0.049 A 
ATOM     52  C   UNL A   1      41.794  28.184  30.280  1.00  0.00     0.074 A 
ATOM     53  C   UNL A   1      42.057  30.829  36.058  1.00  0.00     0.029 A 
ATOM     54  N   UNL A   1      41.520  30.303  33.964  1.00  0.00    -0.354 N 
ATOM     55  N   UNL A   1      41.766  28.785  31.446  1.00  0.00    -0.248 NA
ATOM     56  C   UNL A   1      42.850  27.171  30.152  1.00  0.00     0.031 C 
ATOM     57  C   UNL A   1      42.934  29.837  35.610  1.00  0.00     0.029 A 
ATOM     58  C   UNL A   1      42.582  29.488  34.315  1.00  0.00     0.049 A 
ATOM     59  H   UNL A   1      41.064  30.292  33.091  1.00  0.00     0.167 HD
ATOM     60  C   UNL A   1      42.776  28.203  32.199  1.00  0.00     0.074 A 
ATOM     61  C   UNL A   1      43.385  27.188  31.364  1.00  0.00     0.031 C 
ATOM     62  C   UNL A   1      43.167  28.480  33.468  1.00  0.00     0.037 A 
BRANCH  49  63
ATOM     63  C   UNL A   1      39.932  32.995  36.194  1.00  0.00     0.057 A 
ATOM     64  C   UNL A   1      40.649  34.187  36.379  1.00  0.00     0.134 A 
ATOM     65  C   UNL A   1      38.995  32.650  37.174  1.00  0.00     0.134 A 
ATOM     66  F   UNL A   1      41.575  34.570  35.487  1.00  0.00    -0.206 F 
ATOM     67  C   UNL A   1      40.463  34.985  37.509  1.00  0.00     0.040 A 
ATOM     68  C   UNL A   1      38.777  33.456  38.293  1.00  0.00     0.040 A 
ATOM     69  F   UNL A   1      38.273  31.525  37.062  1.00  0.00    -0.206 F 
ATOM     70  C   UNL A   1      39.519  34.623  38.467  1.00  0.00     0.006 A 
ENDBRANCH  49  63
BRANCH  50  71
ATOM     71  C   UNL A   1      41.088  27.580  27.850  1.00  0.00     0.057 A 
ATOM     72  C   UNL A   1      40.457  26.342  27.689  1.00  0.00     0.134 A 
ATOM     73  C   UNL A   1      41.908  28.025  26.807  1.00  0.00     0.134 A 
ATOM     74  F   UNL A   1      39.670  25.854  28.659  1.00  0.00    -0.206 F 
ATOM     75  C   UNL A   1      40.654  25.563  26.548  1.00  0.00     0.040 A 
ATOM     76  C   UNL A   1      42.091  27.270  25.647  1.00  0.00     0.040 A 
ATOM     77  F   UNL A   1      42.532  29.209  26.893  1.00  0.00    -0.206 F 
ATOM     78  C   UNL A   1      41.471  26.029  25.521  1.00  0.00     0.006 A 
ENDBRANCH  50  71
BRANCH  62  79
ATOM     79  C   UNL A   1      44.272  27.640  34.038  1.00  0.00     0.057 A 
ATOM     80  C   UNL A   1      44.024  26.421  34.683  1.00  0.00     0.134 A 
ATOM     81  C   UNL A   1      45.607  28.051  33.923  1.00  0.00     0.134 A 
ATOM     82  F   UNL A   1      42.768  25.976  34.835  1.00  0.00    -0.206 F 
ATOM     83  C   UNL A   1      45.060  25.661  35.227  1.00  0.00     0.040 A 
ATOM     84  C   UNL A   1      46.653  27.284  34.434  1.00  0.00     0.040 A 
ATOM     85  F   UNL A   1      45.915  29.202  33.305  1.00  0.00    -0.206 F 
ATOM     86  C   UNL A   1      46.380  26.090  35.098  1.00  0.00     0.006 A 
ENDBRANCH  62  79
ENDBRANCH  36  37
ENDBRANCH  28  31
ENDBRANCH  26  27
ENDBRANCH  25  26
ENDBRANCH   1  25
TORSDOF 16
ENDMDL
MODEL 3
REMARK VINA RESULT:     -10.5      1.472      4.009
REMARK SMILES CC(C)C[C@@H](CNc1ccc(C(=O)N(C)C)nn1)C(=O)NCCCNC(=O)c1ccc(-c2c3nc(c(-c4c(F)cccc4F)c4ccc([nH]4)c(-c4c(F)cccc4F)c4nc(c(-c5c(F)cccc5F)c5ccc2[nH]5)C=C4)C=C3)cc1
REMARK SMILES IDX 22 1 21 2 19 3 20 4 5 6 4 7 2 8 1 9 3 10 6 11 7 12 8 14 9 15
REMARK SMILES IDX 18 16 10 17 17 18 11 19 12 20 13 21 14 22 15 23 16 24 23 25
REMARK SMILES IDX 24 26 25 27 26 28 27 30 28 31 29 32 81 33 30 34 80 35 31 36
REMARK SMILES IDX 32 37 33 38 74 39 34 40 79 41 73 42 75 43 35 44 78 45 72 46
REMARK SMILES IDX 71 47 36 49 62 50 45 51 61 52 46 53 49 54 60 55 76 56 47 57
REMARK SMILES IDX 48 58 59 60 77 61 50 62 37 63 38 64 43 65 39 66 40 67 42 68
REMARK SMILES IDX 44 69 41 70 63 71 64 72 69 73 65 74 66 75 68 76 70 77 67 78
REMARK SMILES IDX 51 79 52 80 57 81 53 82 54 83 56 84 58 85 55 86
REMARK H PARENT 21 5 7 13 25 29 75 48 49 59
REMARK Flexibility Score: inf
ROOT
ATOM      1  C   UNL A   1      31.663  28.444  26.289  1.00  0.00     0.117 C 
ENDROOT
BRANCH   1   2
ATOM      2  N   UNL A   1      30.868  27.378  25.720  1.00  0.00    -0.356 N 
ATOM      3  C   UNL A   1      30.534  27.149  24.423  1.00  0.00     0.224 C 
ATOM      4  O   UNL A   1      30.071  26.038  24.145  1.00  0.00    -0.275 OA
ATOM      5  H   UNL A   1      30.519  26.722  26.366  1.00  0.00     0.163 HD
BRANCH   3   6
ATOM      6  C   UNL A   1      30.693  28.205  23.331  1.00  0.00     0.098 C 
BRANCH   6   7
ATOM      7  C   UNL A   1      29.949  29.514  23.654  1.00  0.00     0.018 C 
BRANCH   7   8
ATOM      8  C   UNL A   1      28.667  29.781  22.847  1.00  0.00    -0.017 C 
ATOM      9  C   UNL A   1      27.616  28.688  23.039  1.00  0.00     0.007 C 
ATOM     10  C   UNL A   1      28.081  31.136  23.260  1.00  0.00     0.007 C 
ENDBRANCH   7   8
ENDBRANCH   6   7
BRANCH   6  11
ATOM     11  C   UNL A   1      32.116  28.261  22.744  1.00  0.00     0.128 C 
BRANCH  11  12
ATOM     12  N   UNL A   1      32.568  27.095  22.004  1.00  0.00    -0.368 N 
ATOM     13  H   UNL A   1      32.393  27.068  21.035  1.00  0.00     0.162 HD
BRANCH  12  14
ATOM     14  C   UNL A   1      33.226  26.021  22.566  1.00  0.00     0.148 A 
ATOM     15  C   UNL A   1      33.778  26.038  23.838  1.00  0.00     0.051 A 
ATOM     16  N   UNL A   1      33.371  24.912  21.815  1.00  0.00    -0.132 NA
ATOM     17  C   UNL A   1      34.538  24.958  24.299  1.00  0.00     0.040 A 
ATOM     18  N   UNL A   1      34.132  23.832  22.253  1.00  0.00    -0.143 NA
ATOM     19  C   UNL A   1      34.699  23.859  23.477  1.00  0.00     0.151 A 
BRANCH  19  20
ATOM     20  C   UNL A   1      35.590  22.715  23.831  1.00  0.00     0.273 C 
ATOM     21  O   UNL A   1      36.751  22.741  23.416  1.00  0.00    -0.267 OA
ATOM     22  N   UNL A   1      35.133  21.665  24.643  1.00  0.00    -0.343 N 
ATOM     23  C   UNL A   1      33.758  21.425  25.050  1.00  0.00     0.146 C 
ATOM     24  C   UNL A   1      36.103  20.642  25.005  1.00  0.00     0.146 C 
ENDBRANCH  19  20
ENDBRANCH  12  14
ENDBRANCH  11  12
ENDBRANCH   6  11
ENDBRANCH   3   6
ENDBRANCH   1   2
BRANCH   1  25
ATOM     25  C   UNL A   1      33.047  28.006  26.716  1.00  0.00     0.042 C 
BRANCH  25  26
ATOM     26  C   UNL A   1      34.123  28.989  26.300  1.00  0.00     0.118 C 
BRANCH  26  27
ATOM     27  N   UNL A   1      33.879  30.344  26.789  1.00  0.00    -0.352 N 
ATOM     28  C   UNL A   1      34.546  31.094  27.721  1.00  0.00     0.251 C 
ATOM     29  H   UNL A   1      33.105  30.794  26.378  1.00  0.00     0.163 HD
ATOM     30  O   UNL A   1      34.084  32.168  28.098  1.00  0.00    -0.269 OA
BRANCH  28  31
ATOM     31  C   UNL A   1      35.808  30.607  28.302  1.00  0.00     0.039 A 
ATOM     32  C   UNL A   1      35.757  29.672  29.338  1.00  0.00     0.014 A 
ATOM     33  C   UNL A   1      37.037  31.070  27.833  1.00  0.00     0.014 A 
ATOM     34  C   UNL A   1      36.944  29.154  29.853  1.00  0.00     0.010 A 
ATOM     35  C   UNL A   1      38.207  30.453  28.247  1.00  0.00     0.010 A 
ATOM     36  C   UNL A   1      38.176  29.512  29.283  1.00  0.00    -0.014 A 
BRANCH  36  37
ATOM     37  C   UNL A   1      39.449  28.951  29.789  1.00  0.00     0.031 A 
ATOM     38  C   UNL A   1      40.081  29.532  31.024  1.00  0.00     0.074 A 
ATOM     39  C   UNL A   1      40.055  27.960  29.110  1.00  0.00     0.049 A 
ATOM     40  N   UNL A   1      41.211  29.216  31.602  1.00  0.00    -0.248 NA
ATOM     41  C   UNL A   1      39.370  30.646  31.677  1.00  0.00     0.031 C 
ATOM     42  C   UNL A   1      39.567  27.361  27.864  1.00  0.00     0.029 A 
ATOM     43  N   UNL A   1      41.213  27.277  29.374  1.00  0.00    -0.354 N 
ATOM     44  C   UNL A   1      41.351  30.101  32.664  1.00  0.00     0.074 A 
ATOM     45  C   UNL A   1      40.236  31.016  32.608  1.00  0.00     0.031 C 
ATOM     46  C   UNL A   1      40.396  26.371  27.497  1.00  0.00     0.029 A 
ATOM     47  C   UNL A   1      41.492  26.293  28.458  1.00  0.00     0.049 A 
ATOM     48  H   UNL A   1      41.791  27.473  30.146  1.00  0.00     0.167 HD
ATOM     49  C   UNL A   1      42.304  30.125  33.625  1.00  0.00     0.037 A 
ATOM     50  C   UNL A   1      42.516  25.421  28.405  1.00  0.00     0.037 A 
ATOM     51  C   UNL A   1      43.390  29.186  33.694  1.00  0.00     0.049 A 
ATOM     52  C   UNL A   1      43.550  25.455  29.496  1.00  0.00     0.074 A 
ATOM     53  C   UNL A   1      44.381  29.081  34.655  1.00  0.00     0.029 A 
ATOM     54  N   UNL A   1      43.625  28.183  32.764  1.00  0.00    -0.354 N 
ATOM     55  N   UNL A   1      43.635  26.251  30.534  1.00  0.00    -0.248 NA
ATOM     56  C   UNL A   1      44.625  24.457  29.414  1.00  0.00     0.031 C 
ATOM     57  C   UNL A   1      45.241  28.043  34.279  1.00  0.00     0.029 A 
ATOM     58  C   UNL A   1      44.753  27.465  33.118  1.00  0.00     0.049 A 
ATOM     59  H   UNL A   1      43.069  28.009  31.969  1.00  0.00     0.167 HD
ATOM     60  C   UNL A   1      44.750  25.831  31.247  1.00  0.00     0.074 A 
ATOM     61  C   UNL A   1      45.298  24.698  30.529  1.00  0.00     0.031 C 
ATOM     62  C   UNL A   1      45.275  26.335  32.391  1.00  0.00     0.037 A 
BRANCH  49  63
ATOM     63  C   UNL A   1      42.199  31.193  34.676  1.00  0.00     0.057 A 
ATOM     64  C   UNL A   1      42.869  32.420  34.555  1.00  0.00     0.134 A 
ATOM     65  C   UNL A   1      41.413  30.999  35.818  1.00  0.00     0.134 A 
ATOM     66  F   UNL A   1      43.653  32.666  33.495  1.00  0.00    -0.206 F 
ATOM     67  C   UNL A   1      42.785  33.400  35.545  1.00  0.00     0.040 A 
ATOM     68  C   UNL A   1      41.294  31.985  36.799  1.00  0.00     0.040 A 
ATOM     69  F   UNL A   1      40.743  29.851  35.998  1.00  0.00    -0.206 F 
ATOM     70  C   UNL A   1      41.990  33.186  36.669  1.00  0.00     0.006 A 
ENDBRANCH  49  63
BRANCH  50  71
ATOM     71  C   UNL A   1      42.589  24.419  27.312  1.00  0.00     0.057 A 
ATOM     72  C   UNL A   1      41.985  23.163  27.440  1.00  0.00     0.134 A 
ATOM     73  C   UNL A   1      43.272  24.686  26.119  1.00  0.00     0.134 A 
ATOM     74  F   UNL A   1      41.328  22.842  28.565  1.00  0.00    -0.206 F 
ATOM     75  C   UNL A   1      42.078  22.200  26.435  1.00  0.00     0.040 A 
ATOM     76  C   UNL A   1      43.348  23.742  25.093  1.00  0.00     0.040 A 
ATOM     77  F   UNL A   1      43.861  25.875  25.927  1.00  0.00    -0.206 F 
ATOM     78  C   UNL A   1      42.759  22.490  25.255  1.00  0.00     0.006 A 
ENDBRANCH  50  71
BRANCH  62  79
ATOM     79  C   UNL A   1      46.474  25.631  32.956  1.00  0.00     0.057 A 
ATOM     80  C   UNL A   1      46.356  24.596  33.893  1.00  0.00     0.134 A 
ATOM     81  C   UNL A   1      47.765  25.985  32.542  1.00  0.00     0.134 A 
ATOM     82  F   UNL A   1      45.149  24.217  34.339  1.00  0.00    -0.206 F 
ATOM     83  C   UNL A   1      47.481  23.966  34.426  1.00  0.00     0.040 A 
ATOM     84  C   UNL A   1      48.895  25.339  33.043  1.00  0.00     0.040 A 
ATOM     85  F   UNL A   1      47.948  26.959  31.637  1.00  0.00    -0.206 F 
ATOM     86  C   UNL A   1      48.755  24.334  33.996  1.00  0.00     0.006 A 
ENDBRANCH  62  79
ENDBRANCH  36  37
ENDBRANCH  28  31
ENDBRANCH  26  27
ENDBRANCH  25  26
ENDBRANCH   1  25
TORSDOF 16
ENDMDL
