MODEL 1
REMARK VINA RESULT:     -14.1      0.000      0.000
REMARK SMILES NC(=O)C[C@H](NC(=O)C1(c2ccccc2)CCN(C(=O)[C@@H]2CCC[NH2+]2)CC1)C(=O)NCCCNC(=O)c1ccc(-c2c3nc(c(-c4c(F)cccc4F)c4ccc([nH]4)c(-c4c(F)cccc4F)c4nc(c(-c5c(F)cccc5F)c5ccc2[nH]5)C=C4)C=C3)cc1
REMARK SMILES IDX 31 1 30 2 28 3 29 4 5 6 4 7 2 8 1 9 3 12 6 13 7 14 8 16 9 17
REMARK SMILES IDX 16 18 27 19 17 20 26 21 18 22 19 23 20 24 10 25 11 26 15 27
REMARK SMILES IDX 12 28 14 29 13 30 21 31 22 32 25 33 23 34 24 35 32 38 33 39
REMARK SMILES IDX 34 40 35 41 36 43 37 44 38 45 90 46 39 47 89 48 40 49 41 50
REMARK SMILES IDX 42 51 83 52 43 53 88 54 82 55 84 56 44 57 87 58 81 59 80 60
REMARK SMILES IDX 45 62 71 63 54 64 70 65 55 66 58 67 69 68 85 69 56 70 57 71
REMARK SMILES IDX 68 73 86 74 59 75 46 76 47 77 52 78 48 79 49 80 51 81 53 82
REMARK SMILES IDX 50 83 72 84 73 85 78 86 74 87 75 88 77 89 79 90 76 91 60 92
REMARK SMILES IDX 61 93 66 94 62 95 63 96 65 97 67 98 64 99
REMARK H PARENT 30 5 1 10 1 11 6 15 25 36 25 37 34 42 84 61 58 72
REMARK Flexibility Score: inf
ROOT
ATOM      1  C   UNL A   1      34.195  33.971  28.910  1.00  0.00     0.117 C 
ENDROOT
BRANCH   1   2
ATOM      2  N   UNL A   1      34.349  32.244  28.774  1.00  0.00    -0.354 N 
ATOM      3  C   UNL A   1      34.357  31.086  27.913  1.00  0.00     0.243 C 
ATOM      4  O   UNL A   1      35.315  30.336  28.209  1.00  0.00    -0.273 OA
ATOM      5  H   UNL A   1      34.494  31.908  29.688  1.00  0.00     0.163 HD
BRANCH   3   6
ATOM      6  C   UNL A   1      33.324  30.411  26.566  1.00  0.00     0.180 C 
BRANCH   6   7
ATOM      7  C   UNL A   1      31.778  30.634  26.708  1.00  0.00     0.134 C 
BRANCH   7   8
ATOM      8  C   UNL A   1      31.165  31.950  26.271  1.00  0.00     0.220 C 
ATOM      9  N   UNL A   1      30.368  31.952  25.181  1.00  0.00    -0.370 N 
ATOM     10  H   UNL A   1      29.955  32.791  24.873  1.00  0.00     0.159 HD
ATOM     11  H   UNL A   1      30.199  31.113  24.693  1.00  0.00     0.159 HD
ATOM     12  O   UNL A   1      31.405  33.039  26.827  1.00  0.00    -0.275 OA
ENDBRANCH   7   8
ENDBRANCH   6   7
BRANCH   6  13
ATOM     13  N   UNL A   1      33.634  29.402  25.351  1.00  0.00    -0.343 N 
ATOM     14  C   UNL A   1      33.127  28.546  24.392  1.00  0.00     0.231 C 
ATOM     15  H   UNL A   1      34.613  29.388  25.247  1.00  0.00     0.164 HD
ATOM     16  O   UNL A   1      33.960  28.251  23.519  1.00  0.00    -0.274 OA
BRANCH  14  17
ATOM     17  C   UNL A   1      31.681  27.929  24.281  1.00  0.00     0.077 C 
ATOM     18  C   UNL A   1      31.250  27.205  25.578  1.00  0.00     0.043 C 
ATOM     19  C   UNL A   1      31.623  26.820  23.287  1.00  0.00     0.043 C 
ATOM     20  C   UNL A   1      32.175  26.065  26.039  1.00  0.00     0.121 C 
ATOM     21  C   UNL A   1      32.602  25.786  23.673  1.00  0.00     0.121 C 
ATOM     22  N   UNL A   1      32.773  25.174  25.018  1.00  0.00    -0.337 N 
ATOM     23  C   UNL A   1      33.534  24.078  25.628  1.00  0.00     0.280 C 
ATOM     24  O   UNL A   1      33.484  24.087  26.887  1.00  0.00    -0.268 OA
BRANCH  17  25
ATOM     25  C   UNL A   1      30.554  28.881  23.678  1.00  0.00    -0.032 A 
ATOM     26  C   UNL A   1      30.860  29.764  22.604  1.00  0.00     0.005 A 
ATOM     27  C   UNL A   1      29.195  28.594  23.877  1.00  0.00     0.005 A 
ATOM     28  C   UNL A   1      29.907  30.077  21.623  1.00  0.00     0.000 A 
ATOM     29  C   UNL A   1      28.232  28.965  22.924  1.00  0.00     0.000 A 
ATOM     30  C   UNL A   1      28.597  29.645  21.766  1.00  0.00     0.000 A 
ENDBRANCH  17  25
BRANCH  23  31
ATOM     31  C   UNL A   1      34.553  22.772  25.176  1.00  0.00     0.272 C 
ATOM     32  C   UNL A   1      34.005  21.418  24.661  1.00  0.00     0.081 C 
ATOM     33  N   UNL A   1      35.744  22.308  25.930  1.00  0.00    -0.336 N 
ATOM     34  C   UNL A   1      35.060  20.344  24.989  1.00  0.00     0.068 C 
ATOM     35  C   UNL A   1      36.307  21.131  25.275  1.00  0.00     0.261 C 
ATOM     36  H   UNL A   1      35.471  22.069  26.883  1.00  0.00     0.346 HD
ATOM     37  H   UNL A   1      36.442  23.051  25.952  1.00  0.00     0.346 HD
ENDBRANCH  23  31
ENDBRANCH  14  17
ENDBRANCH   6  13
ENDBRANCH   3   6
ENDBRANCH   1   2
BRANCH   1  38
ATOM     38  C   UNL A   1      32.877  34.831  28.850  1.00  0.00     0.042 C 
BRANCH  38  39
ATOM     39  C   UNL A   1      33.070  36.279  29.299  1.00  0.00     0.118 C 
BRANCH  39  40
ATOM     40  N   UNL A   1      32.537  36.612  30.635  1.00  0.00    -0.352 N 
ATOM     41  C   UNL A   1      32.865  36.276  31.932  1.00  0.00     0.251 C 
ATOM     42  H   UNL A   1      31.764  37.219  30.588  1.00  0.00     0.163 HD
ATOM     43  O   UNL A   1      32.224  36.820  32.849  1.00  0.00    -0.269 OA
BRANCH  41  44
ATOM     44  C   UNL A   1      33.903  35.282  32.311  1.00  0.00     0.039 A 
ATOM     45  C   UNL A   1      33.528  34.038  32.857  1.00  0.00     0.014 A 
ATOM     46  C   UNL A   1      35.257  35.551  32.196  1.00  0.00     0.014 A 
ATOM     47  C   UNL A   1      34.500  33.088  33.223  1.00  0.00     0.010 A 
ATOM     48  C   UNL A   1      36.204  34.558  32.387  1.00  0.00     0.010 A 
ATOM     49  C   UNL A   1      35.852  33.333  32.965  1.00  0.00    -0.014 A 
BRANCH  49  50
ATOM     50  C   UNL A   1      36.977  32.452  33.386  1.00  0.00     0.031 A 
ATOM     51  C   UNL A   1      37.639  32.729  34.719  1.00  0.00     0.074 A 
ATOM     52  C   UNL A   1      37.506  31.533  32.557  1.00  0.00     0.049 A 
ATOM     53  N   UNL A   1      38.834  32.407  35.144  1.00  0.00    -0.248 NA
ATOM     54  C   UNL A   1      36.879  33.570  35.663  1.00  0.00     0.031 C 
ATOM     55  C   UNL A   1      36.996  31.174  31.235  1.00  0.00     0.029 A 
ATOM     56  N   UNL A   1      38.627  30.754  32.705  1.00  0.00    -0.354 N 
ATOM     57  C   UNL A   1      38.999  33.091  36.344  1.00  0.00     0.074 A 
ATOM     58  C   UNL A   1      37.807  33.878  36.555  1.00  0.00     0.031 C 
ATOM     59  C   UNL A   1      37.788  30.231  30.700  1.00  0.00     0.029 A 
ATOM     60  C   UNL A   1      38.896  29.963  31.614  1.00  0.00     0.049 A 
ATOM     61  H   UNL A   1      39.185  30.761  33.515  1.00  0.00     0.167 HD
ATOM     62  C   UNL A   1      40.043  33.048  37.205  1.00  0.00     0.037 A 
ATOM     63  C   UNL A   1      39.930  29.135  31.375  1.00  0.00     0.037 A 
ATOM     64  C   UNL A   1      41.154  32.148  37.059  1.00  0.00     0.049 A 
ATOM     65  C   UNL A   1      41.021  29.006  32.404  1.00  0.00     0.074 A 
ATOM     66  C   UNL A   1      42.212  31.933  37.923  1.00  0.00     0.029 A 
ATOM     67  N   UNL A   1      41.318  31.277  35.993  1.00  0.00    -0.354 N 
ATOM     68  N   UNL A   1      41.171  29.654  33.535  1.00  0.00    -0.248 NA
ATOM     69  C   UNL A   1      42.085  28.030  32.128  1.00  0.00     0.031 C 
ATOM     70  C   UNL A   1      43.022  30.933  37.376  1.00  0.00     0.029 A 
ATOM     71  C   UNL A   1      42.452  30.510  36.186  1.00  0.00     0.049 A 
ATOM     72  H   UNL A   1      40.719  31.215  35.215  1.00  0.00     0.167 HD
ATOM     73  C   UNL A   1      42.321  29.138  34.120  1.00  0.00     0.074 A 
ATOM     74  C   UNL A   1      42.829  28.123  33.221  1.00  0.00     0.031 C 
ATOM     75  C   UNL A   1      42.907  29.475  35.295  1.00  0.00     0.037 A 
BRANCH  62  76
ATOM     76  C   UNL A   1      40.017  33.969  38.393  1.00  0.00     0.057 A 
ATOM     77  C   UNL A   1      39.416  33.606  39.606  1.00  0.00     0.134 A 
ATOM     78  C   UNL A   1      40.629  35.228  38.331  1.00  0.00     0.134 A 
ATOM     79  F   UNL A   1      38.804  32.420  39.733  1.00  0.00    -0.206 F 
ATOM     80  C   UNL A   1      39.390  34.475  40.698  1.00  0.00     0.040 A 
ATOM     81  C   UNL A   1      40.639  36.093  39.428  1.00  0.00     0.040 A 
ATOM     82  F   UNL A   1      41.233  35.639  37.205  1.00  0.00    -0.206 F 
ATOM     83  C   UNL A   1      40.010  35.719  40.614  1.00  0.00     0.006 A 
ENDBRANCH  62  76
BRANCH  63  84
ATOM     84  C   UNL A   1      39.968  28.338  30.125  1.00  0.00     0.057 A 
ATOM     85  C   UNL A   1      39.248  27.142  30.018  1.00  0.00     0.134 A 
ATOM     86  C   UNL A   1      40.713  28.744  29.011  1.00  0.00     0.134 A 
ATOM     87  F   UNL A   1      38.528  26.695  31.058  1.00  0.00    -0.206 F 
ATOM     88  C   UNL A   1      39.282  26.366  28.860  1.00  0.00     0.040 A 
ATOM     89  C   UNL A   1      40.737  27.989  27.836  1.00  0.00     0.040 A 
ATOM     90  F   UNL A   1      41.412  29.887  29.044  1.00  0.00    -0.206 F 
ATOM     91  C   UNL A   1      40.027  26.793  27.762  1.00  0.00     0.006 A 
ENDBRANCH  63  84
BRANCH  75  92
ATOM     92  C   UNL A   1      44.115  28.698  35.714  1.00  0.00     0.057 A 
ATOM     93  C   UNL A   1      45.412  29.139  35.429  1.00  0.00     0.134 A 
ATOM     94  C   UNL A   1      43.976  27.535  36.484  1.00  0.00     0.134 A 
ATOM     95  F   UNL A   1      45.609  30.241  34.690  1.00  0.00    -0.206 F 
ATOM     96  C   UNL A   1      46.531  28.445  35.891  1.00  0.00     0.040 A 
ATOM     97  C   UNL A   1      45.086  26.845  36.968  1.00  0.00     0.040 A 
ATOM     98  F   UNL A   1      42.757  27.070  36.798  1.00  0.00    -0.206 F 
ATOM     99  C   UNL A   1      46.370  27.300  36.670  1.00  0.00     0.006 A 
ENDBRANCH  75  92
ENDBRANCH  49  50
ENDBRANCH  41  44
ENDBRANCH  39  40
ENDBRANCH  38  39
ENDBRANCH   1  38
TORSDOF 16
ENDMDL
MODEL 2
REMARK VINA RESULT:     -13.5      5.090      8.955
REMARK SMILES NC(=O)C[C@H](NC(=O)C1(c2ccccc2)CCN(C(=O)[C@@H]2CCC[NH2+]2)CC1)C(=O)NCCCNC(=O)c1ccc(-c2c3nc(c(-c4c(F)cccc4F)c4ccc([nH]4)c(-c4c(F)cccc4F)c4nc(c(-c5c(F)cccc5F)c5ccc2[nH]5)C=C4)C=C3)cc1
REMARK SMILES IDX 31 1 30 2 28 3 29 4 5 6 4 7 2 8 1 9 3 12 6 13 7 14 8 16 9 17
REMARK SMILES IDX 16 18 27 19 17 20 26 21 18 22 19 23 20 24 10 25 11 26 15 27
REMARK SMILES IDX 12 28 14 29 13 30 21 31 22 32 25 33 23 34 24 35 32 38 33 39
REMARK SMILES IDX 34 40 35 41 36 43 37 44 38 45 90 46 39 47 89 48 40 49 41 50
REMARK SMILES IDX 42 51 83 52 43 53 88 54 82 55 84 56 44 57 87 58 81 59 80 60
REMARK SMILES IDX 45 62 71 63 54 64 70 65 55 66 58 67 69 68 85 69 56 70 57 71
REMARK SMILES IDX 68 73 86 74 59 75 46 76 47 77 52 78 48 79 49 80 51 81 53 82
REMARK SMILES IDX 50 83 72 84 73 85 78 86 74 87 75 88 77 89 79 90 76 91 60 92
REMARK SMILES IDX 61 93 66 94 62 95 63 96 65 97 67 98 64 99
REMARK H PARENT 30 5 1 10 1 11 6 15 25 36 25 37 34 42 84 61 58 72
REMARK Flexibility Score: inf
ROOT
ATOM      1  C   UNL A   1      34.317  32.575  28.633  1.00  0.00     0.117 C 
ENDROOT
BRANCH   1   2
ATOM      2  N   UNL A   1      34.230  30.904  28.161  1.00  0.00    -0.354 N 
ATOM      3  C   UNL A   1      34.060  29.946  27.094  1.00  0.00     0.243 C 
ATOM      4  O   UNL A   1      34.913  29.036  27.193  1.00  0.00    -0.273 OA
ATOM      5  H   UNL A   1      34.350  30.378  28.985  1.00  0.00     0.163 HD
BRANCH   3   6
ATOM      6  C   UNL A   1      32.912  29.690  25.696  1.00  0.00     0.180 C 
BRANCH   6   7
ATOM      7  C   UNL A   1      31.426  30.128  25.937  1.00  0.00     0.134 C 
BRANCH   7   8
ATOM      8  C   UNL A   1      31.072  31.602  25.967  1.00  0.00     0.220 C 
ATOM      9  N   UNL A   1      30.340  32.102  24.948  1.00  0.00    -0.370 N 
ATOM     10  H   UNL A   1      30.094  33.056  24.940  1.00  0.00     0.159 HD
ATOM     11  H   UNL A   1      30.051  31.514  24.213  1.00  0.00     0.159 HD
ATOM     12  O   UNL A   1      31.470  32.388  26.847  1.00  0.00    -0.275 OA
ENDBRANCH   7   8
ENDBRANCH   6   7
BRANCH   6  13
ATOM     13  N   UNL A   1      33.037  28.870  24.316  1.00  0.00    -0.343 N 
ATOM     14  C   UNL A   1      32.396  28.123  23.346  1.00  0.00     0.231 C 
ATOM     15  H   UNL A   1      33.982  28.926  24.046  1.00  0.00     0.164 HD
ATOM     16  O   UNL A   1      33.072  27.995  22.312  1.00  0.00    -0.274 OA
BRANCH  14  17
ATOM     17  C   UNL A   1      30.974  27.446  23.396  1.00  0.00     0.077 C 
ATOM     18  C   UNL A   1      30.631  26.903  24.803  1.00  0.00     0.043 C 
ATOM     19  C   UNL A   1      30.920  26.203  22.575  1.00  0.00     0.043 C 
ATOM     20  C   UNL A   1      31.623  25.875  25.377  1.00  0.00     0.121 C 
ATOM     21  C   UNL A   1      31.958  25.272  23.057  1.00  0.00     0.121 C 
ATOM     22  N   UNL A   1      32.212  24.868  24.465  1.00  0.00    -0.337 N 
ATOM     23  C   UNL A   1      33.045  23.899  25.188  1.00  0.00     0.280 C 
ATOM     24  O   UNL A   1      33.050  24.089  26.433  1.00  0.00    -0.268 OA
BRANCH  17  25
ATOM     25  C   UNL A   1      29.783  28.260  22.719  1.00  0.00    -0.032 A 
ATOM     26  C   UNL A   1      28.431  27.953  23.039  1.00  0.00     0.005 A 
ATOM     27  C   UNL A   1      30.015  29.521  22.148  1.00  0.00     0.005 A 
ATOM     28  C   UNL A   1      27.444  28.950  23.072  1.00  0.00     0.000 A 
ATOM     29  C   UNL A   1      29.006  30.498  22.124  1.00  0.00     0.000 A 
ATOM     30  C   UNL A   1      27.744  30.236  22.648  1.00  0.00     0.000 A 
ENDBRANCH  17  25
BRANCH  23  31
ATOM     31  C   UNL A   1      34.098  22.578  24.879  1.00  0.00     0.272 C 
ATOM     32  C   UNL A   1      33.589  21.184  24.436  1.00  0.00     0.081 C 
ATOM     33  N   UNL A   1      35.256  22.185  25.718  1.00  0.00    -0.336 N 
ATOM     34  C   UNL A   1      34.637  20.150  24.889  1.00  0.00     0.068 C 
ATOM     35  C   UNL A   1      35.862  20.972  25.175  1.00  0.00     0.261 C 
ATOM     36  H   UNL A   1      34.942  22.011  26.672  1.00  0.00     0.346 HD
ATOM     37  H   UNL A   1      35.945  22.937  25.719  1.00  0.00     0.346 HD
ENDBRANCH  23  31
ENDBRANCH  14  17
ENDBRANCH   6  13
ENDBRANCH   3   6
ENDBRANCH   1   2
BRANCH   1  38
ATOM     38  C   UNL A   1      35.607  33.458  28.828  1.00  0.00     0.042 C 
BRANCH  38  39
ATOM     39  C   UNL A   1      36.371  33.149  30.115  1.00  0.00     0.118 C 
BRANCH  39  40
ATOM     40  N   UNL A   1      35.984  31.904  30.806  1.00  0.00    -0.352 N 
ATOM     41  C   UNL A   1      36.589  30.687  31.045  1.00  0.00     0.251 C 
ATOM     42  H   UNL A   1      35.079  31.955  31.189  1.00  0.00     0.163 HD
ATOM     43  O   UNL A   1      35.977  29.867  31.753  1.00  0.00    -0.269 OA
BRANCH  41  44
ATOM     44  C   UNL A   1      37.902  30.272  30.485  1.00  0.00     0.039 A 
ATOM     45  C   UNL A   1      38.860  29.652  31.311  1.00  0.00     0.014 A 
ATOM     46  C   UNL A   1      38.253  30.520  29.168  1.00  0.00     0.014 A 
ATOM     47  C   UNL A   1      40.109  29.256  30.796  1.00  0.00     0.010 A 
ATOM     48  C   UNL A   1      39.402  29.976  28.618  1.00  0.00     0.010 A 
ATOM     49  C   UNL A   1      40.381  29.393  29.431  1.00  0.00    -0.014 A 
BRANCH  49  50
ATOM     50  C   UNL A   1      41.690  29.098  28.785  1.00  0.00     0.031 A 
ATOM     51  C   UNL A   1      41.918  27.704  28.240  1.00  0.00     0.074 A 
ATOM     52  C   UNL A   1      42.708  29.977  28.813  1.00  0.00     0.049 A 
ATOM     53  N   UNL A   1      43.038  27.071  28.003  1.00  0.00    -0.248 NA
ATOM     54  C   UNL A   1      40.712  26.881  28.029  1.00  0.00     0.031 C 
ATOM     55  C   UNL A   1      42.648  31.345  29.327  1.00  0.00     0.029 A 
ATOM     56  N   UNL A   1      44.015  29.826  28.421  1.00  0.00    -0.354 N 
ATOM     57  C   UNL A   1      42.671  25.758  27.721  1.00  0.00     0.074 A 
ATOM     58  C   UNL A   1      41.235  25.677  27.862  1.00  0.00     0.031 C 
ATOM     59  C   UNL A   1      43.858  31.915  29.202  1.00  0.00     0.029 A 
ATOM     60  C   UNL A   1      44.792  30.934  28.655  1.00  0.00     0.049 A 
ATOM     61  H   UNL A   1      44.363  29.001  28.012  1.00  0.00     0.167 HD
ATOM     62  C   UNL A   1      43.458  24.720  27.354  1.00  0.00     0.037 A 
ATOM     63  C   UNL A   1      46.112  31.125  28.468  1.00  0.00     0.037 A 
ATOM     64  C   UNL A   1      44.861  24.851  27.072  1.00  0.00     0.049 A 
ATOM     65  C   UNL A   1      46.950  29.993  27.938  1.00  0.00     0.074 A 
ATOM     66  C   UNL A   1      45.738  23.899  26.584  1.00  0.00     0.029 A 
ATOM     67  N   UNL A   1      45.578  26.029  27.208  1.00  0.00    -0.354 N 
ATOM     68  N   UNL A   1      46.598  28.757  27.673  1.00  0.00    -0.248 NA
ATOM     69  C   UNL A   1      48.369  30.280  27.677  1.00  0.00     0.031 C 
ATOM     70  C   UNL A   1      46.990  24.501  26.430  1.00  0.00     0.029 A 
ATOM     71  C   UNL A   1      46.883  25.833  26.797  1.00  0.00     0.049 A 
ATOM     72  H   UNL A   1      45.213  26.878  27.548  1.00  0.00     0.167 HD
ATOM     73  C   UNL A   1      47.737  28.133  27.181  1.00  0.00     0.074 A 
ATOM     74  C   UNL A   1      48.792  29.125  27.183  1.00  0.00     0.031 C 
ATOM     75  C   UNL A   1      47.899  26.853  26.767  1.00  0.00     0.037 A 
BRANCH  62  76
ATOM     76  C   UNL A   1      42.818  23.368  27.203  1.00  0.00     0.057 A 
ATOM     77  C   UNL A   1      42.538  22.810  25.949  1.00  0.00     0.134 A 
ATOM     78  C   UNL A   1      42.505  22.599  28.332  1.00  0.00     0.134 A 
ATOM     79  F   UNL A   1      42.803  23.495  24.826  1.00  0.00    -0.206 F 
ATOM     80  C   UNL A   1      41.935  21.558  25.823  1.00  0.00     0.040 A 
ATOM     81  C   UNL A   1      41.933  21.329  28.219  1.00  0.00     0.040 A 
ATOM     82  F   UNL A   1      42.756  23.064  29.566  1.00  0.00    -0.206 F 
ATOM     83  C   UNL A   1      41.638  20.810  26.960  1.00  0.00     0.006 A 
ENDBRANCH  62  76
BRANCH  63  84
ATOM     84  C   UNL A   1      46.717  32.450  28.750  1.00  0.00     0.057 A 
ATOM     85  C   UNL A   1      46.786  33.431  27.753  1.00  0.00     0.134 A 
ATOM     86  C   UNL A   1      47.234  32.773  30.010  1.00  0.00     0.134 A 
ATOM     87  F   UNL A   1      46.319  33.173  26.522  1.00  0.00    -0.206 F 
ATOM     88  C   UNL A   1      47.366  34.677  27.990  1.00  0.00     0.040 A 
ATOM     89  C   UNL A   1      47.797  34.025  30.268  1.00  0.00     0.040 A 
ATOM     90  F   UNL A   1      47.186  31.882  31.011  1.00  0.00    -0.206 F 
ATOM     91  C   UNL A   1      47.870  34.978  29.254  1.00  0.00     0.006 A 
ENDBRANCH  63  84
BRANCH  75  92
ATOM     92  C   UNL A   1      49.236  26.467  26.215  1.00  0.00     0.057 A 
ATOM     93  C   UNL A   1      49.622  26.805  24.913  1.00  0.00     0.134 A 
ATOM     94  C   UNL A   1      50.177  25.822  27.028  1.00  0.00     0.134 A 
ATOM     95  F   UNL A   1      48.761  27.416  24.085  1.00  0.00    -0.206 F 
ATOM     96  C   UNL A   1      50.899  26.506  24.436  1.00  0.00     0.040 A 
ATOM     97  C   UNL A   1      51.462  25.537  26.569  1.00  0.00     0.040 A 
ATOM     98  F   UNL A   1      49.868  25.484  28.289  1.00  0.00    -0.206 F 
ATOM     99  C   UNL A   1      51.825  25.879  25.268  1.00  0.00     0.006 A 
ENDBRANCH  75  92
ENDBRANCH  49  50
ENDBRANCH  41  44
ENDBRANCH  39  40
ENDBRANCH  38  39
ENDBRANCH   1  38
TORSDOF 16
ENDMDL
MODEL 3
REMARK VINA RESULT:     -13.5      2.776      9.209
REMARK SMILES NC(=O)C[C@H](NC(=O)C1(c2ccccc2)CCN(C(=O)[C@@H]2CCC[NH2+]2)CC1)C(=O)NCCCNC(=O)c1ccc(-c2c3nc(c(-c4c(F)cccc4F)c4ccc([nH]4)c(-c4c(F)cccc4F)c4nc(c(-c5c(F)cccc5F)c5ccc2[nH]5)C=C4)C=C3)cc1
REMARK SMILES IDX 31 1 30 2 28 3 29 4 5 6 4 7 2 8 1 9 3 12 6 13 7 14 8 16 9 17
REMARK SMILES IDX 16 18 27 19 17 20 26 21 18 22 19 23 20 24 10 25 11 26 15 27
REMARK SMILES IDX 12 28 14 29 13 30 21 31 22 32 25 33 23 34 24 35 32 38 33 39
REMARK SMILES IDX 34 40 35 41 36 43 37 44 38 45 90 46 39 47 89 48 40 49 41 50
REMARK SMILES IDX 42 51 83 52 43 53 88 54 82 55 84 56 44 57 87 58 81 59 80 60
REMARK SMILES IDX 45 62 71 63 54 64 70 65 55 66 58 67 69 68 85 69 56 70 57 71
REMARK SMILES IDX 68 73 86 74 59 75 46 76 47 77 52 78 48 79 49 80 51 81 53 82
REMARK SMILES IDX 50 83 72 84 73 85 78 86 74 87 75 88 77 89 79 90 76 91 60 92
REMARK SMILES IDX 61 93 66 94 62 95 63 96 65 97 67 98 64 99
REMARK H PARENT 30 5 1 10 1 11 6 15 25 36 25 37 34 42 84 61 58 72
REMARK Flexibility Score: inf
ROOT
ATOM      1  C   UNL A   1      40.907  21.929  26.563  1.00  0.00     0.117 C 
ENDROOT
BRANCH   1   2
ATOM      2  N   UNL A   1      39.511  22.829  26.047  1.00  0.00    -0.354 N 
ATOM      3  C   UNL A   1      38.076  22.983  26.090  1.00  0.00     0.243 C 
ATOM      4  O   UNL A   1      37.777  24.183  26.278  1.00  0.00    -0.273 OA
ATOM      5  H   UNL A   1      39.848  23.555  25.473  1.00  0.00     0.163 HD
BRANCH   3   6
ATOM      6  C   UNL A   1      36.609  21.912  25.889  1.00  0.00     0.180 C 
BRANCH   6   7
ATOM      7  C   UNL A   1      36.679  20.859  24.729  1.00  0.00     0.134 C 
BRANCH   7   8
ATOM      8  C   UNL A   1      37.349  19.520  24.968  1.00  0.00     0.220 C 
ATOM      9  N   UNL A   1      36.573  18.415  24.990  1.00  0.00    -0.370 N 
ATOM     10  H   UNL A   1      36.979  17.531  25.143  1.00  0.00     0.159 HD
ATOM     11  H   UNL A   1      35.601  18.492  24.853  1.00  0.00     0.159 HD
ATOM     12  O   UNL A   1      38.565  19.392  25.206  1.00  0.00    -0.275 OA
ENDBRANCH   7   8
ENDBRANCH   6   7
BRANCH   6  13
ATOM     13  N   UNL A   1      35.122  21.972  26.501  1.00  0.00    -0.343 N 
ATOM     14  C   UNL A   1      33.769  21.775  26.293  1.00  0.00     0.231 C 
ATOM     15  H   UNL A   1      35.217  22.285  27.430  1.00  0.00     0.164 HD
ATOM     16  O   UNL A   1      33.117  21.751  27.349  1.00  0.00    -0.274 OA
BRANCH  14  17
ATOM     17  C   UNL A   1      32.995  21.587  24.933  1.00  0.00     0.077 C 
ATOM     18  C   UNL A   1      33.664  22.348  23.765  1.00  0.00     0.043 C 
ATOM     19  C   UNL A   1      31.646  22.220  24.968  1.00  0.00     0.043 C 
ATOM     20  C   UNL A   1      33.823  23.865  23.968  1.00  0.00     0.121 C 
ATOM     21  C   UNL A   1      31.803  23.652  25.284  1.00  0.00     0.121 C 
ATOM     22  N   UNL A   1      32.733  24.614  24.634  1.00  0.00    -0.337 N 
ATOM     23  C   UNL A   1      32.992  26.058  24.648  1.00  0.00     0.280 C 
ATOM     24  O   UNL A   1      34.057  26.371  24.052  1.00  0.00    -0.268 OA
BRANCH  17  25
ATOM     25  C   UNL A   1      32.575  20.094  24.564  1.00  0.00    -0.032 A 
ATOM     26  C   UNL A   1      32.232  19.755  23.225  1.00  0.00     0.005 A 
ATOM     27  C   UNL A   1      32.925  19.026  25.404  1.00  0.00     0.005 A 
ATOM     28  C   UNL A   1      32.522  18.489  22.695  1.00  0.00     0.000 A 
ATOM     29  C   UNL A   1      33.153  17.742  24.882  1.00  0.00     0.000 A 
ATOM     30  C   UNL A   1      33.018  17.490  23.520  1.00  0.00     0.000 A 
ENDBRANCH  17  25
BRANCH  23  31
ATOM     31  C   UNL A   1      32.327  27.509  25.281  1.00  0.00     0.272 C 
ATOM     32  C   UNL A   1      31.181  28.283  24.582  1.00  0.00     0.081 C 
ATOM     33  N   UNL A   1      33.105  28.639  25.846  1.00  0.00    -0.336 N 
ATOM     34  C   UNL A   1      31.302  29.759  25.005  1.00  0.00     0.068 C 
ATOM     35  C   UNL A   1      32.196  29.721  26.212  1.00  0.00     0.261 C 
ATOM     36  H   UNL A   1      33.771  28.974  25.151  1.00  0.00     0.346 HD
ATOM     37  H   UNL A   1      33.607  28.323  26.675  1.00  0.00     0.346 HD
ENDBRANCH  23  31
ENDBRANCH  14  17
ENDBRANCH   6  13
ENDBRANCH   3   6
ENDBRANCH   1   2
BRANCH   1  38
ATOM     38  C   UNL A   1      42.047  22.394  27.545  1.00  0.00     0.042 C 
BRANCH  38  39
ATOM     39  C   UNL A   1      43.000  23.421  26.934  1.00  0.00     0.118 C 
BRANCH  39  40
ATOM     40  N   UNL A   1      42.394  24.363  25.972  1.00  0.00    -0.352 N 
ATOM     41  C   UNL A   1      41.799  25.605  26.060  1.00  0.00     0.251 C 
ATOM     42  H   UNL A   1      42.423  24.025  25.049  1.00  0.00     0.163 HD
ATOM     43  O   UNL A   1      41.459  26.159  24.999  1.00  0.00    -0.269 OA
BRANCH  41  44
ATOM     44  C   UNL A   1      41.501  26.311  27.334  1.00  0.00     0.039 A 
ATOM     45  C   UNL A   1      40.470  25.849  28.176  1.00  0.00     0.014 A 
ATOM     46  C   UNL A   1      42.173  27.461  27.712  1.00  0.00     0.014 A 
ATOM     47  C   UNL A   1      40.174  26.508  29.384  1.00  0.00     0.010 A 
ATOM     48  C   UNL A   1      42.006  28.005  28.976  1.00  0.00     0.010 A 
ATOM     49  C   UNL A   1      40.962  27.583  29.807  1.00  0.00    -0.014 A 
BRANCH  49  50
ATOM     50  C   UNL A   1      40.696  28.417  31.012  1.00  0.00     0.031 A 
ATOM     51  C   UNL A   1      39.574  29.431  30.944  1.00  0.00     0.074 A 
ATOM     52  C   UNL A   1      41.512  28.397  32.082  1.00  0.00     0.049 A 
ATOM     53  N   UNL A   1      39.381  30.515  31.650  1.00  0.00    -0.248 NA
ATOM     54  C   UNL A   1      38.589  29.242  29.863  1.00  0.00     0.031 C 
ATOM     55  C   UNL A   1      42.647  27.496  32.280  1.00  0.00     0.029 A 
ATOM     56  N   UNL A   1      41.522  29.195  33.199  1.00  0.00    -0.354 N 
ATOM     57  C   UNL A   1      38.327  31.180  31.031  1.00  0.00     0.074 A 
ATOM     58  C   UNL A   1      37.955  30.403  29.872  1.00  0.00     0.031 C 
ATOM     59  C   UNL A   1      43.232  27.778  33.456  1.00  0.00     0.029 A 
ATOM     60  C   UNL A   1      42.551  28.918  34.066  1.00  0.00     0.049 A 
ATOM     61  H   UNL A   1      40.856  29.900  33.363  1.00  0.00     0.167 HD
ATOM     62  C   UNL A   1      37.709  32.323  31.410  1.00  0.00     0.037 A 
ATOM     63  C   UNL A   1      42.913  29.529  35.209  1.00  0.00     0.037 A 
ATOM     64  C   UNL A   1      37.989  33.003  32.645  1.00  0.00     0.049 A 
ATOM     65  C   UNL A   1      42.132  30.727  35.680  1.00  0.00     0.074 A 
ATOM     66  C   UNL A   1      37.352  34.103  33.191  1.00  0.00     0.029 A 
ATOM     67  N   UNL A   1      38.963  32.609  33.550  1.00  0.00    -0.354 N 
ATOM     68  N   UNL A   1      41.138  31.349  35.092  1.00  0.00    -0.248 NA
ATOM     69  C   UNL A   1      42.519  31.308  36.975  1.00  0.00     0.031 C 
ATOM     70  C   UNL A   1      37.946  34.379  34.426  1.00  0.00     0.029 A 
ATOM     71  C   UNL A   1      38.932  33.434  34.659  1.00  0.00     0.049 A 
ATOM     72  H   UNL A   1      39.583  31.856  33.422  1.00  0.00     0.167 HD
ATOM     73  C   UNL A   1      40.758  32.367  35.959  1.00  0.00     0.074 A 
ATOM     74  C   UNL A   1      41.627  32.278  37.114  1.00  0.00     0.031 C 
ATOM     75  C   UNL A   1      39.780  33.293  35.813  1.00  0.00     0.037 A 
BRANCH  62  76
ATOM     76  C   UNL A   1      36.652  32.888  30.503  1.00  0.00     0.057 A 
ATOM     77  C   UNL A   1      35.286  32.659  30.715  1.00  0.00     0.134 A 
ATOM     78  C   UNL A   1      37.006  33.700  29.417  1.00  0.00     0.134 A 
ATOM     79  F   UNL A   1      34.876  31.884  31.729  1.00  0.00    -0.206 F 
ATOM     80  C   UNL A   1      34.315  33.182  29.859  1.00  0.00     0.040 A 
ATOM     81  C   UNL A   1      36.042  34.258  28.574  1.00  0.00     0.040 A 
ATOM     82  F   UNL A   1      38.296  33.972  29.159  1.00  0.00    -0.206 F 
ATOM     83  C   UNL A   1      34.692  33.990  28.789  1.00  0.00     0.006 A 
ENDBRANCH  62  76
BRANCH  63  84
ATOM     84  C   UNL A   1      44.047  29.001  36.007  1.00  0.00     0.057 A 
ATOM     85  C   UNL A   1      43.865  27.919  36.877  1.00  0.00     0.134 A 
ATOM     86  C   UNL A   1      45.330  29.552  35.921  1.00  0.00     0.134 A 
ATOM     87  F   UNL A   1      42.653  27.360  37.011  1.00  0.00    -0.206 F 
ATOM     88  C   UNL A   1      44.911  27.416  37.650  1.00  0.00     0.040 A 
ATOM     89  C   UNL A   1      46.393  29.043  36.672  1.00  0.00     0.040 A 
ATOM     90  F   UNL A   1      45.573  30.580  35.096  1.00  0.00    -0.206 F 
ATOM     91  C   UNL A   1      46.182  27.978  37.545  1.00  0.00     0.006 A 
ENDBRANCH  63  84
BRANCH  75  92
ATOM     92  C   UNL A   1      39.545  34.237  36.951  1.00  0.00     0.057 A 
ATOM     93  C   UNL A   1      38.822  33.858  38.087  1.00  0.00     0.134 A 
ATOM     94  C   UNL A   1      40.123  35.514  36.940  1.00  0.00     0.134 A 
ATOM     95  F   UNL A   1      38.240  32.652  38.152  1.00  0.00    -0.206 F 
ATOM     96  C   UNL A   1      38.675  34.722  39.173  1.00  0.00     0.040 A 
ATOM     97  C   UNL A   1      40.000  36.377  38.028  1.00  0.00     0.040 A 
ATOM     98  F   UNL A   1      40.837  35.929  35.883  1.00  0.00    -0.206 F 
ATOM     99  C   UNL A   1      39.272  35.982  39.149  1.00  0.00     0.006 A 
ENDBRANCH  75  92
ENDBRANCH  49  50
ENDBRANCH  41  44
ENDBRANCH  39  40
ENDBRANCH  38  39
ENDBRANCH   1  38
TORSDOF 16
ENDMDL
