MODEL 1
REMARK VINA RESULT:     -11.2      0.000      0.000
REMARK SMILES Cc1ccc(N2C(=O)S/C(=C/c3cccc(O[C@H](C)C(=O)NCCCNC(=O)c4ccc(-c5c6nc(c(-c7c(F)cccc7F)c7ccc([nH]7)c(-c7c(F)cccc7F)c7nc(c(-c8c(F)cccc8F)c8ccc5[nH]8)C=C7)C=C6)cc4)c3)C2=O)c(C)c1
REMARK SMILES IDX 23 1 22 2 20 3 21 4 18 6 19 7 17 8 16 9 12 10 13 11 83 12
REMARK SMILES IDX 14 13 15 14 11 15 6 16 7 17 84 18 8 19 9 20 10 21 85 22 5 23
REMARK SMILES IDX 1 24 2 25 3 26 88 27 4 28 86 29 87 30 24 31 25 32 26 33
REMARK SMILES IDX 27 34 28 36 29 37 30 38 82 39 31 40 81 41 32 42 33 43 34 44
REMARK SMILES IDX 75 45 35 46 80 47 74 48 76 49 36 50 79 51 73 52 72 53 37 55
REMARK SMILES IDX 63 56 46 57 62 58 47 59 50 60 61 61 77 62 48 63 49 64 60 66
REMARK SMILES IDX 78 67 51 68 38 69 39 70 44 71 40 72 41 73 43 74 45 75 42 76
REMARK SMILES IDX 64 77 65 78 70 79 66 80 67 81 69 82 71 83 68 84 52 85 53 86
REMARK SMILES IDX 58 87 54 88 55 89 57 90 59 91 56 92
REMARK H PARENT 22 5 26 35 76 54 50 65
REMARK Flexibility Score: inf
ROOT
ATOM      1  C   UNL A   1      34.897  31.841  28.060  1.00  0.00     0.118 C 
ENDROOT
BRANCH   1   2
ATOM      2  N   UNL A   1      33.654  32.423  27.587  1.00  0.00    -0.353 N 
ATOM      3  C   UNL A   1      33.022  33.553  28.003  1.00  0.00     0.260 C 
ATOM      4  O   UNL A   1      31.957  33.851  27.458  1.00  0.00    -0.271 OA
ATOM      5  H   UNL A   1      33.205  31.931  26.862  1.00  0.00     0.163 HD
BRANCH   3   6
ATOM      6  C   UNL A   1      33.623  34.436  29.118  1.00  0.00     0.258 C 
ATOM      7  C   UNL A   1      34.438  35.555  28.446  1.00  0.00     0.064 C 
BRANCH   6   8
ATOM      8  O   UNL A   1      32.841  35.049  30.136  1.00  0.00    -0.481 OA
BRANCH   8   9
ATOM      9  C   UNL A   1      33.347  35.341  31.367  1.00  0.00     0.121 A 
ATOM     10  C   UNL A   1      34.783  34.470  33.139  1.00  0.00    -0.021 A 
ATOM     11  C   UNL A   1      34.725  35.703  33.788  1.00  0.00     0.008 A 
ATOM     12  C   UNL A   1      34.085  34.298  31.935  1.00  0.00     0.054 A 
ATOM     13  C   UNL A   1      33.942  36.728  33.259  1.00  0.00     0.004 A 
ATOM     14  C   UNL A   1      33.228  36.535  32.071  1.00  0.00     0.046 A 
BRANCH  10  15
ATOM     15  C   UNL A   1      35.541  33.364  33.731  1.00  0.00     0.029 C 
ATOM     16  N   UNL A   1      39.073  33.318  32.801  1.00  0.00    -0.236 N 
ATOM     17  C   UNL A   1      39.154  32.094  33.425  1.00  0.00     0.298 C 
ATOM     18  C   UNL A   1      37.821  33.913  32.751  1.00  0.00     0.272 C 
ATOM     19  O   UNL A   1      40.104  31.332  33.502  1.00  0.00    -0.260 OA
ATOM     20  S   UNL A   1      37.619  31.716  34.196  1.00  0.00    -0.022 SA
ATOM     21  C   UNL A   1      36.843  33.108  33.540  1.00  0.00     0.083 C 
ATOM     22  O   UNL A   1      37.519  34.917  32.118  1.00  0.00    -0.268 OA
BRANCH  16  23
ATOM     23  C   UNL A   1      40.179  33.899  32.126  1.00  0.00     0.056 A 
ATOM     24  C   UNL A   1      43.767  35.358  30.212  1.00  0.00     0.044 C 
ATOM     25  C   UNL A   1      42.521  34.870  30.888  1.00  0.00    -0.051 A 
ATOM     26  C   UNL A   1      42.356  34.984  32.269  1.00  0.00     0.005 A 
ATOM     27  C   UNL A   1      41.491  34.311  30.125  1.00  0.00     0.009 A 
ATOM     28  C   UNL A   1      41.193  34.510  32.881  1.00  0.00     0.027 A 
ATOM     29  C   UNL A   1      40.309  33.836  30.723  1.00  0.00    -0.026 A 
ATOM     30  C   UNL A   1      39.234  33.325  29.798  1.00  0.00     0.046 C 
ENDBRANCH  16  23
ENDBRANCH  10  15
ENDBRANCH   8   9
ENDBRANCH   6   8
ENDBRANCH   3   6
ENDBRANCH   1   2
BRANCH   1  31
ATOM     31  C   UNL A   1      35.167  30.520  27.359  1.00  0.00     0.042 C 
BRANCH  31  32
ATOM     32  C   UNL A   1      35.657  29.428  28.300  1.00  0.00     0.118 C 
BRANCH  32  33
ATOM     33  N   UNL A   1      35.504  29.786  29.704  1.00  0.00    -0.352 N 
ATOM     34  C   UNL A   1      36.455  29.815  30.694  1.00  0.00     0.251 C 
ATOM     35  H   UNL A   1      34.594  30.043  29.980  1.00  0.00     0.163 HD
ATOM     36  O   UNL A   1      36.127  29.961  31.866  1.00  0.00    -0.269 OA
BRANCH  34  37
ATOM     37  C   UNL A   1      37.877  29.628  30.337  1.00  0.00     0.039 A 
ATOM     38  C   UNL A   1      38.710  28.951  31.228  1.00  0.00     0.014 A 
ATOM     39  C   UNL A   1      38.375  30.084  29.113  1.00  0.00     0.014 A 
ATOM     40  C   UNL A   1      40.026  28.668  30.861  1.00  0.00     0.010 A 
ATOM     41  C   UNL A   1      39.657  29.726  28.713  1.00  0.00     0.010 A 
ATOM     42  C   UNL A   1      40.499  29.015  29.583  1.00  0.00    -0.014 A 
BRANCH  42  43
ATOM     43  C   UNL A   1      41.865  28.641  29.142  1.00  0.00     0.031 A 
ATOM     44  C   UNL A   1      42.141  27.256  28.625  1.00  0.00     0.074 A 
ATOM     45  C   UNL A   1      42.871  29.530  29.262  1.00  0.00     0.049 A 
ATOM     46  N   UNL A   1      43.276  26.726  28.246  1.00  0.00    -0.248 NA
ATOM     47  C   UNL A   1      40.994  26.337  28.550  1.00  0.00     0.031 C 
ATOM     48  C   UNL A   1      42.742  30.889  29.793  1.00  0.00     0.029 A 
ATOM     49  N   UNL A   1      44.202  29.423  28.949  1.00  0.00    -0.354 N 
ATOM     50  C   UNL A   1      42.980  25.414  27.897  1.00  0.00     0.074 A 
ATOM     51  C   UNL A   1      41.575  25.210  28.168  1.00  0.00     0.031 C 
ATOM     52  C   UNL A   1      43.939  31.497  29.740  1.00  0.00     0.029 A 
ATOM     53  C   UNL A   1      44.927  30.560  29.214  1.00  0.00     0.049 A 
ATOM     54  H   UNL A   1      44.603  28.607  28.569  1.00  0.00     0.167 HD
ATOM     55  C   UNL A   1      43.801  24.473  27.372  1.00  0.00     0.037 A 
ATOM     56  C   UNL A   1      46.239  30.818  29.057  1.00  0.00     0.037 A 
ATOM     57  C   UNL A   1      45.196  24.684  27.088  1.00  0.00     0.049 A 
ATOM     58  C   UNL A   1      47.133  29.747  28.495  1.00  0.00     0.074 A 
ATOM     59  C   UNL A   1      46.100  23.812  26.509  1.00  0.00     0.029 A 
ATOM     60  N   UNL A   1      45.890  25.852  27.368  1.00  0.00    -0.354 N 
ATOM     61  N   UNL A   1      46.827  28.532  28.105  1.00  0.00    -0.248 NA
ATOM     62  C   UNL A   1      48.556  30.084  28.346  1.00  0.00     0.031 C 
ATOM     63  C   UNL A   1      47.353  24.431  26.485  1.00  0.00     0.029 A 
ATOM     64  C   UNL A   1      47.218  25.713  26.996  1.00  0.00     0.049 A 
ATOM     65  H   UNL A   1      45.499  26.660  27.771  1.00  0.00     0.167 HD
ATOM     66  C   UNL A   1      48.009  27.973  27.637  1.00  0.00     0.074 A 
ATOM     67  C   UNL A   1      49.034  28.986  27.779  1.00  0.00     0.031 C 
ATOM     68  C   UNL A   1      48.226  26.733  27.135  1.00  0.00     0.037 A 
BRANCH  55  69
ATOM     69  C   UNL A   1      43.206  23.128  27.069  1.00  0.00     0.057 A 
ATOM     70  C   UNL A   1      42.933  22.195  28.079  1.00  0.00     0.134 A 
ATOM     71  C   UNL A   1      42.872  22.771  25.756  1.00  0.00     0.134 A 
ATOM     72  F   UNL A   1      43.238  22.467  29.357  1.00  0.00    -0.206 F 
ATOM     73  C   UNL A   1      42.375  20.948  27.791  1.00  0.00     0.040 A 
ATOM     74  C   UNL A   1      42.287  21.540  25.459  1.00  0.00     0.040 A 
ATOM     75  F   UNL A   1      43.100  23.619  24.741  1.00  0.00    -0.206 F 
ATOM     76  C   UNL A   1      42.044  20.621  26.478  1.00  0.00     0.006 A 
ENDBRANCH  55  69
BRANCH  56  77
ATOM     77  C   UNL A   1      46.786  32.151  29.417  1.00  0.00     0.057 A 
ATOM     78  C   UNL A   1      46.792  33.201  28.491  1.00  0.00     0.134 A 
ATOM     79  C   UNL A   1      47.328  32.404  30.683  1.00  0.00     0.134 A 
ATOM     80  F   UNL A   1      46.305  33.017  27.256  1.00  0.00    -0.206 F 
ATOM     81  C   UNL A   1      47.338  34.448  28.804  1.00  0.00     0.040 A 
ATOM     82  C   UNL A   1      47.851  33.654  31.018  1.00  0.00     0.040 A 
ATOM     83  F   UNL A   1      47.344  31.442  31.617  1.00  0.00    -0.206 F 
ATOM     84  C   UNL A   1      47.865  34.678  30.074  1.00  0.00     0.006 A 
ENDBRANCH  56  77
BRANCH  68  85
ATOM     85  C   UNL A   1      49.616  26.415  26.665  1.00  0.00     0.057 A 
ATOM     86  C   UNL A   1      50.565  25.819  27.503  1.00  0.00     0.134 A 
ATOM     87  C   UNL A   1      49.995  26.674  25.341  1.00  0.00     0.134 A 
ATOM     88  F   UNL A   1      50.271  25.556  28.785  1.00  0.00    -0.206 F 
ATOM     89  C   UNL A   1      51.851  25.514  27.049  1.00  0.00     0.040 A 
ATOM     90  C   UNL A   1      51.265  26.347  24.866  1.00  0.00     0.040 A 
ATOM     91  F   UNL A   1      49.129  27.234  24.481  1.00  0.00    -0.206 F 
ATOM     92  C   UNL A   1      52.200  25.771  25.724  1.00  0.00     0.006 A 
ENDBRANCH  68  85
ENDBRANCH  42  43
ENDBRANCH  34  37
ENDBRANCH  32  33
ENDBRANCH  31  32
ENDBRANCH   1  31
TORSDOF 14
ENDMDL
MODEL 2
REMARK VINA RESULT:     -11.1      5.126     12.787
REMARK SMILES Cc1ccc(N2C(=O)S/C(=C/c3cccc(O[C@H](C)C(=O)NCCCNC(=O)c4ccc(-c5c6nc(c(-c7c(F)cccc7F)c7ccc([nH]7)c(-c7c(F)cccc7F)c7nc(c(-c8c(F)cccc8F)c8ccc5[nH]8)C=C7)C=C6)cc4)c3)C2=O)c(C)c1
REMARK SMILES IDX 23 1 22 2 20 3 21 4 18 6 19 7 17 8 16 9 12 10 13 11 83 12
REMARK SMILES IDX 14 13 15 14 11 15 6 16 7 17 84 18 8 19 9 20 10 21 85 22 5 23
REMARK SMILES IDX 1 24 2 25 3 26 88 27 4 28 86 29 87 30 24 31 25 32 26 33
REMARK SMILES IDX 27 34 28 36 29 37 30 38 82 39 31 40 81 41 32 42 33 43 34 44
REMARK SMILES IDX 75 45 35 46 80 47 74 48 76 49 36 50 79 51 73 52 72 53 37 55
REMARK SMILES IDX 63 56 46 57 62 58 47 59 50 60 61 61 77 62 48 63 49 64 60 66
REMARK SMILES IDX 78 67 51 68 38 69 39 70 44 71 40 72 41 73 43 74 45 75 42 76
REMARK SMILES IDX 64 77 65 78 70 79 66 80 67 81 69 82 71 83 68 84 52 85 53 86
REMARK SMILES IDX 58 87 54 88 55 89 57 90 59 91 56 92
REMARK H PARENT 22 5 26 35 76 54 50 65
REMARK Flexibility Score: inf
ROOT
ATOM      1  C   UNL A   1      41.250  21.508  28.262  1.00  0.00     0.118 C 
ENDROOT
BRANCH   1   2
ATOM      2  N   UNL A   1      40.460  20.742  27.315  1.00  0.00    -0.353 N 
ATOM      3  C   UNL A   1      40.874  19.858  26.368  1.00  0.00     0.260 C 
ATOM      4  O   UNL A   1      40.015  19.328  25.660  1.00  0.00    -0.271 OA
ATOM      5  H   UNL A   1      39.486  20.883  27.363  1.00  0.00     0.163 HD
BRANCH   3   6
ATOM      6  C   UNL A   1      42.371  19.523  26.193  1.00  0.00     0.258 C 
ATOM      7  C   UNL A   1      42.637  18.176  26.887  1.00  0.00     0.064 C 
BRANCH   6   8
ATOM      8  O   UNL A   1      43.016  19.470  24.927  1.00  0.00    -0.481 OA
BRANCH   8   9
ATOM      9  C   UNL A   1      44.283  19.936  24.734  1.00  0.00     0.121 A 
ATOM     10  C   UNL A   1      45.594  21.986  24.538  1.00  0.00    -0.021 A 
ATOM     11  C   UNL A   1      46.768  21.235  24.571  1.00  0.00     0.008 A 
ATOM     12  C   UNL A   1      44.359  21.327  24.612  1.00  0.00     0.054 A 
ATOM     13  C   UNL A   1      46.699  19.843  24.632  1.00  0.00     0.004 A 
ATOM     14  C   UNL A   1      45.459  19.196  24.679  1.00  0.00     0.046 A 
BRANCH  10  15
ATOM     15  C   UNL A   1      45.659  23.443  24.394  1.00  0.00     0.029 C 
ATOM     16  N   UNL A   1      45.444  25.258  27.556  1.00  0.00    -0.236 N 
ATOM     17  C   UNL A   1      45.362  26.413  26.813  1.00  0.00     0.298 C 
ATOM     18  C   UNL A   1      45.494  24.064  26.853  1.00  0.00     0.272 C 
ATOM     19  O   UNL A   1      45.200  27.562  27.192  1.00  0.00    -0.260 OA
ATOM     20  S   UNL A   1      45.564  26.038  25.107  1.00  0.00    -0.022 SA
ATOM     21  C   UNL A   1      45.586  24.338  25.390  1.00  0.00     0.083 C 
ATOM     22  O   UNL A   1      45.419  22.937  27.328  1.00  0.00    -0.268 OA
BRANCH  16  23
ATOM     23  C   UNL A   1      45.356  25.262  28.974  1.00  0.00     0.056 A 
ATOM     24  C   UNL A   1      45.081  24.871  33.268  1.00  0.00     0.044 C 
ATOM     25  C   UNL A   1      45.157  25.017  31.778  1.00  0.00    -0.051 A 
ATOM     26  C   UNL A   1      44.047  24.770  30.970  1.00  0.00     0.005 A 
ATOM     27  C   UNL A   1      46.353  25.431  31.181  1.00  0.00     0.009 A 
ATOM     28  C   UNL A   1      44.143  24.899  29.582  1.00  0.00     0.027 A 
ATOM     29  C   UNL A   1      46.466  25.574  29.786  1.00  0.00    -0.026 A 
ATOM     30  C   UNL A   1      47.776  26.100  29.258  1.00  0.00     0.046 C 
ENDBRANCH  16  23
ENDBRANCH  10  15
ENDBRANCH   8   9
ENDBRANCH   6   8
ENDBRANCH   3   6
ENDBRANCH   1   2
BRANCH   1  31
ATOM     31  C   UNL A   1      41.999  22.624  27.553  1.00  0.00     0.042 C 
BRANCH  31  32
ATOM     32  C   UNL A   1      41.078  23.646  26.899  1.00  0.00     0.118 C 
BRANCH  32  33
ATOM     33  N   UNL A   1      41.729  24.380  25.823  1.00  0.00    -0.352 N 
ATOM     34  C   UNL A   1      41.862  25.738  25.665  1.00  0.00     0.251 C 
ATOM     35  H   UNL A   1      42.131  23.828  25.113  1.00  0.00     0.163 HD
ATOM     36  O   UNL A   1      42.277  26.203  24.609  1.00  0.00    -0.269 OA
BRANCH  34  37
ATOM     37  C   UNL A   1      41.460  26.638  26.766  1.00  0.00     0.039 A 
ATOM     38  C   UNL A   1      40.662  26.130  27.792  1.00  0.00     0.014 A 
ATOM     39  C   UNL A   1      41.899  27.965  26.804  1.00  0.00     0.014 A 
ATOM     40  C   UNL A   1      40.364  26.933  28.894  1.00  0.00     0.010 A 
ATOM     41  C   UNL A   1      41.676  28.733  27.942  1.00  0.00     0.010 A 
ATOM     42  C   UNL A   1      40.904  28.226  28.999  1.00  0.00    -0.014 A 
BRANCH  42  43
ATOM     43  C   UNL A   1      40.674  29.060  30.205  1.00  0.00     0.031 A 
ATOM     44  C   UNL A   1      39.571  30.082  30.219  1.00  0.00     0.074 A 
ATOM     45  C   UNL A   1      41.495  28.936  31.266  1.00  0.00     0.049 A 
ATOM     46  N   UNL A   1      39.250  30.939  31.155  1.00  0.00    -0.248 NA
ATOM     47  C   UNL A   1      38.735  30.172  29.011  1.00  0.00     0.031 C 
ATOM     48  C   UNL A   1      42.630  28.016  31.358  1.00  0.00     0.029 A 
ATOM     49  N   UNL A   1      41.504  29.593  32.472  1.00  0.00    -0.354 N 
ATOM     50  C   UNL A   1      38.186  31.672  30.646  1.00  0.00     0.074 A 
ATOM     51  C   UNL A   1      37.956  31.203  29.297  1.00  0.00     0.031 C 
ATOM     52  C   UNL A   1      43.205  28.144  32.565  1.00  0.00     0.029 A 
ATOM     53  C   UNL A   1      42.510  29.185  33.315  1.00  0.00     0.049 A 
ATOM     54  H   UNL A   1      40.852  30.290  32.710  1.00  0.00     0.167 HD
ATOM     55  C   UNL A   1      37.449  32.630  31.256  1.00  0.00     0.037 A 
ATOM     56  C   UNL A   1      42.838  29.607  34.551  1.00  0.00     0.037 A 
ATOM     57  C   UNL A   1      37.670  33.083  32.605  1.00  0.00     0.049 A 
ATOM     58  C   UNL A   1      42.019  30.690  35.198  1.00  0.00     0.074 A 
ATOM     59  C   UNL A   1      36.947  34.011  33.332  1.00  0.00     0.029 A 
ATOM     60  N   UNL A   1      38.697  32.642  33.427  1.00  0.00    -0.354 N 
ATOM     61  N   UNL A   1      40.971  31.326  34.730  1.00  0.00    -0.248 NA
ATOM     62  C   UNL A   1      42.424  31.110  36.546  1.00  0.00     0.031 C 
ATOM     63  C   UNL A   1      37.565  34.172  34.575  1.00  0.00     0.029 A 
ATOM     64  C   UNL A   1      38.641  33.299  34.646  1.00  0.00     0.049 A 
ATOM     65  H   UNL A   1      39.366  31.964  33.182  1.00  0.00     0.167 HD
ATOM     66  C   UNL A   1      40.575  32.197  35.737  1.00  0.00     0.074 A 
ATOM     67  C   UNL A   1      41.486  31.996  36.845  1.00  0.00     0.031 C 
ATOM     68  C   UNL A   1      39.549  33.083  35.743  1.00  0.00     0.037 A 
BRANCH  55  69
ATOM     69  C   UNL A   1      36.331  33.250  30.469  1.00  0.00     0.057 A 
ATOM     70  C   UNL A   1      36.572  34.181  29.449  1.00  0.00     0.134 A 
ATOM     71  C   UNL A   1      34.999  32.890  30.710  1.00  0.00     0.134 A 
ATOM     72  F   UNL A   1      37.824  34.580  29.174  1.00  0.00    -0.206 F 
ATOM     73  C   UNL A   1      35.529  34.751  28.717  1.00  0.00     0.040 A 
ATOM     74  C   UNL A   1      33.950  33.430  29.964  1.00  0.00     0.040 A 
ATOM     75  F   UNL A   1      34.696  32.000  31.666  1.00  0.00    -0.206 F 
ATOM     76  C   UNL A   1      34.213  34.370  28.969  1.00  0.00     0.006 A 
ENDBRANCH  55  69
BRANCH  56  77
ATOM     77  C   UNL A   1      43.984  28.992  35.269  1.00  0.00     0.057 A 
ATOM     78  C   UNL A   1      43.809  27.851  36.062  1.00  0.00     0.134 A 
ATOM     79  C   UNL A   1      45.273  29.533  35.195  1.00  0.00     0.134 A 
ATOM     80  F   UNL A   1      42.595  27.296  36.190  1.00  0.00    -0.206 F 
ATOM     81  C   UNL A   1      44.869  27.285  36.773  1.00  0.00     0.040 A 
ATOM     82  C   UNL A   1      46.347  28.961  35.877  1.00  0.00     0.040 A 
ATOM     83  F   UNL A   1      45.508  30.621  34.445  1.00  0.00    -0.206 F 
ATOM     84  C   UNL A   1      46.145  27.839  36.677  1.00  0.00     0.006 A 
ENDBRANCH  56  77
BRANCH  68  85
ATOM     85  C   UNL A   1      39.331  33.874  37.000  1.00  0.00     0.057 A 
ATOM     86  C   UNL A   1      38.632  33.353  38.095  1.00  0.00     0.134 A 
ATOM     87  C   UNL A   1      39.866  35.164  37.130  1.00  0.00     0.134 A 
ATOM     88  F   UNL A   1      38.084  32.130  38.032  1.00  0.00    -0.206 F 
ATOM     89  C   UNL A   1      38.448  34.095  39.264  1.00  0.00     0.040 A 
ATOM     90  C   UNL A   1      39.716  35.903  38.303  1.00  0.00     0.040 A 
ATOM     91  F   UNL A   1      40.556  35.719  36.122  1.00  0.00    -0.206 F 
ATOM     92  C   UNL A   1      38.999  35.371  39.373  1.00  0.00     0.006 A 
ENDBRANCH  68  85
ENDBRANCH  42  43
ENDBRANCH  34  37
ENDBRANCH  32  33
ENDBRANCH  31  32
ENDBRANCH   1  31
TORSDOF 14
ENDMDL
MODEL 3
REMARK VINA RESULT:     -11.1      4.615     12.115
REMARK SMILES Cc1ccc(N2C(=O)S/C(=C/c3cccc(O[C@H](C)C(=O)NCCCNC(=O)c4ccc(-c5c6nc(c(-c7c(F)cccc7F)c7ccc([nH]7)c(-c7c(F)cccc7F)c7nc(c(-c8c(F)cccc8F)c8ccc5[nH]8)C=C7)C=C6)cc4)c3)C2=O)c(C)c1
REMARK SMILES IDX 23 1 22 2 20 3 21 4 18 6 19 7 17 8 16 9 12 10 13 11 83 12
REMARK SMILES IDX 14 13 15 14 11 15 6 16 7 17 84 18 8 19 9 20 10 21 85 22 5 23
REMARK SMILES IDX 1 24 2 25 3 26 88 27 4 28 86 29 87 30 24 31 25 32 26 33
REMARK SMILES IDX 27 34 28 36 29 37 30 38 82 39 31 40 81 41 32 42 33 43 34 44
REMARK SMILES IDX 75 45 35 46 80 47 74 48 76 49 36 50 79 51 73 52 72 53 37 55
REMARK SMILES IDX 63 56 46 57 62 58 47 59 50 60 61 61 77 62 48 63 49 64 60 66
REMARK SMILES IDX 78 67 51 68 38 69 39 70 44 71 40 72 41 73 43 74 45 75 42 76
REMARK SMILES IDX 64 77 65 78 70 79 66 80 67 81 69 82 71 83 68 84 52 85 53 86
REMARK SMILES IDX 58 87 54 88 55 89 57 90 59 91 56 92
REMARK H PARENT 22 5 26 35 76 54 50 65
REMARK Flexibility Score: inf
ROOT
ATOM      1  C   UNL A   1      42.057  21.419  28.061  1.00  0.00     0.118 C 
ENDROOT
BRANCH   1   2
ATOM      2  N   UNL A   1      41.076  20.700  27.269  1.00  0.00    -0.353 N 
ATOM      3  C   UNL A   1      41.263  19.679  26.391  1.00  0.00     0.260 C 
ATOM      4  O   UNL A   1      40.270  19.225  25.817  1.00  0.00    -0.271 OA
ATOM      5  H   UNL A   1      40.142  20.994  27.383  1.00  0.00     0.163 HD
BRANCH   3   6
ATOM      6  C   UNL A   1      42.671  19.102  26.128  1.00  0.00     0.258 C 
ATOM      7  C   UNL A   1      42.670  17.632  26.584  1.00  0.00     0.064 C 
BRANCH   6   8
ATOM      8  O   UNL A   1      43.306  19.141  24.858  1.00  0.00    -0.481 OA
BRANCH   8   9
ATOM      9  C   UNL A   1      44.429  19.879  24.626  1.00  0.00     0.121 A 
ATOM     10  C   UNL A   1      45.255  22.171  24.475  1.00  0.00    -0.021 A 
ATOM     11  C   UNL A   1      46.563  21.692  24.407  1.00  0.00     0.008 A 
ATOM     12  C   UNL A   1      44.197  21.256  24.576  1.00  0.00     0.054 A 
ATOM     13  C   UNL A   1      46.798  20.317  24.396  1.00  0.00     0.004 A 
ATOM     14  C   UNL A   1      45.731  19.414  24.470  1.00  0.00     0.046 A 
BRANCH  10  15
ATOM     15  C   UNL A   1      44.997  23.612  24.407  1.00  0.00     0.029 C 
ATOM     16  N   UNL A   1      44.926  25.261  27.665  1.00  0.00    -0.236 N 
ATOM     17  C   UNL A   1      44.491  26.391  27.011  1.00  0.00     0.298 C 
ATOM     18  C   UNL A   1      45.105  24.122  26.895  1.00  0.00     0.272 C 
ATOM     19  O   UNL A   1      44.160  27.470  27.476  1.00  0.00    -0.260 OA
ATOM     20  S   UNL A   1      44.489  26.110  25.275  1.00  0.00    -0.022 SA
ATOM     21  C   UNL A   1      44.904  24.446  25.453  1.00  0.00     0.083 C 
ATOM     22  O   UNL A   1      45.339  22.994  27.310  1.00  0.00    -0.268 OA
BRANCH  16  23
ATOM     23  C   UNL A   1      45.066  25.211  29.078  1.00  0.00     0.056 A 
ATOM     24  C   UNL A   1      45.562  24.663  33.335  1.00  0.00     0.044 C 
ATOM     25  C   UNL A   1      45.370  24.860  31.860  1.00  0.00    -0.051 A 
ATOM     26  C   UNL A   1      44.211  24.423  31.219  1.00  0.00     0.005 A 
ATOM     27  C   UNL A   1      46.355  25.513  31.113  1.00  0.00     0.009 A 
ATOM     28  C   UNL A   1      44.057  24.604  29.842  1.00  0.00     0.027 A 
ATOM     29  C   UNL A   1      46.214  25.711  29.727  1.00  0.00    -0.026 A 
ATOM     30  C   UNL A   1      47.300  26.496  29.036  1.00  0.00     0.046 C 
ENDBRANCH  16  23
ENDBRANCH  10  15
ENDBRANCH   8   9
ENDBRANCH   6   8
ENDBRANCH   3   6
ENDBRANCH   1   2
BRANCH   1  31
ATOM     31  C   UNL A   1      41.638  22.869  28.242  1.00  0.00     0.042 C 
BRANCH  31  32
ATOM     32  C   UNL A   1      41.598  23.652  26.936  1.00  0.00     0.118 C 
BRANCH  32  33
ATOM     33  N   UNL A   1      40.280  23.644  26.317  1.00  0.00    -0.352 N 
ATOM     34  C   UNL A   1      39.210  24.470  26.559  1.00  0.00     0.251 C 
ATOM     35  H   UNL A   1      40.137  22.953  25.629  1.00  0.00     0.163 HD
ATOM     36  O   UNL A   1      38.108  24.215  26.084  1.00  0.00    -0.269 OA
BRANCH  34  37
ATOM     37  C   UNL A   1      39.389  25.649  27.433  1.00  0.00     0.039 A 
ATOM     38  C   UNL A   1      38.982  25.566  28.765  1.00  0.00     0.014 A 
ATOM     39  C   UNL A   1      39.989  26.815  26.949  1.00  0.00     0.014 A 
ATOM     40  C   UNL A   1      39.243  26.628  29.632  1.00  0.00     0.010 A 
ATOM     41  C   UNL A   1      40.327  27.834  27.832  1.00  0.00     0.010 A 
ATOM     42  C   UNL A   1      39.955  27.753  29.183  1.00  0.00    -0.014 A 
BRANCH  42  43
ATOM     43  C   UNL A   1      40.322  28.850  30.113  1.00  0.00     0.031 A 
ATOM     44  C   UNL A   1      41.704  28.911  30.704  1.00  0.00     0.074 A 
ATOM     45  C   UNL A   1      39.393  29.759  30.471  1.00  0.00     0.049 A 
ATOM     46  N   UNL A   1      42.193  29.757  31.574  1.00  0.00    -0.248 NA
ATOM     47  C   UNL A   1      42.651  27.867  30.283  1.00  0.00     0.031 C 
ATOM     48  C   UNL A   1      38.005  29.780  30.005  1.00  0.00     0.029 A 
ATOM     49  N   UNL A   1      39.475  30.838  31.315  1.00  0.00    -0.354 N 
ATOM     50  C   UNL A   1      43.498  29.342  31.809  1.00  0.00     0.074 A 
ATOM     51  C   UNL A   1      43.704  28.136  31.039  1.00  0.00     0.031 C 
ATOM     52  C   UNL A   1      37.376  30.837  30.545  1.00  0.00     0.029 A 
ATOM     53  C   UNL A   1      38.300  31.542  31.428  1.00  0.00     0.049 A 
ATOM     54  H   UNL A   1      40.298  31.085  31.795  1.00  0.00     0.167 HD
ATOM     55  C   UNL A   1      44.449  29.930  32.575  1.00  0.00     0.037 A 
ATOM     56  C   UNL A   1      38.000  32.628  32.164  1.00  0.00     0.037 A 
ATOM     57  C   UNL A   1      44.246  31.140  33.327  1.00  0.00     0.049 A 
ATOM     58  C   UNL A   1      39.066  33.248  33.025  1.00  0.00     0.074 A 
ATOM     59  C   UNL A   1      45.159  31.843  34.092  1.00  0.00     0.029 A 
ATOM     60  N   UNL A   1      43.042  31.825  33.411  1.00  0.00    -0.354 N 
ATOM     61  N   UNL A   1      40.317  32.885  33.184  1.00  0.00    -0.248 NA
ATOM     62  C   UNL A   1      38.681  34.431  33.807  1.00  0.00     0.031 C 
ATOM     63  C   UNL A   1      44.497  32.924  34.682  1.00  0.00     0.029 A 
ATOM     64  C   UNL A   1      43.184  32.929  34.237  1.00  0.00     0.049 A 
ATOM     65  H   UNL A   1      42.211  31.566  32.953  1.00  0.00     0.167 HD
ATOM     66  C   UNL A   1      40.874  33.811  34.056  1.00  0.00     0.074 A 
ATOM     67  C   UNL A   1      39.829  34.760  34.380  1.00  0.00     0.031 C 
ATOM     68  C   UNL A   1      42.137  33.870  34.544  1.00  0.00     0.037 A 
BRANCH  55  69
ATOM     69  C   UNL A   1      45.796  29.269  32.633  1.00  0.00     0.057 A 
ATOM     70  C   UNL A   1      46.137  28.375  33.657  1.00  0.00     0.134 A 
ATOM     71  C   UNL A   1      46.754  29.505  31.638  1.00  0.00     0.134 A 
ATOM     72  F   UNL A   1      45.272  28.113  34.648  1.00  0.00    -0.206 F 
ATOM     73  C   UNL A   1      47.390  27.761  33.703  1.00  0.00     0.040 A 
ATOM     74  C   UNL A   1      47.998  28.874  31.658  1.00  0.00     0.040 A 
ATOM     75  F   UNL A   1      46.491  30.345  30.625  1.00  0.00    -0.206 F 
ATOM     76  C   UNL A   1      48.322  28.004  32.697  1.00  0.00     0.006 A 
ENDBRANCH  55  69
BRANCH  56  77
ATOM     77  C   UNL A   1      36.637  33.216  32.105  1.00  0.00     0.057 A 
ATOM     78  C   UNL A   1      35.725  33.028  33.151  1.00  0.00     0.134 A 
ATOM     79  C   UNL A   1      36.207  33.963  31.002  1.00  0.00     0.134 A 
ATOM     80  F   UNL A   1      36.070  32.305  34.227  1.00  0.00    -0.206 F 
ATOM     81  C   UNL A   1      34.429  33.543  33.092  1.00  0.00     0.040 A 
ATOM     82  C   UNL A   1      34.923  34.507  30.943  1.00  0.00     0.040 A 
ATOM     83  F   UNL A   1      37.035  34.187  29.971  1.00  0.00    -0.206 F 
ATOM     84  C   UNL A   1      34.027  34.290  31.986  1.00  0.00     0.006 A 
ENDBRANCH  56  77
BRANCH  68  85
ATOM     85  C   UNL A   1      42.472  35.020  35.449  1.00  0.00     0.057 A 
ATOM     86  C   UNL A   1      42.344  34.932  36.840  1.00  0.00     0.134 A 
ATOM     87  C   UNL A   1      42.966  36.220  34.921  1.00  0.00     0.134 A 
ATOM     88  F   UNL A   1      41.865  33.817  37.410  1.00  0.00    -0.206 F 
ATOM     89  C   UNL A   1      42.672  36.005  37.673  1.00  0.00     0.040 A 
ATOM     90  C   UNL A   1      43.326  37.288  35.742  1.00  0.00     0.040 A 
ATOM     91  F   UNL A   1      43.123  36.368  33.596  1.00  0.00    -0.206 F 
ATOM     92  C   UNL A   1      43.173  37.184  37.124  1.00  0.00     0.006 A 
ENDBRANCH  68  85
ENDBRANCH  42  43
ENDBRANCH  34  37
ENDBRANCH  32  33
ENDBRANCH  31  32
ENDBRANCH   1  31
TORSDOF 14
ENDMDL
