MODEL 1
REMARK VINA RESULT:     -12.5      0.000      0.000
REMARK SMILES COC(=O)c1ccc2c(c1)=N[C@H](c1cn(CCC(=O)NCCCNC(=O)c3ccc(-c4c5nc(c(-c6c(F)cccc6F)c6ccc([nH]6)c(-c6c(F)cccc6F)c6nc(c(-c7c(F)cccc7F)c7ccc4[nH]7)C=C6)C=C5)cc3)c3ccccc13)N=2
REMARK SMILES IDX 18 1 19 2 20 3 17 5 16 6 15 7 13 8 14 9 86 10 81 11 85 12
REMARK SMILES IDX 82 13 84 14 83 15 12 16 5 17 6 18 10 19 7 20 9 21 8 22 11 23
REMARK SMILES IDX 87 24 3 25 4 26 2 27 1 28 21 29 22 30 23 31 24 32 25 33
REMARK SMILES IDX 26 35 27 36 28 37 80 38 29 39 79 40 30 41 31 42 32 43 73 44
REMARK SMILES IDX 33 45 78 46 72 47 74 48 34 49 77 50 71 51 70 52 35 54 61 55
REMARK SMILES IDX 44 56 60 57 45 58 48 59 59 60 75 61 46 62 47 63 58 65 76 66
REMARK SMILES IDX 49 67 36 68 37 69 42 70 38 71 39 72 41 73 43 74 40 75 62 76
REMARK SMILES IDX 63 77 68 78 64 79 65 80 67 81 69 82 66 83 50 84 51 85 56 86
REMARK SMILES IDX 52 87 53 88 55 89 57 90 54 91
REMARK H PARENT 20 4 24 34 74 53 48 64
REMARK Flexibility Score: inf
ROOT
ATOM      1  C   UNL A   1      34.315  19.371  24.916  1.00  0.00     0.221 C 
ATOM      2  O   UNL A   1      34.191  18.477  24.072  1.00  0.00    -0.275 OA
ATOM      3  N   UNL A   1      35.533  19.982  24.988  1.00  0.00    -0.356 N 
ATOM      4  H   UNL A   1      36.209  19.559  24.410  1.00  0.00     0.163 HD
ENDROOT
BRANCH   1   5
ATOM      5  C   UNL A   1      33.122  19.786  25.755  1.00  0.00     0.122 C 
BRANCH   5   6
ATOM      6  C   UNL A   1      32.197  20.789  25.015  1.00  0.00     0.132 C 
BRANCH   6   7
ATOM      7  N   UNL A   1      32.097  22.111  25.656  1.00  0.00    -0.347 N 
ATOM      8  C   UNL A   1      31.181  23.958  24.873  1.00  0.00     0.024 A 
ATOM      9  C   UNL A   1      30.906  22.792  25.596  1.00  0.00     0.094 A 
ATOM     10  C   UNL A   1      32.543  23.778  24.398  1.00  0.00     0.007 A 
ATOM     11  C   UNL A   1      33.043  23.107  25.514  1.00  0.00     0.048 A 
ATOM     12  C   UNL A   1      33.521  24.512  23.712  1.00  0.00     0.011 A 
ATOM     13  C   UNL A   1      33.946  23.793  26.349  1.00  0.00     0.027 A 
ATOM     14  C   UNL A   1      34.575  25.089  24.411  1.00  0.00     0.001 A 
ATOM     15  C   UNL A   1      34.673  24.850  25.770  1.00  0.00     0.002 A 
BRANCH   8  16
ATOM     16  C   UNL A   1      30.216  25.105  24.896  1.00  0.00     0.255 C 
ATOM     17  C   UNL A   1      31.741  29.154  26.115  1.00  0.00     0.062 A 
ATOM     18  C   UNL A   1      31.181  29.475  24.811  1.00  0.00     0.018 A 
ATOM     19  C   UNL A   1      31.513  27.962  26.696  1.00  0.00     0.046 A 
ATOM     20  C   UNL A   1      30.611  28.563  24.014  1.00  0.00     0.031 A 
ATOM     21  C   UNL A   1      30.855  26.931  25.885  1.00  0.00     0.087 A 
ATOM     22  C   UNL A   1      30.603  27.174  24.456  1.00  0.00     0.086 A 
ATOM     23  N   UNL A   1      30.454  25.762  26.226  1.00  0.00    -0.252 NA
ATOM     24  N   UNL A   1      30.341  26.097  23.801  1.00  0.00    -0.252 NA
BRANCH  17  25
ATOM     25  C   UNL A   1      32.500  30.167  26.898  1.00  0.00     0.337 C 
ATOM     26  O   UNL A   1      32.225  31.369  26.923  1.00  0.00    -0.246 OA
BRANCH  25  27
ATOM     27  O   UNL A   1      33.506  29.577  27.587  1.00  0.00    -0.465 OA
ATOM     28  C   UNL A   1      34.739  29.419  26.878  1.00  0.00     0.282 C 
ENDBRANCH  25  27
ENDBRANCH  17  25
ENDBRANCH   8  16
ENDBRANCH   6   7
ENDBRANCH   5   6
ENDBRANCH   1   5
BRANCH   3  29
ATOM     29  C   UNL A   1      36.058  21.126  25.736  1.00  0.00     0.117 C 
BRANCH  29  30
ATOM     30  C   UNL A   1      37.006  22.091  24.973  1.00  0.00     0.042 C 
BRANCH  30  31
ATOM     31  C   UNL A   1      37.785  23.132  25.784  1.00  0.00     0.118 C 
BRANCH  31  32
ATOM     32  N   UNL A   1      39.221  22.998  25.868  1.00  0.00    -0.352 N 
ATOM     33  C   UNL A   1      40.160  23.639  26.639  1.00  0.00     0.251 C 
ATOM     34  H   UNL A   1      39.597  22.320  25.260  1.00  0.00     0.163 HD
ATOM     35  O   UNL A   1      41.266  23.110  26.756  1.00  0.00    -0.269 OA
BRANCH  33  36
ATOM     36  C   UNL A   1      39.970  24.993  27.212  1.00  0.00     0.039 A 
ATOM     37  C   UNL A   1      40.367  26.195  26.633  1.00  0.00     0.014 A 
ATOM     38  C   UNL A   1      39.293  25.030  28.440  1.00  0.00     0.014 A 
ATOM     39  C   UNL A   1      40.269  27.376  27.372  1.00  0.00     0.010 A 
ATOM     40  C   UNL A   1      39.194  26.210  29.169  1.00  0.00     0.010 A 
ATOM     41  C   UNL A   1      39.806  27.366  28.696  1.00  0.00    -0.014 A 
BRANCH  41  42
ATOM     42  C   UNL A   1      39.975  28.547  29.574  1.00  0.00     0.031 A 
ATOM     43  C   UNL A   1      38.797  29.451  29.725  1.00  0.00     0.074 A 
ATOM     44  C   UNL A   1      41.119  28.762  30.280  1.00  0.00     0.049 A 
ATOM     45  N   UNL A   1      38.795  30.747  29.696  1.00  0.00    -0.248 NA
ATOM     46  C   UNL A   1      37.455  28.864  29.869  1.00  0.00     0.031 C 
ATOM     47  C   UNL A   1      42.271  27.849  30.350  1.00  0.00     0.029 A 
ATOM     48  N   UNL A   1      41.482  29.748  31.174  1.00  0.00    -0.354 N 
ATOM     49  C   UNL A   1      37.496  31.142  30.012  1.00  0.00     0.074 A 
ATOM     50  C   UNL A   1      36.690  29.950  29.999  1.00  0.00     0.031 C 
ATOM     51  C   UNL A   1      43.030  28.153  31.423  1.00  0.00     0.029 A 
ATOM     52  C   UNL A   1      42.524  29.371  32.025  1.00  0.00     0.049 A 
ATOM     53  H   UNL A   1      41.048  30.631  31.209  1.00  0.00     0.167 HD
ATOM     54  C   UNL A   1      37.234  32.392  30.479  1.00  0.00     0.037 A 
ATOM     55  C   UNL A   1      42.952  29.962  33.169  1.00  0.00     0.037 A 
ATOM     56  C   UNL A   1      38.291  33.322  30.199  1.00  0.00     0.049 A 
ATOM     57  C   UNL A   1      42.534  31.373  33.173  1.00  0.00     0.074 A 
ATOM     58  C   UNL A   1      38.561  34.295  29.266  1.00  0.00     0.029 A 
ATOM     59  N   UNL A   1      39.428  33.148  30.931  1.00  0.00    -0.354 N 
ATOM     60  N   UNL A   1      43.040  32.275  32.382  1.00  0.00    -0.248 NA
ATOM     61  C   UNL A   1      41.326  31.761  33.895  1.00  0.00     0.031 C 
ATOM     62  C   UNL A   1      39.938  34.617  29.381  1.00  0.00     0.029 A 
ATOM     63  C   UNL A   1      40.455  33.922  30.460  1.00  0.00     0.049 A 
ATOM     64  H   UNL A   1      39.501  32.541  31.702  1.00  0.00     0.167 HD
ATOM     65  C   UNL A   1      41.995  33.143  32.180  1.00  0.00     0.074 A 
ATOM     66  C   UNL A   1      41.045  32.898  33.256  1.00  0.00     0.031 C 
ATOM     67  C   UNL A   1      41.783  33.700  30.959  1.00  0.00     0.037 A 
BRANCH  54  68
ATOM     68  C   UNL A   1      36.222  32.701  31.555  1.00  0.00     0.057 A 
ATOM     69  C   UNL A   1      36.500  32.560  32.929  1.00  0.00     0.134 A 
ATOM     70  C   UNL A   1      35.089  33.478  31.248  1.00  0.00     0.134 A 
ATOM     71  F   UNL A   1      37.586  31.914  33.370  1.00  0.00    -0.206 F 
ATOM     72  C   UNL A   1      35.730  33.171  33.923  1.00  0.00     0.040 A 
ATOM     73  C   UNL A   1      34.338  34.131  32.233  1.00  0.00     0.040 A 
ATOM     74  F   UNL A   1      34.716  33.682  29.975  1.00  0.00    -0.206 F 
ATOM     75  C   UNL A   1      34.665  33.988  33.576  1.00  0.00     0.006 A 
ENDBRANCH  54  68
BRANCH  55  76
ATOM     76  C   UNL A   1      43.536  29.344  34.385  1.00  0.00     0.057 A 
ATOM     77  C   UNL A   1      42.758  28.533  35.227  1.00  0.00     0.134 A 
ATOM     78  C   UNL A   1      44.768  29.770  34.907  1.00  0.00     0.134 A 
ATOM     79  F   UNL A   1      41.534  28.131  34.859  1.00  0.00    -0.206 F 
ATOM     80  C   UNL A   1      43.166  28.186  36.519  1.00  0.00     0.040 A 
ATOM     81  C   UNL A   1      45.185  29.437  36.203  1.00  0.00     0.040 A 
ATOM     82  F   UNL A   1      45.567  30.581  34.199  1.00  0.00    -0.206 F 
ATOM     83  C   UNL A   1      44.376  28.653  37.019  1.00  0.00     0.006 A 
ENDBRANCH  55  76
BRANCH  67  84
ATOM     84  C   UNL A   1      42.942  33.918  30.049  1.00  0.00     0.057 A 
ATOM     85  C   UNL A   1      43.546  35.181  30.052  1.00  0.00     0.134 A 
ATOM     86  C   UNL A   1      43.408  32.984  29.115  1.00  0.00     0.134 A 
ATOM     87  F   UNL A   1      43.122  36.129  30.903  1.00  0.00    -0.206 F 
ATOM     88  C   UNL A   1      44.558  35.517  29.155  1.00  0.00     0.040 A 
ATOM     89  C   UNL A   1      44.446  33.298  28.232  1.00  0.00     0.040 A 
ATOM     90  F   UNL A   1      42.841  31.775  29.000  1.00  0.00    -0.206 F 
ATOM     91  C   UNL A   1      45.015  34.571  28.244  1.00  0.00     0.006 A 
ENDBRANCH  67  84
ENDBRANCH  41  42
ENDBRANCH  33  36
ENDBRANCH  31  32
ENDBRANCH  30  31
ENDBRANCH  29  30
ENDBRANCH   3  29
TORSDOF 15
ENDMDL
MODEL 2
REMARK VINA RESULT:     -12.5      2.977      6.935
REMARK SMILES COC(=O)c1ccc2c(c1)=N[C@H](c1cn(CCC(=O)NCCCNC(=O)c3ccc(-c4c5nc(c(-c6c(F)cccc6F)c6ccc([nH]6)c(-c6c(F)cccc6F)c6nc(c(-c7c(F)cccc7F)c7ccc4[nH]7)C=C6)C=C5)cc3)c3ccccc13)N=2
REMARK SMILES IDX 18 1 19 2 20 3 17 5 16 6 15 7 13 8 14 9 86 10 81 11 85 12
REMARK SMILES IDX 82 13 84 14 83 15 12 16 5 17 6 18 10 19 7 20 9 21 8 22 11 23
REMARK SMILES IDX 87 24 3 25 4 26 2 27 1 28 21 29 22 30 23 31 24 32 25 33
REMARK SMILES IDX 26 35 27 36 28 37 80 38 29 39 79 40 30 41 31 42 32 43 73 44
REMARK SMILES IDX 33 45 78 46 72 47 74 48 34 49 77 50 71 51 70 52 35 54 61 55
REMARK SMILES IDX 44 56 60 57 45 58 48 59 59 60 75 61 46 62 47 63 58 65 76 66
REMARK SMILES IDX 49 67 36 68 37 69 42 70 38 71 39 72 41 73 43 74 40 75 62 76
REMARK SMILES IDX 63 77 68 78 64 79 65 80 67 81 69 82 66 83 50 84 51 85 56 86
REMARK SMILES IDX 52 87 53 88 55 89 57 90 54 91
REMARK H PARENT 20 4 24 34 74 53 48 64
REMARK Flexibility Score: inf
ROOT
ATOM      1  C   UNL A   1      37.292  21.288  25.026  1.00  0.00     0.221 C 
ATOM      2  O   UNL A   1      36.426  20.407  25.017  1.00  0.00    -0.275 OA
ATOM      3  N   UNL A   1      38.413  21.037  25.764  1.00  0.00    -0.356 N 
ATOM      4  H   UNL A   1      38.349  20.207  26.288  1.00  0.00     0.163 HD
ENDROOT
BRANCH   1   5
ATOM      5  C   UNL A   1      37.109  22.535  24.183  1.00  0.00     0.122 C 
BRANCH   5   6
ATOM      6  C   UNL A   1      36.496  23.711  24.991  1.00  0.00     0.132 C 
BRANCH   6   7
ATOM      7  N   UNL A   1      35.194  24.180  24.489  1.00  0.00    -0.347 N 
ATOM      8  C   UNL A   1      33.278  24.342  25.568  1.00  0.00     0.024 A 
ATOM      9  C   UNL A   1      34.452  25.039  25.262  1.00  0.00     0.094 A 
ATOM     10  C   UNL A   1      33.510  22.999  25.061  1.00  0.00     0.007 A 
ATOM     11  C   UNL A   1      34.243  23.351  23.928  1.00  0.00     0.048 A 
ATOM     12  C   UNL A   1      32.803  21.798  24.910  1.00  0.00     0.011 A 
ATOM     13  C   UNL A   1      33.632  23.192  22.669  1.00  0.00     0.027 A 
ATOM     14  C   UNL A   1      32.304  21.438  23.663  1.00  0.00     0.001 A 
ATOM     15  C   UNL A   1      32.594  22.245  22.579  1.00  0.00     0.002 A 
BRANCH   8  16
ATOM     16  C   UNL A   1      32.085  25.074  26.105  1.00  0.00     0.255 C 
ATOM     17  C   UNL A   1      29.928  27.928  23.383  1.00  0.00     0.062 A 
ATOM     18  C   UNL A   1      28.826  27.056  23.762  1.00  0.00     0.018 A 
ATOM     19  C   UNL A   1      31.117  27.859  24.009  1.00  0.00     0.046 A 
ATOM     20  C   UNL A   1      28.973  25.999  24.570  1.00  0.00     0.031 A 
ATOM     21  C   UNL A   1      31.326  26.743  24.939  1.00  0.00     0.087 A 
ATOM     22  C   UNL A   1      30.313  25.681  25.048  1.00  0.00     0.086 A 
ATOM     23  N   UNL A   1      32.321  26.505  25.712  1.00  0.00    -0.252 NA
ATOM     24  N   UNL A   1      30.757  24.619  25.624  1.00  0.00    -0.252 NA
BRANCH  17  25
ATOM     25  C   UNL A   1      29.748  28.997  22.362  1.00  0.00     0.337 C 
ATOM     26  O   UNL A   1      30.677  29.527  21.747  1.00  0.00    -0.246 OA
BRANCH  25  27
ATOM     27  O   UNL A   1      28.434  29.278  22.197  1.00  0.00    -0.465 OA
ATOM     28  C   UNL A   1      28.137  30.423  21.391  1.00  0.00     0.282 C 
ENDBRANCH  25  27
ENDBRANCH  17  25
ENDBRANCH   8  16
ENDBRANCH   6   7
ENDBRANCH   5   6
ENDBRANCH   1   5
BRANCH   3  29
ATOM     29  C   UNL A   1      39.688  21.732  25.949  1.00  0.00     0.117 C 
BRANCH  29  30
ATOM     30  C   UNL A   1      40.582  21.261  27.129  1.00  0.00     0.042 C 
BRANCH  30  31
ATOM     31  C   UNL A   1      41.536  20.085  26.891  1.00  0.00     0.118 C 
BRANCH  31  32
ATOM     32  N   UNL A   1      42.310  20.070  25.672  1.00  0.00    -0.352 N 
ATOM     33  C   UNL A   1      43.376  20.827  25.252  1.00  0.00     0.251 C 
ATOM     34  H   UNL A   1      42.020  19.390  25.021  1.00  0.00     0.163 HD
ATOM     35  O   UNL A   1      44.056  20.395  24.320  1.00  0.00    -0.269 OA
BRANCH  33  36
ATOM     36  C   UNL A   1      43.664  22.192  25.751  1.00  0.00     0.039 A 
ATOM     37  C   UNL A   1      44.532  22.524  26.787  1.00  0.00     0.014 A 
ATOM     38  C   UNL A   1      43.008  23.227  25.068  1.00  0.00     0.014 A 
ATOM     39  C   UNL A   1      44.571  23.841  27.253  1.00  0.00     0.010 A 
ATOM     40  C   UNL A   1      43.053  24.536  25.533  1.00  0.00     0.010 A 
ATOM     41  C   UNL A   1      43.730  24.825  26.715  1.00  0.00    -0.014 A 
BRANCH  41  42
ATOM     42  C   UNL A   1      43.552  26.131  27.390  1.00  0.00     0.031 A 
ATOM     43  C   UNL A   1      44.585  27.175  27.124  1.00  0.00     0.074 A 
ATOM     44  C   UNL A   1      42.457  26.405  28.151  1.00  0.00     0.049 A 
ATOM     45  N   UNL A   1      45.150  27.956  27.990  1.00  0.00    -0.248 NA
ATOM     46  C   UNL A   1      45.099  27.344  25.755  1.00  0.00     0.031 C 
ATOM     47  C   UNL A   1      41.294  25.524  28.335  1.00  0.00     0.029 A 
ATOM     48  N   UNL A   1      42.064  27.541  28.829  1.00  0.00    -0.354 N 
ATOM     49  C   UNL A   1      45.939  28.843  27.259  1.00  0.00     0.074 A 
ATOM     50  C   UNL A   1      45.959  28.354  25.906  1.00  0.00     0.031 C 
ATOM     51  C   UNL A   1      40.246  26.239  28.791  1.00  0.00     0.029 A 
ATOM     52  C   UNL A   1      40.692  27.586  29.088  1.00  0.00     0.049 A 
ATOM     53  H   UNL A   1      42.689  28.251  29.102  1.00  0.00     0.167 HD
ATOM     54  C   UNL A   1      46.331  30.035  27.784  1.00  0.00     0.037 A 
ATOM     55  C   UNL A   1      39.928  28.636  29.485  1.00  0.00     0.037 A 
ATOM     56  C   UNL A   1      46.229  30.071  29.216  1.00  0.00     0.049 A 
ATOM     57  C   UNL A   1      40.786  29.645  30.128  1.00  0.00     0.074 A 
ATOM     58  C   UNL A   1      47.070  29.916  30.293  1.00  0.00     0.029 A 
ATOM     59  N   UNL A   1      44.960  30.125  29.708  1.00  0.00    -0.354 N 
ATOM     60  N   UNL A   1      41.354  29.473  31.286  1.00  0.00    -0.248 NA
ATOM     61  C   UNL A   1      41.252  30.790  29.350  1.00  0.00     0.031 C 
ATOM     62  C   UNL A   1      46.254  29.758  31.443  1.00  0.00     0.029 A 
ATOM     63  C   UNL A   1      44.935  29.938  31.064  1.00  0.00     0.049 A 
ATOM     64  H   UNL A   1      44.159  30.280  29.156  1.00  0.00     0.167 HD
ATOM     65  C   UNL A   1      42.516  30.198  31.182  1.00  0.00     0.074 A 
ATOM     66  C   UNL A   1      42.322  31.124  30.073  1.00  0.00     0.031 C 
ATOM     67  C   UNL A   1      43.673  29.734  31.719  1.00  0.00     0.037 A 
BRANCH  54  68
ATOM     68  C   UNL A   1      46.410  31.322  27.000  1.00  0.00     0.057 A 
ATOM     69  C   UNL A   1      45.270  32.057  26.619  1.00  0.00     0.134 A 
ATOM     70  C   UNL A   1      47.629  32.023  26.928  1.00  0.00     0.134 A 
ATOM     71  F   UNL A   1      44.036  31.547  26.708  1.00  0.00    -0.206 F 
ATOM     72  C   UNL A   1      45.330  33.397  26.227  1.00  0.00     0.040 A 
ATOM     73  C   UNL A   1      47.695  33.378  26.580  1.00  0.00     0.040 A 
ATOM     74  F   UNL A   1      48.786  31.431  27.259  1.00  0.00    -0.206 F 
ATOM     75  C   UNL A   1      46.540  34.073  26.239  1.00  0.00     0.006 A 
ENDBRANCH  54  68
BRANCH  55  76
ATOM     76  C   UNL A   1      38.511  28.940  29.170  1.00  0.00     0.057 A 
ATOM     77  C   UNL A   1      38.144  29.445  27.911  1.00  0.00     0.134 A 
ATOM     78  C   UNL A   1      37.536  29.028  30.176  1.00  0.00     0.134 A 
ATOM     79  F   UNL A   1      39.022  29.479  26.899  1.00  0.00    -0.206 F 
ATOM     80  C   UNL A   1      36.895  30.026  27.672  1.00  0.00     0.040 A 
ATOM     81  C   UNL A   1      36.283  29.615  29.952  1.00  0.00     0.040 A 
ATOM     82  F   UNL A   1      37.801  28.612  31.423  1.00  0.00    -0.206 F 
ATOM     83  C   UNL A   1      35.964  30.128  28.699  1.00  0.00     0.006 A 
ENDBRANCH  55  76
BRANCH  67  84
ATOM     84  C   UNL A   1      43.615  28.845  32.913  1.00  0.00     0.057 A 
ATOM     85  C   UNL A   1      43.749  29.437  34.174  1.00  0.00     0.134 A 
ATOM     86  C   UNL A   1      43.539  27.447  32.862  1.00  0.00     0.134 A 
ATOM     87  F   UNL A   1      43.857  30.770  34.286  1.00  0.00    -0.206 F 
ATOM     88  C   UNL A   1      43.824  28.678  35.341  1.00  0.00     0.040 A 
ATOM     89  C   UNL A   1      43.579  26.676  34.028  1.00  0.00     0.040 A 
ATOM     90  F   UNL A   1      43.476  26.797  31.691  1.00  0.00    -0.206 F 
ATOM     91  C   UNL A   1      43.733  27.292  35.270  1.00  0.00     0.006 A 
ENDBRANCH  67  84
ENDBRANCH  41  42
ENDBRANCH  33  36
ENDBRANCH  31  32
ENDBRANCH  30  31
ENDBRANCH  29  30
ENDBRANCH   3  29
TORSDOF 15
ENDMDL
MODEL 3
REMARK VINA RESULT:     -12.5      1.804      5.918
REMARK SMILES COC(=O)c1ccc2c(c1)=N[C@H](c1cn(CCC(=O)NCCCNC(=O)c3ccc(-c4c5nc(c(-c6c(F)cccc6F)c6ccc([nH]6)c(-c6c(F)cccc6F)c6nc(c(-c7c(F)cccc7F)c7ccc4[nH]7)C=C6)C=C5)cc3)c3ccccc13)N=2
REMARK SMILES IDX 18 1 19 2 20 3 17 5 16 6 15 7 13 8 14 9 86 10 81 11 85 12
REMARK SMILES IDX 82 13 84 14 83 15 12 16 5 17 6 18 10 19 7 20 9 21 8 22 11 23
REMARK SMILES IDX 87 24 3 25 4 26 2 27 1 28 21 29 22 30 23 31 24 32 25 33
REMARK SMILES IDX 26 35 27 36 28 37 80 38 29 39 79 40 30 41 31 42 32 43 73 44
REMARK SMILES IDX 33 45 78 46 72 47 74 48 34 49 77 50 71 51 70 52 35 54 61 55
REMARK SMILES IDX 44 56 60 57 45 58 48 59 59 60 75 61 46 62 47 63 58 65 76 66
REMARK SMILES IDX 49 67 36 68 37 69 42 70 38 71 39 72 41 73 43 74 40 75 62 76
REMARK SMILES IDX 63 77 68 78 64 79 65 80 67 81 69 82 66 83 50 84 51 85 56 86
REMARK SMILES IDX 52 87 53 88 55 89 57 90 54 91
REMARK H PARENT 20 4 24 34 74 53 48 64
REMARK Flexibility Score: inf
ROOT
ATOM      1  C   UNL A   1      34.356  19.278  24.902  1.00  0.00     0.221 C 
ATOM      2  O   UNL A   1      34.225  18.339  24.110  1.00  0.00    -0.275 OA
ATOM      3  N   UNL A   1      35.566  19.909  24.910  1.00  0.00    -0.356 N 
ATOM      4  H   UNL A   1      36.234  19.465  24.338  1.00  0.00     0.163 HD
ENDROOT
BRANCH   1   5
ATOM      5  C   UNL A   1      33.178  19.721  25.747  1.00  0.00     0.122 C 
BRANCH   5   6
ATOM      6  C   UNL A   1      32.265  20.736  25.007  1.00  0.00     0.132 C 
BRANCH   6   7
ATOM      7  N   UNL A   1      32.165  22.052  25.658  1.00  0.00    -0.347 N 
ATOM      8  C   UNL A   1      31.183  23.884  24.921  1.00  0.00     0.024 A 
ATOM      9  C   UNL A   1      30.960  22.710  25.649  1.00  0.00     0.094 A 
ATOM     10  C   UNL A   1      32.528  23.733  24.392  1.00  0.00     0.007 A 
ATOM     11  C   UNL A   1      33.085  23.067  25.483  1.00  0.00     0.048 A 
ATOM     12  C   UNL A   1      33.463  24.489  23.670  1.00  0.00     0.011 A 
ATOM     13  C   UNL A   1      34.007  23.768  26.285  1.00  0.00     0.027 A 
ATOM     14  C   UNL A   1      34.532  25.084  24.330  1.00  0.00     0.001 A 
ATOM     15  C   UNL A   1      34.690  24.841  25.682  1.00  0.00     0.002 A 
BRANCH   8  16
ATOM     16  C   UNL A   1      30.197  25.012  24.989  1.00  0.00     0.255 C 
ATOM     17  C   UNL A   1      31.749  29.160  25.757  1.00  0.00     0.062 A 
ATOM     18  C   UNL A   1      31.028  29.385  24.513  1.00  0.00     0.018 A 
ATOM     19  C   UNL A   1      31.624  28.005  26.435  1.00  0.00     0.046 A 
ATOM     20  C   UNL A   1      30.392  28.412  23.849  1.00  0.00     0.031 A 
ATOM     21  C   UNL A   1      30.901  26.911  25.777  1.00  0.00     0.087 A 
ATOM     22  C   UNL A   1      30.474  27.055  24.376  1.00  0.00     0.086 A 
ATOM     23  N   UNL A   1      30.575  25.760  26.236  1.00  0.00    -0.252 NA
ATOM     24  N   UNL A   1      30.164  25.933  23.826  1.00  0.00    -0.252 NA
BRANCH  17  25
ATOM     25  C   UNL A   1      32.569  30.237  26.378  1.00  0.00     0.337 C 
ATOM     26  O   UNL A   1      32.097  31.246  26.908  1.00  0.00    -0.246 OA
BRANCH  25  27
ATOM     27  O   UNL A   1      33.886  29.935  26.296  1.00  0.00    -0.465 OA
ATOM     28  C   UNL A   1      34.542  29.658  27.537  1.00  0.00     0.282 C 
ENDBRANCH  25  27
ENDBRANCH  17  25
ENDBRANCH   8  16
ENDBRANCH   6   7
ENDBRANCH   5   6
ENDBRANCH   1   5
BRANCH   3  29
ATOM     29  C   UNL A   1      36.092  21.099  25.581  1.00  0.00     0.117 C 
BRANCH  29  30
ATOM     30  C   UNL A   1      37.471  21.627  25.101  1.00  0.00     0.042 C 
BRANCH  30  31
ATOM     31  C   UNL A   1      38.229  22.602  26.009  1.00  0.00     0.118 C 
BRANCH  31  32
ATOM     32  N   UNL A   1      39.673  22.612  25.946  1.00  0.00    -0.352 N 
ATOM     33  C   UNL A   1      40.618  23.309  26.659  1.00  0.00     0.251 C 
ATOM     34  H   UNL A   1      40.048  22.007  25.266  1.00  0.00     0.163 HD
ATOM     35  O   UNL A   1      41.777  22.892  26.637  1.00  0.00    -0.269 OA
BRANCH  33  36
ATOM     36  C   UNL A   1      40.356  24.606  27.325  1.00  0.00     0.039 A 
ATOM     37  C   UNL A   1      39.274  25.449  27.091  1.00  0.00     0.014 A 
ATOM     38  C   UNL A   1      41.292  24.972  28.305  1.00  0.00     0.014 A 
ATOM     39  C   UNL A   1      39.253  26.717  27.676  1.00  0.00     0.010 A 
ATOM     40  C   UNL A   1      41.265  26.234  28.887  1.00  0.00     0.010 A 
ATOM     41  C   UNL A   1      40.318  27.166  28.471  1.00  0.00    -0.014 A 
BRANCH  41  42
ATOM     42  C   UNL A   1      40.444  28.593  28.846  1.00  0.00     0.031 A 
ATOM     43  C   UNL A   1      41.671  29.307  28.382  1.00  0.00     0.074 A 
ATOM     44  C   UNL A   1      39.456  29.254  29.510  1.00  0.00     0.049 A 
ATOM     45  N   UNL A   1      42.414  30.114  29.071  1.00  0.00    -0.248 NA
ATOM     46  C   UNL A   1      42.171  29.064  27.019  1.00  0.00     0.031 C 
ATOM     47  C   UNL A   1      38.137  28.705  29.856  1.00  0.00     0.029 A 
ATOM     48  N   UNL A   1      39.336  30.565  29.919  1.00  0.00    -0.354 N 
ATOM     49  C   UNL A   1      43.355  30.632  28.181  1.00  0.00     0.074 A 
ATOM     50  C   UNL A   1      43.232  29.872  26.966  1.00  0.00     0.031 C 
ATOM     51  C   UNL A   1      37.280  29.710  30.128  1.00  0.00     0.029 A 
ATOM     52  C   UNL A   1      38.014  30.960  30.137  1.00  0.00     0.049 A 
ATOM     53  H   UNL A   1      40.107  31.165  30.045  1.00  0.00     0.167 HD
ATOM     54  C   UNL A   1      44.009  31.795  28.445  1.00  0.00     0.037 A 
ATOM     55  C   UNL A   1      37.506  32.211  30.284  1.00  0.00     0.037 A 
ATOM     56  C   UNL A   1      43.958  32.158  29.834  1.00  0.00     0.049 A 
ATOM     57  C   UNL A   1      38.578  33.124  30.711  1.00  0.00     0.074 A 
ATOM     58  C   UNL A   1      44.775  32.059  30.935  1.00  0.00     0.029 A 
ATOM     59  N   UNL A   1      42.744  32.590  30.278  1.00  0.00    -0.354 N 
ATOM     60  N   UNL A   1      39.128  33.085  31.890  1.00  0.00    -0.248 NA
ATOM     61  C   UNL A   1      39.258  33.947  29.715  1.00  0.00     0.031 C 
ATOM     62  C   UNL A   1      43.977  32.331  32.076  1.00  0.00     0.029 A 
ATOM     63  C   UNL A   1      42.718  32.706  31.642  1.00  0.00     0.049 A 
ATOM     64  H   UNL A   1      41.981  32.792  29.690  1.00  0.00     0.167 HD
ATOM     65  C   UNL A   1      40.415  33.503  31.654  1.00  0.00     0.074 A 
ATOM     66  C   UNL A   1      40.395  34.189  30.369  1.00  0.00     0.031 C 
ATOM     67  C   UNL A   1      41.460  32.925  32.301  1.00  0.00     0.037 A 
BRANCH  54  68
ATOM     68  C   UNL A   1      44.342  32.836  27.405  1.00  0.00     0.057 A 
ATOM     69  C   UNL A   1      43.721  34.101  27.364  1.00  0.00     0.134 A 
ATOM     70  C   UNL A   1      45.529  32.725  26.658  1.00  0.00     0.134 A 
ATOM     71  F   UNL A   1      42.628  34.378  28.083  1.00  0.00    -0.206 F 
ATOM     72  C   UNL A   1      44.258  35.184  26.660  1.00  0.00     0.040 A 
ATOM     73  C   UNL A   1      46.099  33.814  25.987  1.00  0.00     0.040 A 
ATOM     74  F   UNL A   1      46.211  31.569  26.613  1.00  0.00    -0.206 F 
ATOM     75  C   UNL A   1      45.468  35.053  25.997  1.00  0.00     0.006 A 
ENDBRANCH  54  68
BRANCH  55  76
ATOM     76  C   UNL A   1      36.179  32.739  29.883  1.00  0.00     0.057 A 
ATOM     77  C   UNL A   1      35.826  32.852  28.528  1.00  0.00     0.134 A 
ATOM     78  C   UNL A   1      35.352  33.418  30.792  1.00  0.00     0.134 A 
ATOM     79  F   UNL A   1      36.588  32.306  27.569  1.00  0.00    -0.206 F 
ATOM     80  C   UNL A   1      34.735  33.614  28.098  1.00  0.00     0.040 A 
ATOM     81  C   UNL A   1      34.260  34.192  30.375  1.00  0.00     0.040 A 
ATOM     82  F   UNL A   1      35.626  33.407  32.105  1.00  0.00    -0.206 F 
ATOM     83  C   UNL A   1      33.956  34.302  29.022  1.00  0.00     0.006 A 
ENDBRANCH  55  76
BRANCH  67  84
ATOM     84  C   UNL A   1      41.246  32.346  33.656  1.00  0.00     0.057 A 
ATOM     85  C   UNL A   1      40.930  30.985  33.742  1.00  0.00     0.134 A 
ATOM     86  C   UNL A   1      41.237  33.085  34.846  1.00  0.00     0.134 A 
ATOM     87  F   UNL A   1      40.892  30.230  32.632  1.00  0.00    -0.206 F 
ATOM     88  C   UNL A   1      40.599  30.380  34.953  1.00  0.00     0.040 A 
ATOM     89  C   UNL A   1      40.940  32.482  36.072  1.00  0.00     0.040 A 
ATOM     90  F   UNL A   1      41.464  34.406  34.844  1.00  0.00    -0.206 F 
ATOM     91  C   UNL A   1      40.608  31.128  36.125  1.00  0.00     0.006 A 
ENDBRANCH  67  84
ENDBRANCH  41  42
ENDBRANCH  33  36
ENDBRANCH  31  32
ENDBRANCH  30  31
ENDBRANCH  29  30
ENDBRANCH   3  29
TORSDOF 15
ENDMDL
