MODEL 1
REMARK VINA RESULT:     -12.2      0.000      0.000
REMARK SMILES Cc1nsc(NC(=O)[C@]2([NH3+])CCC[C@@H](C)C2)c1C(=O)NCCCNC(=O)c1ccc(-c2c3nc(c(-c4c(F)cccc4F)c4ccc([nH]4)c(-c4c(F)cccc4F)c4nc(c(-c5c(F)cccc5F)c5ccc2[nH]5)C=C4)C=C3)cc1
REMARK SMILES IDX 21 1 20 2 18 3 19 4 17 6 1 7 2 8 3 9 4 10 5 11 6 12 7 13
REMARK SMILES IDX 8 15 9 16 11 17 16 18 12 19 14 20 13 21 15 22 10 23 22 27
REMARK SMILES IDX 23 28 24 29 25 30 26 32 27 33 28 34 80 35 29 36 79 37 30 38
REMARK SMILES IDX 31 39 32 40 73 41 33 42 78 43 72 44 74 45 34 46 77 47 71 48
REMARK SMILES IDX 70 49 35 51 61 52 44 53 60 54 45 55 48 56 59 57 75 58 46 59
REMARK SMILES IDX 47 60 58 62 76 63 49 64 36 65 37 66 42 67 38 68 39 69 41 70
REMARK SMILES IDX 43 71 40 72 62 73 63 74 68 75 64 76 65 77 67 78 69 79 66 80
REMARK SMILES IDX 50 81 51 82 56 83 52 84 53 85 55 86 57 87 54 88
REMARK H PARENT 20 5 6 14 10 24 10 25 10 26 24 31 74 50 48 61
REMARK Flexibility Score: inf
ROOT
ATOM      1  C   UNL A   1      33.184  29.391  26.598  1.00  0.00     0.118 C 
ENDROOT
BRANCH   1   2
ATOM      2  N   UNL A   1      33.573  28.005  26.671  1.00  0.00    -0.352 N 
ATOM      3  C   UNL A   1      33.406  26.938  25.833  1.00  0.00     0.256 C 
ATOM      4  O   UNL A   1      34.114  25.962  26.107  1.00  0.00    -0.269 OA
ATOM      5  H   UNL A   1      34.060  27.780  27.496  1.00  0.00     0.163 HD
BRANCH   3   6
ATOM      6  C   UNL A   1      32.380  26.841  24.790  1.00  0.00     0.097 A 
ATOM      7  C   UNL A   1      33.261  27.744  22.405  1.00  0.00     0.069 C 
ATOM      8  C   UNL A   1      32.256  27.293  23.404  1.00  0.00     0.066 A 
ATOM      9  N   UNL A   1      31.017  27.278  22.908  1.00  0.00    -0.195 NA
ATOM     10  S   UNL A   1      30.019  26.594  23.997  1.00  0.00    -0.017 S 
ATOM     11  C   UNL A   1      31.232  26.074  25.057  1.00  0.00     0.129 A 
BRANCH  11  12
ATOM     12  N   UNL A   1      31.011  25.179  26.096  1.00  0.00    -0.310 N 
ATOM     13  C   UNL A   1      31.274  23.840  26.271  1.00  0.00     0.286 C 
ATOM     14  H   UNL A   1      30.572  25.592  26.874  1.00  0.00     0.171 HD
ATOM     15  O   UNL A   1      30.891  23.340  27.337  1.00  0.00    -0.267 OA
BRANCH  13  16
ATOM     16  C   UNL A   1      32.040  22.959  25.227  1.00  0.00     0.174 C 
ATOM     17  C   UNL A   1      31.624  23.272  23.764  1.00  0.00     0.079 C 
ATOM     18  C   UNL A   1      31.687  21.465  25.450  1.00  0.00     0.082 C 
ATOM     19  C   UNL A   1      32.357  22.365  22.758  1.00  0.00     0.007 C 
ATOM     20  C   UNL A   1      32.360  20.472  24.494  1.00  0.00    -0.008 C 
ATOM     21  C   UNL A   1      32.126  20.879  23.035  1.00  0.00     0.004 C 
ATOM     22  C   UNL A   1      33.837  20.247  24.822  1.00  0.00     0.008 C 
BRANCH  16  23
ATOM     23  N   UNL A   1      33.464  23.350  25.270  1.00  0.00    -0.345 N 
ATOM     24  H   UNL A   1      33.795  23.534  24.322  1.00  0.00     0.345 HD
ATOM     25  H   UNL A   1      34.013  22.595  25.681  1.00  0.00     0.345 HD
ATOM     26  H   UNL A   1      33.569  24.193  25.835  1.00  0.00     0.345 HD
ENDBRANCH  16  23
ENDBRANCH  13  16
ENDBRANCH  11  12
ENDBRANCH   3   6
ENDBRANCH   1   2
BRANCH   1  27
ATOM     27  C   UNL A   1      34.176  30.369  27.228  1.00  0.00     0.042 C 
BRANCH  27  28
ATOM     28  C   UNL A   1      35.416  29.644  27.716  1.00  0.00     0.118 C 
BRANCH  28  29
ATOM     29  N   UNL A   1      35.621  29.826  29.164  1.00  0.00    -0.352 N 
ATOM     30  C   UNL A   1      36.637  29.345  29.975  1.00  0.00     0.251 C 
ATOM     31  H   UNL A   1      34.938  30.367  29.622  1.00  0.00     0.163 HD
ATOM     32  O   UNL A   1      36.536  29.332  31.185  1.00  0.00    -0.269 OA
BRANCH  30  33
ATOM     33  C   UNL A   1      37.852  28.855  29.308  1.00  0.00     0.039 A 
ATOM     34  C   UNL A   1      38.374  29.468  28.170  1.00  0.00     0.014 A 
ATOM     35  C   UNL A   1      38.541  27.847  29.968  1.00  0.00     0.014 A 
ATOM     36  C   UNL A   1      39.657  29.108  27.772  1.00  0.00     0.010 A 
ATOM     37  C   UNL A   1      39.881  27.728  29.754  1.00  0.00     0.010 A 
ATOM     38  C   UNL A   1      40.420  28.265  28.602  1.00  0.00    -0.014 A 
BRANCH  38  39
ATOM     39  C   UNL A   1      41.824  27.989  28.341  1.00  0.00     0.031 A 
ATOM     40  C   UNL A   1      42.046  26.764  27.544  1.00  0.00     0.074 A 
ATOM     41  C   UNL A   1      42.833  28.829  28.666  1.00  0.00     0.049 A 
ATOM     42  N   UNL A   1      42.320  25.594  28.009  1.00  0.00    -0.248 NA
ATOM     43  C   UNL A   1      41.725  26.776  26.109  1.00  0.00     0.031 C 
ATOM     44  C   UNL A   1      42.782  30.210  29.166  1.00  0.00     0.029 A 
ATOM     45  N   UNL A   1      44.171  28.603  28.573  1.00  0.00    -0.354 N 
ATOM     46  C   UNL A   1      42.463  24.770  26.904  1.00  0.00     0.074 A 
ATOM     47  C   UNL A   1      41.880  25.485  25.798  1.00  0.00     0.031 C 
ATOM     48  C   UNL A   1      44.018  30.760  29.132  1.00  0.00     0.029 A 
ATOM     49  C   UNL A   1      44.969  29.717  28.807  1.00  0.00     0.049 A 
ATOM     50  H   UNL A   1      44.546  27.718  28.356  1.00  0.00     0.167 HD
ATOM     51  C   UNL A   1      43.306  23.702  26.960  1.00  0.00     0.037 A 
ATOM     52  C   UNL A   1      46.324  29.763  28.772  1.00  0.00     0.037 A 
ATOM     53  C   UNL A   1      43.688  23.432  28.329  1.00  0.00     0.049 A 
ATOM     54  C   UNL A   1      46.802  28.373  28.967  1.00  0.00     0.074 A 
ATOM     55  C   UNL A   1      43.024  23.072  29.485  1.00  0.00     0.029 A 
ATOM     56  N   UNL A   1      44.897  23.946  28.732  1.00  0.00    -0.354 N 
ATOM     57  N   UNL A   1      46.650  27.705  30.076  1.00  0.00    -0.248 NA
ATOM     58  C   UNL A   1      47.028  27.569  27.778  1.00  0.00     0.031 C 
ATOM     59  C   UNL A   1      43.675  23.799  30.530  1.00  0.00     0.029 A 
ATOM     60  C   UNL A   1      44.749  24.498  29.977  1.00  0.00     0.049 A 
ATOM     61  H   UNL A   1      45.732  23.921  28.211  1.00  0.00     0.167 HD
ATOM     62  C   UNL A   1      46.315  26.421  29.671  1.00  0.00     0.074 A 
ATOM     63  C   UNL A   1      46.662  26.375  28.250  1.00  0.00     0.031 C 
ATOM     64  C   UNL A   1      45.528  25.623  30.453  1.00  0.00     0.037 A 
BRANCH  51  65
ATOM     65  C   UNL A   1      44.132  23.200  25.800  1.00  0.00     0.057 A 
ATOM     66  C   UNL A   1      44.152  21.817  25.536  1.00  0.00     0.134 A 
ATOM     67  C   UNL A   1      45.128  23.949  25.142  1.00  0.00     0.134 A 
ATOM     68  F   UNL A   1      43.261  20.994  26.107  1.00  0.00    -0.206 F 
ATOM     69  C   UNL A   1      45.145  21.218  24.751  1.00  0.00     0.040 A 
ATOM     70  C   UNL A   1      46.093  23.365  24.317  1.00  0.00     0.040 A 
ATOM     71  F   UNL A   1      45.295  25.261  25.338  1.00  0.00    -0.206 F 
ATOM     72  C   UNL A   1      46.125  21.992  24.146  1.00  0.00     0.006 A 
ENDBRANCH  51  65
BRANCH  52  73
ATOM     73  C   UNL A   1      47.199  30.823  28.223  1.00  0.00     0.057 A 
ATOM     74  C   UNL A   1      46.926  31.411  26.979  1.00  0.00     0.134 A 
ATOM     75  C   UNL A   1      48.121  31.501  29.037  1.00  0.00     0.134 A 
ATOM     76  F   UNL A   1      46.029  30.859  26.149  1.00  0.00    -0.206 F 
ATOM     77  C   UNL A   1      47.507  32.624  26.583  1.00  0.00     0.040 A 
ATOM     78  C   UNL A   1      48.709  32.713  28.654  1.00  0.00     0.040 A 
ATOM     79  F   UNL A   1      48.405  31.061  30.272  1.00  0.00    -0.206 F 
ATOM     80  C   UNL A   1      48.390  33.287  27.429  1.00  0.00     0.006 A 
ENDBRANCH  52  73
BRANCH  64  81
ATOM     81  C   UNL A   1      45.302  26.052  31.882  1.00  0.00     0.057 A 
ATOM     82  C   UNL A   1      44.174  26.748  32.345  1.00  0.00     0.134 A 
ATOM     83  C   UNL A   1      46.218  25.626  32.851  1.00  0.00     0.134 A 
ATOM     84  F   UNL A   1      43.199  27.128  31.510  1.00  0.00    -0.206 F 
ATOM     85  C   UNL A   1      43.988  27.036  33.702  1.00  0.00     0.040 A 
ATOM     86  C   UNL A   1      46.028  25.878  34.211  1.00  0.00     0.040 A 
ATOM     87  F   UNL A   1      47.297  24.914  32.491  1.00  0.00    -0.206 F 
ATOM     88  C   UNL A   1      44.914  26.593  34.642  1.00  0.00     0.006 A 
ENDBRANCH  64  81
ENDBRANCH  38  39
ENDBRANCH  30  33
ENDBRANCH  28  29
ENDBRANCH  27  28
ENDBRANCH   1  27
TORSDOF 13
ENDMDL
MODEL 2
REMARK VINA RESULT:     -12.2      1.958      6.248
REMARK SMILES Cc1nsc(NC(=O)[C@]2([NH3+])CCC[C@@H](C)C2)c1C(=O)NCCCNC(=O)c1ccc(-c2c3nc(c(-c4c(F)cccc4F)c4ccc([nH]4)c(-c4c(F)cccc4F)c4nc(c(-c5c(F)cccc5F)c5ccc2[nH]5)C=C4)C=C3)cc1
REMARK SMILES IDX 21 1 20 2 18 3 19 4 17 6 1 7 2 8 3 9 4 10 5 11 6 12 7 13
REMARK SMILES IDX 8 15 9 16 11 17 16 18 12 19 14 20 13 21 15 22 10 23 22 27
REMARK SMILES IDX 23 28 24 29 25 30 26 32 27 33 28 34 80 35 29 36 79 37 30 38
REMARK SMILES IDX 31 39 32 40 73 41 33 42 78 43 72 44 74 45 34 46 77 47 71 48
REMARK SMILES IDX 70 49 35 51 61 52 44 53 60 54 45 55 48 56 59 57 75 58 46 59
REMARK SMILES IDX 47 60 58 62 76 63 49 64 36 65 37 66 42 67 38 68 39 69 41 70
REMARK SMILES IDX 43 71 40 72 62 73 63 74 68 75 64 76 65 77 67 78 69 79 66 80
REMARK SMILES IDX 50 81 51 82 56 83 52 84 53 85 55 86 57 87 54 88
REMARK H PARENT 20 5 6 14 10 24 10 25 10 26 24 31 74 50 48 61
REMARK Flexibility Score: inf
ROOT
ATOM      1  C   UNL A   1      31.803  29.606  27.132  1.00  0.00     0.118 C 
ENDROOT
BRANCH   1   2
ATOM      2  N   UNL A   1      32.451  28.319  27.114  1.00  0.00    -0.352 N 
ATOM      3  C   UNL A   1      32.533  27.323  26.183  1.00  0.00     0.256 C 
ATOM      4  O   UNL A   1      33.404  26.478  26.418  1.00  0.00    -0.269 OA
ATOM      5  H   UNL A   1      32.935  28.115  27.947  1.00  0.00     0.163 HD
BRANCH   3   6
ATOM      6  C   UNL A   1      31.593  27.130  25.074  1.00  0.00     0.097 A 
ATOM      7  C   UNL A   1      32.457  28.282  22.792  1.00  0.00     0.069 C 
ATOM      8  C   UNL A   1      31.479  27.632  23.705  1.00  0.00     0.066 A 
ATOM      9  N   UNL A   1      30.286  27.460  23.131  1.00  0.00    -0.195 NA
ATOM     10  S   UNL A   1      29.345  26.576  24.122  1.00  0.00    -0.017 S 
ATOM     11  C   UNL A   1      30.562  26.187  25.232  1.00  0.00     0.129 A 
BRANCH  11  12
ATOM     12  N   UNL A   1      30.423  25.214  26.214  1.00  0.00    -0.310 N 
ATOM     13  C   UNL A   1      30.858  23.915  26.335  1.00  0.00     0.286 C 
ATOM     14  H   UNL A   1      29.899  25.520  26.990  1.00  0.00     0.171 HD
ATOM     15  O   UNL A   1      30.503  23.309  27.356  1.00  0.00    -0.267 OA
BRANCH  13  16
ATOM     16  C   UNL A   1      31.780  23.204  25.287  1.00  0.00     0.174 C 
ATOM     17  C   UNL A   1      31.323  23.455  23.825  1.00  0.00     0.079 C 
ATOM     18  C   UNL A   1      31.706  21.667  25.489  1.00  0.00     0.082 C 
ATOM     19  C   UNL A   1      32.217  22.712  22.814  1.00  0.00     0.007 C 
ATOM     20  C   UNL A   1      32.556  20.828  24.527  1.00  0.00    -0.008 C 
ATOM     21  C   UNL A   1      32.261  21.205  23.071  1.00  0.00     0.004 C 
ATOM     22  C   UNL A   1      34.047  20.874  24.865  1.00  0.00     0.008 C 
BRANCH  16  23
ATOM     23  N   UNL A   1      33.108  23.850  25.348  1.00  0.00    -0.345 N 
ATOM     24  H   UNL A   1      33.038  24.803  24.992  1.00  0.00     0.345 HD
ATOM     25  H   UNL A   1      33.769  23.322  24.779  1.00  0.00     0.345 HD
ATOM     26  H   UNL A   1      33.432  23.871  26.315  1.00  0.00     0.345 HD
ENDBRANCH  16  23
ENDBRANCH  13  16
ENDBRANCH  11  12
ENDBRANCH   3   6
ENDBRANCH   1   2
BRANCH   1  27
ATOM     27  C   UNL A   1      32.678  30.771  26.666  1.00  0.00     0.042 C 
BRANCH  27  28
ATOM     28  C   UNL A   1      34.044  30.719  27.322  1.00  0.00     0.118 C 
BRANCH  28  29
ATOM     29  N   UNL A   1      34.130  31.630  28.478  1.00  0.00    -0.352 N 
ATOM     30  C   UNL A   1      35.100  31.707  29.465  1.00  0.00     0.251 C 
ATOM     31  H   UNL A   1      33.392  32.275  28.561  1.00  0.00     0.163 HD
ATOM     32  O   UNL A   1      34.907  32.308  30.503  1.00  0.00    -0.269 OA
BRANCH  30  33
ATOM     33  C   UNL A   1      36.381  31.038  29.200  1.00  0.00     0.039 A 
ATOM     34  C   UNL A   1      37.583  31.739  29.118  1.00  0.00     0.014 A 
ATOM     35  C   UNL A   1      36.350  29.650  29.198  1.00  0.00     0.014 A 
ATOM     36  C   UNL A   1      38.763  31.004  29.135  1.00  0.00     0.010 A 
ATOM     37  C   UNL A   1      37.490  28.975  29.515  1.00  0.00     0.010 A 
ATOM     38  C   UNL A   1      38.704  29.618  29.378  1.00  0.00    -0.014 A 
BRANCH  38  39
ATOM     39  C   UNL A   1      39.901  28.818  29.585  1.00  0.00     0.031 A 
ATOM     40  C   UNL A   1      40.303  28.719  31.005  1.00  0.00     0.074 A 
ATOM     41  C   UNL A   1      40.517  28.113  28.611  1.00  0.00     0.049 A 
ATOM     42  N   UNL A   1      41.180  29.453  31.599  1.00  0.00    -0.248 NA
ATOM     43  C   UNL A   1      39.515  27.876  31.916  1.00  0.00     0.031 C 
ATOM     44  C   UNL A   1      40.087  27.839  27.233  1.00  0.00     0.029 A 
ATOM     45  N   UNL A   1      41.698  27.442  28.686  1.00  0.00    -0.354 N 
ATOM     46  C   UNL A   1      41.243  28.989  32.904  1.00  0.00     0.074 A 
ATOM     47  C   UNL A   1      40.063  28.186  33.095  1.00  0.00     0.031 C 
ATOM     48  C   UNL A   1      40.884  26.897  26.677  1.00  0.00     0.029 A 
ATOM     49  C   UNL A   1      41.994  26.655  27.577  1.00  0.00     0.049 A 
ATOM     50  H   UNL A   1      42.298  27.508  29.463  1.00  0.00     0.167 HD
ATOM     51  C   UNL A   1      42.408  29.086  33.601  1.00  0.00     0.037 A 
ATOM     52  C   UNL A   1      43.098  25.888  27.402  1.00  0.00     0.037 A 
ATOM     53  C   UNL A   1      43.331  29.971  32.924  1.00  0.00     0.049 A 
ATOM     54  C   UNL A   1      44.139  26.427  28.309  1.00  0.00     0.074 A 
ATOM     55  C   UNL A   1      43.336  31.306  32.574  1.00  0.00     0.029 A 
ATOM     56  N   UNL A   1      44.277  29.368  32.132  1.00  0.00    -0.354 N 
ATOM     57  N   UNL A   1      44.684  27.603  28.166  1.00  0.00    -0.248 NA
ATOM     58  C   UNL A   1      44.233  25.852  29.640  1.00  0.00     0.031 C 
ATOM     59  C   UNL A   1      43.959  31.351  31.287  1.00  0.00     0.029 A 
ATOM     60  C   UNL A   1      44.373  30.060  30.954  1.00  0.00     0.049 A 
ATOM     61  H   UNL A   1      44.801  28.569  32.372  1.00  0.00     0.167 HD
ATOM     62  C   UNL A   1      44.786  28.103  29.456  1.00  0.00     0.074 A 
ATOM     63  C   UNL A   1      44.586  26.943  30.324  1.00  0.00     0.031 C 
ATOM     64  C   UNL A   1      44.734  29.448  29.691  1.00  0.00     0.037 A 
BRANCH  51  65
ATOM     65  C   UNL A   1      42.890  28.068  34.607  1.00  0.00     0.057 A 
ATOM     66  C   UNL A   1      43.151  26.756  34.167  1.00  0.00     0.134 A 
ATOM     67  C   UNL A   1      42.812  28.224  36.005  1.00  0.00     0.134 A 
ATOM     68  F   UNL A   1      43.242  26.475  32.858  1.00  0.00    -0.206 F 
ATOM     69  C   UNL A   1      43.236  25.672  35.047  1.00  0.00     0.040 A 
ATOM     70  C   UNL A   1      42.945  27.154  36.895  1.00  0.00     0.040 A 
ATOM     71  F   UNL A   1      42.501  29.386  36.588  1.00  0.00    -0.206 F 
ATOM     72  C   UNL A   1      43.123  25.868  36.416  1.00  0.00     0.006 A 
ENDBRANCH  51  65
BRANCH  52  73
ATOM     73  C   UNL A   1      43.199  24.535  26.809  1.00  0.00     0.057 A 
ATOM     74  C   UNL A   1      42.536  23.443  27.387  1.00  0.00     0.134 A 
ATOM     75  C   UNL A   1      43.674  24.347  25.500  1.00  0.00     0.134 A 
ATOM     76  F   UNL A   1      42.011  23.540  28.617  1.00  0.00    -0.206 F 
ATOM     77  C   UNL A   1      42.322  22.245  26.690  1.00  0.00     0.040 A 
ATOM     78  C   UNL A   1      43.468  23.157  24.793  1.00  0.00     0.040 A 
ATOM     79  F   UNL A   1      44.265  25.348  24.831  1.00  0.00    -0.206 F 
ATOM     80  C   UNL A   1      42.776  22.106  25.382  1.00  0.00     0.006 A 
ENDBRANCH  52  73
BRANCH  64  81
ATOM     81  C   UNL A   1      44.881  30.370  28.506  1.00  0.00     0.057 A 
ATOM     82  C   UNL A   1      43.822  30.834  27.711  1.00  0.00     0.134 A 
ATOM     83  C   UNL A   1      46.147  30.906  28.240  1.00  0.00     0.134 A 
ATOM     84  F   UNL A   1      42.560  30.447  27.937  1.00  0.00    -0.206 F 
ATOM     85  C   UNL A   1      44.021  31.760  26.679  1.00  0.00     0.040 A 
ATOM     86  C   UNL A   1      46.354  31.854  27.236  1.00  0.00     0.040 A 
ATOM     87  F   UNL A   1      47.202  30.545  28.987  1.00  0.00    -0.206 F 
ATOM     88  C   UNL A   1      45.291  32.278  26.444  1.00  0.00     0.006 A 
ENDBRANCH  64  81
ENDBRANCH  38  39
ENDBRANCH  30  33
ENDBRANCH  28  29
ENDBRANCH  27  28
ENDBRANCH   1  27
TORSDOF 13
ENDMDL
MODEL 3
REMARK VINA RESULT:     -11.9      3.271      7.511
REMARK SMILES Cc1nsc(NC(=O)[C@]2([NH3+])CCC[C@@H](C)C2)c1C(=O)NCCCNC(=O)c1ccc(-c2c3nc(c(-c4c(F)cccc4F)c4ccc([nH]4)c(-c4c(F)cccc4F)c4nc(c(-c5c(F)cccc5F)c5ccc2[nH]5)C=C4)C=C3)cc1
REMARK SMILES IDX 21 1 20 2 18 3 19 4 17 6 1 7 2 8 3 9 4 10 5 11 6 12 7 13
REMARK SMILES IDX 8 15 9 16 11 17 16 18 12 19 14 20 13 21 15 22 10 23 22 27
REMARK SMILES IDX 23 28 24 29 25 30 26 32 27 33 28 34 80 35 29 36 79 37 30 38
REMARK SMILES IDX 31 39 32 40 73 41 33 42 78 43 72 44 74 45 34 46 77 47 71 48
REMARK SMILES IDX 70 49 35 51 61 52 44 53 60 54 45 55 48 56 59 57 75 58 46 59
REMARK SMILES IDX 47 60 58 62 76 63 49 64 36 65 37 66 42 67 38 68 39 69 41 70
REMARK SMILES IDX 43 71 40 72 62 73 63 74 68 75 64 76 65 77 67 78 69 79 66 80
REMARK SMILES IDX 50 81 51 82 56 83 52 84 53 85 55 86 57 87 54 88
REMARK H PARENT 20 5 6 14 10 24 10 25 10 26 24 31 74 50 48 61
REMARK Flexibility Score: inf
ROOT
ATOM      1  C   UNL A   1      36.846  21.887  25.739  1.00  0.00     0.118 C 
ENDROOT
BRANCH   1   2
ATOM      2  N   UNL A   1      36.384  23.214  25.421  1.00  0.00    -0.352 N 
ATOM      3  C   UNL A   1      35.144  23.783  25.347  1.00  0.00     0.256 C 
ATOM      4  O   UNL A   1      35.154  25.019  25.308  1.00  0.00    -0.269 OA
ATOM      5  H   UNL A   1      37.114  23.841  25.212  1.00  0.00     0.163 HD
BRANCH   3   6
ATOM      6  C   UNL A   1      33.890  23.046  25.161  1.00  0.00     0.097 A 
ATOM      7  C   UNL A   1      32.816  22.253  27.505  1.00  0.00     0.069 C 
ATOM      8  C   UNL A   1      32.987  22.290  26.028  1.00  0.00     0.066 A 
ATOM      9  N   UNL A   1      32.119  21.497  25.396  1.00  0.00    -0.195 NA
ATOM     10  S   UNL A   1      32.247  21.745  23.793  1.00  0.00    -0.017 S 
ATOM     11  C   UNL A   1      33.279  23.082  23.895  1.00  0.00     0.129 A 
BRANCH  11  12
ATOM     12  N   UNL A   1      33.560  23.918  22.822  1.00  0.00    -0.310 N 
ATOM     13  C   UNL A   1      33.060  25.129  22.401  1.00  0.00     0.286 C 
ATOM     14  H   UNL A   1      34.270  23.570  22.236  1.00  0.00     0.171 HD
ATOM     15  O   UNL A   1      33.527  25.580  21.347  1.00  0.00    -0.267 OA
BRANCH  13  16
ATOM     16  C   UNL A   1      31.983  25.948  23.191  1.00  0.00     0.174 C 
ATOM     17  C   UNL A   1      30.754  25.089  23.588  1.00  0.00     0.079 C 
ATOM     18  C   UNL A   1      31.427  27.081  22.288  1.00  0.00     0.082 C 
ATOM     19  C   UNL A   1      29.689  25.925  24.325  1.00  0.00     0.007 C 
ATOM     20  C   UNL A   1      30.353  27.972  22.924  1.00  0.00    -0.008 C 
ATOM     21  C   UNL A   1      29.216  27.124  23.503  1.00  0.00     0.004 C 
ATOM     22  C   UNL A   1      30.933  28.963  23.935  1.00  0.00     0.008 C 
BRANCH  16  23
ATOM     23  N   UNL A   1      32.574  26.324  24.493  1.00  0.00    -0.345 N 
ATOM     24  H   UNL A   1      32.832  27.311  24.477  1.00  0.00     0.345 HD
ATOM     25  H   UNL A   1      33.404  25.758  24.667  1.00  0.00     0.345 HD
ATOM     26  H   UNL A   1      31.892  26.164  25.235  1.00  0.00     0.345 HD
ENDBRANCH  16  23
ENDBRANCH  13  16
ENDBRANCH  11  12
ENDBRANCH   3   6
ENDBRANCH   1   2
BRANCH   1  27
ATOM     27  C   UNL A   1      38.308  21.614  25.383  1.00  0.00     0.042 C 
BRANCH  27  28
ATOM     28  C   UNL A   1      39.233  22.095  26.486  1.00  0.00     0.118 C 
BRANCH  28  29
ATOM     29  N   UNL A   1      40.645  22.072  26.064  1.00  0.00    -0.352 N 
ATOM     30  C   UNL A   1      41.593  23.082  26.114  1.00  0.00     0.251 C 
ATOM     31  H   UNL A   1      40.959  21.217  25.692  1.00  0.00     0.163 HD
ATOM     32  O   UNL A   1      42.628  23.017  25.482  1.00  0.00    -0.269 OA
BRANCH  30  33
ATOM     33  C   UNL A   1      41.298  24.236  26.975  1.00  0.00     0.039 A 
ATOM     34  C   UNL A   1      41.965  24.455  28.179  1.00  0.00     0.014 A 
ATOM     35  C   UNL A   1      40.433  25.183  26.443  1.00  0.00     0.014 A 
ATOM     36  C   UNL A   1      41.815  25.698  28.785  1.00  0.00     0.010 A 
ATOM     37  C   UNL A   1      40.535  26.471  26.875  1.00  0.00     0.010 A 
ATOM     38  C   UNL A   1      41.128  26.717  28.098  1.00  0.00    -0.014 A 
BRANCH  38  39
ATOM     39  C   UNL A   1      41.085  28.086  28.587  1.00  0.00     0.031 A 
ATOM     40  C   UNL A   1      42.220  28.913  28.123  1.00  0.00     0.074 A 
ATOM     41  C   UNL A   1      40.050  28.609  29.281  1.00  0.00     0.049 A 
ATOM     42  N   UNL A   1      43.309  29.142  28.774  1.00  0.00    -0.248 NA
ATOM     43  C   UNL A   1      42.257  29.356  26.722  1.00  0.00     0.031 C 
ATOM     44  C   UNL A   1      38.722  28.044  29.556  1.00  0.00     0.029 A 
ATOM     45  N   UNL A   1      39.977  29.829  29.879  1.00  0.00    -0.354 N 
ATOM     46  C   UNL A   1      44.065  29.977  27.966  1.00  0.00     0.074 A 
ATOM     47  C   UNL A   1      43.479  29.896  26.653  1.00  0.00     0.031 C 
ATOM     48  C   UNL A   1      37.913  28.995  30.079  1.00  0.00     0.029 A 
ATOM     49  C   UNL A   1      38.717  30.165  30.365  1.00  0.00     0.049 A 
ATOM     50  H   UNL A   1      40.754  30.427  29.960  1.00  0.00     0.167 HD
ATOM     51  C   UNL A   1      44.923  30.871  28.532  1.00  0.00     0.037 A 
ATOM     52  C   UNL A   1      38.376  31.317  30.994  1.00  0.00     0.037 A 
ATOM     53  C   UNL A   1      45.123  30.563  29.931  1.00  0.00     0.049 A 
ATOM     54  C   UNL A   1      39.630  31.897  31.532  1.00  0.00     0.074 A 
ATOM     55  C   UNL A   1      45.637  29.496  30.641  1.00  0.00     0.029 A 
ATOM     56  N   UNL A   1      44.362  31.280  30.823  1.00  0.00    -0.354 N 
ATOM     57  N   UNL A   1      40.331  31.346  32.483  1.00  0.00    -0.248 NA
ATOM     58  C   UNL A   1      40.347  32.840  30.691  1.00  0.00     0.031 C 
ATOM     59  C   UNL A   1      44.801  29.380  31.796  1.00  0.00     0.029 A 
ATOM     60  C   UNL A   1      43.875  30.425  31.775  1.00  0.00     0.049 A 
ATOM     61  H   UNL A   1      44.196  32.249  30.784  1.00  0.00     0.167 HD
ATOM     62  C   UNL A   1      41.651  31.520  32.092  1.00  0.00     0.074 A 
ATOM     63  C   UNL A   1      41.599  32.531  31.036  1.00  0.00     0.031 C 
ATOM     64  C   UNL A   1      42.614  30.622  32.461  1.00  0.00     0.037 A 
BRANCH  51  65
ATOM     65  C   UNL A   1      45.214  32.246  27.980  1.00  0.00     0.057 A 
ATOM     66  C   UNL A   1      44.153  33.165  27.869  1.00  0.00     0.134 A 
ATOM     67  C   UNL A   1      46.385  32.597  27.280  1.00  0.00     0.134 A 
ATOM     68  F   UNL A   1      42.982  32.942  28.482  1.00  0.00    -0.206 F 
ATOM     69  C   UNL A   1      44.225  34.298  27.049  1.00  0.00     0.040 A 
ATOM     70  C   UNL A   1      46.482  33.752  26.499  1.00  0.00     0.040 A 
ATOM     71  F   UNL A   1      47.459  31.803  27.221  1.00  0.00    -0.206 F 
ATOM     72  C   UNL A   1      45.390  34.589  26.354  1.00  0.00     0.006 A 
ENDBRANCH  51  65
BRANCH  52  73
ATOM     73  C   UNL A   1      37.141  32.120  30.845  1.00  0.00     0.057 A 
ATOM     74  C   UNL A   1      36.833  32.750  29.630  1.00  0.00     0.134 A 
ATOM     75  C   UNL A   1      36.092  32.023  31.773  1.00  0.00     0.134 A 
ATOM     76  F   UNL A   1      37.759  32.855  28.665  1.00  0.00    -0.206 F 
ATOM     77  C   UNL A   1      35.546  33.221  29.339  1.00  0.00     0.040 A 
ATOM     78  C   UNL A   1      34.801  32.489  31.496  1.00  0.00     0.040 A 
ATOM     79  F   UNL A   1      36.260  31.382  32.940  1.00  0.00    -0.206 F 
ATOM     80  C   UNL A   1      34.520  33.077  30.268  1.00  0.00     0.006 A 
ENDBRANCH  52  73
BRANCH  64  81
ATOM     81  C   UNL A   1      42.267  29.633  33.546  1.00  0.00     0.057 A 
ATOM     82  C   UNL A   1      41.746  28.348  33.328  1.00  0.00     0.134 A 
ATOM     83  C   UNL A   1      42.595  29.961  34.866  1.00  0.00     0.134 A 
ATOM     84  F   UNL A   1      41.477  27.906  32.093  1.00  0.00    -0.206 F 
ATOM     85  C   UNL A   1      41.531  27.449  34.379  1.00  0.00     0.040 A 
ATOM     86  C   UNL A   1      42.416  29.062  35.920  1.00  0.00     0.040 A 
ATOM     87  F   UNL A   1      43.141  31.155  35.149  1.00  0.00    -0.206 F 
ATOM     88  C   UNL A   1      41.874  27.803  35.680  1.00  0.00     0.006 A 
ENDBRANCH  64  81
ENDBRANCH  38  39
ENDBRANCH  30  33
ENDBRANCH  28  29
ENDBRANCH  27  28
ENDBRANCH   1  27
TORSDOF 13
ENDMDL
