MODEL 1
REMARK VINA RESULT:     -11.5      0.000      0.000
REMARK SMILES CC[C@](O)(C(=O)NCCCNC(=O)c1ccc(-c2c3nc(c(-c4c(F)cccc4F)c4ccc([nH]4)c(-c4c(F)cccc4F)c4nc(c(-c5c(F)cccc5F)c5ccc2[nH]5)C=C4)C=C3)cc1)[C@@H](C)c1ccc2c(c1)OCCO2
REMARK SMILES IDX 9 1 8 2 7 3 5 4 6 5 3 7 2 8 1 9 68 10 69 11 70 12 71 13
REMARK SMILES IDX 75 14 72 15 74 16 73 17 76 18 79 19 77 20 78 21 4 22 10 24
REMARK SMILES IDX 11 25 12 26 13 28 14 29 15 30 67 31 16 32 66 33 17 34 18 35
REMARK SMILES IDX 19 36 60 37 20 38 65 39 59 40 61 41 21 42 64 43 58 44 57 45
REMARK SMILES IDX 22 47 48 48 31 49 47 50 32 51 35 52 46 53 62 54 33 55 34 56
REMARK SMILES IDX 45 58 63 59 36 60 23 61 24 62 29 63 25 64 26 65 28 66 30 67
REMARK SMILES IDX 27 68 49 69 50 70 55 71 51 72 52 73 54 74 56 75 53 76 37 77
REMARK SMILES IDX 38 78 43 79 39 80 40 81 42 82 44 83 41 84
REMARK H PARENT 7 6 4 23 11 27 61 46 35 57
REMARK Flexibility Score: inf
ROOT
ATOM      1  C   UNL A   1      37.945  19.617  24.810  1.00  0.00     0.042 C 
ENDROOT
BRANCH   1   2
ATOM      2  C   UNL A   1      36.612  20.318  24.991  1.00  0.00     0.117 C 
BRANCH   2   3
ATOM      3  N   UNL A   1      36.732  21.738  25.261  1.00  0.00    -0.354 N 
ATOM      4  C   UNL A   1      35.772  22.619  25.694  1.00  0.00     0.252 C 
ATOM      5  O   UNL A   1      36.146  23.746  26.023  1.00  0.00    -0.272 OA
ATOM      6  H   UNL A   1      37.625  22.124  25.114  1.00  0.00     0.163 HD
BRANCH   4   7
ATOM      7  C   UNL A   1      34.292  22.149  25.777  1.00  0.00     0.149 C 
BRANCH   7   8
ATOM      8  C   UNL A   1      33.416  23.390  26.164  1.00  0.00     0.043 C 
ATOM      9  C   UNL A   1      32.382  23.211  27.272  1.00  0.00     0.007 C 
ENDBRANCH   7   8
BRANCH   7  10
ATOM     10  C   UNL A   1      33.798  21.578  24.411  1.00  0.00     0.058 C 
ATOM     11  C   UNL A   1      32.890  20.331  24.503  1.00  0.00     0.016 C 
BRANCH  10  12
ATOM     12  C   UNL A   1      33.024  22.636  23.626  1.00  0.00    -0.038 A 
ATOM     13  C   UNL A   1      31.630  22.764  23.753  1.00  0.00     0.008 A 
ATOM     14  C   UNL A   1      33.731  23.557  22.838  1.00  0.00     0.054 A 
ATOM     15  C   UNL A   1      30.980  23.885  23.236  1.00  0.00     0.051 A 
ATOM     16  C   UNL A   1      33.100  24.687  22.377  1.00  0.00     0.161 A 
ATOM     17  C   UNL A   1      31.747  24.881  22.645  1.00  0.00     0.161 A 
ATOM     18  O   UNL A   1      33.895  25.654  21.834  1.00  0.00    -0.486 OA
ATOM     19  O   UNL A   1      31.228  26.152  22.547  1.00  0.00    -0.486 OA
ATOM     20  C   UNL A   1      33.516  26.959  22.288  1.00  0.00     0.271 C 
ATOM     21  C   UNL A   1      32.240  26.992  23.134  1.00  0.00     0.271 C 
ENDBRANCH  10  12
ENDBRANCH   7  10
BRANCH   7  22
ATOM     22  O   UNL A   1      34.300  21.081  26.741  1.00  0.00    -0.379 OA
ATOM     23  H   UNL A   1      35.208  20.930  27.048  1.00  0.00     0.212 HD
ENDBRANCH   7  22
ENDBRANCH   4   7
ENDBRANCH   2   3
ENDBRANCH   1   2
BRANCH   1  24
ATOM     24  C   UNL A   1      39.032  20.175  25.709  1.00  0.00     0.118 C 
BRANCH  24  25
ATOM     25  N   UNL A   1      40.167  19.264  25.827  1.00  0.00    -0.352 N 
ATOM     26  C   UNL A   1      41.486  19.520  26.076  1.00  0.00     0.251 C 
ATOM     27  H   UNL A   1      39.947  18.313  25.708  1.00  0.00     0.163 HD
ATOM     28  O   UNL A   1      42.327  18.641  25.869  1.00  0.00    -0.269 OA
BRANCH  26  29
ATOM     29  C   UNL A   1      41.905  20.838  26.585  1.00  0.00     0.039 A 
ATOM     30  C   UNL A   1      42.335  21.811  25.682  1.00  0.00     0.014 A 
ATOM     31  C   UNL A   1      41.891  21.106  27.956  1.00  0.00     0.014 A 
ATOM     32  C   UNL A   1      42.684  23.077  26.152  1.00  0.00     0.010 A 
ATOM     33  C   UNL A   1      42.133  22.395  28.410  1.00  0.00     0.010 A 
ATOM     34  C   UNL A   1      42.543  23.390  27.513  1.00  0.00    -0.014 A 
BRANCH  34  35
ATOM     35  C   UNL A   1      42.822  24.755  28.020  1.00  0.00     0.031 A 
ATOM     36  C   UNL A   1      44.221  25.147  28.405  1.00  0.00     0.074 A 
ATOM     37  C   UNL A   1      41.800  25.617  28.186  1.00  0.00     0.049 A 
ATOM     38  N   UNL A   1      44.652  26.273  28.914  1.00  0.00    -0.248 NA
ATOM     39  C   UNL A   1      45.273  24.133  28.223  1.00  0.00     0.031 C 
ATOM     40  C   UNL A   1      40.392  25.327  27.904  1.00  0.00     0.029 A 
ATOM     41  N   UNL A   1      41.787  26.911  28.639  1.00  0.00    -0.354 N 
ATOM     42  C   UNL A   1      46.014  26.100  29.116  1.00  0.00     0.074 A 
ATOM     43  C   UNL A   1      46.331  24.741  28.739  1.00  0.00     0.031 C 
ATOM     44  C   UNL A   1      39.658  26.421  28.159  1.00  0.00     0.029 A 
ATOM     45  C   UNL A   1      40.533  27.472  28.664  1.00  0.00     0.049 A 
ATOM     46  H   UNL A   1      42.599  27.392  28.919  1.00  0.00     0.167 HD
ATOM     47  C   UNL A   1      46.925  27.003  29.548  1.00  0.00     0.037 A 
ATOM     48  C   UNL A   1      40.135  28.695  29.060  1.00  0.00     0.037 A 
ATOM     49  C   UNL A   1      46.607  28.360  29.905  1.00  0.00     0.049 A 
ATOM     50  C   UNL A   1      41.168  29.673  29.549  1.00  0.00     0.074 A 
ATOM     51  C   UNL A   1      47.465  29.368  30.306  1.00  0.00     0.029 A 
ATOM     52  N   UNL A   1      45.329  28.896  29.904  1.00  0.00    -0.354 N 
ATOM     53  N   UNL A   1      42.465  29.519  29.663  1.00  0.00    -0.248 NA
ATOM     54  C   UNL A   1      40.683  30.999  29.954  1.00  0.00     0.031 C 
ATOM     55  C   UNL A   1      46.699  30.502  30.596  1.00  0.00     0.029 A 
ATOM     56  C   UNL A   1      45.371  30.216  30.321  1.00  0.00     0.049 A 
ATOM     57  H   UNL A   1      44.512  28.411  29.646  1.00  0.00     0.167 HD
ATOM     58  C   UNL A   1      42.952  30.734  30.127  1.00  0.00     0.074 A 
ATOM     59  C   UNL A   1      41.814  31.621  30.249  1.00  0.00     0.031 C 
ATOM     60  C   UNL A   1      44.227  31.085  30.429  1.00  0.00     0.037 A 
BRANCH  47  61
ATOM     61  C   UNL A   1      48.356  26.557  29.646  1.00  0.00     0.057 A 
ATOM     62  C   UNL A   1      49.271  26.780  28.608  1.00  0.00     0.134 A 
ATOM     63  C   UNL A   1      48.839  25.943  30.809  1.00  0.00     0.134 A 
ATOM     64  F   UNL A   1      48.872  27.351  27.461  1.00  0.00    -0.206 F 
ATOM     65  C   UNL A   1      50.608  26.393  28.715  1.00  0.00     0.040 A 
ATOM     66  C   UNL A   1      50.179  25.577  30.939  1.00  0.00     0.040 A 
ATOM     67  F   UNL A   1      48.018  25.702  31.843  1.00  0.00    -0.206 F 
ATOM     68  C   UNL A   1      51.067  25.798  29.888  1.00  0.00     0.006 A 
ENDBRANCH  47  61
BRANCH  48  69
ATOM     69  C   UNL A   1      38.700  29.072  29.003  1.00  0.00     0.057 A 
ATOM     70  C   UNL A   1      38.125  29.560  27.823  1.00  0.00     0.134 A 
ATOM     71  C   UNL A   1      37.875  28.980  30.131  1.00  0.00     0.134 A 
ATOM     72  F   UNL A   1      38.867  29.686  26.713  1.00  0.00    -0.206 F 
ATOM     73  C   UNL A   1      36.792  29.973  27.775  1.00  0.00     0.040 A 
ATOM     74  C   UNL A   1      36.532  29.360  30.088  1.00  0.00     0.040 A 
ATOM     75  F   UNL A   1      38.360  28.509  31.289  1.00  0.00    -0.206 F 
ATOM     76  C   UNL A   1      35.991  29.870  28.910  1.00  0.00     0.006 A 
ENDBRANCH  48  69
BRANCH  60  77
ATOM     77  C   UNL A   1      44.457  32.497  30.887  1.00  0.00     0.057 A 
ATOM     78  C   UNL A   1      44.732  33.532  29.986  1.00  0.00     0.134 A 
ATOM     79  C   UNL A   1      44.377  32.825  32.247  1.00  0.00     0.134 A 
ATOM     80  F   UNL A   1      44.835  33.282  28.672  1.00  0.00    -0.206 F 
ATOM     81  C   UNL A   1      44.951  34.839  30.423  1.00  0.00     0.040 A 
ATOM     82  C   UNL A   1      44.562  34.134  32.693  1.00  0.00     0.040 A 
ATOM     83  F   UNL A   1      44.105  31.882  33.162  1.00  0.00    -0.206 F 
ATOM     84  C   UNL A   1      44.860  35.144  31.780  1.00  0.00     0.006 A 
ENDBRANCH  60  77
ENDBRANCH  34  35
ENDBRANCH  26  29
ENDBRANCH  24  25
ENDBRANCH   1  24
TORSDOF 14
ENDMDL
MODEL 2
REMARK VINA RESULT:     -11.5      1.199      1.882
REMARK SMILES CC[C@](O)(C(=O)NCCCNC(=O)c1ccc(-c2c3nc(c(-c4c(F)cccc4F)c4ccc([nH]4)c(-c4c(F)cccc4F)c4nc(c(-c5c(F)cccc5F)c5ccc2[nH]5)C=C4)C=C3)cc1)[C@@H](C)c1ccc2c(c1)OCCO2
REMARK SMILES IDX 9 1 8 2 7 3 5 4 6 5 3 7 2 8 1 9 68 10 69 11 70 12 71 13
REMARK SMILES IDX 75 14 72 15 74 16 73 17 76 18 79 19 77 20 78 21 4 22 10 24
REMARK SMILES IDX 11 25 12 26 13 28 14 29 15 30 67 31 16 32 66 33 17 34 18 35
REMARK SMILES IDX 19 36 60 37 20 38 65 39 59 40 61 41 21 42 64 43 58 44 57 45
REMARK SMILES IDX 22 47 48 48 31 49 47 50 32 51 35 52 46 53 62 54 33 55 34 56
REMARK SMILES IDX 45 58 63 59 36 60 23 61 24 62 29 63 25 64 26 65 28 66 30 67
REMARK SMILES IDX 27 68 49 69 50 70 55 71 51 72 52 73 54 74 56 75 53 76 37 77
REMARK SMILES IDX 38 78 43 79 39 80 40 81 42 82 44 83 41 84
REMARK H PARENT 7 6 4 23 11 27 61 46 35 57
REMARK Flexibility Score: inf
ROOT
ATOM      1  C   UNL A   1      37.944  19.428  24.851  1.00  0.00     0.042 C 
ENDROOT
BRANCH   1   2
ATOM      2  C   UNL A   1      36.638  20.184  25.001  1.00  0.00     0.117 C 
BRANCH   2   3
ATOM      3  N   UNL A   1      36.810  21.589  25.316  1.00  0.00    -0.354 N 
ATOM      4  C   UNL A   1      35.882  22.494  25.768  1.00  0.00     0.252 C 
ATOM      5  O   UNL A   1      36.297  23.595  26.134  1.00  0.00    -0.272 OA
ATOM      6  H   UNL A   1      37.719  21.944  25.187  1.00  0.00     0.163 HD
BRANCH   4   7
ATOM      7  C   UNL A   1      34.385  22.080  25.825  1.00  0.00     0.149 C 
BRANCH   7   8
ATOM      8  C   UNL A   1      33.548  23.358  26.179  1.00  0.00     0.043 C 
ATOM      9  C   UNL A   1      32.464  23.224  27.246  1.00  0.00     0.007 C 
ENDBRANCH   7   8
BRANCH   7  10
ATOM     10  C   UNL A   1      33.898  21.512  24.455  1.00  0.00     0.058 C 
ATOM     11  C   UNL A   1      32.980  20.271  24.541  1.00  0.00     0.016 C 
BRANCH  10  12
ATOM     12  C   UNL A   1      33.138  22.574  23.663  1.00  0.00    -0.038 A 
ATOM     13  C   UNL A   1      31.737  22.666  23.724  1.00  0.00     0.008 A 
ATOM     14  C   UNL A   1      33.859  23.534  22.937  1.00  0.00     0.054 A 
ATOM     15  C   UNL A   1      31.086  23.788  23.208  1.00  0.00     0.051 A 
ATOM     16  C   UNL A   1      33.225  24.662  22.477  1.00  0.00     0.161 A 
ATOM     17  C   UNL A   1      31.856  24.817  22.683  1.00  0.00     0.161 A 
ATOM     18  O   UNL A   1      34.022  25.663  22.002  1.00  0.00    -0.486 OA
ATOM     19  O   UNL A   1      31.311  26.079  22.596  1.00  0.00    -0.486 OA
ATOM     20  C   UNL A   1      33.589  26.945  22.473  1.00  0.00     0.271 C 
ATOM     21  C   UNL A   1      32.273  26.924  23.255  1.00  0.00     0.271 C 
ENDBRANCH  10  12
ENDBRANCH   7  10
BRANCH   7  22
ATOM     22  O   UNL A   1      34.333  21.025  26.801  1.00  0.00    -0.379 OA
ATOM     23  H   UNL A   1      34.618  20.192  26.392  1.00  0.00     0.212 HD
ENDBRANCH   7  22
ENDBRANCH   4   7
ENDBRANCH   2   3
ENDBRANCH   1   2
BRANCH   1  24
ATOM     24  C   UNL A   1      39.057  19.995  25.711  1.00  0.00     0.118 C 
BRANCH  24  25
ATOM     25  N   UNL A   1      40.138  19.034  25.912  1.00  0.00    -0.352 N 
ATOM     26  C   UNL A   1      41.478  19.233  26.095  1.00  0.00     0.251 C 
ATOM     27  H   UNL A   1      39.857  18.091  25.917  1.00  0.00     0.163 HD
ATOM     28  O   UNL A   1      42.257  18.284  25.976  1.00  0.00    -0.269 OA
BRANCH  26  29
ATOM     29  C   UNL A   1      41.993  20.574  26.426  1.00  0.00     0.039 A 
ATOM     30  C   UNL A   1      42.291  21.463  25.392  1.00  0.00     0.014 A 
ATOM     31  C   UNL A   1      42.197  20.947  27.756  1.00  0.00     0.014 A 
ATOM     32  C   UNL A   1      42.730  22.751  25.700  1.00  0.00     0.010 A 
ATOM     33  C   UNL A   1      42.527  22.259  28.063  1.00  0.00     0.010 A 
ATOM     34  C   UNL A   1      42.809  23.171  27.038  1.00  0.00    -0.014 A 
BRANCH  34  35
ATOM     35  C   UNL A   1      43.185  24.562  27.385  1.00  0.00     0.031 A 
ATOM     36  C   UNL A   1      44.627  24.986  27.348  1.00  0.00     0.074 A 
ATOM     37  C   UNL A   1      42.230  25.421  27.789  1.00  0.00     0.049 A 
ATOM     38  N   UNL A   1      45.156  26.140  27.666  1.00  0.00    -0.248 NA
ATOM     39  C   UNL A   1      45.611  23.974  26.927  1.00  0.00     0.031 C 
ATOM     40  C   UNL A   1      40.806  25.104  27.922  1.00  0.00     0.029 A 
ATOM     41  N   UNL A   1      42.313  26.735  28.168  1.00  0.00    -0.354 N 
ATOM     42  C   UNL A   1      46.524  25.990  27.489  1.00  0.00     0.074 A 
ATOM     43  C   UNL A   1      46.756  24.617  27.101  1.00  0.00     0.031 C 
ATOM     44  C   UNL A   1      40.146  26.202  28.321  1.00  0.00     0.029 A 
ATOM     45  C   UNL A   1      41.102  27.286  28.515  1.00  0.00     0.049 A 
ATOM     46  H   UNL A   1      43.159  27.238  28.189  1.00  0.00     0.167 HD
ATOM     47  C   UNL A   1      47.498  26.922  27.609  1.00  0.00     0.037 A 
ATOM     48  C   UNL A   1      40.801  28.523  28.950  1.00  0.00     0.037 A 
ATOM     49  C   UNL A   1      47.260  28.292  27.978  1.00  0.00     0.049 A 
ATOM     50  C   UNL A   1      41.906  29.534  29.088  1.00  0.00     0.074 A 
ATOM     51  C   UNL A   1      48.172  29.328  28.080  1.00  0.00     0.029 A 
ATOM     52  N   UNL A   1      46.019  28.816  28.309  1.00  0.00    -0.354 N 
ATOM     53  N   UNL A   1      43.187  29.398  28.845  1.00  0.00    -0.248 NA
ATOM     54  C   UNL A   1      41.521  30.874  29.552  1.00  0.00     0.031 C 
ATOM     55  C   UNL A   1      47.490  30.467  28.520  1.00  0.00     0.029 A 
ATOM     56  C   UNL A   1      46.145  30.155  28.637  1.00  0.00     0.049 A 
ATOM     57  H   UNL A   1      45.174  28.311  28.310  1.00  0.00     0.167 HD
ATOM     58  C   UNL A   1      43.756  30.639  29.099  1.00  0.00     0.074 A 
ATOM     59  C   UNL A   1      42.676  31.521  29.492  1.00  0.00     0.031 C 
ATOM     60  C   UNL A   1      45.055  31.017  29.019  1.00  0.00     0.037 A 
BRANCH  47  61
ATOM     61  C   UNL A   1      48.910  26.496  27.326  1.00  0.00     0.057 A 
ATOM     62  C   UNL A   1      49.764  26.050  28.346  1.00  0.00     0.134 A 
ATOM     63  C   UNL A   1      49.407  26.481  26.017  1.00  0.00     0.134 A 
ATOM     64  F   UNL A   1      49.355  26.052  29.624  1.00  0.00    -0.206 F 
ATOM     65  C   UNL A   1      51.065  25.624  28.075  1.00  0.00     0.040 A 
ATOM     66  C   UNL A   1      50.697  26.030  25.731  1.00  0.00     0.040 A 
ATOM     67  F   UNL A   1      48.643  26.891  24.993  1.00  0.00    -0.206 F 
ATOM     68  C   UNL A   1      51.531  25.605  26.763  1.00  0.00     0.006 A 
ENDBRANCH  47  61
BRANCH  48  69
ATOM     69  C   UNL A   1      39.398  28.882  29.277  1.00  0.00     0.057 A 
ATOM     70  C   UNL A   1      38.876  28.672  30.559  1.00  0.00     0.134 A 
ATOM     71  C   UNL A   1      38.537  29.421  28.312  1.00  0.00     0.134 A 
ATOM     72  F   UNL A   1      39.646  28.145  31.523  1.00  0.00    -0.206 F 
ATOM     73  C   UNL A   1      37.542  28.951  30.862  1.00  0.00     0.040 A 
ATOM     74  C   UNL A   1      37.210  29.733  28.610  1.00  0.00     0.040 A 
ATOM     75  F   UNL A   1      38.979  29.659  27.068  1.00  0.00    -0.206 F 
ATOM     76  C   UNL A   1      36.705  29.487  29.884  1.00  0.00     0.006 A 
ENDBRANCH  48  69
BRANCH  60  77
ATOM     77  C   UNL A   1      45.370  32.452  29.331  1.00  0.00     0.057 A 
ATOM     78  C   UNL A   1      45.333  33.449  28.348  1.00  0.00     0.134 A 
ATOM     79  C   UNL A   1      45.692  32.842  30.638  1.00  0.00     0.134 A 
ATOM     80  F   UNL A   1      45.045  33.140  27.075  1.00  0.00    -0.206 F 
ATOM     81  C   UNL A   1      45.635  34.778  28.647  1.00  0.00     0.040 A 
ATOM     82  C   UNL A   1      45.964  34.173  30.955  1.00  0.00     0.040 A 
ATOM     83  F   UNL A   1      45.734  31.939  31.628  1.00  0.00    -0.206 F 
ATOM     84  C   UNL A   1      45.944  35.144  29.956  1.00  0.00     0.006 A 
ENDBRANCH  60  77
ENDBRANCH  34  35
ENDBRANCH  26  29
ENDBRANCH  24  25
ENDBRANCH   1  24
TORSDOF 14
ENDMDL
MODEL 3
REMARK VINA RESULT:     -11.5      4.485      9.287
REMARK SMILES CC[C@](O)(C(=O)NCCCNC(=O)c1ccc(-c2c3nc(c(-c4c(F)cccc4F)c4ccc([nH]4)c(-c4c(F)cccc4F)c4nc(c(-c5c(F)cccc5F)c5ccc2[nH]5)C=C4)C=C3)cc1)[C@@H](C)c1ccc2c(c1)OCCO2
REMARK SMILES IDX 9 1 8 2 7 3 5 4 6 5 3 7 2 8 1 9 68 10 69 11 70 12 71 13
REMARK SMILES IDX 75 14 72 15 74 16 73 17 76 18 79 19 77 20 78 21 4 22 10 24
REMARK SMILES IDX 11 25 12 26 13 28 14 29 15 30 67 31 16 32 66 33 17 34 18 35
REMARK SMILES IDX 19 36 60 37 20 38 65 39 59 40 61 41 21 42 64 43 58 44 57 45
REMARK SMILES IDX 22 47 48 48 31 49 47 50 32 51 35 52 46 53 62 54 33 55 34 56
REMARK SMILES IDX 45 58 63 59 36 60 23 61 24 62 29 63 25 64 26 65 28 66 30 67
REMARK SMILES IDX 27 68 49 69 50 70 55 71 51 72 52 73 54 74 56 75 53 76 37 77
REMARK SMILES IDX 38 78 43 79 39 80 40 81 42 82 44 83 41 84
REMARK H PARENT 7 6 4 23 11 27 61 46 35 57
REMARK Flexibility Score: inf
ROOT
ATOM      1  C   UNL A   1      31.248  31.918  26.517  1.00  0.00     0.042 C 
ENDROOT
BRANCH   1   2
ATOM      2  C   UNL A   1      31.381  30.660  25.680  1.00  0.00     0.117 C 
BRANCH   2   3
ATOM      3  N   UNL A   1      32.367  29.725  26.186  1.00  0.00    -0.354 N 
ATOM      4  C   UNL A   1      32.918  28.631  25.566  1.00  0.00     0.252 C 
ATOM      5  O   UNL A   1      33.868  28.082  26.127  1.00  0.00    -0.272 OA
ATOM      6  H   UNL A   1      32.685  29.898  27.101  1.00  0.00     0.163 HD
BRANCH   4   7
ATOM      7  C   UNL A   1      32.346  28.166  24.197  1.00  0.00     0.149 C 
BRANCH   7   8
ATOM      8  C   UNL A   1      33.169  26.914  23.734  1.00  0.00     0.043 C 
ATOM      9  C   UNL A   1      33.645  26.874  22.285  1.00  0.00     0.007 C 
ENDBRANCH   7   8
BRANCH   7  10
ATOM     10  C   UNL A   1      30.839  27.777  24.311  1.00  0.00     0.058 C 
ATOM     11  C   UNL A   1      29.967  28.138  23.087  1.00  0.00     0.016 C 
BRANCH  10  12
ATOM     12  C   UNL A   1      30.680  26.275  24.543  1.00  0.00    -0.038 A 
ATOM     13  C   UNL A   1      30.501  25.386  23.470  1.00  0.00     0.008 A 
ATOM     14  C   UNL A   1      30.811  25.766  25.844  1.00  0.00     0.054 A 
ATOM     15  C   UNL A   1      30.616  24.010  23.674  1.00  0.00     0.051 A 
ATOM     16  C   UNL A   1      30.977  24.416  26.036  1.00  0.00     0.161 A 
ATOM     17  C   UNL A   1      30.955  23.555  24.942  1.00  0.00     0.161 A 
ATOM     18  O   UNL A   1      31.345  24.016  27.288  1.00  0.00    -0.486 OA
ATOM     19  O   UNL A   1      31.511  22.302  25.073  1.00  0.00    -0.486 OA
ATOM     20  C   UNL A   1      32.375  23.021  27.238  1.00  0.00     0.271 C 
ATOM     21  C   UNL A   1      32.716  22.529  25.830  1.00  0.00     0.271 C 
ENDBRANCH  10  12
ENDBRANCH   7  10
BRANCH   7  22
ATOM     22  O   UNL A   1      32.456  29.319  23.344  1.00  0.00    -0.379 OA
ATOM     23  H   UNL A   1      31.978  29.155  22.516  1.00  0.00     0.212 HD
ENDBRANCH   7  22
ENDBRANCH   4   7
ENDBRANCH   2   3
ENDBRANCH   1   2
BRANCH   1  24
ATOM     24  C   UNL A   1      32.582  32.430  27.028  1.00  0.00     0.118 C 
BRANCH  24  25
ATOM     25  N   UNL A   1      32.510  33.829  27.441  1.00  0.00    -0.352 N 
ATOM     26  C   UNL A   1      33.150  34.488  28.453  1.00  0.00     0.251 C 
ATOM     27  H   UNL A   1      31.904  34.387  26.904  1.00  0.00     0.163 HD
ATOM     28  O   UNL A   1      32.749  35.601  28.804  1.00  0.00    -0.269 OA
BRANCH  26  29
ATOM     29  C   UNL A   1      34.307  33.873  29.126  1.00  0.00     0.039 A 
ATOM     30  C   UNL A   1      34.089  32.942  30.142  1.00  0.00     0.014 A 
ATOM     31  C   UNL A   1      35.609  34.230  28.767  1.00  0.00     0.014 A 
ATOM     32  C   UNL A   1      35.179  32.318  30.749  1.00  0.00     0.010 A 
ATOM     33  C   UNL A   1      36.687  33.531  29.291  1.00  0.00     0.010 A 
ATOM     34  C   UNL A   1      36.483  32.577  30.297  1.00  0.00    -0.014 A 
BRANCH  34  35
ATOM     35  C   UNL A   1      37.649  31.859  30.864  1.00  0.00     0.031 A 
ATOM     36  C   UNL A   1      38.152  32.201  32.239  1.00  0.00     0.074 A 
ATOM     37  C   UNL A   1      38.286  30.940  30.112  1.00  0.00     0.049 A 
ATOM     38  N   UNL A   1      39.184  31.721  32.883  1.00  0.00    -0.248 NA
ATOM     39  C   UNL A   1      37.416  33.241  32.979  1.00  0.00     0.031 C 
ATOM     40  C   UNL A   1      37.927  30.569  28.742  1.00  0.00     0.029 A 
ATOM     41  N   UNL A   1      39.375  30.156  30.393  1.00  0.00    -0.354 N 
ATOM     42  C   UNL A   1      39.224  32.400  34.093  1.00  0.00     0.074 A 
ATOM     43  C   UNL A   1      38.155  33.373  34.071  1.00  0.00     0.031 C 
ATOM     44  C   UNL A   1      38.758  29.607  28.314  1.00  0.00     0.029 A 
ATOM     45  C   UNL A   1      39.736  29.326  29.359  1.00  0.00     0.049 A 
ATOM     46  H   UNL A   1      39.853  30.185  31.253  1.00  0.00     0.167 HD
ATOM     47  C   UNL A   1      40.058  32.209  35.142  1.00  0.00     0.037 A 
ATOM     48  C   UNL A   1      40.748  28.444  29.263  1.00  0.00     0.037 A 
ATOM     49  C   UNL A   1      41.109  31.227  35.166  1.00  0.00     0.049 A 
ATOM     50  C   UNL A   1      41.667  28.262  30.439  1.00  0.00     0.074 A 
ATOM     51  C   UNL A   1      41.977  30.919  36.198  1.00  0.00     0.029 A 
ATOM     52  N   UNL A   1      41.435  30.394  34.106  1.00  0.00    -0.354 N 
ATOM     53  N   UNL A   1      41.647  28.860  31.606  1.00  0.00    -0.248 NA
ATOM     54  C   UNL A   1      42.746  27.277  30.288  1.00  0.00     0.031 C 
ATOM     55  C   UNL A   1      42.861  29.934  35.745  1.00  0.00     0.029 A 
ATOM     56  C   UNL A   1      42.507  29.588  34.451  1.00  0.00     0.049 A 
ATOM     57  H   UNL A   1      40.973  30.378  33.236  1.00  0.00     0.167 HD
ATOM     58  C   UNL A   1      42.689  28.304  32.336  1.00  0.00     0.074 A 
ATOM     59  C   UNL A   1      43.306  27.305  31.488  1.00  0.00     0.031 C 
ATOM     60  C   UNL A   1      43.103  28.595  33.594  1.00  0.00     0.037 A 
BRANCH  47  61
ATOM     61  C   UNL A   1      39.860  33.070  36.356  1.00  0.00     0.057 A 
ATOM     62  C   UNL A   1      40.546  34.282  36.520  1.00  0.00     0.134 A 
ATOM     63  C   UNL A   1      38.938  32.712  37.348  1.00  0.00     0.134 A 
ATOM     64  F   UNL A   1      41.453  34.678  35.614  1.00  0.00    -0.206 F 
ATOM     65  C   UNL A   1      40.335  35.096  37.635  1.00  0.00     0.040 A 
ATOM     66  C   UNL A   1      38.699  33.531  38.452  1.00  0.00     0.040 A 
ATOM     67  F   UNL A   1      38.245  31.567  37.253  1.00  0.00    -0.206 F 
ATOM     68  C   UNL A   1      39.403  34.724  38.600  1.00  0.00     0.006 A 
ENDBRANCH  47  61
BRANCH  48  69
ATOM     69  C   UNL A   1      40.943  27.658  28.018  1.00  0.00     0.057 A 
ATOM     70  C   UNL A   1      41.712  28.156  26.959  1.00  0.00     0.134 A 
ATOM     71  C   UNL A   1      40.346  26.403  27.845  1.00  0.00     0.134 A 
ATOM     72  F   UNL A   1      42.297  29.359  27.058  1.00  0.00    -0.206 F 
ATOM     73  C   UNL A   1      41.853  27.452  25.762  1.00  0.00     0.040 A 
ATOM     74  C   UNL A   1      40.505  25.674  26.665  1.00  0.00     0.040 A 
ATOM     75  F   UNL A   1      39.607  25.863  28.826  1.00  0.00    -0.206 F 
ATOM     76  C   UNL A   1      41.250  26.204  25.615  1.00  0.00     0.006 A 
ENDBRANCH  48  69
BRANCH  60  77
ATOM     77  C   UNL A   1      44.254  27.798  34.136  1.00  0.00     0.057 A 
ATOM     78  C   UNL A   1      45.576  28.254  34.051  1.00  0.00     0.134 A 
ATOM     79  C   UNL A   1      44.032  26.570  34.773  1.00  0.00     0.134 A 
ATOM     80  F   UNL A   1      45.858  29.415  33.442  1.00  0.00    -0.206 F 
ATOM     81  C   UNL A   1      46.639  27.501  34.552  1.00  0.00     0.040 A 
ATOM     82  C   UNL A   1      45.083  25.824  35.306  1.00  0.00     0.040 A 
ATOM     83  F   UNL A   1      42.789  26.081  34.898  1.00  0.00    -0.206 F 
ATOM     84  C   UNL A   1      46.394  26.286  35.188  1.00  0.00     0.006 A 
ENDBRANCH  60  77
ENDBRANCH  34  35
ENDBRANCH  26  29
ENDBRANCH  24  25
ENDBRANCH   1  24
TORSDOF 14
ENDMDL
