MODEL 1
REMARK VINA RESULT:     -11.9      0.000      0.000
REMARK SMILES Cc1c(Br)c(C(=O)NCCCNC(=O)c2ccc(-c3c4nc(c(-c5c(F)cccc5F)c5ccc([nH]5)c(-c5c(F)cccc5F)c5nc(c(-c6c(F)cccc6F)c6ccc3[nH]6)C=C5)C=C4)cc2)nn1CC(F)(F)F
REMARK SMILES IDX 10 1 9 2 8 3 6 4 7 5 5 7 1 8 2 9 3 10 70 11 4 12 69 13 71 14
REMARK SMILES IDX 72 15 73 16 74 17 75 18 11 19 12 20 13 21 14 23 15 24 16 25
REMARK SMILES IDX 68 26 17 27 67 28 18 29 19 30 20 31 61 32 21 33 66 34 60 35
REMARK SMILES IDX 62 36 22 37 65 38 59 39 58 40 23 42 49 43 32 44 48 45 33 46
REMARK SMILES IDX 36 47 47 48 63 49 34 50 35 51 46 53 64 54 37 55 24 56 25 57
REMARK SMILES IDX 30 58 26 59 27 60 29 61 31 62 28 63 50 64 51 65 56 66 52 67
REMARK SMILES IDX 53 68 55 69 57 70 54 71 38 72 39 73 44 74 40 75 41 76 43 77
REMARK SMILES IDX 45 78 42 79
REMARK H PARENT 8 6 12 22 62 41 36 52
REMARK Flexibility Score: inf
ROOT
ATOM      1  C   UNL A   1      32.758  28.761  26.187  1.00  0.00     0.042 C 
ENDROOT
BRANCH   1   2
ATOM      2  C   UNL A   1      33.182  29.348  24.837  1.00  0.00     0.118 C 
BRANCH   2   3
ATOM      3  N   UNL A   1      33.299  28.338  23.791  1.00  0.00    -0.351 N 
ATOM      4  C   UNL A   1      32.386  27.924  22.837  1.00  0.00     0.272 C 
ATOM      5  O   UNL A   1      32.788  27.102  22.012  1.00  0.00    -0.267 OA
ATOM      6  H   UNL A   1      34.167  27.877  23.758  1.00  0.00     0.163 HD
BRANCH   4   7
ATOM      7  C   UNL A   1      31.010  28.458  22.822  1.00  0.00     0.164 A 
ATOM      8  C   UNL A   1      27.306  28.604  23.129  1.00  0.00     0.067 C 
ATOM      9  C   UNL A   1      28.777  28.721  22.974  1.00  0.00     0.051 A 
ATOM     10  C   UNL A   1      29.801  27.827  23.216  1.00  0.00     0.072 A 
ATOM     11  N   UNL A   1      29.406  29.841  22.496  1.00  0.00    -0.259 N 
ATOM     12  Br  UNL A   1      29.618  26.081  23.883  1.00  0.00    -0.046 Br
ATOM     13  N   UNL A   1      30.732  29.705  22.400  1.00  0.00    -0.166 NA
BRANCH  11  14
ATOM     14  C   UNL A   1      28.825  31.065  21.990  1.00  0.00     0.259 C 
BRANCH  14  15
ATOM     15  C   UNL A   1      28.528  32.051  23.090  1.00  0.00     0.408 C 
ATOM     16  F   UNL A   1      28.732  33.337  22.734  1.00  0.00    -0.169 F 
ATOM     17  F   UNL A   1      27.219  31.952  23.440  1.00  0.00    -0.169 F 
ATOM     18  F   UNL A   1      29.248  31.798  24.206  1.00  0.00    -0.169 F 
ENDBRANCH  14  15
ENDBRANCH  11  14
ENDBRANCH   4   7
ENDBRANCH   2   3
ENDBRANCH   1   2
BRANCH   1  19
ATOM     19  C   UNL A   1      33.570  29.351  27.331  1.00  0.00     0.118 C 
BRANCH  19  20
ATOM     20  N   UNL A   1      33.865  30.777  27.133  1.00  0.00    -0.352 N 
ATOM     21  C   UNL A   1      34.912  31.535  27.628  1.00  0.00     0.251 C 
ATOM     22  H   UNL A   1      33.224  31.265  26.567  1.00  0.00     0.163 HD
ATOM     23  O   UNL A   1      34.865  32.751  27.624  1.00  0.00    -0.269 OA
BRANCH  21  24
ATOM     24  C   UNL A   1      36.091  30.837  28.173  1.00  0.00     0.039 A 
ATOM     25  C   UNL A   1      36.289  29.469  27.961  1.00  0.00     0.014 A 
ATOM     26  C   UNL A   1      37.026  31.590  28.872  1.00  0.00     0.014 A 
ATOM     27  C   UNL A   1      37.487  28.893  28.377  1.00  0.00     0.010 A 
ATOM     28  C   UNL A   1      38.268  31.069  29.109  1.00  0.00     0.010 A 
ATOM     29  C   UNL A   1      38.485  29.708  28.929  1.00  0.00    -0.014 A 
BRANCH  29  30
ATOM     30  C   UNL A   1      39.810  29.180  29.239  1.00  0.00     0.031 A 
ATOM     31  C   UNL A   1      40.117  29.061  30.691  1.00  0.00     0.074 A 
ATOM     32  C   UNL A   1      40.594  28.605  28.299  1.00  0.00     0.049 A 
ATOM     33  N   UNL A   1      41.042  29.667  31.358  1.00  0.00    -0.248 NA
ATOM     34  C   UNL A   1      39.211  28.257  31.532  1.00  0.00     0.031 C 
ATOM     35  C   UNL A   1      40.281  28.349  26.887  1.00  0.00     0.029 A 
ATOM     36  N   UNL A   1      41.803  28.001  28.444  1.00  0.00    -0.354 N 
ATOM     37  C   UNL A   1      40.974  29.167  32.656  1.00  0.00     0.074 A 
ATOM     38  C   UNL A   1      39.729  28.452  32.746  1.00  0.00     0.031 C 
ATOM     39  C   UNL A   1      41.140  27.433  26.391  1.00  0.00     0.029 A 
ATOM     40  C   UNL A   1      42.167  27.180  27.382  1.00  0.00     0.049 A 
ATOM     41  H   UNL A   1      42.375  28.134  29.234  1.00  0.00     0.167 HD
ATOM     42  C   UNL A   1      42.065  29.178  33.472  1.00  0.00     0.037 A 
ATOM     43  C   UNL A   1      43.219  26.328  27.337  1.00  0.00     0.037 A 
ATOM     44  C   UNL A   1      43.076  30.079  32.973  1.00  0.00     0.049 A 
ATOM     45  C   UNL A   1      44.169  26.742  28.398  1.00  0.00     0.074 A 
ATOM     46  C   UNL A   1      43.118  31.429  32.678  1.00  0.00     0.029 A 
ATOM     47  N   UNL A   1      44.164  29.530  32.341  1.00  0.00    -0.354 N 
ATOM     48  N   UNL A   1      44.848  27.854  28.373  1.00  0.00    -0.248 NA
ATOM     49  C   UNL A   1      44.019  26.132  29.709  1.00  0.00     0.031 C 
ATOM     50  C   UNL A   1      43.911  31.520  31.496  1.00  0.00     0.029 A 
ATOM     51  C   UNL A   1      44.366  30.239  31.184  1.00  0.00     0.049 A 
ATOM     52  H   UNL A   1      44.701  28.768  32.658  1.00  0.00     0.167 HD
ATOM     53  C   UNL A   1      44.816  28.313  29.681  1.00  0.00     0.074 A 
ATOM     54  C   UNL A   1      44.382  27.164  30.474  1.00  0.00     0.031 C 
ATOM     55  C   UNL A   1      44.856  29.650  29.960  1.00  0.00     0.037 A 
BRANCH  42  56
ATOM     56  C   UNL A   1      42.390  28.104  34.485  1.00  0.00     0.057 A 
ATOM     57  C   UNL A   1      42.748  26.820  34.031  1.00  0.00     0.134 A 
ATOM     58  C   UNL A   1      42.075  28.180  35.858  1.00  0.00     0.134 A 
ATOM     59  F   UNL A   1      43.066  26.609  32.744  1.00  0.00    -0.206 F 
ATOM     60  C   UNL A   1      42.702  25.689  34.855  1.00  0.00     0.040 A 
ATOM     61  C   UNL A   1      42.078  27.066  36.701  1.00  0.00     0.040 A 
ATOM     62  F   UNL A   1      41.648  29.307  36.438  1.00  0.00    -0.206 F 
ATOM     63  C   UNL A   1      42.356  25.807  36.194  1.00  0.00     0.006 A 
ENDBRANCH  42  56
BRANCH  43  64
ATOM     64  C   UNL A   1      43.323  25.019  26.652  1.00  0.00     0.057 A 
ATOM     65  C   UNL A   1      42.491  23.950  27.014  1.00  0.00     0.134 A 
ATOM     66  C   UNL A   1      44.026  24.872  25.443  1.00  0.00     0.134 A 
ATOM     67  F   UNL A   1      41.754  24.010  28.133  1.00  0.00    -0.206 F 
ATOM     68  C   UNL A   1      42.339  22.817  26.204  1.00  0.00     0.040 A 
ATOM     69  C   UNL A   1      43.889  23.742  24.630  1.00  0.00     0.040 A 
ATOM     70  F   UNL A   1      44.799  25.857  24.965  1.00  0.00    -0.206 F 
ATOM     71  C   UNL A   1      43.028  22.717  24.999  1.00  0.00     0.006 A 
ENDBRANCH  43  64
BRANCH  55  72
ATOM     72  C   UNL A   1      45.211  30.592  28.841  1.00  0.00     0.057 A 
ATOM     73  C   UNL A   1      44.283  31.162  27.955  1.00  0.00     0.134 A 
ATOM     74  C   UNL A   1      46.533  31.039  28.737  1.00  0.00     0.134 A 
ATOM     75  F   UNL A   1      42.977  30.885  28.040  1.00  0.00    -0.206 F 
ATOM     76  C   UNL A   1      44.664  32.086  26.976  1.00  0.00     0.040 A 
ATOM     77  C   UNL A   1      46.920  31.989  27.788  1.00  0.00     0.040 A 
ATOM     78  F   UNL A   1      47.468  30.586  29.586  1.00  0.00    -0.206 F 
ATOM     79  C   UNL A   1      45.987  32.505  26.894  1.00  0.00     0.006 A 
ENDBRANCH  55  72
ENDBRANCH  29  30
ENDBRANCH  21  24
ENDBRANCH  19  20
ENDBRANCH   1  19
TORSDOF 12
ENDMDL
MODEL 2
REMARK VINA RESULT:     -11.7      2.051      6.369
REMARK SMILES Cc1c(Br)c(C(=O)NCCCNC(=O)c2ccc(-c3c4nc(c(-c5c(F)cccc5F)c5ccc([nH]5)c(-c5c(F)cccc5F)c5nc(c(-c6c(F)cccc6F)c6ccc3[nH]6)C=C5)C=C4)cc2)nn1CC(F)(F)F
REMARK SMILES IDX 10 1 9 2 8 3 6 4 7 5 5 7 1 8 2 9 3 10 70 11 4 12 69 13 71 14
REMARK SMILES IDX 72 15 73 16 74 17 75 18 11 19 12 20 13 21 14 23 15 24 16 25
REMARK SMILES IDX 68 26 17 27 67 28 18 29 19 30 20 31 61 32 21 33 66 34 60 35
REMARK SMILES IDX 62 36 22 37 65 38 59 39 58 40 23 42 49 43 32 44 48 45 33 46
REMARK SMILES IDX 36 47 47 48 63 49 34 50 35 51 46 53 64 54 37 55 24 56 25 57
REMARK SMILES IDX 30 58 26 59 27 60 29 61 31 62 28 63 50 64 51 65 56 66 52 67
REMARK SMILES IDX 53 68 55 69 57 70 54 71 38 72 39 73 44 74 40 75 41 76 43 77
REMARK SMILES IDX 45 78 42 79
REMARK H PARENT 8 6 12 22 62 41 36 52
REMARK Flexibility Score: inf
ROOT
ATOM      1  C   UNL A   1      33.750  28.663  26.908  1.00  0.00     0.042 C 
ENDROOT
BRANCH   1   2
ATOM      2  C   UNL A   1      33.183  29.442  25.716  1.00  0.00     0.118 C 
BRANCH   2   3
ATOM      3  N   UNL A   1      33.736  29.005  24.439  1.00  0.00    -0.351 N 
ATOM      4  C   UNL A   1      33.112  28.750  23.231  1.00  0.00     0.272 C 
ATOM      5  O   UNL A   1      33.845  28.473  22.280  1.00  0.00    -0.267 OA
ATOM      6  H   UNL A   1      34.710  28.870  24.436  1.00  0.00     0.163 HD
BRANCH   4   7
ATOM      7  C   UNL A   1      31.642  28.819  23.107  1.00  0.00     0.164 A 
ATOM      8  C   UNL A   1      28.057  27.854  23.347  1.00  0.00     0.067 C 
ATOM      9  C   UNL A   1      29.430  28.396  23.189  1.00  0.00     0.051 A 
ATOM     10  C   UNL A   1      30.660  27.918  23.596  1.00  0.00     0.072 A 
ATOM     11  N   UNL A   1      29.717  29.559  22.524  1.00  0.00    -0.259 N 
ATOM     12  Br  UNL A   1      30.974  26.339  24.563  1.00  0.00    -0.046 Br
ATOM     13  N   UNL A   1      31.025  29.828  22.467  1.00  0.00    -0.166 NA
BRANCH  11  14
ATOM     14  C   UNL A   1      28.826  30.439  21.802  1.00  0.00     0.259 C 
BRANCH  14  15
ATOM     15  C   UNL A   1      28.360  31.596  22.648  1.00  0.00     0.408 C 
ATOM     16  F   UNL A   1      27.122  31.429  23.158  1.00  0.00    -0.169 F 
ATOM     17  F   UNL A   1      29.196  31.743  23.708  1.00  0.00    -0.169 F 
ATOM     18  F   UNL A   1      28.387  32.764  21.968  1.00  0.00    -0.169 F 
ENDBRANCH  14  15
ENDBRANCH  11  14
ENDBRANCH   4   7
ENDBRANCH   2   3
ENDBRANCH   1   2
BRANCH   1  19
ATOM     19  C   UNL A   1      35.180  29.081  27.217  1.00  0.00     0.118 C 
BRANCH  19  20
ATOM     20  N   UNL A   1      35.280  29.870  28.453  1.00  0.00    -0.352 N 
ATOM     21  C   UNL A   1      36.272  29.869  29.418  1.00  0.00     0.251 C 
ATOM     22  H   UNL A   1      34.532  30.488  28.619  1.00  0.00     0.163 HD
ATOM     23  O   UNL A   1      36.079  30.351  30.519  1.00  0.00    -0.269 OA
BRANCH  21  24
ATOM     24  C   UNL A   1      37.574  29.260  29.090  1.00  0.00     0.039 A 
ATOM     25  C   UNL A   1      38.310  29.674  27.975  1.00  0.00     0.014 A 
ATOM     26  C   UNL A   1      38.072  28.288  29.949  1.00  0.00     0.014 A 
ATOM     27  C   UNL A   1      39.594  29.166  27.793  1.00  0.00     0.010 A 
ATOM     28  C   UNL A   1      39.392  27.936  29.874  1.00  0.00     0.010 A 
ATOM     29  C   UNL A   1      40.139  28.314  28.765  1.00  0.00    -0.014 A 
BRANCH  29  30
ATOM     30  C   UNL A   1      41.530  27.879  28.696  1.00  0.00     0.031 A 
ATOM     31  C   UNL A   1      41.763  26.635  27.912  1.00  0.00     0.074 A 
ATOM     32  C   UNL A   1      42.553  28.672  29.089  1.00  0.00     0.049 A 
ATOM     33  N   UNL A   1      42.230  25.507  28.335  1.00  0.00    -0.248 NA
ATOM     34  C   UNL A   1      41.313  26.600  26.509  1.00  0.00     0.031 C 
ATOM     35  C   UNL A   1      42.496  30.058  29.570  1.00  0.00     0.029 A 
ATOM     36  N   UNL A   1      43.891  28.444  29.014  1.00  0.00    -0.354 N 
ATOM     37  C   UNL A   1      42.332  24.686  27.215  1.00  0.00     0.074 A 
ATOM     38  C   UNL A   1      41.591  25.340  26.168  1.00  0.00     0.031 C 
ATOM     39  C   UNL A   1      43.722  30.617  29.491  1.00  0.00     0.029 A 
ATOM     40  C   UNL A   1      44.676  29.586  29.135  1.00  0.00     0.049 A 
ATOM     41  H   UNL A   1      44.274  27.546  28.884  1.00  0.00     0.167 HD
ATOM     42  C   UNL A   1      43.224  23.658  27.175  1.00  0.00     0.037 A 
ATOM     43  C   UNL A   1      46.011  29.680  28.923  1.00  0.00     0.037 A 
ATOM     44  C   UNL A   1      43.696  23.331  28.499  1.00  0.00     0.049 A 
ATOM     45  C   UNL A   1      46.567  28.308  28.992  1.00  0.00     0.074 A 
ATOM     46  C   UNL A   1      43.093  22.937  29.679  1.00  0.00     0.029 A 
ATOM     47  N   UNL A   1      44.951  23.759  28.853  1.00  0.00    -0.354 N 
ATOM     48  N   UNL A   1      46.618  27.598  30.084  1.00  0.00    -0.248 NA
ATOM     49  C   UNL A   1      46.652  27.553  27.752  1.00  0.00     0.031 C 
ATOM     50  C   UNL A   1      43.814  23.619  30.704  1.00  0.00     0.029 A 
ATOM     51  C   UNL A   1      44.855  24.324  30.099  1.00  0.00     0.049 A 
ATOM     52  H   UNL A   1      45.770  23.677  28.313  1.00  0.00     0.167 HD
ATOM     53  C   UNL A   1      46.282  26.313  29.681  1.00  0.00     0.074 A 
ATOM     54  C   UNL A   1      46.415  26.327  28.225  1.00  0.00     0.031 C 
ATOM     55  C   UNL A   1      45.648  25.452  30.530  1.00  0.00     0.037 A 
BRANCH  42  56
ATOM     56  C   UNL A   1      43.967  23.212  25.936  1.00  0.00     0.057 A 
ATOM     57  C   UNL A   1      43.992  21.842  25.609  1.00  0.00     0.134 A 
ATOM     58  C   UNL A   1      44.897  24.005  25.234  1.00  0.00     0.134 A 
ATOM     59  F   UNL A   1      43.160  20.976  26.208  1.00  0.00    -0.206 F 
ATOM     60  C   UNL A   1      44.931  21.295  24.726  1.00  0.00     0.040 A 
ATOM     61  C   UNL A   1      45.804  23.477  24.311  1.00  0.00     0.040 A 
ATOM     62  F   UNL A   1      45.055  25.312  25.472  1.00  0.00    -0.206 F 
ATOM     63  C   UNL A   1      45.850  22.112  24.081  1.00  0.00     0.006 A 
ENDBRANCH  42  56
BRANCH  43  64
ATOM     64  C   UNL A   1      46.783  30.819  28.375  1.00  0.00     0.057 A 
ATOM     65  C   UNL A   1      46.643  31.205  27.034  1.00  0.00     0.134 A 
ATOM     66  C   UNL A   1      47.450  31.731  29.213  1.00  0.00     0.134 A 
ATOM     67  F   UNL A   1      45.993  30.418  26.165  1.00  0.00    -0.206 F 
ATOM     68  C   UNL A   1      47.104  32.441  26.562  1.00  0.00     0.040 A 
ATOM     69  C   UNL A   1      47.922  32.964  28.753  1.00  0.00     0.040 A 
ATOM     70  F   UNL A   1      47.584  31.496  30.526  1.00  0.00    -0.206 F 
ATOM     71  C   UNL A   1      47.733  33.332  27.427  1.00  0.00     0.006 A 
ENDBRANCH  43  64
BRANCH  55  72
ATOM     72  C   UNL A   1      45.568  25.829  31.985  1.00  0.00     0.057 A 
ATOM     73  C   UNL A   1      46.608  25.656  32.912  1.00  0.00     0.134 A 
ATOM     74  C   UNL A   1      44.433  26.511  32.437  1.00  0.00     0.134 A 
ATOM     75  F   UNL A   1      47.777  25.112  32.554  1.00  0.00    -0.206 F 
ATOM     76  C   UNL A   1      46.499  26.089  34.238  1.00  0.00     0.040 A 
ATOM     77  C   UNL A   1      44.327  26.981  33.749  1.00  0.00     0.040 A 
ATOM     78  F   UNL A   1      43.419  26.768  31.597  1.00  0.00    -0.206 F 
ATOM     79  C   UNL A   1      45.356  26.757  34.658  1.00  0.00     0.006 A 
ENDBRANCH  55  72
ENDBRANCH  29  30
ENDBRANCH  21  24
ENDBRANCH  19  20
ENDBRANCH   1  19
TORSDOF 12
ENDMDL
MODEL 3
REMARK VINA RESULT:     -11.7      4.289      7.738
REMARK SMILES Cc1c(Br)c(C(=O)NCCCNC(=O)c2ccc(-c3c4nc(c(-c5c(F)cccc5F)c5ccc([nH]5)c(-c5c(F)cccc5F)c5nc(c(-c6c(F)cccc6F)c6ccc3[nH]6)C=C5)C=C4)cc2)nn1CC(F)(F)F
REMARK SMILES IDX 10 1 9 2 8 3 6 4 7 5 5 7 1 8 2 9 3 10 70 11 4 12 69 13 71 14
REMARK SMILES IDX 72 15 73 16 74 17 75 18 11 19 12 20 13 21 14 23 15 24 16 25
REMARK SMILES IDX 68 26 17 27 67 28 18 29 19 30 20 31 61 32 21 33 66 34 60 35
REMARK SMILES IDX 62 36 22 37 65 38 59 39 58 40 23 42 49 43 32 44 48 45 33 46
REMARK SMILES IDX 36 47 47 48 63 49 34 50 35 51 46 53 64 54 37 55 24 56 25 57
REMARK SMILES IDX 30 58 26 59 27 60 29 61 31 62 28 63 50 64 51 65 56 66 52 67
REMARK SMILES IDX 53 68 55 69 57 70 54 71 38 72 39 73 44 74 40 75 41 76 43 77
REMARK SMILES IDX 45 78 42 79
REMARK H PARENT 8 6 12 22 62 41 36 52
REMARK Flexibility Score: inf
ROOT
ATOM      1  C   UNL A   1      37.663  19.853  24.732  1.00  0.00     0.042 C 
ENDROOT
BRANCH   1   2
ATOM      2  C   UNL A   1      36.378  20.614  25.077  1.00  0.00     0.118 C 
BRANCH   2   3
ATOM      3  N   UNL A   1      35.204  19.750  25.124  1.00  0.00    -0.351 N 
ATOM      4  C   UNL A   1      33.859  20.058  25.026  1.00  0.00     0.272 C 
ATOM      5  O   UNL A   1      33.077  19.106  25.011  1.00  0.00    -0.267 OA
ATOM      6  H   UNL A   1      35.400  18.794  25.244  1.00  0.00     0.163 HD
BRANCH   4   7
ATOM      7  C   UNL A   1      33.406  21.460  24.937  1.00  0.00     0.164 A 
ATOM      8  C   UNL A   1      32.521  24.927  25.954  1.00  0.00     0.067 C 
ATOM      9  C   UNL A   1      32.841  23.596  25.381  1.00  0.00     0.051 A 
ATOM     10  C   UNL A   1      33.397  22.463  25.941  1.00  0.00     0.072 A 
ATOM     11  N   UNL A   1      32.585  23.246  24.081  1.00  0.00    -0.259 N 
ATOM     12  Br  UNL A   1      33.976  22.271  27.718  1.00  0.00    -0.046 Br
ATOM     13  N   UNL A   1      32.915  21.982  23.798  1.00  0.00    -0.166 NA
BRANCH  11  14
ATOM     14  C   UNL A   1      31.918  24.006  23.048  1.00  0.00     0.259 C 
BRANCH  14  15
ATOM     15  C   UNL A   1      32.880  24.513  22.004  1.00  0.00     0.408 C 
ATOM     16  F   UNL A   1      33.289  23.563  21.137  1.00  0.00    -0.169 F 
ATOM     17  F   UNL A   1      32.271  25.474  21.262  1.00  0.00    -0.169 F 
ATOM     18  F   UNL A   1      33.973  25.084  22.558  1.00  0.00    -0.169 F 
ENDBRANCH  14  15
ENDBRANCH  11  14
ENDBRANCH   4   7
ENDBRANCH   2   3
ENDBRANCH   1   2
BRANCH   1  19
ATOM     19  C   UNL A   1      38.809  20.251  25.652  1.00  0.00     0.118 C 
BRANCH  19  20
ATOM     20  N   UNL A   1      39.867  19.233  25.703  1.00  0.00    -0.352 N 
ATOM     21  C   UNL A   1      41.221  19.385  25.950  1.00  0.00     0.251 C 
ATOM     22  H   UNL A   1      39.572  18.309  25.537  1.00  0.00     0.163 HD
ATOM     23  O   UNL A   1      42.014  18.504  25.671  1.00  0.00    -0.269 OA
BRANCH  21  24
ATOM     24  C   UNL A   1      41.691  20.646  26.552  1.00  0.00     0.039 A 
ATOM     25  C   UNL A   1      42.169  21.696  25.762  1.00  0.00     0.014 A 
ATOM     26  C   UNL A   1      41.603  20.779  27.933  1.00  0.00     0.014 A 
ATOM     27  C   UNL A   1      42.467  22.912  26.371  1.00  0.00     0.010 A 
ATOM     28  C   UNL A   1      41.715  22.020  28.498  1.00  0.00     0.010 A 
ATOM     29  C   UNL A   1      42.211  23.074  27.741  1.00  0.00    -0.014 A 
BRANCH  29  30
ATOM     30  C   UNL A   1      42.361  24.372  28.391  1.00  0.00     0.031 A 
ATOM     31  C   UNL A   1      41.226  25.314  28.185  1.00  0.00     0.074 A 
ATOM     32  C   UNL A   1      43.322  24.610  29.312  1.00  0.00     0.049 A 
ATOM     33  N   UNL A   1      41.247  26.463  27.596  1.00  0.00    -0.248 NA
ATOM     34  C   UNL A   1      39.875  24.875  28.581  1.00  0.00     0.031 C 
ATOM     35  C   UNL A   1      44.306  23.668  29.863  1.00  0.00     0.029 A 
ATOM     36  N   UNL A   1      43.539  25.727  30.056  1.00  0.00    -0.354 N 
ATOM     37  C   UNL A   1      39.964  26.989  27.728  1.00  0.00     0.074 A 
ATOM     38  C   UNL A   1      39.129  25.904  28.174  1.00  0.00     0.031 C 
ATOM     39  C   UNL A   1      44.819  24.167  31.008  1.00  0.00     0.029 A 
ATOM     40  C   UNL A   1      44.346  25.528  31.170  1.00  0.00     0.049 A 
ATOM     41  H   UNL A   1      43.157  26.604  29.825  1.00  0.00     0.167 HD
ATOM     42  C   UNL A   1      39.748  28.333  27.696  1.00  0.00     0.037 A 
ATOM     43  C   UNL A   1      44.580  26.409  32.173  1.00  0.00     0.037 A 
ATOM     44  C   UNL A   1      40.884  29.027  27.138  1.00  0.00     0.049 A 
ATOM     45  C   UNL A   1      44.218  27.756  31.669  1.00  0.00     0.074 A 
ATOM     46  C   UNL A   1      41.565  28.973  25.936  1.00  0.00     0.029 A 
ATOM     47  N   UNL A   1      41.724  29.678  28.008  1.00  0.00    -0.354 N 
ATOM     48  N   UNL A   1      44.873  28.383  30.734  1.00  0.00    -0.248 NA
ATOM     49  C   UNL A   1      42.855  28.212  31.890  1.00  0.00     0.031 C 
ATOM     50  C   UNL A   1      42.939  29.129  26.287  1.00  0.00     0.029 A 
ATOM     51  C   UNL A   1      43.009  29.344  27.663  1.00  0.00     0.049 A 
ATOM     52  H   UNL A   1      41.455  30.274  28.743  1.00  0.00     0.167 HD
ATOM     53  C   UNL A   1      43.890  28.978  29.957  1.00  0.00     0.074 A 
ATOM     54  C   UNL A   1      42.679  28.924  30.774  1.00  0.00     0.031 C 
ATOM     55  C   UNL A   1      44.079  29.189  28.621  1.00  0.00     0.037 A 
BRANCH  42  56
ATOM     56  C   UNL A   1      38.701  29.055  28.514  1.00  0.00     0.057 A 
ATOM     57  C   UNL A   1      38.634  28.819  29.901  1.00  0.00     0.134 A 
ATOM     58  C   UNL A   1      37.582  29.720  27.972  1.00  0.00     0.134 A 
ATOM     59  F   UNL A   1      39.632  28.190  30.541  1.00  0.00    -0.206 F 
ATOM     60  C   UNL A   1      37.504  29.133  30.666  1.00  0.00     0.040 A 
ATOM     61  C   UNL A   1      36.471  30.085  28.736  1.00  0.00     0.040 A 
ATOM     62  F   UNL A   1      37.451  29.961  26.663  1.00  0.00    -0.206 F 
ATOM     63  C   UNL A   1      36.411  29.759  30.081  1.00  0.00     0.006 A 
ENDBRANCH  42  56
BRANCH  43  64
ATOM     64  C   UNL A   1      44.806  26.138  33.610  1.00  0.00     0.057 A 
ATOM     65  C   UNL A   1      46.077  26.294  34.181  1.00  0.00     0.134 A 
ATOM     66  C   UNL A   1      43.737  26.005  34.514  1.00  0.00     0.134 A 
ATOM     67  F   UNL A   1      47.156  26.462  33.402  1.00  0.00    -0.206 F 
ATOM     68  C   UNL A   1      46.270  26.351  35.568  1.00  0.00     0.040 A 
ATOM     69  C   UNL A   1      43.916  26.052  35.900  1.00  0.00     0.040 A 
ATOM     70  F   UNL A   1      42.470  25.915  34.083  1.00  0.00    -0.206 F 
ATOM     71  C   UNL A   1      45.184  26.246  36.432  1.00  0.00     0.006 A 
ENDBRANCH  43  64
BRANCH  55  72
ATOM     72  C   UNL A   1      45.470  29.015  28.070  1.00  0.00     0.057 A 
ATOM     73  C   UNL A   1      45.987  27.806  27.580  1.00  0.00     0.134 A 
ATOM     74  C   UNL A   1      46.274  30.150  27.915  1.00  0.00     0.134 A 
ATOM     75  F   UNL A   1      45.258  26.684  27.582  1.00  0.00    -0.206 F 
ATOM     76  C   UNL A   1      47.265  27.721  27.016  1.00  0.00     0.040 A 
ATOM     77  C   UNL A   1      47.536  30.085  27.321  1.00  0.00     0.040 A 
ATOM     78  F   UNL A   1      45.827  31.353  28.305  1.00  0.00    -0.206 F 
ATOM     79  C   UNL A   1      48.042  28.865  26.883  1.00  0.00     0.006 A 
ENDBRANCH  55  72
ENDBRANCH  29  30
ENDBRANCH  21  24
ENDBRANCH  19  20
ENDBRANCH   1  19
TORSDOF 12
ENDMDL
