MODEL 1
REMARK VINA RESULT:     -11.3      0.000      0.000
REMARK SMILES O=C(NCCCNC(=O)[C@]1(CCCCO)CCc2ccccc2C1)c1ccc(-c2c3nc(c(-c4c(F)cccc4F)c4ccc([nH]4)c(-c4c(F)cccc4F)c4nc(c(-c5c(F)cccc5F)c5ccc2[nH]5)C=C4)C=C3)cc1
REMARK SMILES IDX 7 1 8 2 9 3 6 5 5 6 4 7 3 8 1 9 2 10 25 12 26 13 78 14 27 15
REMARK SMILES IDX 77 16 28 17 29 18 30 19 71 20 31 21 76 22 70 23 72 24 32 25
REMARK SMILES IDX 75 26 69 27 68 28 33 30 59 31 42 32 58 33 43 34 46 35 57 36
REMARK SMILES IDX 73 37 44 38 45 39 56 41 74 42 47 43 34 44 35 45 40 46 36 47
REMARK SMILES IDX 37 48 39 49 41 50 38 51 60 52 61 53 66 54 62 55 63 56 65 57
REMARK SMILES IDX 67 58 64 59 48 60 49 61 54 62 50 63 51 64 53 65 55 66 52 67
REMARK SMILES IDX 10 68 16 69 24 70 17 71 23 72 18 73 22 74 19 75 21 76 20 77
REMARK SMILES IDX 11 78 12 79 13 80 14 81 15 82
REMARK H PARENT 7 4 3 11 72 29 46 40 15 83
REMARK Flexibility Score: inf
ROOT
ATOM      1  N   UNL A   1      35.912  20.985  25.932  1.00  0.00    -0.356 N 
ATOM      2  C   UNL A   1      34.852  21.758  26.254  1.00  0.00     0.226 C 
ATOM      3  O   UNL A   1      34.352  21.498  27.358  1.00  0.00    -0.274 OA
ATOM      4  H   UNL A   1      36.206  20.408  26.673  1.00  0.00     0.163 HD
ENDROOT
BRANCH   1   5
ATOM      5  C   UNL A   1      36.712  20.819  24.733  1.00  0.00     0.117 C 
BRANCH   5   6
ATOM      6  C   UNL A   1      37.767  19.749  24.925  1.00  0.00     0.042 C 
BRANCH   6   7
ATOM      7  C   UNL A   1      38.926  20.286  25.752  1.00  0.00     0.118 C 
BRANCH   7   8
ATOM      8  N   UNL A   1      40.048  19.348  25.782  1.00  0.00    -0.352 N 
ATOM      9  O   UNL A   1      42.222  18.743  25.771  1.00  0.00    -0.269 OA
ATOM     10  C   UNL A   1      41.380  19.592  26.022  1.00  0.00     0.251 C 
ATOM     11  H   UNL A   1      39.816  18.408  25.606  1.00  0.00     0.163 HD
BRANCH  10  12
ATOM     12  C   UNL A   1      41.775  20.899  26.581  1.00  0.00     0.039 A 
ATOM     13  C   UNL A   1      41.690  21.110  27.957  1.00  0.00     0.014 A 
ATOM     14  C   UNL A   1      42.218  21.918  25.735  1.00  0.00     0.014 A 
ATOM     15  C   UNL A   1      41.869  22.384  28.463  1.00  0.00     0.010 A 
ATOM     16  C   UNL A   1      42.526  23.172  26.268  1.00  0.00     0.010 A 
ATOM     17  C   UNL A   1      42.326  23.421  27.633  1.00  0.00    -0.014 A 
BRANCH  17  18
ATOM     18  C   UNL A   1      42.662  24.717  28.273  1.00  0.00     0.031 A 
ATOM     19  C   UNL A   1      44.077  25.093  28.595  1.00  0.00     0.074 A 
ATOM     20  C   UNL A   1      41.657  25.592  28.472  1.00  0.00     0.049 A 
ATOM     21  N   UNL A   1      44.534  26.222  29.075  1.00  0.00    -0.248 NA
ATOM     22  C   UNL A   1      45.117  24.078  28.363  1.00  0.00     0.031 C 
ATOM     23  C   UNL A   1      40.239  25.315  28.211  1.00  0.00     0.029 A 
ATOM     24  N   UNL A   1      41.667  26.898  28.881  1.00  0.00    -0.354 N 
ATOM     25  C   UNL A   1      45.904  26.051  29.222  1.00  0.00     0.074 A 
ATOM     26  C   UNL A   1      46.205  24.699  28.800  1.00  0.00     0.031 C 
ATOM     27  C   UNL A   1      39.532  26.439  28.377  1.00  0.00     0.029 A 
ATOM     28  C   UNL A   1      40.428  27.492  28.835  1.00  0.00     0.049 A 
ATOM     29  H   UNL A   1      42.479  27.365  29.180  1.00  0.00     0.167 HD
ATOM     30  C   UNL A   1      46.821  26.944  29.664  1.00  0.00     0.037 A 
ATOM     31  C   UNL A   1      40.050  28.747  29.135  1.00  0.00     0.037 A 
ATOM     32  C   UNL A   1      46.508  28.292  30.067  1.00  0.00     0.049 A 
ATOM     33  C   UNL A   1      41.092  29.716  29.599  1.00  0.00     0.074 A 
ATOM     34  C   UNL A   1      47.363  29.273  30.539  1.00  0.00     0.029 A 
ATOM     35  N   UNL A   1      45.238  28.851  30.036  1.00  0.00    -0.354 N 
ATOM     36  N   UNL A   1      42.382  29.533  29.740  1.00  0.00    -0.248 NA
ATOM     37  C   UNL A   1      40.627  31.062  29.955  1.00  0.00     0.031 C 
ATOM     38  C   UNL A   1      46.606  30.416  30.819  1.00  0.00     0.029 A 
ATOM     39  C   UNL A   1      45.285  30.161  30.485  1.00  0.00     0.049 A 
ATOM     40  H   UNL A   1      44.423  28.385  29.738  1.00  0.00     0.167 HD
ATOM     41  C   UNL A   1      42.885  30.735  30.211  1.00  0.00     0.074 A 
ATOM     42  C   UNL A   1      41.765  31.654  30.290  1.00  0.00     0.031 C 
ATOM     43  C   UNL A   1      44.155  31.049  30.565  1.00  0.00     0.037 A 
BRANCH  30  44
ATOM     44  C   UNL A   1      48.249  26.490  29.750  1.00  0.00     0.057 A 
ATOM     45  C   UNL A   1      48.741  25.807  30.870  1.00  0.00     0.134 A 
ATOM     46  C   UNL A   1      49.130  26.694  28.679  1.00  0.00     0.134 A 
ATOM     47  F   UNL A   1      47.954  25.593  31.935  1.00  0.00    -0.206 F 
ATOM     48  C   UNL A   1      50.061  25.355  30.927  1.00  0.00     0.040 A 
ATOM     49  C   UNL A   1      50.445  26.228  28.717  1.00  0.00     0.040 A 
ATOM     50  F   UNL A   1      48.722  27.337  27.575  1.00  0.00    -0.206 F 
ATOM     51  C   UNL A   1      50.915  25.558  29.845  1.00  0.00     0.006 A 
ENDBRANCH  30  44
BRANCH  31  52
ATOM     52  C   UNL A   1      38.623  29.134  29.021  1.00  0.00     0.057 A 
ATOM     53  C   UNL A   1      37.765  29.086  30.124  1.00  0.00     0.134 A 
ATOM     54  C   UNL A   1      38.090  29.588  27.808  1.00  0.00     0.134 A 
ATOM     55  F   UNL A   1      38.212  28.648  31.310  1.00  0.00    -0.206 F 
ATOM     56  C   UNL A   1      36.425  29.464  30.023  1.00  0.00     0.040 A 
ATOM     57  C   UNL A   1      36.762  29.997  27.699  1.00  0.00     0.040 A 
ATOM     58  F   UNL A   1      38.866  29.670  26.717  1.00  0.00    -0.206 F 
ATOM     59  C   UNL A   1      35.922  29.929  28.809  1.00  0.00     0.006 A 
ENDBRANCH  31  52
BRANCH  43  60
ATOM     60  C   UNL A   1      44.383  32.442  31.064  1.00  0.00     0.057 A 
ATOM     61  C   UNL A   1      44.692  33.492  30.189  1.00  0.00     0.134 A 
ATOM     62  C   UNL A   1      44.297  32.736  32.430  1.00  0.00     0.134 A 
ATOM     63  F   UNL A   1      44.806  33.267  28.871  1.00  0.00    -0.206 F 
ATOM     64  C   UNL A   1      44.937  34.781  30.659  1.00  0.00     0.040 A 
ATOM     65  C   UNL A   1      44.517  34.027  32.909  1.00  0.00     0.040 A 
ATOM     66  F   UNL A   1      44.000  31.774  33.316  1.00  0.00    -0.206 F 
ATOM     67  C   UNL A   1      44.847  35.052  32.025  1.00  0.00     0.006 A 
ENDBRANCH  43  60
ENDBRANCH  17  18
ENDBRANCH  10  12
ENDBRANCH   7   8
ENDBRANCH   6   7
ENDBRANCH   5   6
ENDBRANCH   1   5
BRANCH   2  68
ATOM     68  C   UNL A   1      34.204  22.818  25.334  1.00  0.00     0.054 C 
ATOM     69  C   UNL A   1      35.129  23.977  24.904  1.00  0.00     0.022 C 
ATOM     70  C   UNL A   1      33.086  23.449  26.247  1.00  0.00     0.052 C 
ATOM     71  C   UNL A   1      34.419  25.143  24.214  1.00  0.00     0.037 C 
ATOM     72  C   UNL A   1      32.534  24.795  25.849  1.00  0.00    -0.044 A 
ATOM     73  C   UNL A   1      33.199  25.622  24.938  1.00  0.00    -0.045 A 
ATOM     74  C   UNL A   1      31.375  25.269  26.485  1.00  0.00     0.004 A 
ATOM     75  C   UNL A   1      32.688  26.898  24.657  1.00  0.00     0.004 A 
ATOM     76  C   UNL A   1      30.877  26.542  26.206  1.00  0.00     0.000 A 
ATOM     77  C   UNL A   1      31.535  27.358  25.292  1.00  0.00     0.000 A 
BRANCH  68  78
ATOM     78  C   UNL A   1      33.507  22.083  24.145  1.00  0.00     0.017 C 
BRANCH  78  79
ATOM     79  C   UNL A   1      32.313  21.153  24.426  1.00  0.00     0.003 C 
BRANCH  79  80
ATOM     80  C   UNL A   1      32.442  19.660  24.076  1.00  0.00     0.028 C 
BRANCH  80  81
ATOM     81  C   UNL A   1      33.191  18.780  25.066  1.00  0.00     0.156 C 
BRANCH  81  82
ATOM     82  O   UNL A   1      32.591  18.855  26.349  1.00  0.00    -0.396 OA
ATOM     83  H   UNL A   1      33.129  18.359  26.986  1.00  0.00     0.210 HD
ENDBRANCH  81  82
ENDBRANCH  80  81
ENDBRANCH  79  80
ENDBRANCH  78  79
ENDBRANCH  68  78
ENDBRANCH   2  68
TORSDOF 15
ENDMDL
MODEL 2
REMARK VINA RESULT:     -11.1      1.791      2.778
REMARK SMILES O=C(NCCCNC(=O)[C@]1(CCCCO)CCc2ccccc2C1)c1ccc(-c2c3nc(c(-c4c(F)cccc4F)c4ccc([nH]4)c(-c4c(F)cccc4F)c4nc(c(-c5c(F)cccc5F)c5ccc2[nH]5)C=C4)C=C3)cc1
REMARK SMILES IDX 7 1 8 2 9 3 6 5 5 6 4 7 3 8 1 9 2 10 25 12 26 13 78 14 27 15
REMARK SMILES IDX 77 16 28 17 29 18 30 19 71 20 31 21 76 22 70 23 72 24 32 25
REMARK SMILES IDX 75 26 69 27 68 28 33 30 59 31 42 32 58 33 43 34 46 35 57 36
REMARK SMILES IDX 73 37 44 38 45 39 56 41 74 42 47 43 34 44 35 45 40 46 36 47
REMARK SMILES IDX 37 48 39 49 41 50 38 51 60 52 61 53 66 54 62 55 63 56 65 57
REMARK SMILES IDX 67 58 64 59 48 60 49 61 54 62 50 63 51 64 53 65 55 66 52 67
REMARK SMILES IDX 10 68 16 69 24 70 17 71 23 72 18 73 22 74 19 75 21 76 20 77
REMARK SMILES IDX 11 78 12 79 13 80 14 81 15 82
REMARK H PARENT 7 4 3 11 72 29 46 40 15 83
REMARK Flexibility Score: inf
ROOT
ATOM      1  N   UNL A   1      36.915  21.678  25.498  1.00  0.00    -0.356 N 
ATOM      2  C   UNL A   1      36.335  22.898  25.476  1.00  0.00     0.226 C 
ATOM      3  O   UNL A   1      36.932  23.754  26.144  1.00  0.00    -0.274 OA
ATOM      4  H   UNL A   1      37.792  21.677  25.946  1.00  0.00     0.163 HD
ENDROOT
BRANCH   1   5
ATOM      5  C   UNL A   1      36.529  20.369  25.008  1.00  0.00     0.117 C 
BRANCH   5   6
ATOM      6  C   UNL A   1      37.730  19.453  24.890  1.00  0.00     0.042 C 
BRANCH   6   7
ATOM      7  C   UNL A   1      38.904  20.010  25.681  1.00  0.00     0.118 C 
BRANCH   7   8
ATOM      8  N   UNL A   1      40.006  19.052  25.760  1.00  0.00    -0.352 N 
ATOM      9  O   UNL A   1      42.166  18.399  25.769  1.00  0.00    -0.269 OA
ATOM     10  C   UNL A   1      41.345  19.281  25.974  1.00  0.00     0.251 C 
ATOM     11  H   UNL A   1      39.753  18.108  25.643  1.00  0.00     0.163 HD
BRANCH  10  12
ATOM     12  C   UNL A   1      41.773  20.610  26.450  1.00  0.00     0.039 A 
ATOM     13  C   UNL A   1      42.049  21.614  25.523  1.00  0.00     0.014 A 
ATOM     14  C   UNL A   1      41.912  20.852  27.819  1.00  0.00     0.014 A 
ATOM     15  C   UNL A   1      42.636  22.792  25.949  1.00  0.00     0.010 A 
ATOM     16  C   UNL A   1      42.383  22.093  28.255  1.00  0.00     0.010 A 
ATOM     17  C   UNL A   1      42.775  23.062  27.320  1.00  0.00    -0.014 A 
BRANCH  17  18
ATOM     18  C   UNL A   1      43.252  24.411  27.711  1.00  0.00     0.031 A 
ATOM     19  C   UNL A   1      44.682  24.823  27.531  1.00  0.00     0.074 A 
ATOM     20  C   UNL A   1      42.333  25.294  28.150  1.00  0.00     0.049 A 
ATOM     21  N   UNL A   1      45.228  25.994  27.746  1.00  0.00    -0.248 NA
ATOM     22  C   UNL A   1      45.628  23.799  27.062  1.00  0.00     0.031 C 
ATOM     23  C   UNL A   1      40.916  24.985  28.380  1.00  0.00     0.029 A 
ATOM     24  N   UNL A   1      42.427  26.630  28.427  1.00  0.00    -0.354 N 
ATOM     25  C   UNL A   1      46.579  25.845  27.460  1.00  0.00     0.074 A 
ATOM     26  C   UNL A   1      46.776  24.463  27.075  1.00  0.00     0.031 C 
ATOM     27  C   UNL A   1      40.260  26.115  28.672  1.00  0.00     0.029 A 
ATOM     28  C   UNL A   1      41.218  27.210  28.731  1.00  0.00     0.049 A 
ATOM     29  H   UNL A   1      43.276  27.128  28.411  1.00  0.00     0.167 HD
ATOM     30  C   UNL A   1      47.557  26.780  27.511  1.00  0.00     0.037 A 
ATOM     31  C   UNL A   1      40.913  28.484  29.033  1.00  0.00     0.037 A 
ATOM     32  C   UNL A   1      47.343  28.156  27.882  1.00  0.00     0.049 A 
ATOM     33  C   UNL A   1      42.014  29.497  29.059  1.00  0.00     0.074 A 
ATOM     34  C   UNL A   1      48.270  29.181  27.973  1.00  0.00     0.029 A 
ATOM     35  N   UNL A   1      46.111  28.701  28.214  1.00  0.00    -0.354 N 
ATOM     36  N   UNL A   1      43.288  29.336  28.794  1.00  0.00    -0.248 NA
ATOM     37  C   UNL A   1      41.641  30.866  29.435  1.00  0.00     0.031 C 
ATOM     38  C   UNL A   1      47.602  30.339  28.388  1.00  0.00     0.029 A 
ATOM     39  C   UNL A   1      46.253  30.046  28.516  1.00  0.00     0.049 A 
ATOM     40  H   UNL A   1      45.260  28.206  28.231  1.00  0.00     0.167 HD
ATOM     41  C   UNL A   1      43.872  30.578  28.980  1.00  0.00     0.074 A 
ATOM     42  C   UNL A   1      42.805  31.493  29.338  1.00  0.00     0.031 C 
ATOM     43  C   UNL A   1      45.178  30.930  28.881  1.00  0.00     0.037 A 
BRANCH  30  44
ATOM     44  C   UNL A   1      48.953  26.345  27.171  1.00  0.00     0.057 A 
ATOM     45  C   UNL A   1      49.440  26.383  25.858  1.00  0.00     0.134 A 
ATOM     46  C   UNL A   1      49.837  25.930  28.176  1.00  0.00     0.134 A 
ATOM     47  F   UNL A   1      48.640  26.756  24.847  1.00  0.00    -0.206 F 
ATOM     48  C   UNL A   1      50.752  26.012  25.555  1.00  0.00     0.040 A 
ATOM     49  C   UNL A   1      51.157  25.576  27.887  1.00  0.00     0.040 A 
ATOM     50  F   UNL A   1      49.437  25.874  29.455  1.00  0.00    -0.206 F 
ATOM     51  C   UNL A   1      51.617  25.615  26.573  1.00  0.00     0.006 A 
ENDBRANCH  30  44
BRANCH  31  52
ATOM     52  C   UNL A   1      39.511  28.850  29.351  1.00  0.00     0.057 A 
ATOM     53  C   UNL A   1      38.639  29.320  28.365  1.00  0.00     0.134 A 
ATOM     54  C   UNL A   1      39.004  28.712  30.649  1.00  0.00     0.134 A 
ATOM     55  F   UNL A   1      39.069  29.485  27.105  1.00  0.00    -0.206 F 
ATOM     56  C   UNL A   1      37.315  29.652  28.659  1.00  0.00     0.040 A 
ATOM     57  C   UNL A   1      37.675  29.011  30.952  1.00  0.00     0.040 A 
ATOM     58  F   UNL A   1      39.787  28.253  31.637  1.00  0.00    -0.206 F 
ATOM     59  C   UNL A   1      36.829  29.489  29.955  1.00  0.00     0.006 A 
ENDBRANCH  31  52
BRANCH  43  60
ATOM     60  C   UNL A   1      45.504  32.364  29.166  1.00  0.00     0.057 A 
ATOM     61  C   UNL A   1      45.853  32.792  30.453  1.00  0.00     0.134 A 
ATOM     62  C   UNL A   1      45.463  33.323  28.148  1.00  0.00     0.134 A 
ATOM     63  F   UNL A   1      45.891  31.921  31.474  1.00  0.00    -0.206 F 
ATOM     64  C   UNL A   1      46.123  34.133  30.724  1.00  0.00     0.040 A 
ATOM     65  C   UNL A   1      45.754  34.664  28.402  1.00  0.00     0.040 A 
ATOM     66  F   UNL A   1      45.139  32.974  26.894  1.00  0.00    -0.206 F 
ATOM     67  C   UNL A   1      46.076  35.073  29.695  1.00  0.00     0.006 A 
ENDBRANCH  43  60
ENDBRANCH  17  18
ENDBRANCH  10  12
ENDBRANCH   7   8
ENDBRANCH   6   7
ENDBRANCH   5   6
ENDBRANCH   1   5
BRANCH   2  68
ATOM     68  C   UNL A   1      34.995  23.240  24.786  1.00  0.00     0.054 C 
ATOM     69  C   UNL A   1      34.950  22.989  23.263  1.00  0.00     0.022 C 
ATOM     70  C   UNL A   1      34.874  24.797  24.990  1.00  0.00     0.052 C 
ATOM     71  C   UNL A   1      33.724  23.565  22.553  1.00  0.00     0.037 C 
ATOM     72  C   UNL A   1      33.924  25.549  24.092  1.00  0.00    -0.044 A 
ATOM     73  C   UNL A   1      33.433  24.990  22.908  1.00  0.00    -0.045 A 
ATOM     74  C   UNL A   1      33.604  26.880  24.405  1.00  0.00     0.004 A 
ATOM     75  C   UNL A   1      32.613  25.756  22.066  1.00  0.00     0.004 A 
ATOM     76  C   UNL A   1      32.794  27.638  23.559  1.00  0.00     0.000 A 
ATOM     77  C   UNL A   1      32.300  27.076  22.387  1.00  0.00     0.000 A 
BRANCH  68  78
ATOM     78  C   UNL A   1      33.839  22.552  25.579  1.00  0.00     0.017 C 
BRANCH  78  79
ATOM     79  C   UNL A   1      33.323  23.200  26.878  1.00  0.00     0.003 C 
BRANCH  79  80
ATOM     80  C   UNL A   1      31.941  23.874  26.868  1.00  0.00     0.028 C 
BRANCH  80  81
ATOM     81  C   UNL A   1      30.724  22.958  26.874  1.00  0.00     0.156 C 
BRANCH  81  82
ATOM     82  O   UNL A   1      29.543  23.703  27.118  1.00  0.00    -0.396 OA
ATOM     83  H   UNL A   1      28.981  23.684  26.328  1.00  0.00     0.210 HD
ENDBRANCH  81  82
ENDBRANCH  80  81
ENDBRANCH  79  80
ENDBRANCH  78  79
ENDBRANCH  68  78
ENDBRANCH   2  68
TORSDOF 15
ENDMDL
MODEL 3
REMARK VINA RESULT:     -11.1      4.457      9.349
REMARK SMILES O=C(NCCCNC(=O)[C@]1(CCCCO)CCc2ccccc2C1)c1ccc(-c2c3nc(c(-c4c(F)cccc4F)c4ccc([nH]4)c(-c4c(F)cccc4F)c4nc(c(-c5c(F)cccc5F)c5ccc2[nH]5)C=C4)C=C3)cc1
REMARK SMILES IDX 7 1 8 2 9 3 6 5 5 6 4 7 3 8 1 9 2 10 25 12 26 13 78 14 27 15
REMARK SMILES IDX 77 16 28 17 29 18 30 19 71 20 31 21 76 22 70 23 72 24 32 25
REMARK SMILES IDX 75 26 69 27 68 28 33 30 59 31 42 32 58 33 43 34 46 35 57 36
REMARK SMILES IDX 73 37 44 38 45 39 56 41 74 42 47 43 34 44 35 45 40 46 36 47
REMARK SMILES IDX 37 48 39 49 41 50 38 51 60 52 61 53 66 54 62 55 63 56 65 57
REMARK SMILES IDX 67 58 64 59 48 60 49 61 54 62 50 63 51 64 53 65 55 66 52 67
REMARK SMILES IDX 10 68 16 69 24 70 17 71 23 72 18 73 22 74 19 75 21 76 20 77
REMARK SMILES IDX 11 78 12 79 13 80 14 81 15 82
REMARK H PARENT 7 4 3 11 72 29 46 40 15 83
REMARK Flexibility Score: inf
ROOT
ATOM      1  N   UNL A   1      32.879  30.211  26.537  1.00  0.00    -0.356 N 
ATOM      2  C   UNL A   1      33.391  28.965  26.422  1.00  0.00     0.226 C 
ATOM      3  O   UNL A   1      34.563  28.862  26.810  1.00  0.00    -0.274 OA
ATOM      4  H   UNL A   1      33.473  30.827  27.022  1.00  0.00     0.163 HD
ENDROOT
BRANCH   1   5
ATOM      5  C   UNL A   1      31.646  30.838  26.102  1.00  0.00     0.117 C 
BRANCH   5   6
ATOM      6  C   UNL A   1      31.380  32.115  26.874  1.00  0.00     0.042 C 
BRANCH   6   7
ATOM      7  C   UNL A   1      32.682  32.851  27.149  1.00  0.00     0.118 C 
BRANCH   7   8
ATOM      8  N   UNL A   1      32.442  34.212  27.628  1.00  0.00    -0.352 N 
ATOM      9  O   UNL A   1      32.550  35.924  29.095  1.00  0.00    -0.269 OA
ATOM     10  C   UNL A   1      33.034  34.884  28.673  1.00  0.00     0.251 C 
ATOM     11  H   UNL A   1      31.760  34.719  27.133  1.00  0.00     0.163 HD
BRANCH  10  12
ATOM     12  C   UNL A   1      34.257  34.325  29.278  1.00  0.00     0.039 A 
ATOM     13  C   UNL A   1      35.497  34.619  28.713  1.00  0.00     0.014 A 
ATOM     14  C   UNL A   1      34.168  33.497  30.400  1.00  0.00     0.014 A 
ATOM     15  C   UNL A   1      36.623  33.945  29.152  1.00  0.00     0.010 A 
ATOM     16  C   UNL A   1      35.328  32.920  30.924  1.00  0.00     0.010 A 
ATOM     17  C   UNL A   1      36.560  33.118  30.286  1.00  0.00    -0.014 A 
BRANCH  17  18
ATOM     18  C   UNL A   1      37.833  32.564  30.804  1.00  0.00     0.031 A 
ATOM     19  C   UNL A   1      38.435  33.042  32.092  1.00  0.00     0.074 A 
ATOM     20  C   UNL A   1      38.391  31.543  30.124  1.00  0.00     0.049 A 
ATOM     21  N   UNL A   1      39.496  32.594  32.715  1.00  0.00    -0.248 NA
ATOM     22  C   UNL A   1      37.776  34.170  32.768  1.00  0.00     0.031 C 
ATOM     23  C   UNL A   1      37.895  31.015  28.847  1.00  0.00     0.029 A 
ATOM     24  N   UNL A   1      39.451  30.731  30.425  1.00  0.00    -0.354 N 
ATOM     25  C   UNL A   1      39.646  33.393  33.840  1.00  0.00     0.074 A 
ATOM     26  C   UNL A   1      38.578  34.370  33.806  1.00  0.00     0.031 C 
ATOM     27  C   UNL A   1      38.589  29.917  28.523  1.00  0.00     0.029 A 
ATOM     28  C   UNL A   1      39.629  29.710  29.522  1.00  0.00     0.049 A 
ATOM     29  H   UNL A   1      40.029  30.864  31.210  1.00  0.00     0.167 HD
ATOM     30  C   UNL A   1      40.586  33.311  34.811  1.00  0.00     0.037 A 
ATOM     31  C   UNL A   1      40.535  28.717  29.494  1.00  0.00     0.037 A 
ATOM     32  C   UNL A   1      41.635  32.323  34.839  1.00  0.00     0.049 A 
ATOM     33  C   UNL A   1      41.547  28.641  30.594  1.00  0.00     0.074 A 
ATOM     34  C   UNL A   1      42.644  32.160  35.774  1.00  0.00     0.029 A 
ATOM     35  N   UNL A   1      41.804  31.323  33.892  1.00  0.00    -0.354 N 
ATOM     36  N   UNL A   1      41.679  29.412  31.646  1.00  0.00    -0.248 NA
ATOM     37  C   UNL A   1      42.543  27.566  30.500  1.00  0.00     0.031 C 
ATOM     38  C   UNL A   1      43.439  31.078  35.376  1.00  0.00     0.029 A 
ATOM     39  C   UNL A   1      42.902  30.543  34.216  1.00  0.00     0.049 A 
ATOM     40  H   UNL A   1      41.227  31.187  33.105  1.00  0.00     0.167 HD
ATOM     41  C   UNL A   1      42.777  28.924  32.337  1.00  0.00     0.074 A 
ATOM     42  C   UNL A   1      43.248  27.763  31.605  1.00  0.00     0.031 C 
ATOM     43  C   UNL A   1      43.356  29.402  33.465  1.00  0.00     0.037 A 
BRANCH  30  44
ATOM     44  C   UNL A   1      40.535  34.325  35.916  1.00  0.00     0.057 A 
ATOM     45  C   UNL A   1      41.201  35.554  35.823  1.00  0.00     0.134 A 
ATOM     46  C   UNL A   1      39.771  34.090  37.067  1.00  0.00     0.134 A 
ATOM     47  F   UNL A   1      41.963  35.835  34.754  1.00  0.00    -0.206 F 
ATOM     48  C   UNL A   1      41.119  36.508  36.840  1.00  0.00     0.040 A 
ATOM     49  C   UNL A   1      39.665  35.044  38.081  1.00  0.00     0.040 A 
ATOM     50  F   UNL A   1      39.106  32.936  37.219  1.00  0.00    -0.206 F 
ATOM     51  C   UNL A   1      40.342  36.257  37.970  1.00  0.00     0.006 A 
ENDBRANCH  30  44
BRANCH  31  52
ATOM     52  C   UNL A   1      40.526  27.742  28.376  1.00  0.00     0.057 A 
ATOM     53  C   UNL A   1      41.257  27.969  27.206  1.00  0.00     0.134 A 
ATOM     54  C   UNL A   1      39.805  26.545  28.466  1.00  0.00     0.134 A 
ATOM     55  F   UNL A   1      41.958  29.102  27.056  1.00  0.00    -0.206 F 
ATOM     56  C   UNL A   1      41.262  27.046  26.159  1.00  0.00     0.040 A 
ATOM     57  C   UNL A   1      39.824  25.600  27.440  1.00  0.00     0.040 A 
ATOM     58  F   UNL A   1      39.095  26.263  29.568  1.00  0.00    -0.206 F 
ATOM     59  C   UNL A   1      40.550  25.854  26.278  1.00  0.00     0.006 A 
ENDBRANCH  31  52
BRANCH  43  60
ATOM     60  C   UNL A   1      44.558  28.659  33.961  1.00  0.00     0.057 A 
ATOM     61  C   UNL A   1      45.854  29.014  33.562  1.00  0.00     0.134 A 
ATOM     62  C   UNL A   1      44.420  27.579  34.840  1.00  0.00     0.134 A 
ATOM     63  F   UNL A   1      46.048  30.030  32.707  1.00  0.00    -0.206 F 
ATOM     64  C   UNL A   1      46.969  28.300  33.998  1.00  0.00     0.040 A 
ATOM     65  C   UNL A   1      45.530  26.872  35.301  1.00  0.00     0.040 A 
ATOM     66  F   UNL A   1      43.206  27.193  35.260  1.00  0.00    -0.206 F 
ATOM     67  C   UNL A   1      46.808  27.226  34.873  1.00  0.00     0.006 A 
ENDBRANCH  43  60
ENDBRANCH  17  18
ENDBRANCH  10  12
ENDBRANCH   7   8
ENDBRANCH   6   7
ENDBRANCH   5   6
ENDBRANCH   1   5
BRANCH   2  68
ATOM     68  C   UNL A   1      32.671  27.758  25.780  1.00  0.00     0.054 C 
ATOM     69  C   UNL A   1      31.360  27.324  26.468  1.00  0.00     0.022 C 
ATOM     70  C   UNL A   1      33.698  26.580  25.982  1.00  0.00     0.052 C 
ATOM     71  C   UNL A   1      30.795  25.985  25.990  1.00  0.00     0.037 C 
ATOM     72  C   UNL A   1      33.175  25.169  25.872  1.00  0.00    -0.044 A 
ATOM     73  C   UNL A   1      31.808  24.884  25.942  1.00  0.00    -0.045 A 
ATOM     74  C   UNL A   1      34.094  24.109  25.797  1.00  0.00     0.004 A 
ATOM     75  C   UNL A   1      31.375  23.550  25.912  1.00  0.00     0.004 A 
ATOM     76  C   UNL A   1      33.656  22.785  25.776  1.00  0.00     0.000 A 
ATOM     77  C   UNL A   1      32.295  22.505  25.835  1.00  0.00     0.000 A 
BRANCH  68  78
ATOM     78  C   UNL A   1      32.529  28.023  24.247  1.00  0.00     0.017 C 
BRANCH  78  79
ATOM     79  C   UNL A   1      33.671  27.613  23.299  1.00  0.00     0.003 C 
BRANCH  79  80
ATOM     80  C   UNL A   1      33.438  26.446  22.324  1.00  0.00     0.028 C 
BRANCH  80  81
ATOM     81  C   UNL A   1      32.001  25.978  22.137  1.00  0.00     0.156 C 
BRANCH  81  82
ATOM     82  O   UNL A   1      31.503  26.395  20.877  1.00  0.00    -0.396 OA
ATOM     83  H   UNL A   1      31.876  27.262  20.653  1.00  0.00     0.210 HD
ENDBRANCH  81  82
ENDBRANCH  80  81
ENDBRANCH  79  80
ENDBRANCH  78  79
ENDBRANCH  68  78
ENDBRANCH   2  68
TORSDOF 15
ENDMDL
