MODEL 1
REMARK VINA RESULT:     -10.0      0.000      0.000
REMARK SMILES COCC[NH2+]CC(=O)N1C[C@H](OC)C[C@@H]1C(=O)NCCCNC(=O)c1ccc(-c2c3nc(c(-c4c(F)cccc4F)c4ccc([nH]4)c(-c4c(F)cccc4F)c4nc(c(-c5c(F)cccc5F)c5ccc2[nH]5)C=C4)C=C3)cc1
REMARK SMILES IDX 16 1 17 2 18 3 15 5 9 6 10 7 11 8 14 9 7 10 8 11 6 12 5 13
REMARK SMILES IDX 4 16 3 17 2 18 1 19 12 20 13 21 19 22 20 23 21 24 22 25
REMARK SMILES IDX 23 26 24 28 25 29 26 30 78 31 27 32 77 33 28 34 29 35 30 36
REMARK SMILES IDX 71 37 31 38 76 39 70 40 72 41 32 42 75 43 69 44 68 45 33 47
REMARK SMILES IDX 59 48 42 49 58 50 43 51 46 52 57 53 73 54 44 55 45 56 56 58
REMARK SMILES IDX 74 59 47 60 34 61 35 62 40 63 36 64 37 65 39 66 41 67 38 68
REMARK SMILES IDX 60 69 61 70 66 71 62 72 63 73 65 74 67 75 64 76 48 77 49 78
REMARK SMILES IDX 54 79 50 80 51 81 53 82 55 83 52 84
REMARK H PARENT 18 4 5 14 5 15 22 27 72 46 46 57
REMARK Flexibility Score: inf
ROOT
ATOM      1  C   UNL A   1      32.523  28.083  27.067  1.00  0.00     0.242 C 
ATOM      2  O   UNL A   1      31.483  27.697  27.615  1.00  0.00    -0.273 OA
ATOM      3  N   UNL A   1      33.188  29.101  27.682  1.00  0.00    -0.354 N 
ATOM      4  H   UNL A   1      32.812  29.380  28.547  1.00  0.00     0.163 HD
ENDROOT
BRANCH   1   5
ATOM      5  C   UNL A   1      32.897  27.563  25.664  1.00  0.00     0.177 C 
ATOM      6  N   UNL A   1      31.881  27.593  24.612  1.00  0.00    -0.323 N 
ATOM      7  C   UNL A   1      32.153  26.475  23.735  1.00  0.00     0.152 C 
ATOM      8  C   UNL A   1      32.535  25.343  24.667  1.00  0.00     0.139 C 
ATOM      9  C   UNL A   1      33.349  26.080  25.742  1.00  0.00     0.069 C 
BRANCH   6  10
ATOM     10  C   UNL A   1      31.436  28.789  24.064  1.00  0.00     0.278 C 
ATOM     11  O   UNL A   1      31.530  29.863  24.653  1.00  0.00    -0.268 OA
BRANCH  10  12
ATOM     12  C   UNL A   1      30.733  28.662  22.695  1.00  0.00     0.362 C 
BRANCH  12  13
ATOM     13  N   UNL A   1      30.771  29.880  21.855  1.00  0.00    -0.337 N 
ATOM     14  H   UNL A   1      31.378  30.568  22.298  1.00  0.00     0.346 HD
ATOM     15  H   UNL A   1      31.122  29.619  20.933  1.00  0.00     0.346 HD
BRANCH  13  16
ATOM     16  C   UNL A   1      29.440  30.465  21.684  1.00  0.00     0.289 C 
BRANCH  16  17
ATOM     17  C   UNL A   1      28.572  30.627  22.937  1.00  0.00     0.221 C 
BRANCH  17  18
ATOM     18  O   UNL A   1      27.261  30.088  22.764  1.00  0.00    -0.379 OA
ATOM     19  C   UNL A   1      27.170  28.720  23.127  1.00  0.00     0.195 C 
ENDBRANCH  17  18
ENDBRANCH  16  17
ENDBRANCH  13  16
ENDBRANCH  12  13
ENDBRANCH  10  12
ENDBRANCH   6  10
BRANCH   8  20
ATOM     20  O   UNL A   1      31.429  24.684  25.298  1.00  0.00    -0.380 OA
ATOM     21  C   UNL A   1      31.681  24.107  26.576  1.00  0.00     0.195 C 
ENDBRANCH   8  20
ENDBRANCH   1   5
BRANCH   3  22
ATOM     22  C   UNL A   1      34.358  29.838  27.260  1.00  0.00     0.117 C 
BRANCH  22  23
ATOM     23  C   UNL A   1      34.120  31.342  27.224  1.00  0.00     0.042 C 
BRANCH  23  24
ATOM     24  C   UNL A   1      32.699  31.738  27.584  1.00  0.00     0.118 C 
BRANCH  24  25
ATOM     25  N   UNL A   1      32.517  33.189  27.633  1.00  0.00    -0.352 N 
ATOM     26  C   UNL A   1      33.162  34.159  28.368  1.00  0.00     0.251 C 
ATOM     27  H   UNL A   1      31.811  33.531  27.039  1.00  0.00     0.163 HD
ATOM     28  O   UNL A   1      32.734  35.302  28.375  1.00  0.00    -0.269 OA
BRANCH  26  29
ATOM     29  C   UNL A   1      34.352  33.807  29.174  1.00  0.00     0.039 A 
ATOM     30  C   UNL A   1      34.190  33.051  30.339  1.00  0.00     0.014 A 
ATOM     31  C   UNL A   1      35.624  34.201  28.769  1.00  0.00     0.014 A 
ATOM     32  C   UNL A   1      35.316  32.599  31.033  1.00  0.00     0.010 A 
ATOM     33  C   UNL A   1      36.738  33.655  29.386  1.00  0.00     0.010 A 
ATOM     34  C   UNL A   1      36.599  32.846  30.525  1.00  0.00    -0.014 A 
BRANCH  34  35
ATOM     35  C   UNL A   1      37.833  32.298  31.145  1.00  0.00     0.031 A 
ATOM     36  C   UNL A   1      38.591  31.212  30.429  1.00  0.00     0.074 A 
ATOM     37  C   UNL A   1      38.185  32.662  32.394  1.00  0.00     0.049 A 
ATOM     38  N   UNL A   1      39.519  30.410  30.883  1.00  0.00    -0.248 NA
ATOM     39  C   UNL A   1      38.210  30.957  29.029  1.00  0.00     0.031 C 
ATOM     40  C   UNL A   1      37.513  33.677  33.211  1.00  0.00     0.029 A 
ATOM     41  N   UNL A   1      39.186  32.194  33.210  1.00  0.00    -0.354 N 
ATOM     42  C   UNL A   1      39.783  29.522  29.849  1.00  0.00     0.074 A 
ATOM     43  C   UNL A   1      38.895  29.857  28.759  1.00  0.00     0.031 C 
ATOM     44  C   UNL A   1      38.132  33.766  34.400  1.00  0.00     0.029 A 
ATOM     45  C   UNL A   1      39.204  32.779  34.454  1.00  0.00     0.049 A 
ATOM     46  H   UNL A   1      39.830  31.505  32.929  1.00  0.00     0.167 HD
ATOM     47  C   UNL A   1      40.698  28.526  29.807  1.00  0.00     0.037 A 
ATOM     48  C   UNL A   1      39.982  32.527  35.525  1.00  0.00     0.037 A 
ATOM     49  C   UNL A   1      41.633  28.253  30.864  1.00  0.00     0.049 A 
ATOM     50  C   UNL A   1      41.013  31.434  35.438  1.00  0.00     0.074 A 
ATOM     51  C   UNL A   1      42.667  27.335  30.882  1.00  0.00     0.029 A 
ATOM     52  N   UNL A   1      41.656  28.911  32.084  1.00  0.00    -0.354 N 
ATOM     53  N   UNL A   1      41.290  30.636  34.437  1.00  0.00    -0.248 NA
ATOM     54  C   UNL A   1      41.836  31.202  36.636  1.00  0.00     0.031 C 
ATOM     55  C   UNL A   1      43.295  27.412  32.128  1.00  0.00     0.029 A 
ATOM     56  C   UNL A   1      42.678  28.409  32.867  1.00  0.00     0.049 A 
ATOM     57  H   UNL A   1      41.037  29.628  32.352  1.00  0.00     0.167 HD
ATOM     58  C   UNL A   1      42.344  29.841  34.865  1.00  0.00     0.074 A 
ATOM     59  C   UNL A   1      42.656  30.249  36.218  1.00  0.00     0.031 C 
ATOM     60  C   UNL A   1      42.998  28.860  34.197  1.00  0.00     0.037 A 
BRANCH  47  61
ATOM     61  C   UNL A   1      40.741  27.665  28.580  1.00  0.00     0.057 A 
ATOM     62  C   UNL A   1      39.984  26.492  28.469  1.00  0.00     0.134 A 
ATOM     63  C   UNL A   1      41.516  28.041  27.475  1.00  0.00     0.134 A 
ATOM     64  F   UNL A   1      39.230  26.070  29.495  1.00  0.00    -0.206 F 
ATOM     65  C   UNL A   1      40.015  25.710  27.313  1.00  0.00     0.040 A 
ATOM     66  C   UNL A   1      41.533  27.282  26.303  1.00  0.00     0.040 A 
ATOM     67  F   UNL A   1      42.261  29.156  27.512  1.00  0.00    -0.206 F 
ATOM     68  C   UNL A   1      40.784  26.110  26.223  1.00  0.00     0.006 A 
ENDBRANCH  47  61
BRANCH  48  69
ATOM     69  C   UNL A   1      39.837  33.329  36.765  1.00  0.00     0.057 A 
ATOM     70  C   UNL A   1      38.881  32.987  37.730  1.00  0.00     0.134 A 
ATOM     71  C   UNL A   1      40.618  34.465  37.009  1.00  0.00     0.134 A 
ATOM     72  F   UNL A   1      38.089  31.920  37.545  1.00  0.00    -0.206 F 
ATOM     73  C   UNL A   1      38.688  33.758  38.877  1.00  0.00     0.040 A 
ATOM     74  C   UNL A   1      40.453  35.231  38.165  1.00  0.00     0.040 A 
ATOM     75  F   UNL A   1      41.558  34.844  36.130  1.00  0.00    -0.206 F 
ATOM     76  C   UNL A   1      39.478  34.883  39.099  1.00  0.00     0.006 A 
ENDBRANCH  48  69
BRANCH  60  77
ATOM     77  C   UNL A   1      44.161  28.207  34.881  1.00  0.00     0.057 A 
ATOM     78  C   UNL A   1      45.446  28.756  34.840  1.00  0.00     0.134 A 
ATOM     79  C   UNL A   1      43.965  27.060  35.662  1.00  0.00     0.134 A 
ATOM     80  F   UNL A   1      45.698  29.847  34.101  1.00  0.00    -0.206 F 
ATOM     81  C   UNL A   1      46.502  28.182  35.550  1.00  0.00     0.040 A 
ATOM     82  C   UNL A   1      45.007  26.492  36.393  1.00  0.00     0.040 A 
ATOM     83  F   UNL A   1      42.752  26.494  35.748  1.00  0.00    -0.206 F 
ATOM     84  C   UNL A   1      46.281  27.053  36.337  1.00  0.00     0.006 A 
ENDBRANCH  60  77
ENDBRANCH  34  35
ENDBRANCH  26  29
ENDBRANCH  24  25
ENDBRANCH  23  24
ENDBRANCH  22  23
ENDBRANCH   3  22
TORSDOF 17
ENDMDL
MODEL 2
REMARK VINA RESULT:     -10.0      4.096      7.898
REMARK SMILES COCC[NH2+]CC(=O)N1C[C@H](OC)C[C@@H]1C(=O)NCCCNC(=O)c1ccc(-c2c3nc(c(-c4c(F)cccc4F)c4ccc([nH]4)c(-c4c(F)cccc4F)c4nc(c(-c5c(F)cccc5F)c5ccc2[nH]5)C=C4)C=C3)cc1
REMARK SMILES IDX 16 1 17 2 18 3 15 5 9 6 10 7 11 8 14 9 7 10 8 11 6 12 5 13
REMARK SMILES IDX 4 16 3 17 2 18 1 19 12 20 13 21 19 22 20 23 21 24 22 25
REMARK SMILES IDX 23 26 24 28 25 29 26 30 78 31 27 32 77 33 28 34 29 35 30 36
REMARK SMILES IDX 71 37 31 38 76 39 70 40 72 41 32 42 75 43 69 44 68 45 33 47
REMARK SMILES IDX 59 48 42 49 58 50 43 51 46 52 57 53 73 54 44 55 45 56 56 58
REMARK SMILES IDX 74 59 47 60 34 61 35 62 40 63 36 64 37 65 39 66 41 67 38 68
REMARK SMILES IDX 60 69 61 70 66 71 62 72 63 73 65 74 67 75 64 76 48 77 49 78
REMARK SMILES IDX 54 79 50 80 51 81 53 82 55 83 52 84
REMARK H PARENT 18 4 5 14 5 15 22 27 72 46 46 57
REMARK Flexibility Score: inf
ROOT
ATOM      1  C   UNL A   1      33.048  26.752  22.766  1.00  0.00     0.242 C 
ATOM      2  O   UNL A   1      33.608  26.554  21.681  1.00  0.00    -0.273 OA
ATOM      3  N   UNL A   1      33.863  26.941  23.842  1.00  0.00    -0.354 N 
ATOM      4  H   UNL A   1      34.824  26.976  23.633  1.00  0.00     0.163 HD
ENDROOT
BRANCH   1   5
ATOM      5  C   UNL A   1      31.521  26.576  22.892  1.00  0.00     0.177 C 
ATOM      6  N   UNL A   1      30.796  27.409  23.852  1.00  0.00    -0.323 N 
ATOM      7  C   UNL A   1      29.672  26.628  24.320  1.00  0.00     0.152 C 
ATOM      8  C   UNL A   1      30.224  25.228  24.490  1.00  0.00     0.139 C 
ATOM      9  C   UNL A   1      31.177  25.116  23.290  1.00  0.00     0.069 C 
BRANCH   6  10
ATOM     10  C   UNL A   1      30.636  28.774  23.655  1.00  0.00     0.278 C 
ATOM     11  O   UNL A   1      31.000  29.610  24.477  1.00  0.00    -0.268 OA
BRANCH  10  12
ATOM     12  C   UNL A   1      29.884  29.166  22.364  1.00  0.00     0.362 C 
BRANCH  12  13
ATOM     13  N   UNL A   1      28.441  29.448  22.539  1.00  0.00    -0.337 N 
ATOM     14  H   UNL A   1      27.906  28.649  22.200  1.00  0.00     0.346 HD
ATOM     15  H   UNL A   1      28.269  29.612  23.531  1.00  0.00     0.346 HD
BRANCH  13  16
ATOM     16  C   UNL A   1      28.027  30.643  21.802  1.00  0.00     0.289 C 
BRANCH  16  17
ATOM     17  C   UNL A   1      28.515  31.999  22.323  1.00  0.00     0.221 C 
BRANCH  17  18
ATOM     18  O   UNL A   1      27.953  33.094  21.597  1.00  0.00    -0.379 OA
ATOM     19  C   UNL A   1      27.659  32.773  20.247  1.00  0.00     0.195 C 
ENDBRANCH  17  18
ENDBRANCH  16  17
ENDBRANCH  13  16
ENDBRANCH  12  13
ENDBRANCH  10  12
ENDBRANCH   6  10
BRANCH   8  20
ATOM     20  O   UNL A   1      30.974  25.020  25.695  1.00  0.00    -0.380 OA
ATOM     21  C   UNL A   1      31.171  23.665  26.091  1.00  0.00     0.195 C 
ENDBRANCH   8  20
ENDBRANCH   1   5
BRANCH   3  22
ATOM     22  C   UNL A   1      33.538  27.095  25.241  1.00  0.00     0.117 C 
BRANCH  22  23
ATOM     23  C   UNL A   1      34.021  28.422  25.812  1.00  0.00     0.042 C 
BRANCH  23  24
ATOM     24  C   UNL A   1      33.605  28.647  27.256  1.00  0.00     0.118 C 
BRANCH  24  25
ATOM     25  N   UNL A   1      33.766  30.040  27.675  1.00  0.00    -0.352 N 
ATOM     26  C   UNL A   1      34.839  30.701  28.232  1.00  0.00     0.251 C 
ATOM     27  H   UNL A   1      32.971  30.601  27.534  1.00  0.00     0.163 HD
ATOM     28  O   UNL A   1      34.698  31.835  28.659  1.00  0.00    -0.269 OA
BRANCH  26  29
ATOM     29  C   UNL A   1      36.149  30.022  28.343  1.00  0.00     0.039 A 
ATOM     30  C   UNL A   1      37.040  30.073  27.267  1.00  0.00     0.014 A 
ATOM     31  C   UNL A   1      36.505  29.359  29.514  1.00  0.00     0.014 A 
ATOM     32  C   UNL A   1      38.329  29.554  27.411  1.00  0.00     0.010 A 
ATOM     33  C   UNL A   1      37.818  28.952  29.698  1.00  0.00     0.010 A 
ATOM     34  C   UNL A   1      38.747  29.045  28.650  1.00  0.00    -0.014 A 
BRANCH  34  35
ATOM     35  C   UNL A   1      40.136  28.585  28.907  1.00  0.00     0.031 A 
ATOM     36  C   UNL A   1      41.143  29.565  29.446  1.00  0.00     0.074 A 
ATOM     37  C   UNL A   1      40.524  27.352  28.526  1.00  0.00     0.049 A 
ATOM     38  N   UNL A   1      42.447  29.473  29.496  1.00  0.00    -0.248 NA
ATOM     39  C   UNL A   1      40.614  30.847  29.942  1.00  0.00     0.031 C 
ATOM     40  C   UNL A   1      39.655  26.319  27.957  1.00  0.00     0.029 A 
ATOM     41  N   UNL A   1      41.767  26.767  28.535  1.00  0.00    -0.354 N 
ATOM     42  C   UNL A   1      42.891  30.702  29.968  1.00  0.00     0.074 A 
ATOM     43  C   UNL A   1      41.725  31.535  30.152  1.00  0.00     0.031 C 
ATOM     44  C   UNL A   1      40.387  25.224  27.690  1.00  0.00     0.029 A 
ATOM     45  C   UNL A   1      41.784  25.495  28.012  1.00  0.00     0.049 A 
ATOM     46  H   UNL A   1      42.571  27.217  28.883  1.00  0.00     0.167 HD
ATOM     47  C   UNL A   1      44.158  31.093  30.237  1.00  0.00     0.037 A 
ATOM     48  C   UNL A   1      42.814  24.655  27.795  1.00  0.00     0.037 A 
ATOM     49  C   UNL A   1      45.302  30.230  30.127  1.00  0.00     0.049 A 
ATOM     50  C   UNL A   1      44.209  25.106  28.134  1.00  0.00     0.074 A 
ATOM     51  C   UNL A   1      46.615  30.495  30.473  1.00  0.00     0.029 A 
ATOM     52  N   UNL A   1      45.264  28.929  29.652  1.00  0.00    -0.354 N 
ATOM     53  N   UNL A   1      44.611  26.251  28.628  1.00  0.00    -0.248 NA
ATOM     54  C   UNL A   1      45.296  24.148  27.878  1.00  0.00     0.031 C 
ATOM     55  C   UNL A   1      47.379  29.365  30.173  1.00  0.00     0.029 A 
ATOM     56  C   UNL A   1      46.534  28.383  29.681  1.00  0.00     0.049 A 
ATOM     57  H   UNL A   1      44.455  28.463  29.339  1.00  0.00     0.167 HD
ATOM     58  C   UNL A   1      45.986  26.136  28.784  1.00  0.00     0.074 A 
ATOM     59  C   UNL A   1      46.351  24.812  28.329  1.00  0.00     0.031 C 
ATOM     60  C   UNL A   1      46.868  27.046  29.262  1.00  0.00     0.037 A 
BRANCH  47  61
ATOM     61  C   UNL A   1      44.374  32.508  30.683  1.00  0.00     0.057 A 
ATOM     62  C   UNL A   1      44.611  33.546  29.774  1.00  0.00     0.134 A 
ATOM     63  C   UNL A   1      44.297  32.844  32.042  1.00  0.00     0.134 A 
ATOM     64  F   UNL A   1      44.708  33.290  28.460  1.00  0.00    -0.206 F 
ATOM     65  C   UNL A   1      44.789  34.864  30.199  1.00  0.00     0.040 A 
ATOM     66  C   UNL A   1      44.445  34.162  32.477  1.00  0.00     0.040 A 
ATOM     67  F   UNL A   1      44.068  31.899  32.966  1.00  0.00    -0.206 F 
ATOM     68  C   UNL A   1      44.697  35.175  31.554  1.00  0.00     0.006 A 
ENDBRANCH  47  61
BRANCH  48  69
ATOM     69  C   UNL A   1      42.574  23.296  27.247  1.00  0.00     0.057 A 
ATOM     70  C   UNL A   1      42.230  22.235  28.093  1.00  0.00     0.134 A 
ATOM     71  C   UNL A   1      42.709  23.013  25.883  1.00  0.00     0.134 A 
ATOM     72  F   UNL A   1      42.104  22.440  29.413  1.00  0.00    -0.206 F 
ATOM     73  C   UNL A   1      42.055  20.938  27.610  1.00  0.00     0.040 A 
ATOM     74  C   UNL A   1      42.512  21.724  25.381  1.00  0.00     0.040 A 
ATOM     75  F   UNL A   1      43.028  23.985  25.016  1.00  0.00    -0.206 F 
ATOM     76  C   UNL A   1      42.193  20.680  26.248  1.00  0.00     0.006 A 
ENDBRANCH  48  69
BRANCH  60  77
ATOM     77  C   UNL A   1      48.300  26.625  29.391  1.00  0.00     0.057 A 
ATOM     78  C   UNL A   1      49.249  26.917  28.405  1.00  0.00     0.134 A 
ATOM     79  C   UNL A   1      48.746  25.994  30.560  1.00  0.00     0.134 A 
ATOM     80  F   UNL A   1      48.880  27.509  27.260  1.00  0.00    -0.206 F 
ATOM     81  C   UNL A   1      50.595  26.590  28.576  1.00  0.00     0.040 A 
ATOM     82  C   UNL A   1      50.092  25.685  30.751  1.00  0.00     0.040 A 
ATOM     83  F   UNL A   1      47.885  25.697  31.545  1.00  0.00    -0.206 F 
ATOM     84  C   UNL A   1      51.021  25.983  29.756  1.00  0.00     0.006 A 
ENDBRANCH  60  77
ENDBRANCH  34  35
ENDBRANCH  26  29
ENDBRANCH  24  25
ENDBRANCH  23  24
ENDBRANCH  22  23
ENDBRANCH   3  22
TORSDOF 17
ENDMDL
MODEL 3
REMARK VINA RESULT:     -10.0      1.300      2.948
REMARK SMILES COCC[NH2+]CC(=O)N1C[C@H](OC)C[C@@H]1C(=O)NCCCNC(=O)c1ccc(-c2c3nc(c(-c4c(F)cccc4F)c4ccc([nH]4)c(-c4c(F)cccc4F)c4nc(c(-c5c(F)cccc5F)c5ccc2[nH]5)C=C4)C=C3)cc1
REMARK SMILES IDX 16 1 17 2 18 3 15 5 9 6 10 7 11 8 14 9 7 10 8 11 6 12 5 13
REMARK SMILES IDX 4 16 3 17 2 18 1 19 12 20 13 21 19 22 20 23 21 24 22 25
REMARK SMILES IDX 23 26 24 28 25 29 26 30 78 31 27 32 77 33 28 34 29 35 30 36
REMARK SMILES IDX 71 37 31 38 76 39 70 40 72 41 32 42 75 43 69 44 68 45 33 47
REMARK SMILES IDX 59 48 42 49 58 50 43 51 46 52 57 53 73 54 44 55 45 56 56 58
REMARK SMILES IDX 74 59 47 60 34 61 35 62 40 63 36 64 37 65 39 66 41 67 38 68
REMARK SMILES IDX 60 69 61 70 66 71 62 72 63 73 65 74 67 75 64 76 48 77 49 78
REMARK SMILES IDX 54 79 50 80 51 81 53 82 55 83 52 84
REMARK H PARENT 18 4 5 14 5 15 22 27 72 46 46 57
REMARK Flexibility Score: inf
ROOT
ATOM      1  C   UNL A   1      33.169  29.044  24.187  1.00  0.00     0.242 C 
ATOM      2  O   UNL A   1      34.088  29.127  23.365  1.00  0.00    -0.273 OA
ATOM      3  N   UNL A   1      33.322  29.755  25.340  1.00  0.00    -0.354 N 
ATOM      4  H   UNL A   1      34.122  30.328  25.371  1.00  0.00     0.163 HD
ENDROOT
BRANCH   1   5
ATOM      5  C   UNL A   1      32.033  28.022  23.977  1.00  0.00     0.177 C 
ATOM      6  N   UNL A   1      32.049  27.194  22.771  1.00  0.00    -0.323 N 
ATOM      7  C   UNL A   1      30.669  26.926  22.429  1.00  0.00     0.152 C 
ATOM      8  C   UNL A   1      29.951  28.235  22.685  1.00  0.00     0.139 C 
ATOM      9  C   UNL A   1      30.658  28.742  23.951  1.00  0.00     0.069 C 
BRANCH   6  10
ATOM     10  C   UNL A   1      32.997  26.197  22.585  1.00  0.00     0.278 C 
ATOM     11  O   UNL A   1      33.521  25.975  21.497  1.00  0.00    -0.268 OA
BRANCH  10  12
ATOM     12  C   UNL A   1      33.284  25.326  23.828  1.00  0.00     0.362 C 
BRANCH  12  13
ATOM     13  N   UNL A   1      32.729  23.955  23.774  1.00  0.00    -0.337 N 
ATOM     14  H   UNL A   1      32.247  23.829  22.884  1.00  0.00     0.346 HD
ATOM     15  H   UNL A   1      33.502  23.296  23.870  1.00  0.00     0.346 HD
BRANCH  13  16
ATOM     16  C   UNL A   1      31.783  23.706  24.863  1.00  0.00     0.289 C 
BRANCH  16  17
ATOM     17  C   UNL A   1      32.290  23.901  26.297  1.00  0.00     0.221 C 
BRANCH  17  18
ATOM     18  O   UNL A   1      31.225  23.931  27.249  1.00  0.00    -0.379 OA
ATOM     19  C   UNL A   1      30.143  23.083  26.900  1.00  0.00     0.195 C 
ENDBRANCH  17  18
ENDBRANCH  16  17
ENDBRANCH  13  16
ENDBRANCH  12  13
ENDBRANCH  10  12
ENDBRANCH   6  10
BRANCH   8  20
ATOM     20  O   UNL A   1      30.102  29.216  21.649  1.00  0.00    -0.380 OA
ATOM     21  C   UNL A   1      29.145  30.272  21.634  1.00  0.00     0.195 C 
ENDBRANCH   8  20
ENDBRANCH   1   5
BRANCH   3  22
ATOM     22  C   UNL A   1      32.496  29.798  26.525  1.00  0.00     0.117 C 
BRANCH  22  23
ATOM     23  C   UNL A   1      32.042  31.210  26.871  1.00  0.00     0.042 C 
BRANCH  23  24
ATOM     24  C   UNL A   1      33.185  32.135  27.254  1.00  0.00     0.118 C 
BRANCH  24  25
ATOM     25  N   UNL A   1      32.730  33.493  27.556  1.00  0.00    -0.352 N 
ATOM     26  C   UNL A   1      33.149  34.400  28.504  1.00  0.00     0.251 C 
ATOM     27  H   UNL A   1      31.997  33.813  26.982  1.00  0.00     0.163 HD
ATOM     28  O   UNL A   1      32.512  35.424  28.688  1.00  0.00    -0.269 OA
BRANCH  26  29
ATOM     29  C   UNL A   1      34.349  34.115  29.320  1.00  0.00     0.039 A 
ATOM     30  C   UNL A   1      34.200  33.494  30.564  1.00  0.00     0.014 A 
ATOM     31  C   UNL A   1      35.619  34.437  28.849  1.00  0.00     0.014 A 
ATOM     32  C   UNL A   1      35.333  33.098  31.281  1.00  0.00     0.010 A 
ATOM     33  C   UNL A   1      36.737  33.940  29.501  1.00  0.00     0.010 A 
ATOM     34  C   UNL A   1      36.609  33.263  30.724  1.00  0.00    -0.014 A 
BRANCH  34  35
ATOM     35  C   UNL A   1      37.846  32.762  31.375  1.00  0.00     0.031 A 
ATOM     36  C   UNL A   1      38.552  31.570  30.787  1.00  0.00     0.074 A 
ATOM     37  C   UNL A   1      38.247  33.274  32.556  1.00  0.00     0.049 A 
ATOM     38  N   UNL A   1      39.471  30.805  31.315  1.00  0.00    -0.248 NA
ATOM     39  C   UNL A   1      38.120  31.147  29.443  1.00  0.00     0.031 C 
ATOM     40  C   UNL A   1      37.629  34.406  33.252  1.00  0.00     0.029 A 
ATOM     41  N   UNL A   1      39.261  32.885  33.398  1.00  0.00    -0.354 N 
ATOM     42  C   UNL A   1      39.679  29.782  30.399  1.00  0.00     0.074 A 
ATOM     43  C   UNL A   1      38.766  30.001  29.300  1.00  0.00     0.031 C 
ATOM     44  C   UNL A   1      38.288  34.629  34.401  1.00  0.00     0.029 A 
ATOM     45  C   UNL A   1      39.334  33.625  34.554  1.00  0.00     0.049 A 
ATOM     46  H   UNL A   1      39.876  32.145  33.192  1.00  0.00     0.167 HD
ATOM     47  C   UNL A   1      40.565  28.761  30.462  1.00  0.00     0.037 A 
ATOM     48  C   UNL A   1      40.138  33.489  35.626  1.00  0.00     0.037 A 
ATOM     49  C   UNL A   1      41.524  28.599  31.519  1.00  0.00     0.049 A 
ATOM     50  C   UNL A   1      41.135  32.363  35.655  1.00  0.00     0.074 A 
ATOM     51  C   UNL A   1      42.534  27.659  31.628  1.00  0.00     0.029 A 
ATOM     52  N   UNL A   1      41.604  29.408  32.642  1.00  0.00    -0.354 N 
ATOM     53  N   UNL A   1      41.359  31.434  34.759  1.00  0.00    -0.248 NA
ATOM     54  C   UNL A   1      41.989  32.263  36.849  1.00  0.00     0.031 C 
ATOM     55  C   UNL A   1      43.202  27.877  32.835  1.00  0.00     0.029 A 
ATOM     56  C   UNL A   1      42.636  28.980  33.455  1.00  0.00     0.049 A 
ATOM     57  H   UNL A   1      41.013  30.173  32.831  1.00  0.00     0.167 HD
ATOM     58  C   UNL A   1      42.404  30.669  35.258  1.00  0.00     0.074 A 
ATOM     59  C   UNL A   1      42.770  31.239  36.537  1.00  0.00     0.031 C 
ATOM     60  C   UNL A   1      43.009  29.590  34.705  1.00  0.00     0.037 A 
BRANCH  47  61
ATOM     61  C   UNL A   1      40.545  27.747  29.357  1.00  0.00     0.057 A 
ATOM     62  C   UNL A   1      39.612  26.704  29.323  1.00  0.00     0.134 A 
ATOM     63  C   UNL A   1      41.445  27.846  28.287  1.00  0.00     0.134 A 
ATOM     64  F   UNL A   1      38.732  26.546  30.322  1.00  0.00    -0.206 F 
ATOM     65  C   UNL A   1      39.590  25.779  28.278  1.00  0.00     0.040 A 
ATOM     66  C   UNL A   1      41.413  26.944  27.222  1.00  0.00     0.040 A 
ATOM     67  F   UNL A   1      42.361  28.825  28.254  1.00  0.00    -0.206 F 
ATOM     68  C   UNL A   1      40.487  25.903  27.219  1.00  0.00     0.006 A 
ENDBRANCH  47  61
BRANCH  48  69
ATOM     69  C   UNL A   1      40.054  34.450  36.756  1.00  0.00     0.057 A 
ATOM     70  C   UNL A   1      39.259  34.170  37.874  1.00  0.00     0.134 A 
ATOM     71  C   UNL A   1      40.732  35.674  36.739  1.00  0.00     0.134 A 
ATOM     72  F   UNL A   1      38.570  33.021  37.940  1.00  0.00    -0.206 F 
ATOM     73  C   UNL A   1      39.120  35.081  38.922  1.00  0.00     0.040 A 
ATOM     74  C   UNL A   1      40.622  36.585  37.793  1.00  0.00     0.040 A 
ATOM     75  F   UNL A   1      41.517  36.002  35.702  1.00  0.00    -0.206 F 
ATOM     76  C   UNL A   1      39.806  36.293  38.884  1.00  0.00     0.006 A 
ENDBRANCH  48  69
BRANCH  60  77
ATOM     77  C   UNL A   1      44.175  28.996  35.437  1.00  0.00     0.057 A 
ATOM     78  C   UNL A   1      44.017  27.961  36.364  1.00  0.00     0.134 A 
ATOM     79  C   UNL A   1      45.479  29.413  35.139  1.00  0.00     0.134 A 
ATOM     80  F   UNL A   1      42.793  27.527  36.699  1.00  0.00    -0.206 F 
ATOM     81  C   UNL A   1      45.119  27.363  36.977  1.00  0.00     0.040 A 
ATOM     82  C   UNL A   1      46.588  28.806  35.727  1.00  0.00     0.040 A 
ATOM     83  F   UNL A   1      45.695  30.395  34.251  1.00  0.00    -0.206 F 
ATOM     84  C   UNL A   1      46.410  27.778  36.651  1.00  0.00     0.006 A 
ENDBRANCH  60  77
ENDBRANCH  34  35
ENDBRANCH  26  29
ENDBRANCH  24  25
ENDBRANCH  23  24
ENDBRANCH  22  23
ENDBRANCH   3  22
TORSDOF 17
ENDMDL
