MODEL 1
REMARK VINA RESULT:     -12.4      0.000      0.000
REMARK SMILES O=C(NCCCNC(=O)[C@@]1(CCc2ccccc2)CCC[N@@H+](Cc2cccnc2)C1)c1ccc(-c2c3nc(c(-c4c(F)cccc4F)c4ccc([nH]4)c(-c4c(F)cccc4F)c4nc(c(-c5c(F)cccc5F)c5ccc2[nH]5)C=C4)C=C3)cc1
REMARK SMILES IDX 5 1 4 2 3 3 1 4 2 5 31 7 32 8 84 9 33 10 83 11 34 12 35 13
REMARK SMILES IDX 36 14 77 15 37 16 82 17 76 18 78 19 38 20 81 21 75 22 74 23
REMARK SMILES IDX 39 25 65 26 48 27 64 28 49 29 52 30 63 31 79 32 50 33 51 34
REMARK SMILES IDX 62 36 80 37 53 38 40 39 41 40 46 41 42 42 43 43 45 44 47 45
REMARK SMILES IDX 44 46 66 47 67 48 72 49 68 50 69 51 71 52 73 53 70 54 54 55
REMARK SMILES IDX 55 56 60 57 56 58 57 59 59 60 61 61 58 62 6 63 7 64 8 65
REMARK SMILES IDX 9 67 10 68 19 69 30 70 20 71 22 72 21 73 11 75 12 76 13 77
REMARK SMILES IDX 14 78 18 79 15 80 17 81 16 82 23 83 24 84 25 85 29 86 26 87
REMARK SMILES IDX 28 88 27 89
REMARK H PARENT 3 6 78 24 52 35 7 66 22 74
REMARK Flexibility Score: inf
ROOT
ATOM      1  C   UNL A   1      31.773  28.139  26.167  1.00  0.00     0.042 C 
ENDROOT
BRANCH   1   2
ATOM      2  C   UNL A   1      32.795  29.155  25.690  1.00  0.00     0.118 C 
BRANCH   2   3
ATOM      3  N   UNL A   1      32.459  30.525  26.079  1.00  0.00    -0.352 N 
ATOM      4  O   UNL A   1      32.375  32.411  27.294  1.00  0.00    -0.269 OA
ATOM      5  C   UNL A   1      33.005  31.397  26.991  1.00  0.00     0.251 C 
ATOM      6  H   UNL A   1      31.689  30.896  25.591  1.00  0.00     0.163 HD
BRANCH   5   7
ATOM      7  C   UNL A   1      34.311  31.133  27.631  1.00  0.00     0.039 A 
ATOM      8  C   UNL A   1      34.668  29.845  28.008  1.00  0.00     0.014 A 
ATOM      9  C   UNL A   1      35.223  32.178  27.824  1.00  0.00     0.014 A 
ATOM     10  C   UNL A   1      35.793  29.635  28.785  1.00  0.00     0.010 A 
ATOM     11  C   UNL A   1      36.446  31.934  28.464  1.00  0.00     0.010 A 
ATOM     12  C   UNL A   1      36.720  30.667  28.997  1.00  0.00    -0.014 A 
BRANCH  12  13
ATOM     13  C   UNL A   1      37.972  30.343  29.732  1.00  0.00     0.031 A 
ATOM     14  C   UNL A   1      38.168  30.756  31.165  1.00  0.00     0.074 A 
ATOM     15  C   UNL A   1      38.898  29.581  29.116  1.00  0.00     0.049 A 
ATOM     16  N   UNL A   1      39.163  30.477  31.970  1.00  0.00    -0.248 NA
ATOM     17  C   UNL A   1      37.128  31.600  31.773  1.00  0.00     0.031 C 
ATOM     18  C   UNL A   1      38.824  29.128  27.722  1.00  0.00     0.029 A 
ATOM     19  N   UNL A   1      40.049  29.002  29.584  1.00  0.00    -0.354 N 
ATOM     20  C   UNL A   1      38.890  31.141  33.160  1.00  0.00     0.074 A 
ATOM     21  C   UNL A   1      37.643  31.849  32.968  1.00  0.00     0.031 C 
ATOM     22  C   UNL A   1      39.817  28.261  27.484  1.00  0.00     0.029 A 
ATOM     23  C   UNL A   1      40.654  28.171  28.671  1.00  0.00     0.049 A 
ATOM     24  H   UNL A   1      40.407  29.166  30.487  1.00  0.00     0.167 HD
ATOM     25  C   UNL A   1      39.613  31.156  34.305  1.00  0.00     0.037 A 
ATOM     26  C   UNL A   1      41.768  27.423  28.771  1.00  0.00     0.037 A 
ATOM     27  C   UNL A   1      40.835  30.416  34.499  1.00  0.00     0.049 A 
ATOM     28  C   UNL A   1      42.544  27.455  30.052  1.00  0.00     0.074 A 
ATOM     29  C   UNL A   1      41.620  30.332  35.636  1.00  0.00     0.029 A 
ATOM     30  N   UNL A   1      41.446  29.630  33.533  1.00  0.00    -0.354 N 
ATOM     31  N   UNL A   1      42.263  28.077  31.171  1.00  0.00    -0.248 NA
ATOM     32  C   UNL A   1      43.800  26.696  30.080  1.00  0.00     0.031 C 
ATOM     33  C   UNL A   1      42.729  29.530  35.344  1.00  0.00     0.029 A 
ATOM     34  C   UNL A   1      42.610  29.075  34.040  1.00  0.00     0.049 A 
ATOM     35  H   UNL A   1      41.102  29.487  32.621  1.00  0.00     0.167 HD
ATOM     36  C   UNL A   1      43.301  27.778  32.040  1.00  0.00     0.074 A 
ATOM     37  C   UNL A   1      44.203  26.896  31.326  1.00  0.00     0.031 C 
ATOM     38  C   UNL A   1      43.494  28.200  33.314  1.00  0.00     0.037 A 
BRANCH  25  39
ATOM     39  C   UNL A   1      39.120  32.023  35.428  1.00  0.00     0.057 A 
ATOM     40  C   UNL A   1      38.319  31.523  36.463  1.00  0.00     0.134 A 
ATOM     41  C   UNL A   1      39.485  33.374  35.491  1.00  0.00     0.134 A 
ATOM     42  F   UNL A   1      37.923  30.241  36.458  1.00  0.00    -0.206 F 
ATOM     43  C   UNL A   1      37.879  32.342  37.506  1.00  0.00     0.040 A 
ATOM     44  C   UNL A   1      39.072  34.196  36.541  1.00  0.00     0.040 A 
ATOM     45  F   UNL A   1      40.255  33.917  34.536  1.00  0.00    -0.206 F 
ATOM     46  C   UNL A   1      38.261  33.682  37.550  1.00  0.00     0.006 A 
ENDBRANCH  25  39
BRANCH  26  47
ATOM     47  C   UNL A   1      42.210  26.594  27.622  1.00  0.00     0.057 A 
ATOM     48  C   UNL A   1      41.725  25.295  27.435  1.00  0.00     0.134 A 
ATOM     49  C   UNL A   1      43.116  27.087  26.672  1.00  0.00     0.134 A 
ATOM     50  F   UNL A   1      40.869  24.761  28.319  1.00  0.00    -0.206 F 
ATOM     51  C   UNL A   1      42.129  24.513  26.352  1.00  0.00     0.040 A 
ATOM     52  C   UNL A   1      43.504  26.327  25.569  1.00  0.00     0.040 A 
ATOM     53  F   UNL A   1      43.611  28.328  26.789  1.00  0.00    -0.206 F 
ATOM     54  C   UNL A   1      43.015  25.033  25.410  1.00  0.00     0.006 A 
ENDBRANCH  26  47
BRANCH  38  55
ATOM     55  C   UNL A   1      44.713  27.684  34.016  1.00  0.00     0.057 A 
ATOM     56  C   UNL A   1      44.698  26.480  34.733  1.00  0.00     0.134 A 
ATOM     57  C   UNL A   1      45.917  28.396  33.968  1.00  0.00     0.134 A 
ATOM     58  F   UNL A   1      43.569  25.760  34.829  1.00  0.00    -0.206 F 
ATOM     59  C   UNL A   1      45.832  26.018  35.403  1.00  0.00     0.040 A 
ATOM     60  C   UNL A   1      47.064  27.931  34.613  1.00  0.00     0.040 A 
ATOM     61  F   UNL A   1      45.998  29.553  33.294  1.00  0.00    -0.206 F 
ATOM     62  C   UNL A   1      47.020  26.742  35.339  1.00  0.00     0.006 A 
ENDBRANCH  38  55
ENDBRANCH  12  13
ENDBRANCH   5   7
ENDBRANCH   2   3
ENDBRANCH   1   2
BRANCH   1  63
ATOM     63  C   UNL A   1      32.288  26.716  26.065  1.00  0.00     0.117 C 
BRANCH  63  64
ATOM     64  N   UNL A   1      31.504  25.843  25.195  1.00  0.00    -0.355 N 
ATOM     65  C   UNL A   1      31.620  24.497  24.931  1.00  0.00     0.231 C 
ATOM     66  H   UNL A   1      30.771  26.293  24.715  1.00  0.00     0.163 HD
ATOM     67  O   UNL A   1      30.741  23.975  24.245  1.00  0.00    -0.274 OA
BRANCH  65  68
ATOM     68  C   UNL A   1      32.879  23.730  25.380  1.00  0.00     0.098 C 
ATOM     69  C   UNL A   1      32.869  23.367  26.887  1.00  0.00     0.028 C 
ATOM     70  C   UNL A   1      32.697  22.345  24.643  1.00  0.00     0.279 C 
ATOM     71  C   UNL A   1      33.960  22.325  27.184  1.00  0.00     0.063 C 
ATOM     72  N   UNL A   1      33.302  21.094  25.118  1.00  0.00    -0.330 N 
ATOM     73  C   UNL A   1      33.600  20.996  26.544  1.00  0.00     0.262 C 
ATOM     74  H   UNL A   1      34.234  21.116  24.704  1.00  0.00     0.348 HD
BRANCH  68  75
ATOM     75  C   UNL A   1      34.185  24.567  25.117  1.00  0.00     0.027 C 
BRANCH  75  76
ATOM     76  C   UNL A   1      35.318  24.020  24.195  1.00  0.00     0.037 C 
BRANCH  76  77
ATOM     77  C   UNL A   1      36.528  23.271  24.709  1.00  0.00    -0.048 A 
ATOM     78  C   UNL A   1      36.671  21.910  24.362  1.00  0.00     0.004 A 
ATOM     79  C   UNL A   1      37.437  23.807  25.622  1.00  0.00     0.004 A 
ATOM     80  C   UNL A   1      37.691  21.122  24.901  1.00  0.00     0.000 A 
ATOM     81  C   UNL A   1      38.472  23.023  26.149  1.00  0.00     0.000 A 
ATOM     82  C   UNL A   1      38.596  21.681  25.795  1.00  0.00     0.000 A 
ENDBRANCH  76  77
ENDBRANCH  75  76
ENDBRANCH  68  75
BRANCH  72  83
ATOM     83  C   UNL A   1      32.570  19.898  24.607  1.00  0.00     0.300 C 
BRANCH  83  84
ATOM     84  C   UNL A   1      33.198  18.539  24.870  1.00  0.00     0.025 A 
ATOM     85  C   UNL A   1      34.439  18.142  24.355  1.00  0.00     0.013 A 
ATOM     86  C   UNL A   1      32.503  17.582  25.610  1.00  0.00     0.120 A 
ATOM     87  C   UNL A   1      34.890  16.836  24.539  1.00  0.00     0.021 A 
ATOM     88  N   UNL A   1      32.922  16.311  25.820  1.00  0.00    -0.264 NA
ATOM     89  C   UNL A   1      34.100  15.962  25.265  1.00  0.00     0.111 A 
ENDBRANCH  83  84
ENDBRANCH  72  83
ENDBRANCH  65  68
ENDBRANCH  63  64
ENDBRANCH   1  63
TORSDOF 15
ENDMDL
MODEL 2
REMARK VINA RESULT:     -12.4      3.474      6.789
REMARK SMILES O=C(NCCCNC(=O)[C@@]1(CCc2ccccc2)CCC[N@@H+](Cc2cccnc2)C1)c1ccc(-c2c3nc(c(-c4c(F)cccc4F)c4ccc([nH]4)c(-c4c(F)cccc4F)c4nc(c(-c5c(F)cccc5F)c5ccc2[nH]5)C=C4)C=C3)cc1
REMARK SMILES IDX 5 1 4 2 3 3 1 4 2 5 31 7 32 8 84 9 33 10 83 11 34 12 35 13
REMARK SMILES IDX 36 14 77 15 37 16 82 17 76 18 78 19 38 20 81 21 75 22 74 23
REMARK SMILES IDX 39 25 65 26 48 27 64 28 49 29 52 30 63 31 79 32 50 33 51 34
REMARK SMILES IDX 62 36 80 37 53 38 40 39 41 40 46 41 42 42 43 43 45 44 47 45
REMARK SMILES IDX 44 46 66 47 67 48 72 49 68 50 69 51 71 52 73 53 70 54 54 55
REMARK SMILES IDX 55 56 60 57 56 58 57 59 59 60 61 61 58 62 6 63 7 64 8 65
REMARK SMILES IDX 9 67 10 68 19 69 30 70 20 71 22 72 21 73 11 75 12 76 13 77
REMARK SMILES IDX 14 78 18 79 15 80 17 81 16 82 23 83 24 84 25 85 29 86 26 87
REMARK SMILES IDX 28 88 27 89
REMARK H PARENT 3 6 78 24 52 35 7 66 22 74
REMARK Flexibility Score: inf
ROOT
ATOM      1  C   UNL A   1      32.888  27.712  26.307  1.00  0.00     0.042 C 
ENDROOT
BRANCH   1   2
ATOM      2  C   UNL A   1      34.185  28.256  26.879  1.00  0.00     0.118 C 
BRANCH   2   3
ATOM      3  N   UNL A   1      34.034  29.590  27.460  1.00  0.00    -0.352 N 
ATOM      4  O   UNL A   1      34.373  31.353  28.808  1.00  0.00    -0.269 OA
ATOM      5  C   UNL A   1      34.847  30.357  28.259  1.00  0.00     0.251 C 
ATOM      6  H   UNL A   1      33.181  30.025  27.233  1.00  0.00     0.163 HD
BRANCH   5   7
ATOM      7  C   UNL A   1      36.262  30.000  28.495  1.00  0.00     0.039 A 
ATOM      8  C   UNL A   1      37.229  30.263  27.535  1.00  0.00     0.014 A 
ATOM      9  C   UNL A   1      36.649  29.432  29.715  1.00  0.00     0.014 A 
ATOM     10  C   UNL A   1      38.505  29.745  27.674  1.00  0.00     0.010 A 
ATOM     11  C   UNL A   1      37.984  29.059  29.926  1.00  0.00     0.010 A 
ATOM     12  C   UNL A   1      38.916  29.167  28.884  1.00  0.00    -0.014 A 
BRANCH  12  13
ATOM     13  C   UNL A   1      40.337  28.747  29.013  1.00  0.00     0.031 A 
ATOM     14  C   UNL A   1      40.802  27.399  28.537  1.00  0.00     0.074 A 
ATOM     15  C   UNL A   1      41.230  29.643  29.482  1.00  0.00     0.049 A 
ATOM     16  N   UNL A   1      42.019  26.917  28.500  1.00  0.00    -0.248 NA
ATOM     17  C   UNL A   1      39.775  26.463  28.053  1.00  0.00     0.031 C 
ATOM     18  C   UNL A   1      40.895  30.981  29.984  1.00  0.00     0.029 A 
ATOM     19  N   UNL A   1      42.598  29.599  29.560  1.00  0.00    -0.354 N 
ATOM     20  C   UNL A   1      41.901  25.614  28.030  1.00  0.00     0.074 A 
ATOM     21  C   UNL A   1      40.492  25.375  27.808  1.00  0.00     0.031 C 
ATOM     22  C   UNL A   1      42.025  31.663  30.214  1.00  0.00     0.029 A 
ATOM     23  C   UNL A   1      43.160  30.784  29.971  1.00  0.00     0.049 A 
ATOM     24  H   UNL A   1      43.125  28.796  29.344  1.00  0.00     0.167 HD
ATOM     25  C   UNL A   1      42.879  24.705  27.803  1.00  0.00     0.037 A 
ATOM     26  C   UNL A   1      44.449  31.128  30.145  1.00  0.00     0.037 A 
ATOM     27  C   UNL A   1      44.284  24.966  27.991  1.00  0.00     0.049 A 
ATOM     28  C   UNL A   1      45.510  30.103  29.881  1.00  0.00     0.074 A 
ATOM     29  C   UNL A   1      45.357  24.125  27.750  1.00  0.00     0.029 A 
ATOM     30  N   UNL A   1      44.812  26.160  28.461  1.00  0.00    -0.354 N 
ATOM     31  N   UNL A   1      45.380  28.882  29.424  1.00  0.00    -0.248 NA
ATOM     32  C   UNL A   1      46.893  30.497  30.173  1.00  0.00     0.031 C 
ATOM     33  C   UNL A   1      46.530  24.794  28.116  1.00  0.00     0.029 A 
ATOM     34  C   UNL A   1      46.193  26.070  28.539  1.00  0.00     0.049 A 
ATOM     35  H   UNL A   1      44.283  26.954  28.704  1.00  0.00     0.167 HD
ATOM     36  C   UNL A   1      46.664  28.363  29.363  1.00  0.00     0.074 A 
ATOM     37  C   UNL A   1      47.560  29.413  29.806  1.00  0.00     0.031 C 
ATOM     38  C   UNL A   1      47.066  27.126  28.982  1.00  0.00     0.037 A 
BRANCH  25  39
ATOM     39  C   UNL A   1      42.464  23.332  27.357  1.00  0.00     0.057 A 
ATOM     40  C   UNL A   1      42.411  22.969  26.006  1.00  0.00     0.134 A 
ATOM     41  C   UNL A   1      42.145  22.348  28.302  1.00  0.00     0.134 A 
ATOM     42  F   UNL A   1      42.692  23.866  25.049  1.00  0.00    -0.206 F 
ATOM     43  C   UNL A   1      42.033  21.684  25.609  1.00  0.00     0.040 A 
ATOM     44  C   UNL A   1      41.790  21.053  27.920  1.00  0.00     0.040 A 
ATOM     45  F   UNL A   1      42.180  22.626  29.614  1.00  0.00    -0.206 F 
ATOM     46  C   UNL A   1      41.728  20.719  26.569  1.00  0.00     0.006 A 
ENDBRANCH  25  39
BRANCH  26  47
ATOM     47  C   UNL A   1      44.796  32.498  30.598  1.00  0.00     0.057 A 
ATOM     48  C   UNL A   1      44.910  32.805  31.958  1.00  0.00     0.134 A 
ATOM     49  C   UNL A   1      45.040  33.530  29.681  1.00  0.00     0.134 A 
ATOM     50  F   UNL A   1      44.674  31.865  32.885  1.00  0.00    -0.206 F 
ATOM     51  C   UNL A   1      45.246  34.089  32.392  1.00  0.00     0.040 A 
ATOM     52  C   UNL A   1      45.406  34.809  30.100  1.00  0.00     0.040 A 
ATOM     53  F   UNL A   1      44.955  33.299  28.363  1.00  0.00    -0.206 F 
ATOM     54  C   UNL A   1      45.504  35.093  31.460  1.00  0.00     0.006 A 
ENDBRANCH  26  47
BRANCH  38  55
ATOM     55  C   UNL A   1      48.541  26.862  29.002  1.00  0.00     0.057 A 
ATOM     56  C   UNL A   1      49.172  26.280  30.109  1.00  0.00     0.134 A 
ATOM     57  C   UNL A   1      49.338  27.189  27.898  1.00  0.00     0.134 A 
ATOM     58  F   UNL A   1      48.466  25.960  31.203  1.00  0.00    -0.206 F 
ATOM     59  C   UNL A   1      50.550  26.059  30.127  1.00  0.00     0.040 A 
ATOM     60  C   UNL A   1      50.712  26.949  27.894  1.00  0.00     0.040 A 
ATOM     61  F   UNL A   1      48.792  27.745  26.805  1.00  0.00    -0.206 F 
ATOM     62  C   UNL A   1      51.323  26.389  29.015  1.00  0.00     0.006 A 
ENDBRANCH  38  55
ENDBRANCH  12  13
ENDBRANCH   5   7
ENDBRANCH   2   3
ENDBRANCH   1   2
BRANCH   1  63
ATOM     63  C   UNL A   1      33.006  27.378  24.832  1.00  0.00     0.117 C 
BRANCH  63  64
ATOM     64  N   UNL A   1      31.971  26.481  24.324  1.00  0.00    -0.355 N 
ATOM     65  C   UNL A   1      31.817  25.120  24.457  1.00  0.00     0.231 C 
ATOM     66  H   UNL A   1      31.267  26.924  23.797  1.00  0.00     0.163 HD
ATOM     67  O   UNL A   1      30.775  24.621  24.030  1.00  0.00    -0.274 OA
BRANCH  65  68
ATOM     68  C   UNL A   1      32.976  24.263  25.004  1.00  0.00     0.098 C 
ATOM     69  C   UNL A   1      32.931  24.085  26.543  1.00  0.00     0.028 C 
ATOM     70  C   UNL A   1      32.621  22.833  24.435  1.00  0.00     0.279 C 
ATOM     71  C   UNL A   1      33.888  22.960  26.971  1.00  0.00     0.063 C 
ATOM     72  N   UNL A   1      33.072  21.582  25.059  1.00  0.00    -0.330 N 
ATOM     73  C   UNL A   1      33.364  21.618  26.489  1.00  0.00     0.262 C 
ATOM     74  H   UNL A   1      33.997  21.442  24.653  1.00  0.00     0.348 HD
BRANCH  68  75
ATOM     75  C   UNL A   1      34.372  24.897  24.655  1.00  0.00     0.027 C 
BRANCH  75  76
ATOM     76  C   UNL A   1      35.459  24.077  23.893  1.00  0.00     0.037 C 
BRANCH  76  77
ATOM     77  C   UNL A   1      36.427  23.133  24.574  1.00  0.00    -0.048 A 
ATOM     78  C   UNL A   1      37.364  23.675  25.480  1.00  0.00     0.004 A 
ATOM     79  C   UNL A   1      36.541  21.781  24.253  1.00  0.00     0.004 A 
ATOM     80  C   UNL A   1      38.369  22.888  26.050  1.00  0.00     0.000 A 
ATOM     81  C   UNL A   1      37.535  20.985  24.838  1.00  0.00     0.000 A 
ATOM     82  C   UNL A   1      38.452  21.538  25.730  1.00  0.00     0.000 A 
ENDBRANCH  76  77
ENDBRANCH  75  76
ENDBRANCH  68  75
BRANCH  72  83
ATOM     83  C   UNL A   1      32.196  20.433  24.687  1.00  0.00     0.300 C 
BRANCH  83  84
ATOM     84  C   UNL A   1      32.886  19.166  24.206  1.00  0.00     0.025 A 
ATOM     85  C   UNL A   1      34.079  18.676  24.750  1.00  0.00     0.013 A 
ATOM     86  C   UNL A   1      32.365  18.459  23.121  1.00  0.00     0.120 A 
ATOM     87  C   UNL A   1      34.714  17.577  24.173  1.00  0.00     0.021 A 
ATOM     88  N   UNL A   1      32.950  17.379  22.549  1.00  0.00    -0.264 NA
ATOM     89  C   UNL A   1      34.121  16.973  23.079  1.00  0.00     0.111 A 
ENDBRANCH  83  84
ENDBRANCH  72  83
ENDBRANCH  65  68
ENDBRANCH  63  64
ENDBRANCH   1  63
TORSDOF 15
ENDMDL
MODEL 3
REMARK VINA RESULT:     -12.3      1.347      3.083
REMARK SMILES O=C(NCCCNC(=O)[C@@]1(CCc2ccccc2)CCC[N@@H+](Cc2cccnc2)C1)c1ccc(-c2c3nc(c(-c4c(F)cccc4F)c4ccc([nH]4)c(-c4c(F)cccc4F)c4nc(c(-c5c(F)cccc5F)c5ccc2[nH]5)C=C4)C=C3)cc1
REMARK SMILES IDX 5 1 4 2 3 3 1 4 2 5 31 7 32 8 84 9 33 10 83 11 34 12 35 13
REMARK SMILES IDX 36 14 77 15 37 16 82 17 76 18 78 19 38 20 81 21 75 22 74 23
REMARK SMILES IDX 39 25 65 26 48 27 64 28 49 29 52 30 63 31 79 32 50 33 51 34
REMARK SMILES IDX 62 36 80 37 53 38 40 39 41 40 46 41 42 42 43 43 45 44 47 45
REMARK SMILES IDX 44 46 66 47 67 48 72 49 68 50 69 51 71 52 73 53 70 54 54 55
REMARK SMILES IDX 55 56 60 57 56 58 57 59 59 60 61 61 58 62 6 63 7 64 8 65
REMARK SMILES IDX 9 67 10 68 19 69 30 70 20 71 22 72 21 73 11 75 12 76 13 77
REMARK SMILES IDX 14 78 18 79 15 80 17 81 16 82 23 83 24 84 25 85 29 86 26 87
REMARK SMILES IDX 28 88 27 89
REMARK H PARENT 3 6 78 24 52 35 7 66 22 74
REMARK Flexibility Score: inf
ROOT
ATOM      1  C   UNL A   1      31.717  28.188  26.179  1.00  0.00     0.042 C 
ENDROOT
BRANCH   1   2
ATOM      2  C   UNL A   1      32.647  29.246  25.615  1.00  0.00     0.118 C 
BRANCH   2   3
ATOM      3  N   UNL A   1      32.277  30.603  26.019  1.00  0.00    -0.352 N 
ATOM      4  O   UNL A   1      32.150  32.475  27.253  1.00  0.00    -0.269 OA
ATOM      5  C   UNL A   1      32.805  31.480  26.936  1.00  0.00     0.251 C 
ATOM      6  H   UNL A   1      31.494  30.957  25.539  1.00  0.00     0.163 HD
BRANCH   5   7
ATOM      7  C   UNL A   1      34.121  31.245  27.566  1.00  0.00     0.039 A 
ATOM      8  C   UNL A   1      34.537  29.958  27.877  1.00  0.00     0.014 A 
ATOM      9  C   UNL A   1      34.983  32.320  27.816  1.00  0.00     0.014 A 
ATOM     10  C   UNL A   1      35.671  29.761  28.647  1.00  0.00     0.010 A 
ATOM     11  C   UNL A   1      36.216  32.101  28.447  1.00  0.00     0.010 A 
ATOM     12  C   UNL A   1      36.548  30.822  28.915  1.00  0.00    -0.014 A 
BRANCH  12  13
ATOM     13  C   UNL A   1      37.813  30.520  29.637  1.00  0.00     0.031 A 
ATOM     14  C   UNL A   1      38.000  30.898  31.080  1.00  0.00     0.074 A 
ATOM     15  C   UNL A   1      38.762  29.807  28.996  1.00  0.00     0.049 A 
ATOM     16  N   UNL A   1      39.007  30.630  31.874  1.00  0.00    -0.248 NA
ATOM     17  C   UNL A   1      36.935  31.689  31.715  1.00  0.00     0.031 C 
ATOM     18  C   UNL A   1      38.697  29.392  27.590  1.00  0.00     0.029 A 
ATOM     19  N   UNL A   1      39.933  29.254  29.444  1.00  0.00    -0.354 N 
ATOM     20  C   UNL A   1      38.717  31.251  33.083  1.00  0.00     0.074 A 
ATOM     21  C   UNL A   1      37.446  31.921  32.916  1.00  0.00     0.031 C 
ATOM     22  C   UNL A   1      39.718  28.566  27.325  1.00  0.00     0.029 A 
ATOM     23  C   UNL A   1      40.563  28.471  28.506  1.00  0.00     0.049 A 
ATOM     24  H   UNL A   1      40.289  29.405  30.350  1.00  0.00     0.167 HD
ATOM     25  C   UNL A   1      39.443  31.257  34.226  1.00  0.00     0.037 A 
ATOM     26  C   UNL A   1      41.701  27.758  28.581  1.00  0.00     0.037 A 
ATOM     27  C   UNL A   1      40.690  30.554  34.396  1.00  0.00     0.049 A 
ATOM     28  C   UNL A   1      42.481  27.780  29.860  1.00  0.00     0.074 A 
ATOM     29  C   UNL A   1      41.482  30.463  35.527  1.00  0.00     0.029 A 
ATOM     30  N   UNL A   1      41.323  29.816  33.406  1.00  0.00    -0.354 N 
ATOM     31  N   UNL A   1      42.183  28.360  30.997  1.00  0.00    -0.248 NA
ATOM     32  C   UNL A   1      43.761  27.063  29.863  1.00  0.00     0.031 C 
ATOM     33  C   UNL A   1      42.617  29.708  35.209  1.00  0.00     0.029 A 
ATOM     34  C   UNL A   1      42.508  29.287  33.893  1.00  0.00     0.049 A 
ATOM     35  H   UNL A   1      40.982  29.688  32.491  1.00  0.00     0.167 HD
ATOM     36  C   UNL A   1      43.234  28.071  31.855  1.00  0.00     0.074 A 
ATOM     37  C   UNL A   1      44.162  27.241  31.113  1.00  0.00     0.031 C 
ATOM     38  C   UNL A   1      43.418  28.463  33.139  1.00  0.00     0.037 A 
BRANCH  25  39
ATOM     39  C   UNL A   1      38.926  32.074  35.376  1.00  0.00     0.057 A 
ATOM     40  C   UNL A   1      38.201  31.506  36.430  1.00  0.00     0.134 A 
ATOM     41  C   UNL A   1      39.190  33.448  35.441  1.00  0.00     0.134 A 
ATOM     42  F   UNL A   1      37.902  30.198  36.424  1.00  0.00    -0.206 F 
ATOM     43  C   UNL A   1      37.737  32.280  37.497  1.00  0.00     0.040 A 
ATOM     44  C   UNL A   1      38.753  34.228  36.514  1.00  0.00     0.040 A 
ATOM     45  F   UNL A   1      39.884  34.056  34.467  1.00  0.00    -0.206 F 
ATOM     46  C   UNL A   1      38.019  33.644  37.544  1.00  0.00     0.006 A 
ENDBRANCH  25  39
BRANCH  26  47
ATOM     47  C   UNL A   1      42.166  26.978  27.408  1.00  0.00     0.057 A 
ATOM     48  C   UNL A   1      42.930  27.573  26.398  1.00  0.00     0.134 A 
ATOM     49  C   UNL A   1      41.874  25.614  27.275  1.00  0.00     0.134 A 
ATOM     50  F   UNL A   1      43.229  28.880  26.459  1.00  0.00    -0.206 F 
ATOM     51  C   UNL A   1      43.380  26.845  25.295  1.00  0.00     0.040 A 
ATOM     52  C   UNL A   1      42.342  24.867  26.195  1.00  0.00     0.040 A 
ATOM     53  F   UNL A   1      41.153  24.982  28.213  1.00  0.00    -0.206 F 
ATOM     54  C   UNL A   1      43.093  25.484  25.197  1.00  0.00     0.006 A 
ENDBRANCH  26  47
BRANCH  38  55
ATOM     55  C   UNL A   1      44.656  27.968  33.823  1.00  0.00     0.057 A 
ATOM     56  C   UNL A   1      44.685  26.743  34.502  1.00  0.00     0.134 A 
ATOM     57  C   UNL A   1      45.835  28.723  33.795  1.00  0.00     0.134 A 
ATOM     58  F   UNL A   1      43.582  25.982  34.579  1.00  0.00    -0.206 F 
ATOM     59  C   UNL A   1      45.836  26.301  35.155  1.00  0.00     0.040 A 
ATOM     60  C   UNL A   1      46.999  28.279  34.422  1.00  0.00     0.040 A 
ATOM     61  F   UNL A   1      45.873  29.902  33.156  1.00  0.00    -0.206 F 
ATOM     62  C   UNL A   1      46.999  27.068  35.112  1.00  0.00     0.006 A 
ENDBRANCH  38  55
ENDBRANCH  12  13
ENDBRANCH   5   7
ENDBRANCH   2   3
ENDBRANCH   1   2
BRANCH   1  63
ATOM     63  C   UNL A   1      32.419  26.861  26.395  1.00  0.00     0.117 C 
BRANCH  63  64
ATOM     64  N   UNL A   1      31.559  25.786  26.882  1.00  0.00    -0.355 N 
ATOM     65  C   UNL A   1      31.497  24.456  26.532  1.00  0.00     0.231 C 
ATOM     66  H   UNL A   1      30.915  26.058  27.575  1.00  0.00     0.163 HD
ATOM     67  O   UNL A   1      30.756  23.728  27.194  1.00  0.00    -0.274 OA
BRANCH  65  68
ATOM     68  C   UNL A   1      32.235  23.954  25.276  1.00  0.00     0.098 C 
ATOM     69  C   UNL A   1      33.777  24.057  25.392  1.00  0.00     0.028 C 
ATOM     70  C   UNL A   1      31.942  22.403  25.323  1.00  0.00     0.279 C 
ATOM     71  C   UNL A   1      34.444  23.236  24.275  1.00  0.00     0.063 C 
ATOM     72  N   UNL A   1      32.810  21.399  24.694  1.00  0.00    -0.330 N 
ATOM     73  C   UNL A   1      34.215  21.753  24.510  1.00  0.00     0.262 C 
ATOM     74  H   UNL A   1      32.469  21.368  23.733  1.00  0.00     0.348 HD
BRANCH  68  75
ATOM     75  C   UNL A   1      31.814  24.770  23.999  1.00  0.00     0.027 C 
BRANCH  75  76
ATOM     76  C   UNL A   1      30.320  25.130  23.731  1.00  0.00     0.037 C 
BRANCH  76  77
ATOM     77  C   UNL A   1      29.853  26.506  23.308  1.00  0.00    -0.048 A 
ATOM     78  C   UNL A   1      30.782  27.366  22.684  1.00  0.00     0.004 A 
ATOM     79  C   UNL A   1      28.598  27.027  23.627  1.00  0.00     0.004 A 
ATOM     80  C   UNL A   1      30.462  28.692  22.381  1.00  0.00     0.000 A 
ATOM     81  C   UNL A   1      28.268  28.351  23.306  1.00  0.00     0.000 A 
ATOM     82  C   UNL A   1      29.200  29.185  22.691  1.00  0.00     0.000 A 
ENDBRANCH  76  77
ENDBRANCH  75  76
ENDBRANCH  68  75
BRANCH  72  83
ATOM     83  C   UNL A   1      32.639  20.054  25.317  1.00  0.00     0.300 C 
BRANCH  83  84
ATOM     84  C   UNL A   1      33.047  18.850  24.483  1.00  0.00     0.025 A 
ATOM     85  C   UNL A   1      34.057  17.953  24.853  1.00  0.00     0.013 A 
ATOM     86  C   UNL A   1      32.448  18.627  23.242  1.00  0.00     0.120 A 
ATOM     87  C   UNL A   1      34.457  16.945  23.977  1.00  0.00     0.021 A 
ATOM     88  N   UNL A   1      32.803  17.648  22.377  1.00  0.00    -0.264 NA
ATOM     89  C   UNL A   1      33.812  16.838  22.757  1.00  0.00     0.111 A 
ENDBRANCH  83  84
ENDBRANCH  72  83
ENDBRANCH  65  68
ENDBRANCH  63  64
ENDBRANCH   1  63
TORSDOF 15
ENDMDL
