MODEL 1
REMARK VINA RESULT:     -12.0      0.000      0.000
REMARK SMILES CC(C)[C@@H](NC(=O)/C(=C\c1ccccc1F)NC(=O)c1ccccc1)C(=O)NCCCNC(=O)c1ccc(-c2c3nc(c(-c4c(F)cccc4F)c4ccc([nH]4)c(-c4c(F)cccc4F)c4nc(c(-c5c(F)cccc5F)c5ccc2[nH]5)C=C4)C=C3)cc1
REMARK SMILES IDX 29 1 28 2 26 3 27 4 4 6 2 7 1 8 3 9 5 10 6 11 7 13 8 14 9 15
REMARK SMILES IDX 17 16 18 17 19 19 20 20 21 21 25 22 22 23 24 24 23 25 10 26
REMARK SMILES IDX 11 27 15 28 12 29 14 30 16 31 13 32 30 33 31 34 32 35 33 36
REMARK SMILES IDX 34 38 35 39 36 40 88 41 37 42 87 43 38 44 39 45 40 46 81 47
REMARK SMILES IDX 41 48 86 49 80 50 82 51 42 52 85 53 79 54 78 55 43 57 69 58
REMARK SMILES IDX 52 59 68 60 53 61 56 62 67 63 83 64 54 65 55 66 66 68 84 69
REMARK SMILES IDX 57 70 44 71 45 72 50 73 46 74 47 75 49 76 51 77 48 78 70 79
REMARK SMILES IDX 71 80 76 81 72 82 73 83 75 84 77 85 74 86 58 87 59 88 64 89
REMARK SMILES IDX 60 90 61 91 63 92 65 93 62 94
REMARK H PARENT 28 5 5 12 17 18 32 37 82 56 56 67
REMARK Flexibility Score: inf
ROOT
ATOM      1  C   UNL A   1      32.465  27.134  26.537  1.00  0.00     0.117 C 
ENDROOT
BRANCH   1   2
ATOM      2  N   UNL A   1      31.103  26.657  26.479  1.00  0.00    -0.354 N 
ATOM      3  C   UNL A   1      30.637  25.632  25.728  1.00  0.00     0.242 C 
ATOM      4  O   UNL A   1      29.581  25.815  25.121  1.00  0.00    -0.273 OA
ATOM      5  H   UNL A   1      30.446  27.127  27.041  1.00  0.00     0.163 HD
BRANCH   3   6
ATOM      6  C   UNL A   1      31.481  24.379  25.523  1.00  0.00     0.174 C 
BRANCH   6   7
ATOM      7  C   UNL A   1      31.399  23.496  26.818  1.00  0.00     0.015 C 
ATOM      8  C   UNL A   1      30.165  22.587  26.811  1.00  0.00     0.010 C 
ATOM      9  C   UNL A   1      32.633  22.595  27.028  1.00  0.00     0.010 C 
ENDBRANCH   6   7
BRANCH   6  10
ATOM     10  N   UNL A   1      31.136  23.634  24.286  1.00  0.00    -0.339 N 
ATOM     11  C   UNL A   1      32.001  22.962  23.444  1.00  0.00     0.268 C 
ATOM     12  H   UNL A   1      30.184  23.616  24.038  1.00  0.00     0.164 HD
ATOM     13  O   UNL A   1      31.765  21.779  23.197  1.00  0.00    -0.268 OA
BRANCH  11  14
ATOM     14  C   UNL A   1      33.042  23.694  22.620  1.00  0.00     0.107 C 
ATOM     15  C   UNL A   1      34.360  23.747  22.921  1.00  0.00     0.043 C 
BRANCH  14  16
ATOM     16  N   UNL A   1      32.696  24.299  21.413  1.00  0.00    -0.317 N 
ATOM     17  C   UNL A   1      32.392  25.569  20.996  1.00  0.00     0.255 C 
ATOM     18  H   UNL A   1      32.658  23.649  20.674  1.00  0.00     0.170 HD
ATOM     19  O   UNL A   1      32.091  25.747  19.815  1.00  0.00    -0.269 OA
BRANCH  17  20
ATOM     20  C   UNL A   1      32.402  26.730  21.884  1.00  0.00     0.040 A 
ATOM     21  C   UNL A   1      31.183  27.253  22.319  1.00  0.00     0.014 A 
ATOM     22  C   UNL A   1      33.603  27.374  22.188  1.00  0.00     0.014 A 
ATOM     23  C   UNL A   1      31.176  28.381  23.137  1.00  0.00     0.001 A 
ATOM     24  C   UNL A   1      33.593  28.492  23.018  1.00  0.00     0.001 A 
ATOM     25  C   UNL A   1      32.381  28.988  23.500  1.00  0.00     0.000 A 
ENDBRANCH  17  20
ENDBRANCH  14  16
BRANCH  15  26
ATOM     26  C   UNL A   1      35.104  23.292  24.102  1.00  0.00     0.012 A 
ATOM     27  C   UNL A   1      35.509  21.945  24.127  1.00  0.00     0.011 A 
ATOM     28  C   UNL A   1      35.472  24.115  25.162  1.00  0.00     0.130 A 
ATOM     29  C   UNL A   1      36.392  21.487  25.108  1.00  0.00     0.001 A 
ATOM     30  C   UNL A   1      36.339  23.660  26.153  1.00  0.00     0.040 A 
ATOM     31  F   UNL A   1      35.027  25.376  25.232  1.00  0.00    -0.206 F 
ATOM     32  C   UNL A   1      36.831  22.355  26.104  1.00  0.00     0.003 A 
ENDBRANCH  15  26
ENDBRANCH  11  14
ENDBRANCH   6  10
ENDBRANCH   3   6
ENDBRANCH   1   2
BRANCH   1  33
ATOM     33  C   UNL A   1      32.479  28.433  27.321  1.00  0.00     0.042 C 
BRANCH  33  34
ATOM     34  C   UNL A   1      33.883  29.017  27.367  1.00  0.00     0.118 C 
BRANCH  34  35
ATOM     35  N   UNL A   1      33.881  30.362  27.921  1.00  0.00    -0.352 N 
ATOM     36  C   UNL A   1      34.848  30.955  28.693  1.00  0.00     0.251 C 
ATOM     37  H   UNL A   1      33.091  30.913  27.718  1.00  0.00     0.163 HD
ATOM     38  O   UNL A   1      34.615  31.969  29.332  1.00  0.00    -0.269 OA
BRANCH  36  39
ATOM     39  C   UNL A   1      36.175  30.315  28.750  1.00  0.00     0.039 A 
ATOM     40  C   UNL A   1      37.027  30.418  27.653  1.00  0.00     0.014 A 
ATOM     41  C   UNL A   1      36.588  29.676  29.923  1.00  0.00     0.014 A 
ATOM     42  C   UNL A   1      38.327  29.927  27.757  1.00  0.00     0.010 A 
ATOM     43  C   UNL A   1      37.911  29.294  30.063  1.00  0.00     0.010 A 
ATOM     44  C   UNL A   1      38.788  29.397  28.974  1.00  0.00    -0.014 A 
BRANCH  44  45
ATOM     45  C   UNL A   1      40.183  28.923  29.128  1.00  0.00     0.031 A 
ATOM     46  C   UNL A   1      41.224  29.844  29.701  1.00  0.00     0.074 A 
ATOM     47  C   UNL A   1      40.522  27.694  28.695  1.00  0.00     0.049 A 
ATOM     48  N   UNL A   1      42.507  29.642  29.854  1.00  0.00    -0.248 NA
ATOM     49  C   UNL A   1      40.772  31.180  30.126  1.00  0.00     0.031 C 
ATOM     50  C   UNL A   1      39.609  26.735  28.067  1.00  0.00     0.029 A 
ATOM     51  N   UNL A   1      41.728  27.042  28.712  1.00  0.00    -0.354 N 
ATOM     52  C   UNL A   1      43.012  30.828  30.373  1.00  0.00     0.074 A 
ATOM     53  C   UNL A   1      41.915  31.764  30.451  1.00  0.00     0.031 C 
ATOM     54  C   UNL A   1      40.280  25.607  27.792  1.00  0.00     0.029 A 
ATOM     55  C   UNL A   1      41.677  25.775  28.184  1.00  0.00     0.049 A 
ATOM     56  H   UNL A   1      42.553  27.444  29.068  1.00  0.00     0.167 HD
ATOM     57  C   UNL A   1      44.273  31.098  30.779  1.00  0.00     0.037 A 
ATOM     58  C   UNL A   1      42.646  24.854  28.030  1.00  0.00     0.037 A 
ATOM     59  C   UNL A   1      45.350  30.145  30.740  1.00  0.00     0.049 A 
ATOM     60  C   UNL A   1      44.037  25.173  28.499  1.00  0.00     0.074 A 
ATOM     61  C   UNL A   1      46.645  30.295  31.200  1.00  0.00     0.029 A 
ATOM     62  N   UNL A   1      45.253  28.866  30.213  1.00  0.00    -0.354 N 
ATOM     63  N   UNL A   1      44.489  26.273  29.052  1.00  0.00    -0.248 NA
ATOM     64  C   UNL A   1      45.054  24.126  28.329  1.00  0.00     0.031 C 
ATOM     65  C   UNL A   1      47.349  29.125  30.905  1.00  0.00     0.029 A 
ATOM     66  C   UNL A   1      46.477  28.225  30.311  1.00  0.00     0.049 A 
ATOM     67  H   UNL A   1      44.438  28.473  29.826  1.00  0.00     0.167 HD
ATOM     68  C   UNL A   1      45.833  26.046  29.312  1.00  0.00     0.074 A 
ATOM     69  C   UNL A   1      46.122  24.696  28.870  1.00  0.00     0.031 C 
ATOM     70  C   UNL A   1      46.746  26.881  29.866  1.00  0.00     0.037 A 
BRANCH  57  71
ATOM     71  C   UNL A   1      44.557  32.469  31.317  1.00  0.00     0.057 A 
ATOM     72  C   UNL A   1      45.031  33.483  30.473  1.00  0.00     0.134 A 
ATOM     73  C   UNL A   1      44.424  32.772  32.678  1.00  0.00     0.134 A 
ATOM     74  F   UNL A   1      45.184  33.259  29.159  1.00  0.00    -0.206 F 
ATOM     75  C   UNL A   1      45.373  34.742  30.967  1.00  0.00     0.040 A 
ATOM     76  C   UNL A   1      44.735  34.036  33.180  1.00  0.00     0.040 A 
ATOM     77  F   UNL A   1      43.961  31.850  33.537  1.00  0.00    -0.206 F 
ATOM     78  C   UNL A   1      45.222  35.023  32.324  1.00  0.00     0.006 A 
ENDBRANCH  57  71
BRANCH  58  79
ATOM     79  C   UNL A   1      42.314  23.536  27.435  1.00  0.00     0.057 A 
ATOM     80  C   UNL A   1      41.980  22.434  28.233  1.00  0.00     0.134 A 
ATOM     81  C   UNL A   1      42.367  23.336  26.051  1.00  0.00     0.134 A 
ATOM     82  F   UNL A   1      41.924  22.558  29.568  1.00  0.00    -0.206 F 
ATOM     83  C   UNL A   1      41.733  21.177  27.679  1.00  0.00     0.040 A 
ATOM     84  C   UNL A   1      42.099  22.091  25.481  1.00  0.00     0.040 A 
ATOM     85  F   UNL A   1      42.667  24.356  25.233  1.00  0.00    -0.206 F 
ATOM     86  C   UNL A   1      41.789  21.004  26.297  1.00  0.00     0.006 A 
ENDBRANCH  58  79
BRANCH  70  87
ATOM     87  C   UNL A   1      48.143  26.366  30.044  1.00  0.00     0.057 A 
ATOM     88  C   UNL A   1      48.540  25.787  31.256  1.00  0.00     0.134 A 
ATOM     89  C   UNL A   1      49.118  26.529  29.053  1.00  0.00     0.134 A 
ATOM     90  F   UNL A   1      47.657  25.616  32.251  1.00  0.00    -0.206 F 
ATOM     91  C   UNL A   1      49.862  25.405  31.484  1.00  0.00     0.040 A 
ATOM     92  C   UNL A   1      50.438  26.126  29.258  1.00  0.00     0.040 A 
ATOM     93  F   UNL A   1      48.799  27.069  27.867  1.00  0.00    -0.206 F 
ATOM     94  C   UNL A   1      50.815  25.573  30.481  1.00  0.00     0.006 A 
ENDBRANCH  70  87
ENDBRANCH  44  45
ENDBRANCH  36  39
ENDBRANCH  34  35
ENDBRANCH  33  34
ENDBRANCH   1  33
TORSDOF 16
ENDMDL
MODEL 2
REMARK VINA RESULT:     -11.7      2.305      6.874
REMARK SMILES CC(C)[C@@H](NC(=O)/C(=C\c1ccccc1F)NC(=O)c1ccccc1)C(=O)NCCCNC(=O)c1ccc(-c2c3nc(c(-c4c(F)cccc4F)c4ccc([nH]4)c(-c4c(F)cccc4F)c4nc(c(-c5c(F)cccc5F)c5ccc2[nH]5)C=C4)C=C3)cc1
REMARK SMILES IDX 29 1 28 2 26 3 27 4 4 6 2 7 1 8 3 9 5 10 6 11 7 13 8 14 9 15
REMARK SMILES IDX 17 16 18 17 19 19 20 20 21 21 25 22 22 23 24 24 23 25 10 26
REMARK SMILES IDX 11 27 15 28 12 29 14 30 16 31 13 32 30 33 31 34 32 35 33 36
REMARK SMILES IDX 34 38 35 39 36 40 88 41 37 42 87 43 38 44 39 45 40 46 81 47
REMARK SMILES IDX 41 48 86 49 80 50 82 51 42 52 85 53 79 54 78 55 43 57 69 58
REMARK SMILES IDX 52 59 68 60 53 61 56 62 67 63 83 64 54 65 55 66 66 68 84 69
REMARK SMILES IDX 57 70 44 71 45 72 50 73 46 74 47 75 49 76 51 77 48 78 70 79
REMARK SMILES IDX 71 80 76 81 72 82 73 83 75 84 77 85 74 86 58 87 59 88 64 89
REMARK SMILES IDX 60 90 61 91 63 92 65 93 62 94
REMARK H PARENT 28 5 5 12 17 18 32 37 82 56 56 67
REMARK Flexibility Score: inf
ROOT
ATOM      1  C   UNL A   1      36.140  20.064  25.008  1.00  0.00     0.117 C 
ENDROOT
BRANCH   1   2
ATOM      2  N   UNL A   1      35.063  19.112  24.869  1.00  0.00    -0.354 N 
ATOM      3  C   UNL A   1      33.738  19.368  24.974  1.00  0.00     0.242 C 
ATOM      4  O   UNL A   1      33.065  18.577  25.636  1.00  0.00    -0.273 OA
ATOM      5  H   UNL A   1      35.319  18.180  24.680  1.00  0.00     0.163 HD
BRANCH   3   6
ATOM      6  C   UNL A   1      33.159  20.669  24.432  1.00  0.00     0.174 C 
BRANCH   6   7
ATOM      7  C   UNL A   1      32.079  20.329  23.345  1.00  0.00     0.015 C 
ATOM      8  C   UNL A   1      32.135  21.302  22.162  1.00  0.00     0.010 C 
ATOM      9  C   UNL A   1      32.210  18.902  22.775  1.00  0.00     0.010 C 
ENDBRANCH   6   7
BRANCH   6  10
ATOM     10  N   UNL A   1      32.652  21.574  25.495  1.00  0.00    -0.339 N 
ATOM     11  C   UNL A   1      31.634  22.503  25.391  1.00  0.00     0.268 C 
ATOM     12  H   UNL A   1      33.090  21.504  26.374  1.00  0.00     0.164 HD
ATOM     13  O   UNL A   1      30.706  22.437  26.197  1.00  0.00    -0.268 OA
BRANCH  11  14
ATOM     14  C   UNL A   1      31.763  23.733  24.513  1.00  0.00     0.107 C 
ATOM     15  C   UNL A   1      32.936  24.227  24.052  1.00  0.00     0.043 C 
BRANCH  14  16
ATOM     16  N   UNL A   1      30.629  24.391  24.044  1.00  0.00    -0.317 N 
ATOM     17  C   UNL A   1      30.092  25.647  24.172  1.00  0.00     0.255 C 
ATOM     18  H   UNL A   1      30.072  23.808  23.479  1.00  0.00     0.170 HD
ATOM     19  O   UNL A   1      29.015  25.887  23.624  1.00  0.00    -0.269 OA
BRANCH  17  20
ATOM     20  C   UNL A   1      30.730  26.720  24.931  1.00  0.00     0.040 A 
ATOM     21  C   UNL A   1      30.971  26.528  26.292  1.00  0.00     0.014 A 
ATOM     22  C   UNL A   1      30.979  27.956  24.331  1.00  0.00     0.014 A 
ATOM     23  C   UNL A   1      31.546  27.556  27.037  1.00  0.00     0.001 A 
ATOM     24  C   UNL A   1      31.568  28.976  25.074  1.00  0.00     0.001 A 
ATOM     25  C   UNL A   1      31.860  28.771  26.423  1.00  0.00     0.000 A 
ENDBRANCH  17  20
ENDBRANCH  14  16
BRANCH  15  26
ATOM     26  C   UNL A   1      34.325  23.861  24.349  1.00  0.00     0.012 A 
ATOM     27  C   UNL A   1      35.094  23.342  23.291  1.00  0.00     0.011 A 
ATOM     28  C   UNL A   1      34.937  24.041  25.586  1.00  0.00     0.130 A 
ATOM     29  C   UNL A   1      36.472  23.166  23.435  1.00  0.00     0.001 A 
ATOM     30  C   UNL A   1      36.308  23.850  25.741  1.00  0.00     0.040 A 
ATOM     31  F   UNL A   1      34.223  24.436  26.648  1.00  0.00    -0.206 F 
ATOM     32  C   UNL A   1      37.083  23.449  24.653  1.00  0.00     0.003 A 
ENDBRANCH  15  26
ENDBRANCH  11  14
ENDBRANCH   6  10
ENDBRANCH   3   6
ENDBRANCH   1   2
BRANCH   1  33
ATOM     33  C   UNL A   1      37.449  19.338  24.761  1.00  0.00     0.042 C 
BRANCH  33  34
ATOM     34  C   UNL A   1      38.598  20.052  25.459  1.00  0.00     0.118 C 
BRANCH  34  35
ATOM     35  N   UNL A   1      39.715  19.152  25.699  1.00  0.00    -0.352 N 
ATOM     36  C   UNL A   1      40.990  19.479  26.088  1.00  0.00     0.251 C 
ATOM     37  H   UNL A   1      39.536  18.193  25.566  1.00  0.00     0.163 HD
ATOM     38  O   UNL A   1      41.908  18.683  25.982  1.00  0.00    -0.269 OA
BRANCH  36  39
ATOM     39  C   UNL A   1      41.224  20.835  26.617  1.00  0.00     0.039 A 
ATOM     40  C   UNL A   1      41.188  21.043  27.994  1.00  0.00     0.014 A 
ATOM     41  C   UNL A   1      41.547  21.875  25.741  1.00  0.00     0.014 A 
ATOM     42  C   UNL A   1      41.538  22.294  28.499  1.00  0.00     0.010 A 
ATOM     43  C   UNL A   1      42.004  23.079  26.250  1.00  0.00     0.010 A 
ATOM     44  C   UNL A   1      41.984  23.307  27.633  1.00  0.00    -0.014 A 
BRANCH  44  45
ATOM     45  C   UNL A   1      42.419  24.626  28.150  1.00  0.00     0.031 A 
ATOM     46  C   UNL A   1      41.404  25.714  28.359  1.00  0.00     0.074 A 
ATOM     47  C   UNL A   1      43.727  24.860  28.365  1.00  0.00     0.049 A 
ATOM     48  N   UNL A   1      41.591  26.952  28.738  1.00  0.00    -0.248 NA
ATOM     49  C   UNL A   1      39.998  25.381  28.073  1.00  0.00     0.031 C 
ATOM     50  C   UNL A   1      44.808  23.898  28.140  1.00  0.00     0.029 A 
ATOM     51  N   UNL A   1      44.371  25.982  28.820  1.00  0.00    -0.354 N 
ATOM     52  C   UNL A   1      40.334  27.543  28.717  1.00  0.00     0.074 A 
ATOM     53  C   UNL A   1      39.402  26.553  28.230  1.00  0.00     0.031 C 
ATOM     54  C   UNL A   1      45.976  24.460  28.489  1.00  0.00     0.029 A 
ATOM     55  C   UNL A   1      45.732  25.833  28.923  1.00  0.00     0.049 A 
ATOM     56  H   UNL A   1      43.901  26.817  29.049  1.00  0.00     0.167 HD
ATOM     57  C   UNL A   1      39.986  28.792  29.101  1.00  0.00     0.037 A 
ATOM     58  C   UNL A   1      46.678  26.704  29.321  1.00  0.00     0.037 A 
ATOM     59  C   UNL A   1      40.912  29.757  29.627  1.00  0.00     0.049 A 
ATOM     60  C   UNL A   1      46.265  28.082  29.754  1.00  0.00     0.074 A 
ATOM     61  C   UNL A   1      40.647  31.023  30.117  1.00  0.00     0.029 A 
ATOM     62  N   UNL A   1      42.282  29.562  29.731  1.00  0.00    -0.354 N 
ATOM     63  N   UNL A   1      45.064  28.608  29.795  1.00  0.00    -0.248 NA
ATOM     64  C   UNL A   1      47.332  28.988  30.201  1.00  0.00     0.031 C 
ATOM     65  C   UNL A   1      41.862  31.614  30.472  1.00  0.00     0.029 A 
ATOM     66  C   UNL A   1      42.879  30.696  30.254  1.00  0.00     0.049 A 
ATOM     67  H   UNL A   1      42.758  28.740  29.472  1.00  0.00     0.167 HD
ATOM     68  C   UNL A   1      45.228  29.895  30.287  1.00  0.00     0.074 A 
ATOM     69  C   UNL A   1      46.643  30.067  30.545  1.00  0.00     0.031 C 
ATOM     70  C   UNL A   1      44.289  30.850  30.504  1.00  0.00     0.037 A 
BRANCH  57  71
ATOM     71  C   UNL A   1      38.542  29.183  28.986  1.00  0.00     0.057 A 
ATOM     72  C   UNL A   1      38.034  29.694  27.783  1.00  0.00     0.134 A 
ATOM     73  C   UNL A   1      37.668  29.115  30.078  1.00  0.00     0.134 A 
ATOM     74  F   UNL A   1      38.818  29.788  26.699  1.00  0.00    -0.206 F 
ATOM     75  C   UNL A   1      36.715  30.134  27.677  1.00  0.00     0.040 A 
ATOM     76  C   UNL A   1      36.338  29.525  29.977  1.00  0.00     0.040 A 
ATOM     77  F   UNL A   1      38.087  28.621  31.254  1.00  0.00    -0.206 F 
ATOM     78  C   UNL A   1      35.861  30.047  28.776  1.00  0.00     0.006 A 
ENDBRANCH  57  71
BRANCH  58  79
ATOM     79  C   UNL A   1      48.098  26.275  29.356  1.00  0.00     0.057 A 
ATOM     80  C   UNL A   1      48.672  25.734  30.513  1.00  0.00     0.134 A 
ATOM     81  C   UNL A   1      48.928  26.441  28.242  1.00  0.00     0.134 A 
ATOM     82  F   UNL A   1      47.931  25.561  31.618  1.00  0.00    -0.206 F 
ATOM     83  C   UNL A   1      50.024  25.393  30.567  1.00  0.00     0.040 A 
ATOM     84  C   UNL A   1      50.276  26.082  28.274  1.00  0.00     0.040 A 
ATOM     85  F   UNL A   1      48.432  26.941  27.099  1.00  0.00    -0.206 F 
ATOM     86  C   UNL A   1      50.830  25.564  29.443  1.00  0.00     0.006 A 
ENDBRANCH  58  79
BRANCH  70  87
ATOM     87  C   UNL A   1      44.749  32.164  31.060  1.00  0.00     0.057 A 
ATOM     88  C   UNL A   1      44.805  32.372  32.444  1.00  0.00     0.134 A 
ATOM     89  C   UNL A   1      45.043  33.252  30.229  1.00  0.00     0.134 A 
ATOM     90  F   UNL A   1      44.521  31.375  33.295  1.00  0.00    -0.206 F 
ATOM     91  C   UNL A   1      45.120  33.619  32.983  1.00  0.00     0.040 A 
ATOM     92  C   UNL A   1      45.387  34.498  30.754  1.00  0.00     0.040 A 
ATOM     93  F   UNL A   1      45.015  33.115  28.894  1.00  0.00    -0.206 F 
ATOM     94  C   UNL A   1      45.414  34.686  32.135  1.00  0.00     0.006 A 
ENDBRANCH  70  87
ENDBRANCH  44  45
ENDBRANCH  36  39
ENDBRANCH  34  35
ENDBRANCH  33  34
ENDBRANCH   1  33
TORSDOF 16
ENDMDL
MODEL 3
REMARK VINA RESULT:     -11.6      3.684      7.531
REMARK SMILES CC(C)[C@@H](NC(=O)/C(=C\c1ccccc1F)NC(=O)c1ccccc1)C(=O)NCCCNC(=O)c1ccc(-c2c3nc(c(-c4c(F)cccc4F)c4ccc([nH]4)c(-c4c(F)cccc4F)c4nc(c(-c5c(F)cccc5F)c5ccc2[nH]5)C=C4)C=C3)cc1
REMARK SMILES IDX 29 1 28 2 26 3 27 4 4 6 2 7 1 8 3 9 5 10 6 11 7 13 8 14 9 15
REMARK SMILES IDX 17 16 18 17 19 19 20 20 21 21 25 22 22 23 24 24 23 25 10 26
REMARK SMILES IDX 11 27 15 28 12 29 14 30 16 31 13 32 30 33 31 34 32 35 33 36
REMARK SMILES IDX 34 38 35 39 36 40 88 41 37 42 87 43 38 44 39 45 40 46 81 47
REMARK SMILES IDX 41 48 86 49 80 50 82 51 42 52 85 53 79 54 78 55 43 57 69 58
REMARK SMILES IDX 52 59 68 60 53 61 56 62 67 63 83 64 54 65 55 66 66 68 84 69
REMARK SMILES IDX 57 70 44 71 45 72 50 73 46 74 47 75 49 76 51 77 48 78 70 79
REMARK SMILES IDX 71 80 76 81 72 82 73 83 75 84 77 85 74 86 58 87 59 88 64 89
REMARK SMILES IDX 60 90 61 91 63 92 65 93 62 94
REMARK H PARENT 28 5 5 12 17 18 32 37 82 56 56 67
REMARK Flexibility Score: inf
ROOT
ATOM      1  C   UNL A   1      31.200  30.629  25.312  1.00  0.00     0.117 C 
ENDROOT
BRANCH   1   2
ATOM      2  N   UNL A   1      30.244  30.684  24.231  1.00  0.00    -0.354 N 
ATOM      3  C   UNL A   1      30.090  29.773  23.241  1.00  0.00     0.242 C 
ATOM      4  O   UNL A   1      29.960  30.207  22.096  1.00  0.00    -0.273 OA
ATOM      5  H   UNL A   1      29.644  31.464  24.210  1.00  0.00     0.163 HD
BRANCH   3   6
ATOM      6  C   UNL A   1      30.241  28.285  23.532  1.00  0.00     0.174 C 
BRANCH   6   7
ATOM      7  C   UNL A   1      28.912  27.553  23.131  1.00  0.00     0.015 C 
ATOM      8  C   UNL A   1      28.538  26.458  24.136  1.00  0.00     0.010 C 
ATOM      9  C   UNL A   1      27.701  28.501  23.010  1.00  0.00     0.010 C 
ENDBRANCH   6   7
BRANCH   6  10
ATOM     10  N   UNL A   1      31.448  27.685  22.910  1.00  0.00    -0.339 N 
ATOM     11  C   UNL A   1      31.621  26.374  22.508  1.00  0.00     0.268 C 
ATOM     12  H   UNL A   1      32.212  28.289  22.766  1.00  0.00     0.164 HD
ATOM     13  O   UNL A   1      31.969  26.166  21.345  1.00  0.00    -0.268 OA
BRANCH  11  14
ATOM     14  C   UNL A   1      31.663  25.233  23.505  1.00  0.00     0.107 C 
ATOM     15  C   UNL A   1      31.919  25.377  24.826  1.00  0.00     0.043 C 
BRANCH  14  16
ATOM     16  N   UNL A   1      31.338  23.936  23.113  1.00  0.00    -0.317 N 
ATOM     17  C   UNL A   1      31.993  22.733  23.039  1.00  0.00     0.255 C 
ATOM     18  H   UNL A   1      30.403  23.865  22.813  1.00  0.00     0.170 HD
ATOM     19  O   UNL A   1      31.386  21.756  22.599  1.00  0.00    -0.269 OA
BRANCH  17  20
ATOM     20  C   UNL A   1      33.383  22.548  23.451  1.00  0.00     0.040 A 
ATOM     21  C   UNL A   1      33.663  21.646  24.479  1.00  0.00     0.014 A 
ATOM     22  C   UNL A   1      34.391  23.349  22.912  1.00  0.00     0.014 A 
ATOM     23  C   UNL A   1      34.979  21.485  24.908  1.00  0.00     0.001 A 
ATOM     24  C   UNL A   1      35.707  23.175  23.332  1.00  0.00     0.001 A 
ATOM     25  C   UNL A   1      36.001  22.236  24.321  1.00  0.00     0.000 A 
ENDBRANCH  17  20
ENDBRANCH  14  16
BRANCH  15  26
ATOM     26  C   UNL A   1      32.347  26.543  25.609  1.00  0.00     0.012 A 
ATOM     27  C   UNL A   1      31.459  27.019  26.590  1.00  0.00     0.011 A 
ATOM     28  C   UNL A   1      33.584  27.166  25.475  1.00  0.00     0.130 A 
ATOM     29  C   UNL A   1      31.871  27.985  27.511  1.00  0.00     0.001 A 
ATOM     30  C   UNL A   1      33.995  28.141  26.381  1.00  0.00     0.040 A 
ATOM     31  F   UNL A   1      34.422  26.813  24.492  1.00  0.00    -0.206 F 
ATOM     32  C   UNL A   1      33.152  28.524  27.424  1.00  0.00     0.003 A 
ENDBRANCH  15  26
ENDBRANCH  11  14
ENDBRANCH   6  10
ENDBRANCH   3   6
ENDBRANCH   1   2
BRANCH   1  33
ATOM     33  C   UNL A   1      30.984  31.843  26.197  1.00  0.00     0.042 C 
BRANCH  33  34
ATOM     34  C   UNL A   1      32.292  32.274  26.844  1.00  0.00     0.118 C 
BRANCH  34  35
ATOM     35  N   UNL A   1      32.258  33.677  27.228  1.00  0.00    -0.352 N 
ATOM     36  C   UNL A   1      33.028  34.310  28.172  1.00  0.00     0.251 C 
ATOM     37  H   UNL A   1      31.603  34.240  26.755  1.00  0.00     0.163 HD
ATOM     38  O   UNL A   1      32.720  35.407  28.608  1.00  0.00    -0.269 OA
BRANCH  36  39
ATOM     39  C   UNL A   1      34.229  33.611  28.664  1.00  0.00     0.039 A 
ATOM     40  C   UNL A   1      35.451  34.281  28.670  1.00  0.00     0.014 A 
ATOM     41  C   UNL A   1      34.116  32.317  29.181  1.00  0.00     0.014 A 
ATOM     42  C   UNL A   1      36.556  33.668  29.256  1.00  0.00     0.010 A 
ATOM     43  C   UNL A   1      35.185  31.760  29.863  1.00  0.00     0.010 A 
ATOM     44  C   UNL A   1      36.421  32.421  29.889  1.00  0.00    -0.014 A 
BRANCH  44  45
ATOM     45  C   UNL A   1      37.566  31.774  30.571  1.00  0.00     0.031 A 
ATOM     46  C   UNL A   1      38.385  30.748  29.840  1.00  0.00     0.074 A 
ATOM     47  C   UNL A   1      37.825  32.063  31.860  1.00  0.00     0.049 A 
ATOM     48  N   UNL A   1      39.380  30.023  30.280  1.00  0.00    -0.248 NA
ATOM     49  C   UNL A   1      38.017  30.472  28.440  1.00  0.00     0.031 C 
ATOM     50  C   UNL A   1      37.061  32.999  32.688  1.00  0.00     0.029 A 
ATOM     51  N   UNL A   1      38.802  31.596  32.702  1.00  0.00    -0.354 N 
ATOM     52  C   UNL A   1      39.740  29.199  29.221  1.00  0.00     0.074 A 
ATOM     53  C   UNL A   1      38.821  29.465  28.140  1.00  0.00     0.031 C 
ATOM     54  C   UNL A   1      37.619  33.062  33.907  1.00  0.00     0.029 A 
ATOM     55  C   UNL A   1      38.752  32.144  33.961  1.00  0.00     0.049 A 
ATOM     56  H   UNL A   1      39.474  30.931  32.430  1.00  0.00     0.167 HD
ATOM     57  C   UNL A   1      40.767  28.322  29.150  1.00  0.00     0.037 A 
ATOM     58  C   UNL A   1      39.530  31.927  35.038  1.00  0.00     0.037 A 
ATOM     59  C   UNL A   1      41.705  28.096  30.216  1.00  0.00     0.049 A 
ATOM     60  C   UNL A   1      40.672  30.957  34.930  1.00  0.00     0.074 A 
ATOM     61  C   UNL A   1      42.826  27.287  30.215  1.00  0.00     0.029 A 
ATOM     62  N   UNL A   1      41.630  28.682  31.471  1.00  0.00    -0.354 N 
ATOM     63  N   UNL A   1      41.045  30.234  33.901  1.00  0.00    -0.248 NA
ATOM     64  C   UNL A   1      41.505  30.773  36.126  1.00  0.00     0.031 C 
ATOM     65  C   UNL A   1      43.402  27.343  31.486  1.00  0.00     0.029 A 
ATOM     66  C   UNL A   1      42.672  28.230  32.262  1.00  0.00     0.049 A 
ATOM     67  H   UNL A   1      40.940  29.323  31.756  1.00  0.00     0.167 HD
ATOM     68  C   UNL A   1      42.163  29.525  34.318  1.00  0.00     0.074 A 
ATOM     69  C   UNL A   1      42.418  29.916  35.690  1.00  0.00     0.031 C 
ATOM     70  C   UNL A   1      42.910  28.630  33.626  1.00  0.00     0.037 A 
BRANCH  57  71
ATOM     71  C   UNL A   1      40.945  27.555  27.873  1.00  0.00     0.057 A 
ATOM     72  C   UNL A   1      40.366  26.289  27.715  1.00  0.00     0.134 A 
ATOM     73  C   UNL A   1      41.739  28.037  26.824  1.00  0.00     0.134 A 
ATOM     74  F   UNL A   1      39.596  25.766  28.680  1.00  0.00    -0.206 F 
ATOM     75  C   UNL A   1      40.581  25.527  26.566  1.00  0.00     0.040 A 
ATOM     76  C   UNL A   1      41.939  27.297  25.658  1.00  0.00     0.040 A 
ATOM     77  F   UNL A   1      42.310  29.250  26.906  1.00  0.00    -0.206 F 
ATOM     78  C   UNL A   1      41.367  26.032  25.532  1.00  0.00     0.006 A 
ENDBRANCH  57  71
BRANCH  58  79
ATOM     79  C   UNL A   1      39.266  32.674  36.292  1.00  0.00     0.057 A 
ATOM     80  C   UNL A   1      38.372  32.194  37.257  1.00  0.00     0.134 A 
ATOM     81  C   UNL A   1      39.869  33.914  36.532  1.00  0.00     0.134 A 
ATOM     82  F   UNL A   1      37.753  31.017  37.080  1.00  0.00    -0.206 F 
ATOM     83  C   UNL A   1      38.072  32.929  38.406  1.00  0.00     0.040 A 
ATOM     84  C   UNL A   1      39.596  34.649  37.687  1.00  0.00     0.040 A 
ATOM     85  F   UNL A   1      40.745  34.421  35.650  1.00  0.00    -0.206 F 
ATOM     86  C   UNL A   1      38.688  34.160  38.624  1.00  0.00     0.006 A 
ENDBRANCH  58  79
BRANCH  70  87
ATOM     87  C   UNL A   1      44.085  28.016  34.326  1.00  0.00     0.057 A 
ATOM     88  C   UNL A   1      43.940  26.827  35.053  1.00  0.00     0.134 A 
ATOM     89  C   UNL A   1      45.334  28.648  34.360  1.00  0.00     0.134 A 
ATOM     90  F   UNL A   1      42.766  26.179  35.072  1.00  0.00    -0.206 F 
ATOM     91  C   UNL A   1      44.990  26.299  35.805  1.00  0.00     0.040 A 
ATOM     92  C   UNL A   1      46.400  28.116  35.086  1.00  0.00     0.040 A 
ATOM     93  F   UNL A   1      45.539  29.785  33.678  1.00  0.00    -0.206 F 
ATOM     94  C   UNL A   1      46.225  26.944  35.820  1.00  0.00     0.006 A 
ENDBRANCH  70  87
ENDBRANCH  44  45
ENDBRANCH  36  39
ENDBRANCH  34  35
ENDBRANCH  33  34
ENDBRANCH   1  33
TORSDOF 16
ENDMDL
