MODEL 1
REMARK VINA RESULT:     -10.6      0.000      0.000
REMARK SMILES C[NH2+][C@]1(C(=O)NCCCNC(=O)c2ccc(-c3c4nc(c(-c5c(F)cccc5F)c5ccc([nH]5)c(-c5c(F)cccc5F)c5nc(c(-c6c(F)cccc6F)c6ccc3[nH]6)C=C5)C=C4)cc2)CCC[C@@H]1CCOC[C@@H]1CCCO1
REMARK SMILES IDX 4 1 5 2 6 3 3 5 67 6 70 7 68 8 69 9 2 10 1 11 71 14 72 15
REMARK SMILES IDX 73 16 74 17 75 18 76 19 79 20 77 21 78 22 7 23 8 24 9 25
REMARK SMILES IDX 10 26 11 27 12 29 13 30 14 31 66 32 15 33 65 34 16 35 17 36
REMARK SMILES IDX 18 37 59 38 19 39 64 40 58 41 60 42 20 43 63 44 57 45 56 46
REMARK SMILES IDX 21 48 47 49 30 50 46 51 31 52 34 53 45 54 61 55 32 56 33 57
REMARK SMILES IDX 44 59 62 60 35 61 22 62 23 63 28 64 24 65 25 66 27 67 29 68
REMARK SMILES IDX 26 69 48 70 49 71 54 72 50 73 51 74 53 75 55 76 52 77 36 78
REMARK SMILES IDX 37 79 42 80 38 81 39 82 41 83 43 84 40 85
REMARK H PARENT 6 4 2 12 2 13 10 28 60 47 34 58
REMARK Flexibility Score: inf
ROOT
ATOM      1  C   UNL A   1      35.139  22.746  23.851  1.00  0.00     0.281 C 
ATOM      2  O   UNL A   1      34.990  23.117  22.677  1.00  0.00    -0.268 OA
ATOM      3  N   UNL A   1      35.776  21.556  23.997  1.00  0.00    -0.351 N 
ATOM      4  H   UNL A   1      36.111  21.187  23.148  1.00  0.00     0.163 HD
ENDROOT
BRANCH   1   5
ATOM      5  C   UNL A   1      34.696  23.673  25.032  1.00  0.00     0.178 C 
ATOM      6  C   UNL A   1      34.608  25.182  24.738  1.00  0.00     0.079 C 
ATOM      7  C   UNL A   1      33.225  23.382  25.450  1.00  0.00     0.063 C 
ATOM      8  C   UNL A   1      33.652  25.753  25.791  1.00  0.00     0.008 C 
ATOM      9  C   UNL A   1      32.924  24.551  26.405  1.00  0.00     0.011 C 
BRANCH   5  10
ATOM     10  N   UNL A   1      35.564  23.376  26.219  1.00  0.00    -0.336 N 
ATOM     11  C   UNL A   1      36.894  23.966  26.175  1.00  0.00     0.331 C 
ATOM     12  H   UNL A   1      35.089  23.725  27.052  1.00  0.00     0.346 HD
ATOM     13  H   UNL A   1      35.701  22.365  26.225  1.00  0.00     0.346 HD
ENDBRANCH   5  10
BRANCH   7  14
ATOM     14  C   UNL A   1      32.963  21.983  26.040  1.00  0.00     0.039 C 
BRANCH  14  15
ATOM     15  C   UNL A   1      32.060  21.067  25.204  1.00  0.00     0.161 C 
BRANCH  15  16
ATOM     16  O   UNL A   1      32.676  20.534  24.040  1.00  0.00    -0.379 OA
BRANCH  16  17
ATOM     17  C   UNL A   1      32.673  19.134  23.786  1.00  0.00     0.192 C 
BRANCH  17  18
ATOM     18  C   UNL A   1      33.487  18.217  24.717  1.00  0.00     0.144 C 
ATOM     19  C   UNL A   1      34.426  17.232  24.043  1.00  0.00     0.037 C 
ATOM     20  O   UNL A   1      32.642  17.461  25.597  1.00  0.00    -0.376 OA
ATOM     21  C   UNL A   1      34.484  16.090  25.024  1.00  0.00     0.031 C 
ATOM     22  C   UNL A   1      33.085  16.099  25.602  1.00  0.00     0.160 C 
ENDBRANCH  17  18
ENDBRANCH  16  17
ENDBRANCH  15  16
ENDBRANCH  14  15
ENDBRANCH   7  14
ENDBRANCH   1   5
BRANCH   3  23
ATOM     23  C   UNL A   1      36.066  20.714  25.142  1.00  0.00     0.118 C 
BRANCH  23  24
ATOM     24  C   UNL A   1      37.309  19.865  24.912  1.00  0.00     0.042 C 
BRANCH  24  25
ATOM     25  C   UNL A   1      38.564  20.444  25.556  1.00  0.00     0.118 C 
BRANCH  25  26
ATOM     26  N   UNL A   1      39.629  19.459  25.679  1.00  0.00    -0.352 N 
ATOM     27  C   UNL A   1      40.944  19.619  26.036  1.00  0.00     0.251 C 
ATOM     28  H   UNL A   1      39.364  18.533  25.473  1.00  0.00     0.163 HD
ATOM     29  O   UNL A   1      41.732  18.693  25.874  1.00  0.00    -0.269 OA
BRANCH  27  30
ATOM     30  C   UNL A   1      41.421  20.902  26.600  1.00  0.00     0.039 A 
ATOM     31  C   UNL A   1      41.919  21.875  25.730  1.00  0.00     0.014 A 
ATOM     32  C   UNL A   1      41.413  21.136  27.978  1.00  0.00     0.014 A 
ATOM     33  C   UNL A   1      42.352  23.103  26.235  1.00  0.00     0.010 A 
ATOM     34  C   UNL A   1      41.770  22.388  28.473  1.00  0.00     0.010 A 
ATOM     35  C   UNL A   1      42.249  23.382  27.607  1.00  0.00    -0.014 A 
BRANCH  35  36
ATOM     36  C   UNL A   1      42.640  24.706  28.155  1.00  0.00     0.031 A 
ATOM     37  C   UNL A   1      41.604  25.775  28.367  1.00  0.00     0.074 A 
ATOM     38  C   UNL A   1      43.939  24.965  28.399  1.00  0.00     0.049 A 
ATOM     39  N   UNL A   1      41.762  27.010  28.767  1.00  0.00    -0.248 NA
ATOM     40  C   UNL A   1      40.210  25.416  28.062  1.00  0.00     0.031 C 
ATOM     41  C   UNL A   1      45.043  24.028  28.191  1.00  0.00     0.029 A 
ATOM     42  N   UNL A   1      44.551  26.101  28.865  1.00  0.00    -0.354 N 
ATOM     43  C   UNL A   1      40.494  27.579  28.750  1.00  0.00     0.074 A 
ATOM     44  C   UNL A   1      39.586  26.570  28.249  1.00  0.00     0.031 C 
ATOM     45  C   UNL A   1      46.194  24.619  28.550  1.00  0.00     0.029 A 
ATOM     46  C   UNL A   1      45.916  25.987  28.973  1.00  0.00     0.049 A 
ATOM     47  H   UNL A   1      44.059  26.921  29.100  1.00  0.00     0.167 HD
ATOM     48  C   UNL A   1      40.117  28.821  29.137  1.00  0.00     0.037 A 
ATOM     49  C   UNL A   1      46.839  26.885  29.363  1.00  0.00     0.037 A 
ATOM     50  C   UNL A   1      41.019  29.815  29.656  1.00  0.00     0.049 A 
ATOM     51  C   UNL A   1      46.396  28.261  29.778  1.00  0.00     0.074 A 
ATOM     52  C   UNL A   1      40.726  31.081  30.134  1.00  0.00     0.029 A 
ATOM     53  N   UNL A   1      42.392  29.656  29.762  1.00  0.00    -0.354 N 
ATOM     54  N   UNL A   1      45.186  28.762  29.820  1.00  0.00    -0.248 NA
ATOM     55  C   UNL A   1      47.449  29.194  30.202  1.00  0.00     0.031 C 
ATOM     56  C   UNL A   1      41.928  31.705  30.484  1.00  0.00     0.029 A 
ATOM     57  C   UNL A   1      42.964  30.810  30.274  1.00  0.00     0.049 A 
ATOM     58  H   UNL A   1      42.889  28.843  29.511  1.00  0.00     0.167 HD
ATOM     59  C   UNL A   1      45.326  30.057  30.302  1.00  0.00     0.074 A 
ATOM     60  C   UNL A   1      46.739  30.259  30.550  1.00  0.00     0.031 C 
ATOM     61  C   UNL A   1      44.372  30.995  30.519  1.00  0.00     0.037 A 
BRANCH  48  62
ATOM     62  C   UNL A   1      38.661  29.172  29.014  1.00  0.00     0.057 A 
ATOM     63  C   UNL A   1      37.792  29.121  30.111  1.00  0.00     0.134 A 
ATOM     64  C   UNL A   1      38.130  29.597  27.789  1.00  0.00     0.134 A 
ATOM     65  F   UNL A   1      38.234  28.712  31.310  1.00  0.00    -0.206 F 
ATOM     66  C   UNL A   1      36.441  29.451  29.989  1.00  0.00     0.040 A 
ATOM     67  C   UNL A   1      36.787  29.956  27.661  1.00  0.00     0.040 A 
ATOM     68  F   UNL A   1      38.908  29.676  26.699  1.00  0.00    -0.206 F 
ATOM     69  C   UNL A   1      35.937  29.876  28.763  1.00  0.00     0.006 A 
ENDBRANCH  48  62
BRANCH  49  70
ATOM     70  C   UNL A   1      48.274  26.506  29.398  1.00  0.00     0.057 A 
ATOM     71  C   UNL A   1      48.823  25.867  30.517  1.00  0.00     0.134 A 
ATOM     72  C   UNL A   1      49.131  26.775  28.324  1.00  0.00     0.134 A 
ATOM     73  F   UNL A   1      48.056  25.599  31.585  1.00  0.00    -0.206 F 
ATOM     74  C   UNL A   1      50.174  25.525  30.574  1.00  0.00     0.040 A 
ATOM     75  C   UNL A   1      50.479  26.415  28.357  1.00  0.00     0.040 A 
ATOM     76  F   UNL A   1      48.664  27.377  27.220  1.00  0.00    -0.206 F 
ATOM     77  C   UNL A   1      51.006  25.795  29.488  1.00  0.00     0.006 A 
ENDBRANCH  49  70
BRANCH  61  78
ATOM     78  C   UNL A   1      44.820  32.312  31.081  1.00  0.00     0.057 A 
ATOM     79  C   UNL A   1      45.138  33.399  30.256  1.00  0.00     0.134 A 
ATOM     80  C   UNL A   1      44.899  32.506  32.466  1.00  0.00     0.134 A 
ATOM     81  F   UNL A   1      45.095  33.275  28.921  1.00  0.00    -0.206 F 
ATOM     82  C   UNL A   1      45.540  34.625  30.789  1.00  0.00     0.040 A 
ATOM     83  C   UNL A   1      45.273  33.734  33.011  1.00  0.00     0.040 A 
ATOM     84  F   UNL A   1      44.600  31.508  33.311  1.00  0.00    -0.206 F 
ATOM     85  C   UNL A   1      45.602  34.796  32.171  1.00  0.00     0.006 A 
ENDBRANCH  61  78
ENDBRANCH  35  36
ENDBRANCH  27  30
ENDBRANCH  25  26
ENDBRANCH  24  25
ENDBRANCH  23  24
ENDBRANCH   3  23
TORSDOF 16
ENDMDL
MODEL 2
REMARK VINA RESULT:     -10.5      5.358     10.075
REMARK SMILES C[NH2+][C@]1(C(=O)NCCCNC(=O)c2ccc(-c3c4nc(c(-c5c(F)cccc5F)c5ccc([nH]5)c(-c5c(F)cccc5F)c5nc(c(-c6c(F)cccc6F)c6ccc3[nH]6)C=C5)C=C4)cc2)CCC[C@@H]1CCOC[C@@H]1CCCO1
REMARK SMILES IDX 4 1 5 2 6 3 3 5 67 6 70 7 68 8 69 9 2 10 1 11 71 14 72 15
REMARK SMILES IDX 73 16 74 17 75 18 76 19 79 20 77 21 78 22 7 23 8 24 9 25
REMARK SMILES IDX 10 26 11 27 12 29 13 30 14 31 66 32 15 33 65 34 16 35 17 36
REMARK SMILES IDX 18 37 59 38 19 39 64 40 58 41 60 42 20 43 63 44 57 45 56 46
REMARK SMILES IDX 21 48 47 49 30 50 46 51 31 52 34 53 45 54 61 55 32 56 33 57
REMARK SMILES IDX 44 59 62 60 35 61 22 62 23 63 28 64 24 65 25 66 27 67 29 68
REMARK SMILES IDX 26 69 48 70 49 71 54 72 50 73 51 74 53 75 55 76 52 77 36 78
REMARK SMILES IDX 37 79 42 80 38 81 39 82 41 83 43 84 40 85
REMARK H PARENT 6 4 2 12 2 13 10 28 60 47 34 58
REMARK Flexibility Score: inf
ROOT
ATOM      1  C   UNL A   1      33.211  28.745  25.691  1.00  0.00     0.281 C 
ATOM      2  O   UNL A   1      34.444  28.645  25.770  1.00  0.00    -0.268 OA
ATOM      3  N   UNL A   1      32.737  30.017  25.724  1.00  0.00    -0.351 N 
ATOM      4  H   UNL A   1      33.449  30.697  25.720  1.00  0.00     0.163 HD
ENDROOT
BRANCH   1   5
ATOM      5  C   UNL A   1      32.331  27.470  25.469  1.00  0.00     0.178 C 
ATOM      6  C   UNL A   1      31.552  26.940  26.688  1.00  0.00     0.079 C 
ATOM      7  C   UNL A   1      31.156  27.764  24.491  1.00  0.00     0.063 C 
ATOM      8  C   UNL A   1      30.395  26.116  26.112  1.00  0.00     0.008 C 
ATOM      9  C   UNL A   1      30.296  26.494  24.630  1.00  0.00     0.011 C 
BRANCH   5  10
ATOM     10  N   UNL A   1      33.183  26.410  24.836  1.00  0.00    -0.336 N 
ATOM     11  C   UNL A   1      33.747  25.437  25.761  1.00  0.00     0.331 C 
ATOM     12  H   UNL A   1      32.610  25.907  24.158  1.00  0.00     0.346 HD
ATOM     13  H   UNL A   1      33.975  26.895  24.416  1.00  0.00     0.346 HD
ENDBRANCH   5  10
BRANCH   7  14
ATOM     14  C   UNL A   1      31.561  28.114  23.047  1.00  0.00     0.039 C 
BRANCH  14  15
ATOM     15  C   UNL A   1      30.716  29.196  22.363  1.00  0.00     0.161 C 
BRANCH  15  16
ATOM     16  O   UNL A   1      29.406  28.783  22.001  1.00  0.00    -0.379 OA
BRANCH  16  17
ATOM     17  C   UNL A   1      28.267  29.250  22.715  1.00  0.00     0.192 C 
BRANCH  17  18
ATOM     18  C   UNL A   1      27.744  30.667  22.419  1.00  0.00     0.144 C 
ATOM     19  C   UNL A   1      28.028  31.216  21.032  1.00  0.00     0.037 C 
ATOM     20  O   UNL A   1      28.238  31.629  23.364  1.00  0.00    -0.376 OA
ATOM     21  C   UNL A   1      28.093  32.703  21.260  1.00  0.00     0.031 C 
ATOM     22  C   UNL A   1      28.689  32.784  22.648  1.00  0.00     0.160 C 
ENDBRANCH  17  18
ENDBRANCH  16  17
ENDBRANCH  15  16
ENDBRANCH  14  15
ENDBRANCH   7  14
ENDBRANCH   1   5
BRANCH   3  23
ATOM     23  C   UNL A   1      31.403  30.584  25.763  1.00  0.00     0.118 C 
BRANCH  23  24
ATOM     24  C   UNL A   1      31.304  31.714  26.779  1.00  0.00     0.042 C 
BRANCH  24  25
ATOM     25  C   UNL A   1      32.613  32.473  26.969  1.00  0.00     0.118 C 
BRANCH  25  26
ATOM     26  N   UNL A   1      32.399  33.848  27.395  1.00  0.00    -0.352 N 
ATOM     27  C   UNL A   1      33.000  34.567  28.398  1.00  0.00     0.251 C 
ATOM     28  H   UNL A   1      31.717  34.340  26.882  1.00  0.00     0.163 HD
ATOM     29  O   UNL A   1      32.528  35.648  28.734  1.00  0.00    -0.269 OA
BRANCH  27  30
ATOM     30  C   UNL A   1      34.200  34.041  29.087  1.00  0.00     0.039 A 
ATOM     31  C   UNL A   1      34.028  33.184  30.177  1.00  0.00     0.014 A 
ATOM     32  C   UNL A   1      35.487  34.414  28.688  1.00  0.00     0.014 A 
ATOM     33  C   UNL A   1      35.146  32.655  30.828  1.00  0.00     0.010 A 
ATOM     34  C   UNL A   1      36.598  33.825  29.286  1.00  0.00     0.010 A 
ATOM     35  C   UNL A   1      36.439  32.945  30.365  1.00  0.00    -0.014 A 
BRANCH  35  36
ATOM     36  C   UNL A   1      37.637  32.339  31.001  1.00  0.00     0.031 A 
ATOM     37  C   UNL A   1      38.310  31.151  30.371  1.00  0.00     0.074 A 
ATOM     38  C   UNL A   1      38.078  32.819  32.179  1.00  0.00     0.049 A 
ATOM     39  N   UNL A   1      39.319  30.444  30.811  1.00  0.00    -0.248 NA
ATOM     40  C   UNL A   1      37.758  30.678  29.092  1.00  0.00     0.031 C 
ATOM     41  C   UNL A   1      37.483  33.937  32.913  1.00  0.00     0.029 A 
ATOM     42  N   UNL A   1      39.123  32.419  32.973  1.00  0.00    -0.354 N 
ATOM     43  C   UNL A   1      39.515  29.438  29.872  1.00  0.00     0.074 A 
ATOM     44  C   UNL A   1      38.486  29.594  28.867  1.00  0.00     0.031 C 
ATOM     45  C   UNL A   1      38.187  34.148  34.037  1.00  0.00     0.029 A 
ATOM     46  C   UNL A   1      39.254  33.158  34.124  1.00  0.00     0.049 A 
ATOM     47  H   UNL A   1      39.722  31.675  32.740  1.00  0.00     0.167 HD
ATOM     48  C   UNL A   1      40.476  28.485  29.839  1.00  0.00     0.037 A 
ATOM     49  C   UNL A   1      40.131  33.043  35.140  1.00  0.00     0.037 A 
ATOM     50  C   UNL A   1      41.512  28.346  30.829  1.00  0.00     0.049 A 
ATOM     51  C   UNL A   1      41.182  31.971  35.085  1.00  0.00     0.074 A 
ATOM     52  C   UNL A   1      42.569  27.453  30.853  1.00  0.00     0.029 A 
ATOM     53  N   UNL A   1      41.618  29.122  31.975  1.00  0.00    -0.354 N 
ATOM     54  N   UNL A   1      41.396  31.069  34.157  1.00  0.00    -0.248 NA
ATOM     55  C   UNL A   1      42.117  31.902  36.216  1.00  0.00     0.031 C 
ATOM     56  C   UNL A   1      43.287  27.656  32.036  1.00  0.00     0.029 A 
ATOM     57  C   UNL A   1      42.708  28.710  32.724  1.00  0.00     0.049 A 
ATOM     58  H   UNL A   1      41.009  29.856  32.219  1.00  0.00     0.167 HD
ATOM     59  C   UNL A   1      42.505  30.345  34.578  1.00  0.00     0.074 A 
ATOM     60  C   UNL A   1      42.926  30.923  35.838  1.00  0.00     0.031 C 
ATOM     61  C   UNL A   1      43.118  29.297  33.975  1.00  0.00     0.037 A 
BRANCH  48  62
ATOM     62  C   UNL A   1      40.452  27.517  28.691  1.00  0.00     0.057 A 
ATOM     63  C   UNL A   1      39.658  26.363  28.712  1.00  0.00     0.134 A 
ATOM     64  C   UNL A   1      41.209  27.758  27.537  1.00  0.00     0.134 A 
ATOM     65  F   UNL A   1      38.919  26.066  29.791  1.00  0.00    -0.206 F 
ATOM     66  C   UNL A   1      39.640  25.469  27.640  1.00  0.00     0.040 A 
ATOM     67  C   UNL A   1      41.177  26.886  26.447  1.00  0.00     0.040 A 
ATOM     68  F   UNL A   1      41.986  28.848  27.446  1.00  0.00    -0.206 F 
ATOM     69  C   UNL A   1      40.396  25.733  26.501  1.00  0.00     0.006 A 
ENDBRANCH  48  62
BRANCH  49  70
ATOM     70  C   UNL A   1      40.064  33.984  36.286  1.00  0.00     0.057 A 
ATOM     71  C   UNL A   1      39.343  33.660  37.442  1.00  0.00     0.134 A 
ATOM     72  C   UNL A   1      40.711  35.225  36.255  1.00  0.00     0.134 A 
ATOM     73  F   UNL A   1      38.688  32.494  37.524  1.00  0.00    -0.206 F 
ATOM     74  C   UNL A   1      39.253  34.544  38.518  1.00  0.00     0.040 A 
ATOM     75  C   UNL A   1      40.650  36.108  37.335  1.00  0.00     0.040 A 
ATOM     76  F   UNL A   1      41.425  35.590  35.180  1.00  0.00    -0.206 F 
ATOM     77  C   UNL A   1      39.914  35.771  38.468  1.00  0.00     0.006 A 
ENDBRANCH  49  70
BRANCH  61  78
ATOM     78  C   UNL A   1      44.328  28.728  34.656  1.00  0.00     0.057 A 
ATOM     79  C   UNL A   1      45.614  29.229  34.420  1.00  0.00     0.134 A 
ATOM     80  C   UNL A   1      44.199  27.689  35.586  1.00  0.00     0.134 A 
ATOM     81  F   UNL A   1      45.807  30.215  33.531  1.00  0.00    -0.206 F 
ATOM     82  C   UNL A   1      46.732  28.702  35.069  1.00  0.00     0.040 A 
ATOM     83  C   UNL A   1      45.305  27.172  36.261  1.00  0.00     0.040 A 
ATOM     84  F   UNL A   1      42.994  27.169  35.863  1.00  0.00    -0.206 F 
ATOM     85  C   UNL A   1      46.577  27.675  35.997  1.00  0.00     0.006 A 
ENDBRANCH  61  78
ENDBRANCH  35  36
ENDBRANCH  27  30
ENDBRANCH  25  26
ENDBRANCH  24  25
ENDBRANCH  23  24
ENDBRANCH   3  23
TORSDOF 16
ENDMDL
MODEL 3
REMARK VINA RESULT:     -10.3      3.141      7.044
REMARK SMILES C[NH2+][C@]1(C(=O)NCCCNC(=O)c2ccc(-c3c4nc(c(-c5c(F)cccc5F)c5ccc([nH]5)c(-c5c(F)cccc5F)c5nc(c(-c6c(F)cccc6F)c6ccc3[nH]6)C=C5)C=C4)cc2)CCC[C@@H]1CCOC[C@@H]1CCCO1
REMARK SMILES IDX 4 1 5 2 6 3 3 5 67 6 70 7 68 8 69 9 2 10 1 11 71 14 72 15
REMARK SMILES IDX 73 16 74 17 75 18 76 19 79 20 77 21 78 22 7 23 8 24 9 25
REMARK SMILES IDX 10 26 11 27 12 29 13 30 14 31 66 32 15 33 65 34 16 35 17 36
REMARK SMILES IDX 18 37 59 38 19 39 64 40 58 41 60 42 20 43 63 44 57 45 56 46
REMARK SMILES IDX 21 48 47 49 30 50 46 51 31 52 34 53 45 54 61 55 32 56 33 57
REMARK SMILES IDX 44 59 62 60 35 61 22 62 23 63 28 64 24 65 25 66 27 67 29 68
REMARK SMILES IDX 26 69 48 70 49 71 54 72 50 73 51 74 53 75 55 76 52 77 36 78
REMARK SMILES IDX 37 79 42 80 38 81 39 82 41 83 43 84 40 85
REMARK H PARENT 6 4 2 12 2 13 10 28 60 47 34 58
REMARK Flexibility Score: inf
ROOT
ATOM      1  C   UNL A   1      31.111  25.430  26.151  1.00  0.00     0.281 C 
ATOM      2  O   UNL A   1      30.362  24.597  26.683  1.00  0.00    -0.268 OA
ATOM      3  N   UNL A   1      31.074  26.669  26.705  1.00  0.00    -0.351 N 
ATOM      4  H   UNL A   1      30.516  26.715  27.515  1.00  0.00     0.163 HD
ENDROOT
BRANCH   1   5
ATOM      5  C   UNL A   1      32.075  24.998  24.997  1.00  0.00     0.178 C 
ATOM      6  C   UNL A   1      32.346  26.033  23.889  1.00  0.00     0.079 C 
ATOM      7  C   UNL A   1      33.521  24.772  25.529  1.00  0.00     0.063 C 
ATOM      8  C   UNL A   1      33.679  25.621  23.255  1.00  0.00     0.008 C 
ATOM      9  C   UNL A   1      34.326  24.627  24.225  1.00  0.00     0.011 C 
BRANCH   5  10
ATOM     10  N   UNL A   1      31.596  23.688  24.443  1.00  0.00    -0.336 N 
ATOM     11  C   UNL A   1      30.653  23.793  23.338  1.00  0.00     0.331 C 
ATOM     12  H   UNL A   1      32.409  23.166  24.117  1.00  0.00     0.346 HD
ATOM     13  H   UNL A   1      31.094  23.226  25.201  1.00  0.00     0.346 HD
ENDBRANCH   5  10
BRANCH   7  14
ATOM     14  C   UNL A   1      33.691  23.610  26.526  1.00  0.00     0.039 C 
BRANCH  14  15
ATOM     15  C   UNL A   1      34.670  22.508  26.101  1.00  0.00     0.161 C 
BRANCH  15  16
ATOM     16  O   UNL A   1      34.087  21.219  25.966  1.00  0.00    -0.379 OA
BRANCH  16  17
ATOM     17  C   UNL A   1      34.364  20.405  24.832  1.00  0.00     0.192 C 
BRANCH  17  18
ATOM     18  C   UNL A   1      33.595  19.081  24.672  1.00  0.00     0.144 C 
ATOM     19  C   UNL A   1      34.410  17.872  24.248  1.00  0.00     0.037 C 
ATOM     20  O   UNL A   1      32.506  19.203  23.744  1.00  0.00    -0.376 OA
ATOM     21  C   UNL A   1      33.409  17.029  23.505  1.00  0.00     0.031 C 
ATOM     22  C   UNL A   1      32.529  18.077  22.859  1.00  0.00     0.160 C 
ENDBRANCH  17  18
ENDBRANCH  16  17
ENDBRANCH  15  16
ENDBRANCH  14  15
ENDBRANCH   7  14
ENDBRANCH   1   5
BRANCH   3  23
ATOM     23  C   UNL A   1      31.682  27.938  26.356  1.00  0.00     0.118 C 
BRANCH  23  24
ATOM     24  C   UNL A   1      33.102  28.046  26.893  1.00  0.00     0.042 C 
BRANCH  24  25
ATOM     25  C   UNL A   1      33.969  29.030  26.116  1.00  0.00     0.118 C 
BRANCH  25  26
ATOM     26  N   UNL A   1      33.883  30.383  26.647  1.00  0.00    -0.352 N 
ATOM     27  C   UNL A   1      34.624  30.997  27.626  1.00  0.00     0.251 C 
ATOM     28  H   UNL A   1      33.185  30.946  26.239  1.00  0.00     0.163 HD
ATOM     29  O   UNL A   1      34.254  32.077  28.076  1.00  0.00    -0.269 OA
BRANCH  27  30
ATOM     30  C   UNL A   1      35.852  30.361  28.153  1.00  0.00     0.039 A 
ATOM     31  C   UNL A   1      37.031  30.459  27.410  1.00  0.00     0.014 A 
ATOM     32  C   UNL A   1      35.840  29.643  29.352  1.00  0.00     0.014 A 
ATOM     33  C   UNL A   1      38.209  29.889  27.897  1.00  0.00     0.010 A 
ATOM     34  C   UNL A   1      37.030  29.144  29.875  1.00  0.00     0.010 A 
ATOM     35  C   UNL A   1      38.225  29.256  29.150  1.00  0.00    -0.014 A 
BRANCH  35  36
ATOM     36  C   UNL A   1      39.482  28.704  29.717  1.00  0.00     0.031 A 
ATOM     37  C   UNL A   1      40.109  29.334  30.930  1.00  0.00     0.074 A 
ATOM     38  C   UNL A   1      40.092  27.674  29.100  1.00  0.00     0.049 A 
ATOM     39  N   UNL A   1      41.235  29.039  31.526  1.00  0.00    -0.248 NA
ATOM     40  C   UNL A   1      39.387  30.463  31.537  1.00  0.00     0.031 C 
ATOM     41  C   UNL A   1      39.609  27.006  27.890  1.00  0.00     0.029 A 
ATOM     42  N   UNL A   1      41.259  27.017  29.398  1.00  0.00    -0.354 N 
ATOM     43  C   UNL A   1      41.364  29.951  32.567  1.00  0.00     0.074 A 
ATOM     44  C   UNL A   1      40.227  30.843  32.488  1.00  0.00     0.031 C 
ATOM     45  C   UNL A   1      40.460  26.019  27.564  1.00  0.00     0.029 A 
ATOM     46  C   UNL A   1      41.567  26.011  28.514  1.00  0.00     0.049 A 
ATOM     47  H   UNL A   1      41.822  27.244  30.173  1.00  0.00     0.167 HD
ATOM     48  C   UNL A   1      42.329  30.025  33.514  1.00  0.00     0.037 A 
ATOM     49  C   UNL A   1      42.626  25.182  28.470  1.00  0.00     0.037 A 
ATOM     50  C   UNL A   1      43.446  29.122  33.603  1.00  0.00     0.049 A 
ATOM     51  C   UNL A   1      43.689  25.291  29.526  1.00  0.00     0.074 A 
ATOM     52  C   UNL A   1      44.444  29.075  34.561  1.00  0.00     0.029 A 
ATOM     53  N   UNL A   1      43.716  28.109  32.695  1.00  0.00    -0.354 N 
ATOM     54  N   UNL A   1      43.762  26.114  30.544  1.00  0.00    -0.248 NA
ATOM     55  C   UNL A   1      44.815  24.352  29.432  1.00  0.00     0.031 C 
ATOM     56  C   UNL A   1      45.343  28.064  34.207  1.00  0.00     0.029 A 
ATOM     57  C   UNL A   1      44.879  27.447  33.057  1.00  0.00     0.049 A 
ATOM     58  H   UNL A   1      43.163  27.891  31.909  1.00  0.00     0.167 HD
ATOM     59  C   UNL A   1      44.925  25.776  31.225  1.00  0.00     0.074 A 
ATOM     60  C   UNL A   1      45.516  24.663  30.512  1.00  0.00     0.031 C 
ATOM     61  C   UNL A   1      45.454  26.337  32.340  1.00  0.00     0.037 A 
BRANCH  48  62
ATOM     62  C   UNL A   1      42.215  31.122  34.533  1.00  0.00     0.057 A 
ATOM     63  C   UNL A   1      41.562  30.930  35.758  1.00  0.00     0.134 A 
ATOM     64  C   UNL A   1      42.793  32.377  34.300  1.00  0.00     0.134 A 
ATOM     65  F   UNL A   1      40.976  29.757  36.039  1.00  0.00    -0.206 F 
ATOM     66  C   UNL A   1      41.461  31.955  36.701  1.00  0.00     0.040 A 
ATOM     67  C   UNL A   1      42.724  33.400  35.247  1.00  0.00     0.040 A 
ATOM     68  F   UNL A   1      43.441  32.627  33.152  1.00  0.00    -0.206 F 
ATOM     69  C   UNL A   1      42.050  33.192  36.449  1.00  0.00     0.006 A 
ENDBRANCH  48  62
BRANCH  49  70
ATOM     70  C   UNL A   1      42.723  24.160  27.397  1.00  0.00     0.057 A 
ATOM     71  C   UNL A   1      42.232  22.863  27.590  1.00  0.00     0.134 A 
ATOM     72  C   UNL A   1      43.310  24.450  26.159  1.00  0.00     0.134 A 
ATOM     73  F   UNL A   1      41.675  22.520  28.761  1.00  0.00    -0.206 F 
ATOM     74  C   UNL A   1      42.337  21.887  26.600  1.00  0.00     0.040 A 
ATOM     75  C   UNL A   1      43.398  23.489  25.150  1.00  0.00     0.040 A 
ATOM     76  F   UNL A   1      43.791  25.676  25.909  1.00  0.00    -0.206 F 
ATOM     77  C   UNL A   1      42.917  22.201  25.372  1.00  0.00     0.006 A 
ENDBRANCH  49  70
BRANCH  61  78
ATOM     78  C   UNL A   1      46.720  25.735  32.875  1.00  0.00     0.057 A 
ATOM     79  C   UNL A   1      46.707  24.720  33.840  1.00  0.00     0.134 A 
ATOM     80  C   UNL A   1      47.966  26.152  32.391  1.00  0.00     0.134 A 
ATOM     81  F   UNL A   1      45.546  24.285  34.353  1.00  0.00    -0.206 F 
ATOM     82  C   UNL A   1      47.890  24.156  34.321  1.00  0.00     0.040 A 
ATOM     83  C   UNL A   1      49.154  25.578  32.844  1.00  0.00     0.040 A 
ATOM     84  F   UNL A   1      48.049  27.115  31.461  1.00  0.00    -0.206 F 
ATOM     85  C   UNL A   1      49.118  24.581  33.817  1.00  0.00     0.006 A 
ENDBRANCH  61  78
ENDBRANCH  35  36
ENDBRANCH  27  30
ENDBRANCH  25  26
ENDBRANCH  24  25
ENDBRANCH  23  24
ENDBRANCH   3  23
TORSDOF 16
ENDMDL
