MODEL 1
REMARK VINA RESULT:     -11.8      0.000      0.000
REMARK SMILES Cc1c(C(=O)NCCCNC(=O)c2ccc(-c3c4nc(c(-c5c(F)cccc5F)c5ccc([nH]5)c(-c5c(F)cccc5F)c5nc(c(-c6c(F)cccc6F)c6ccc3[nH]6)C=C5)C=C4)cc2)cnn1[C@H]1CCS(=O)(=O)C1
REMARK SMILES IDX 8 1 7 2 6 3 4 4 5 5 3 7 1 8 2 9 69 10 67 11 68 12 70 13
REMARK SMILES IDX 71 14 76 15 72 16 73 17 74 18 75 19 9 20 10 21 11 22 12 24
REMARK SMILES IDX 13 25 14 26 66 27 15 28 65 29 16 30 17 31 18 32 59 33 19 34
REMARK SMILES IDX 64 35 58 36 60 37 20 38 63 39 57 40 56 41 21 43 47 44 30 45
REMARK SMILES IDX 46 46 31 47 34 48 45 49 61 50 32 51 33 52 44 54 62 55 35 56
REMARK SMILES IDX 22 57 23 58 28 59 24 60 25 61 27 62 29 63 26 64 48 65 49 66
REMARK SMILES IDX 54 67 50 68 51 69 53 70 55 71 52 72 36 73 37 74 42 75 38 76
REMARK SMILES IDX 39 77 41 78 43 79 40 80
REMARK H PARENT 6 6 10 23 60 42 34 53
REMARK Flexibility Score: inf
ROOT
ATOM      1  C   UNL A   1      37.908  19.664  24.846  1.00  0.00     0.042 C 
ENDROOT
BRANCH   1   2
ATOM      2  C   UNL A   1      36.696  20.594  24.963  1.00  0.00     0.118 C 
BRANCH   2   3
ATOM      3  N   UNL A   1      35.442  19.865  25.002  1.00  0.00    -0.352 N 
ATOM      4  C   UNL A   1      34.131  20.251  24.885  1.00  0.00     0.254 C 
ATOM      5  O   UNL A   1      33.309  19.333  24.874  1.00  0.00    -0.269 OA
ATOM      6  H   UNL A   1      35.555  18.897  25.141  1.00  0.00     0.163 HD
BRANCH   4   7
ATOM      7  C   UNL A   1      33.734  21.653  24.753  1.00  0.00     0.080 A 
ATOM      8  C   UNL A   1      34.206  22.472  27.186  1.00  0.00     0.067 C 
ATOM      9  C   UNL A   1      33.739  22.610  25.777  1.00  0.00     0.048 A 
ATOM     10  N   UNL A   1      33.201  23.760  25.239  1.00  0.00    -0.265 N 
ATOM     11  C   UNL A   1      33.327  22.394  23.628  1.00  0.00     0.149 A 
ATOM     12  N   UNL A   1      33.002  23.651  23.911  1.00  0.00    -0.180 NA
BRANCH  10  13
ATOM     13  C   UNL A   1      32.826  25.044  25.812  1.00  0.00     0.123 C 
ATOM     14  C   UNL A   1      33.904  26.121  25.557  1.00  0.00     0.044 C 
ATOM     15  C   UNL A   1      31.524  25.690  25.363  1.00  0.00     0.164 C 
ATOM     16  C   UNL A   1      33.382  27.427  26.145  1.00  0.00     0.139 C 
ATOM     17  S   UNL A   1      31.608  27.344  26.004  1.00  0.00     0.152 S 
ATOM     18  O   UNL A   1      31.042  27.331  27.343  1.00  0.00    -0.229 OA
ATOM     19  O   UNL A   1      31.161  28.257  24.984  1.00  0.00    -0.229 OA
ENDBRANCH  10  13
ENDBRANCH   4   7
ENDBRANCH   2   3
ENDBRANCH   1   2
BRANCH   1  20
ATOM     20  C   UNL A   1      39.041  20.072  25.779  1.00  0.00     0.118 C 
BRANCH  20  21
ATOM     21  N   UNL A   1      40.164  19.129  25.746  1.00  0.00    -0.352 N 
ATOM     22  C   UNL A   1      41.512  19.374  25.917  1.00  0.00     0.251 C 
ATOM     23  H   UNL A   1      39.922  18.189  25.578  1.00  0.00     0.163 HD
ATOM     24  O   UNL A   1      42.350  18.551  25.563  1.00  0.00    -0.269 OA
BRANCH  22  25
ATOM     25  C   UNL A   1      41.932  20.644  26.526  1.00  0.00     0.039 A 
ATOM     26  C   UNL A   1      42.437  21.694  25.752  1.00  0.00     0.014 A 
ATOM     27  C   UNL A   1      41.762  20.786  27.897  1.00  0.00     0.014 A 
ATOM     28  C   UNL A   1      42.681  22.922  26.364  1.00  0.00     0.010 A 
ATOM     29  C   UNL A   1      41.819  22.034  28.452  1.00  0.00     0.010 A 
ATOM     30  C   UNL A   1      42.345  23.089  27.715  1.00  0.00    -0.014 A 
BRANCH  30  31
ATOM     31  C   UNL A   1      42.461  24.384  28.373  1.00  0.00     0.031 A 
ATOM     32  C   UNL A   1      41.305  25.305  28.194  1.00  0.00     0.074 A 
ATOM     33  C   UNL A   1      43.428  24.631  29.282  1.00  0.00     0.049 A 
ATOM     34  N   UNL A   1      41.305  26.464  27.625  1.00  0.00    -0.248 NA
ATOM     35  C   UNL A   1      39.968  24.843  28.601  1.00  0.00     0.031 C 
ATOM     36  C   UNL A   1      44.461  23.718  29.791  1.00  0.00     0.029 A 
ATOM     37  N   UNL A   1      43.608  25.734  30.053  1.00  0.00    -0.354 N 
ATOM     38  C   UNL A   1      40.015  26.968  27.766  1.00  0.00     0.074 A 
ATOM     39  C   UNL A   1      39.202  25.869  28.221  1.00  0.00     0.031 C 
ATOM     40  C   UNL A   1      44.971  24.209  30.940  1.00  0.00     0.029 A 
ATOM     41  C   UNL A   1      44.435  25.540  31.149  1.00  0.00     0.049 A 
ATOM     42  H   UNL A   1      43.186  26.600  29.850  1.00  0.00     0.167 HD
ATOM     43  C   UNL A   1      39.769  28.308  27.708  1.00  0.00     0.037 A 
ATOM     44  C   UNL A   1      44.638  26.402  32.174  1.00  0.00     0.037 A 
ATOM     45  C   UNL A   1      40.895  29.019  27.154  1.00  0.00     0.049 A 
ATOM     46  C   UNL A   1      44.232  27.750  31.696  1.00  0.00     0.074 A 
ATOM     47  C   UNL A   1      41.581  28.961  25.956  1.00  0.00     0.029 A 
ATOM     48  N   UNL A   1      41.722  29.689  28.022  1.00  0.00    -0.354 N 
ATOM     49  N   UNL A   1      44.875  28.410  30.771  1.00  0.00    -0.248 NA
ATOM     50  C   UNL A   1      42.847  28.150  31.894  1.00  0.00     0.031 C 
ATOM     51  C   UNL A   1      42.952  29.127  26.313  1.00  0.00     0.029 A 
ATOM     52  C   UNL A   1      43.009  29.353  27.689  1.00  0.00     0.049 A 
ATOM     53  H   UNL A   1      41.444  30.297  28.746  1.00  0.00     0.167 HD
ATOM     54  C   UNL A   1      43.882  28.976  29.985  1.00  0.00     0.074 A 
ATOM     55  C   UNL A   1      42.659  28.864  30.779  1.00  0.00     0.031 C 
ATOM     56  C   UNL A   1      44.077  29.208  28.652  1.00  0.00     0.037 A 
BRANCH  43  57
ATOM     57  C   UNL A   1      38.680  29.023  28.469  1.00  0.00     0.057 A 
ATOM     58  C   UNL A   1      38.564  28.820  29.857  1.00  0.00     0.134 A 
ATOM     59  C   UNL A   1      37.575  29.656  27.865  1.00  0.00     0.134 A 
ATOM     60  F   UNL A   1      39.546  28.223  30.551  1.00  0.00    -0.206 F 
ATOM     61  C   UNL A   1      37.403  29.140  30.571  1.00  0.00     0.040 A 
ATOM     62  C   UNL A   1      36.432  30.028  28.578  1.00  0.00     0.040 A 
ATOM     63  F   UNL A   1      37.496  29.853  26.543  1.00  0.00    -0.206 F 
ATOM     64  C   UNL A   1      36.327  29.739  29.928  1.00  0.00     0.006 A 
ENDBRANCH  43  57
BRANCH  44  65
ATOM     65  C   UNL A   1      44.913  26.088  33.594  1.00  0.00     0.057 A 
ATOM     66  C   UNL A   1      43.918  25.564  34.430  1.00  0.00     0.134 A 
ATOM     67  C   UNL A   1      46.224  26.057  34.107  1.00  0.00     0.134 A 
ATOM     68  F   UNL A   1      42.643  25.510  34.019  1.00  0.00    -0.206 F 
ATOM     69  C   UNL A   1      44.210  25.025  35.691  1.00  0.00     0.040 A 
ATOM     70  C   UNL A   1      46.528  25.532  35.367  1.00  0.00     0.040 A 
ATOM     71  F   UNL A   1      47.269  26.459  33.369  1.00  0.00    -0.206 F 
ATOM     72  C   UNL A   1      45.521  24.999  36.159  1.00  0.00     0.006 A 
ENDBRANCH  44  65
BRANCH  56  73
ATOM     73  C   UNL A   1      45.468  29.046  28.097  1.00  0.00     0.057 A 
ATOM     74  C   UNL A   1      45.966  27.848  27.563  1.00  0.00     0.134 A 
ATOM     75  C   UNL A   1      46.271  30.181  27.941  1.00  0.00     0.134 A 
ATOM     76  F   UNL A   1      45.234  26.731  27.559  1.00  0.00    -0.206 F 
ATOM     77  C   UNL A   1      47.220  27.771  26.949  1.00  0.00     0.040 A 
ATOM     78  C   UNL A   1      47.511  30.126  27.300  1.00  0.00     0.040 A 
ATOM     79  F   UNL A   1      45.839  31.378  28.367  1.00  0.00    -0.206 F 
ATOM     80  C   UNL A   1      47.995  28.916  26.811  1.00  0.00     0.006 A 
ENDBRANCH  56  73
ENDBRANCH  30  31
ENDBRANCH  22  25
ENDBRANCH  20  21
ENDBRANCH   1  20
TORSDOF 11
ENDMDL
MODEL 2
REMARK VINA RESULT:     -11.7      4.111      9.186
REMARK SMILES Cc1c(C(=O)NCCCNC(=O)c2ccc(-c3c4nc(c(-c5c(F)cccc5F)c5ccc([nH]5)c(-c5c(F)cccc5F)c5nc(c(-c6c(F)cccc6F)c6ccc3[nH]6)C=C5)C=C4)cc2)cnn1[C@H]1CCS(=O)(=O)C1
REMARK SMILES IDX 8 1 7 2 6 3 4 4 5 5 3 7 1 8 2 9 69 10 67 11 68 12 70 13
REMARK SMILES IDX 71 14 76 15 72 16 73 17 74 18 75 19 9 20 10 21 11 22 12 24
REMARK SMILES IDX 13 25 14 26 66 27 15 28 65 29 16 30 17 31 18 32 59 33 19 34
REMARK SMILES IDX 64 35 58 36 60 37 20 38 63 39 57 40 56 41 21 43 47 44 30 45
REMARK SMILES IDX 46 46 31 47 34 48 45 49 61 50 32 51 33 52 44 54 62 55 35 56
REMARK SMILES IDX 22 57 23 58 28 59 24 60 25 61 27 62 29 63 26 64 48 65 49 66
REMARK SMILES IDX 54 67 50 68 51 69 53 70 55 71 52 72 36 73 37 74 42 75 38 76
REMARK SMILES IDX 39 77 41 78 43 79 40 80
REMARK H PARENT 6 6 10 23 60 42 34 53
REMARK Flexibility Score: inf
ROOT
ATOM      1  C   UNL A   1      31.342  32.019  26.499  1.00  0.00     0.042 C 
ENDROOT
BRANCH   1   2
ATOM      2  C   UNL A   1      31.605  30.619  25.932  1.00  0.00     0.118 C 
BRANCH   2   3
ATOM      3  N   UNL A   1      30.905  30.390  24.682  1.00  0.00    -0.352 N 
ATOM      4  C   UNL A   1      30.735  29.280  23.895  1.00  0.00     0.254 C 
ATOM      5  O   UNL A   1      29.986  29.428  22.928  1.00  0.00    -0.269 OA
ATOM      6  H   UNL A   1      30.464  31.195  24.326  1.00  0.00     0.163 HD
BRANCH   4   7
ATOM      7  C   UNL A   1      31.372  27.998  24.197  1.00  0.00     0.080 A 
ATOM      8  C   UNL A   1      33.775  28.483  23.299  1.00  0.00     0.067 C 
ATOM      9  C   UNL A   1      32.697  27.647  23.901  1.00  0.00     0.048 A 
ATOM     10  N   UNL A   1      32.842  26.326  24.269  1.00  0.00    -0.265 N 
ATOM     11  C   UNL A   1      30.888  26.865  24.877  1.00  0.00     0.149 A 
ATOM     12  N   UNL A   1      31.758  25.861  24.920  1.00  0.00    -0.180 NA
BRANCH  10  13
ATOM     13  C   UNL A   1      33.919  25.361  24.105  1.00  0.00     0.123 C 
ATOM     14  C   UNL A   1      34.590  25.017  25.454  1.00  0.00     0.044 C 
ATOM     15  C   UNL A   1      33.601  24.013  23.479  1.00  0.00     0.164 C 
ATOM     16  C   UNL A   1      35.654  23.964  25.170  1.00  0.00     0.139 C 
ATOM     17  S   UNL A   1      35.053  23.035  23.774  1.00  0.00     0.152 S 
ATOM     18  O   UNL A   1      35.964  23.243  22.659  1.00  0.00    -0.229 OA
ATOM     19  O   UNL A   1      34.646  21.723  24.206  1.00  0.00    -0.229 OA
ENDBRANCH  10  13
ENDBRANCH   4   7
ENDBRANCH   2   3
ENDBRANCH   1   2
BRANCH   1  20
ATOM     20  C   UNL A   1      32.558  32.587  27.221  1.00  0.00     0.118 C 
BRANCH  20  21
ATOM     21  N   UNL A   1      32.334  33.951  27.711  1.00  0.00    -0.352 N 
ATOM     22  C   UNL A   1      33.016  34.649  28.688  1.00  0.00     0.251 C 
ATOM     23  H   UNL A   1      31.593  34.438  27.282  1.00  0.00     0.163 HD
ATOM     24  O   UNL A   1      32.531  35.653  29.198  1.00  0.00    -0.269 OA
BRANCH  22  25
ATOM     25  C   UNL A   1      34.337  34.164  29.116  1.00  0.00     0.039 A 
ATOM     26  C   UNL A   1      34.488  33.363  30.252  1.00  0.00     0.014 A 
ATOM     27  C   UNL A   1      35.428  34.489  28.322  1.00  0.00     0.014 A 
ATOM     28  C   UNL A   1      35.740  32.815  30.525  1.00  0.00     0.010 A 
ATOM     29  C   UNL A   1      36.599  33.803  28.481  1.00  0.00     0.010 A 
ATOM     30  C   UNL A   1      36.788  33.023  29.617  1.00  0.00    -0.014 A 
BRANCH  30  31
ATOM     31  C   UNL A   1      38.081  32.373  29.786  1.00  0.00     0.031 A 
ATOM     32  C   UNL A   1      38.162  30.964  29.313  1.00  0.00     0.074 A 
ATOM     33  C   UNL A   1      39.187  33.074  30.112  1.00  0.00     0.049 A 
ATOM     34  N   UNL A   1      38.412  29.911  30.019  1.00  0.00    -0.248 NA
ATOM     35  C   UNL A   1      37.823  30.671  27.911  1.00  0.00     0.031 C 
ATOM     36  C   UNL A   1      39.327  34.523  30.313  1.00  0.00     0.029 A 
ATOM     37  N   UNL A   1      40.471  32.642  30.202  1.00  0.00    -0.354 N 
ATOM     38  C   UNL A   1      38.452  28.843  29.126  1.00  0.00     0.074 A 
ATOM     39  C   UNL A   1      37.922  29.340  27.883  1.00  0.00     0.031 C 
ATOM     40  C   UNL A   1      40.631  34.866  30.240  1.00  0.00     0.029 A 
ATOM     41  C   UNL A   1      41.421  33.652  30.169  1.00  0.00     0.049 A 
ATOM     42  H   UNL A   1      40.708  31.690  30.285  1.00  0.00     0.167 HD
ATOM     43  C   UNL A   1      39.127  27.697  29.426  1.00  0.00     0.037 A 
ATOM     44  C   UNL A   1      42.762  33.500  30.056  1.00  0.00     0.037 A 
ATOM     45  C   UNL A   1      39.442  27.632  30.832  1.00  0.00     0.049 A 
ATOM     46  C   UNL A   1      43.078  32.106  30.466  1.00  0.00     0.074 A 
ATOM     47  C   UNL A   1      38.692  27.649  31.993  1.00  0.00     0.029 A 
ATOM     48  N   UNL A   1      40.727  27.927  31.217  1.00  0.00    -0.354 N 
ATOM     49  N   UNL A   1      42.946  31.668  31.688  1.00  0.00    -0.248 NA
ATOM     50  C   UNL A   1      43.074  31.080  29.434  1.00  0.00     0.031 C 
ATOM     51  C   UNL A   1      39.447  28.448  32.902  1.00  0.00     0.029 A 
ATOM     52  C   UNL A   1      40.639  28.802  32.270  1.00  0.00     0.049 A 
ATOM     53  H   UNL A   1      41.555  27.576  30.815  1.00  0.00     0.167 HD
ATOM     54  C   UNL A   1      42.404  30.398  31.552  1.00  0.00     0.074 A 
ATOM     55  C   UNL A   1      42.595  30.052  30.144  1.00  0.00     0.031 C 
ATOM     56  C   UNL A   1      41.584  29.869  32.510  1.00  0.00     0.037 A 
BRANCH  43  57
ATOM     57  C   UNL A   1      39.818  26.810  28.420  1.00  0.00     0.057 A 
ATOM     58  C   UNL A   1      40.707  27.386  27.493  1.00  0.00     0.134 A 
ATOM     59  C   UNL A   1      39.430  25.486  28.132  1.00  0.00     0.134 A 
ATOM     60  F   UNL A   1      41.149  28.643  27.650  1.00  0.00    -0.206 F 
ATOM     61  C   UNL A   1      41.107  26.726  26.324  1.00  0.00     0.040 A 
ATOM     62  C   UNL A   1      39.866  24.799  26.995  1.00  0.00     0.040 A 
ATOM     63  F   UNL A   1      38.533  24.824  28.872  1.00  0.00    -0.206 F 
ATOM     64  C   UNL A   1      40.678  25.431  26.068  1.00  0.00     0.006 A 
ENDBRANCH  43  57
BRANCH  44  65
ATOM     65  C   UNL A   1      43.732  34.393  29.382  1.00  0.00     0.057 A 
ATOM     66  C   UNL A   1      43.962  34.308  28.003  1.00  0.00     0.134 A 
ATOM     67  C   UNL A   1      44.275  35.520  30.027  1.00  0.00     0.134 A 
ATOM     68  F   UNL A   1      43.453  33.294  27.288  1.00  0.00    -0.206 F 
ATOM     69  C   UNL A   1      44.673  35.294  27.303  1.00  0.00     0.040 A 
ATOM     70  C   UNL A   1      44.995  36.505  29.343  1.00  0.00     0.040 A 
ATOM     71  F   UNL A   1      44.055  35.749  31.330  1.00  0.00    -0.206 F 
ATOM     72  C   UNL A   1      45.184  36.402  27.972  1.00  0.00     0.006 A 
ENDBRANCH  44  65
BRANCH  56  73
ATOM     73  C   UNL A   1      41.459  30.598  33.822  1.00  0.00     0.057 A 
ATOM     74  C   UNL A   1      40.491  31.579  34.087  1.00  0.00     0.134 A 
ATOM     75  C   UNL A   1      42.232  30.174  34.908  1.00  0.00     0.134 A 
ATOM     76  F   UNL A   1      39.627  31.975  33.148  1.00  0.00    -0.206 F 
ATOM     77  C   UNL A   1      40.333  32.145  35.355  1.00  0.00     0.040 A 
ATOM     78  C   UNL A   1      42.062  30.706  36.189  1.00  0.00     0.040 A 
ATOM     79  F   UNL A   1      43.136  29.194  34.752  1.00  0.00    -0.206 F 
ATOM     80  C   UNL A   1      41.118  31.704  36.414  1.00  0.00     0.006 A 
ENDBRANCH  56  73
ENDBRANCH  30  31
ENDBRANCH  22  25
ENDBRANCH  20  21
ENDBRANCH   1  20
TORSDOF 11
ENDMDL
MODEL 3
REMARK VINA RESULT:     -11.5      3.002      7.554
REMARK SMILES Cc1c(C(=O)NCCCNC(=O)c2ccc(-c3c4nc(c(-c5c(F)cccc5F)c5ccc([nH]5)c(-c5c(F)cccc5F)c5nc(c(-c6c(F)cccc6F)c6ccc3[nH]6)C=C5)C=C4)cc2)cnn1[C@H]1CCS(=O)(=O)C1
REMARK SMILES IDX 8 1 7 2 6 3 4 4 5 5 3 7 1 8 2 9 69 10 67 11 68 12 70 13
REMARK SMILES IDX 71 14 76 15 72 16 73 17 74 18 75 19 9 20 10 21 11 22 12 24
REMARK SMILES IDX 13 25 14 26 66 27 15 28 65 29 16 30 17 31 18 32 59 33 19 34
REMARK SMILES IDX 64 35 58 36 60 37 20 38 63 39 57 40 56 41 21 43 47 44 30 45
REMARK SMILES IDX 46 46 31 47 34 48 45 49 61 50 32 51 33 52 44 54 62 55 35 56
REMARK SMILES IDX 22 57 23 58 28 59 24 60 25 61 27 62 29 63 26 64 48 65 49 66
REMARK SMILES IDX 54 67 50 68 51 69 53 70 55 71 52 72 36 73 37 74 42 75 38 76
REMARK SMILES IDX 39 77 41 78 43 79 40 80
REMARK H PARENT 6 6 10 23 60 42 34 53
REMARK Flexibility Score: inf
ROOT
ATOM      1  C   UNL A   1      32.371  29.919  26.770  1.00  0.00     0.042 C 
ENDROOT
BRANCH   1   2
ATOM      2  C   UNL A   1      32.779  29.749  25.303  1.00  0.00     0.118 C 
BRANCH   2   3
ATOM      3  N   UNL A   1      31.648  29.443  24.447  1.00  0.00    -0.352 N 
ATOM      4  C   UNL A   1      30.893  28.312  24.264  1.00  0.00     0.254 C 
ATOM      5  O   UNL A   1      29.930  28.439  23.506  1.00  0.00    -0.269 OA
ATOM      6  H   UNL A   1      31.365  30.199  23.884  1.00  0.00     0.163 HD
BRANCH   4   7
ATOM      7  C   UNL A   1      31.190  27.051  24.942  1.00  0.00     0.080 A 
ATOM      8  C   UNL A   1      33.231  26.261  23.519  1.00  0.00     0.067 C 
ATOM      9  C   UNL A   1      32.197  26.142  24.587  1.00  0.00     0.048 A 
ATOM     10  N   UNL A   1      32.057  25.057  25.426  1.00  0.00    -0.265 N 
ATOM     11  C   UNL A   1      30.632  26.470  26.096  1.00  0.00     0.149 A 
ATOM     12  N   UNL A   1      31.140  25.277  26.388  1.00  0.00    -0.180 NA
BRANCH  10  13
ATOM     13  C   UNL A   1      32.702  23.754  25.481  1.00  0.00     0.123 C 
ATOM     14  C   UNL A   1      32.618  23.132  26.892  1.00  0.00     0.044 C 
ATOM     15  C   UNL A   1      32.210  22.658  24.548  1.00  0.00     0.164 C 
ATOM     16  C   UNL A   1      33.268  21.756  26.817  1.00  0.00     0.139 C 
ATOM     17  S   UNL A   1      32.987  21.181  25.154  1.00  0.00     0.152 S 
ATOM     18  O   UNL A   1      34.274  21.050  24.490  1.00  0.00    -0.229 OA
ATOM     19  O   UNL A   1      32.014  20.120  25.169  1.00  0.00    -0.229 OA
ENDBRANCH  10  13
ENDBRANCH   4   7
ENDBRANCH   2   3
ENDBRANCH   1   2
BRANCH   1  20
ATOM     20  C   UNL A   1      33.549  30.299  27.657  1.00  0.00     0.118 C 
BRANCH  20  21
ATOM     21  N   UNL A   1      34.052  31.648  27.378  1.00  0.00    -0.352 N 
ATOM     22  C   UNL A   1      35.250  32.226  27.747  1.00  0.00     0.251 C 
ATOM     23  H   UNL A   1      33.449  32.223  26.852  1.00  0.00     0.163 HD
ATOM     24  O   UNL A   1      35.401  33.442  27.707  1.00  0.00    -0.269 OA
BRANCH  22  25
ATOM     25  C   UNL A   1      36.347  31.358  28.200  1.00  0.00     0.039 A 
ATOM     26  C   UNL A   1      36.525  30.072  27.680  1.00  0.00     0.014 A 
ATOM     27  C   UNL A   1      37.236  31.879  29.132  1.00  0.00     0.014 A 
ATOM     28  C   UNL A   1      37.663  29.354  28.040  1.00  0.00     0.010 A 
ATOM     29  C   UNL A   1      38.436  31.258  29.332  1.00  0.00     0.010 A 
ATOM     30  C   UNL A   1      38.628  29.966  28.851  1.00  0.00    -0.014 A 
BRANCH  30  31
ATOM     31  C   UNL A   1      39.893  29.311  29.156  1.00  0.00     0.031 A 
ATOM     32  C   UNL A   1      40.126  28.994  30.591  1.00  0.00     0.074 A 
ATOM     33  C   UNL A   1      40.679  28.804  28.183  1.00  0.00     0.049 A 
ATOM     34  N   UNL A   1      41.066  29.446  31.354  1.00  0.00    -0.248 NA
ATOM     35  C   UNL A   1      39.141  28.159  31.297  1.00  0.00     0.031 C 
ATOM     36  C   UNL A   1      40.436  28.769  26.734  1.00  0.00     0.029 A 
ATOM     37  N   UNL A   1      41.822  28.080  28.305  1.00  0.00    -0.354 N 
ATOM     38  C   UNL A   1      40.912  28.810  32.583  1.00  0.00     0.074 A 
ATOM     39  C   UNL A   1      39.626  28.164  32.542  1.00  0.00     0.031 C 
ATOM     40  C   UNL A   1      41.248  27.855  26.162  1.00  0.00     0.029 A 
ATOM     41  C   UNL A   1      42.180  27.377  27.164  1.00  0.00     0.049 A 
ATOM     42  H   UNL A   1      42.352  28.057  29.134  1.00  0.00     0.167 HD
ATOM     43  C   UNL A   1      41.957  28.686  33.450  1.00  0.00     0.037 A 
ATOM     44  C   UNL A   1      43.155  26.443  27.061  1.00  0.00     0.037 A 
ATOM     45  C   UNL A   1      43.042  29.564  33.086  1.00  0.00     0.049 A 
ATOM     46  C   UNL A   1      44.078  26.649  28.207  1.00  0.00     0.074 A 
ATOM     47  C   UNL A   1      43.168  30.932  32.927  1.00  0.00     0.029 A 
ATOM     48  N   UNL A   1      44.125  29.015  32.445  1.00  0.00    -0.354 N 
ATOM     49  N   UNL A   1      44.844  27.698  28.335  1.00  0.00    -0.248 NA
ATOM     50  C   UNL A   1      43.796  25.933  29.442  1.00  0.00     0.031 C 
ATOM     51  C   UNL A   1      44.006  31.089  31.784  1.00  0.00     0.029 A 
ATOM     52  C   UNL A   1      44.401  29.817  31.367  1.00  0.00     0.049 A 
ATOM     53  H   UNL A   1      44.613  28.202  32.709  1.00  0.00     0.167 HD
ATOM     54  C   UNL A   1      44.770  28.029  29.681  1.00  0.00     0.074 A 
ATOM     55  C   UNL A   1      44.191  26.852  30.329  1.00  0.00     0.031 C 
ATOM     56  C   UNL A   1      44.900  29.322  30.104  1.00  0.00     0.037 A 
BRANCH  43  57
ATOM     57  C   UNL A   1      42.160  27.534  34.404  1.00  0.00     0.057 A 
ATOM     58  C   UNL A   1      41.829  27.701  35.762  1.00  0.00     0.134 A 
ATOM     59  C   UNL A   1      42.931  26.391  34.114  1.00  0.00     0.134 A 
ATOM     60  F   UNL A   1      41.102  28.753  36.170  1.00  0.00    -0.206 F 
ATOM     61  C   UNL A   1      42.304  26.845  36.763  1.00  0.00     0.040 A 
ATOM     62  C   UNL A   1      43.366  25.500  35.099  1.00  0.00     0.040 A 
ATOM     63  F   UNL A   1      43.391  26.129  32.884  1.00  0.00    -0.206 F 
ATOM     64  C   UNL A   1      43.084  25.744  36.433  1.00  0.00     0.006 A 
ENDBRANCH  43  57
BRANCH  44  65
ATOM     65  C   UNL A   1      43.187  25.245  26.192  1.00  0.00     0.057 A 
ATOM     66  C   UNL A   1      44.204  25.059  25.245  1.00  0.00     0.134 A 
ATOM     67  C   UNL A   1      42.363  24.130  26.434  1.00  0.00     0.134 A 
ATOM     68  F   UNL A   1      45.068  26.047  24.972  1.00  0.00    -0.206 F 
ATOM     69  C   UNL A   1      44.402  23.833  24.594  1.00  0.00     0.040 A 
ATOM     70  C   UNL A   1      42.543  22.904  25.784  1.00  0.00     0.040 A 
ATOM     71  F   UNL A   1      41.406  24.163  27.373  1.00  0.00    -0.206 F 
ATOM     72  C   UNL A   1      43.575  22.748  24.870  1.00  0.00     0.006 A 
ENDBRANCH  44  65
BRANCH  56  73
ATOM     73  C   UNL A   1      45.348  30.356  29.105  1.00  0.00     0.057 A 
ATOM     74  C   UNL A   1      44.473  31.112  28.308  1.00  0.00     0.134 A 
ATOM     75  C   UNL A   1      46.698  30.721  29.068  1.00  0.00     0.134 A 
ATOM     76  F   UNL A   1      43.152  30.920  28.353  1.00  0.00    -0.206 F 
ATOM     77  C   UNL A   1      44.924  32.144  27.481  1.00  0.00     0.040 A 
ATOM     78  C   UNL A   1      47.158  31.773  28.271  1.00  0.00     0.040 A 
ATOM     79  F   UNL A   1      47.590  30.090  29.848  1.00  0.00    -0.206 F 
ATOM     80  C   UNL A   1      46.272  32.482  27.465  1.00  0.00     0.006 A 
ENDBRANCH  56  73
ENDBRANCH  30  31
ENDBRANCH  22  25
ENDBRANCH  20  21
ENDBRANCH   1  20
TORSDOF 11
ENDMDL
