MODEL 1
REMARK VINA RESULT:     -11.8      0.000      0.000
REMARK SMILES O=C(NCCCNC(=O)[C@H]1CC[C@@H]2CCCC[C@@H]2N1C(=O)NC1CC1)c1ccc(-c2c3nc(c(-c4c(F)cccc4F)c4ccc([nH]4)c(-c4c(F)cccc4F)c4nc(c(-c5c(F)cccc5F)c5ccc2[nH]5)C=C4)C=C3)cc1
REMARK SMILES IDX 5 1 4 2 3 3 1 4 2 5 26 7 27 8 79 9 28 10 78 11 29 12 30 13
REMARK SMILES IDX 31 14 72 15 32 16 77 17 71 18 73 19 33 20 76 21 70 22 69 23
REMARK SMILES IDX 34 25 60 26 43 27 59 28 44 29 47 30 58 31 74 32 45 33 46 34
REMARK SMILES IDX 57 36 75 37 48 38 35 39 36 40 41 41 37 42 38 43 40 44 42 45
REMARK SMILES IDX 39 46 61 47 62 48 67 49 63 50 64 51 66 52 68 53 65 54 49 55
REMARK SMILES IDX 50 56 55 57 51 58 52 59 54 60 56 61 53 62 6 63 7 64 8 65
REMARK SMILES IDX 9 67 10 68 11 69 19 70 12 71 18 72 13 73 17 74 14 75 16 76
REMARK SMILES IDX 15 77 20 78 21 79 22 80 23 82 24 83 25 84
REMARK H PARENT 3 6 73 24 47 35 7 66 22 81
REMARK Flexibility Score: inf
ROOT
ATOM      1  C   UNL A   1      37.546  20.097  24.945  1.00  0.00     0.042 C 
ENDROOT
BRANCH   1   2
ATOM      2  C   UNL A   1      38.786  20.495  25.731  1.00  0.00     0.118 C 
BRANCH   2   3
ATOM      3  N   UNL A   1      39.820  19.472  25.715  1.00  0.00    -0.352 N 
ATOM      4  O   UNL A   1      41.922  18.644  25.797  1.00  0.00    -0.269 OA
ATOM      5  C   UNL A   1      41.158  19.579  26.016  1.00  0.00     0.251 C 
ATOM      6  H   UNL A   1      39.519  18.572  25.449  1.00  0.00     0.163 HD
BRANCH   5   7
ATOM      7  C   UNL A   1      41.674  20.849  26.569  1.00  0.00     0.039 A 
ATOM      8  C   UNL A   1      41.680  21.053  27.946  1.00  0.00     0.014 A 
ATOM      9  C   UNL A   1      42.106  21.861  25.708  1.00  0.00     0.014 A 
ATOM     10  C   UNL A   1      41.881  22.329  28.444  1.00  0.00     0.010 A 
ATOM     11  C   UNL A   1      42.466  23.108  26.231  1.00  0.00     0.010 A 
ATOM     12  C   UNL A   1      42.315  23.366  27.602  1.00  0.00    -0.014 A 
BRANCH  12  13
ATOM     13  C   UNL A   1      42.672  24.669  28.225  1.00  0.00     0.031 A 
ATOM     14  C   UNL A   1      44.095  25.047  28.523  1.00  0.00     0.074 A 
ATOM     15  C   UNL A   1      41.676  25.553  28.440  1.00  0.00     0.049 A 
ATOM     16  N   UNL A   1      44.558  26.171  29.011  1.00  0.00    -0.248 NA
ATOM     17  C   UNL A   1      45.136  24.042  28.255  1.00  0.00     0.031 C 
ATOM     18  C   UNL A   1      40.251  25.287  28.211  1.00  0.00     0.029 A 
ATOM     19  N   UNL A   1      41.703  26.862  28.843  1.00  0.00    -0.354 N 
ATOM     20  C   UNL A   1      45.930  26.001  29.138  1.00  0.00     0.074 A 
ATOM     21  C   UNL A   1      46.229  24.658  28.689  1.00  0.00     0.031 C 
ATOM     22  C   UNL A   1      39.557  26.418  28.377  1.00  0.00     0.029 A 
ATOM     23  C   UNL A   1      40.468  27.465  28.818  1.00  0.00     0.049 A 
ATOM     24  H   UNL A   1      42.525  27.325  29.124  1.00  0.00     0.167 HD
ATOM     25  C   UNL A   1      46.853  26.887  29.587  1.00  0.00     0.037 A 
ATOM     26  C   UNL A   1      40.099  28.719  29.130  1.00  0.00     0.037 A 
ATOM     27  C   UNL A   1      46.549  28.231  30.010  1.00  0.00     0.049 A 
ATOM     28  C   UNL A   1      41.145  29.681  29.597  1.00  0.00     0.074 A 
ATOM     29  C   UNL A   1      47.414  29.204  30.483  1.00  0.00     0.029 A 
ATOM     30  N   UNL A   1      45.282  28.796  30.000  1.00  0.00    -0.354 N 
ATOM     31  N   UNL A   1      42.436  29.494  29.726  1.00  0.00    -0.248 NA
ATOM     32  C   UNL A   1      40.686  31.022  29.976  1.00  0.00     0.031 C 
ATOM     33  C   UNL A   1      46.666  30.347  30.785  1.00  0.00     0.029 A 
ATOM     34  C   UNL A   1      45.341  30.101  30.463  1.00  0.00     0.049 A 
ATOM     35  H   UNL A   1      44.462  28.338  29.706  1.00  0.00     0.167 HD
ATOM     36  C   UNL A   1      42.943  30.688  30.214  1.00  0.00     0.074 A 
ATOM     37  C   UNL A   1      41.826  31.607  30.312  1.00  0.00     0.031 C 
ATOM     38  C   UNL A   1      44.215  30.992  30.568  1.00  0.00     0.037 A 
BRANCH  25  39
ATOM     39  C   UNL A   1      48.283  26.432  29.658  1.00  0.00     0.057 A 
ATOM     40  C   UNL A   1      49.181  26.649  28.607  1.00  0.00     0.134 A 
ATOM     41  C   UNL A   1      48.782  25.827  30.819  1.00  0.00     0.134 A 
ATOM     42  F   UNL A   1      48.765  27.212  27.462  1.00  0.00    -0.206 F 
ATOM     43  C   UNL A   1      50.523  26.273  28.703  1.00  0.00     0.040 A 
ATOM     44  C   UNL A   1      50.125  25.465  30.935  1.00  0.00     0.040 A 
ATOM     45  F   UNL A   1      47.976  25.595  31.866  1.00  0.00    -0.206 F 
ATOM     46  C   UNL A   1      51.000  25.687  29.874  1.00  0.00     0.006 A 
ENDBRANCH  25  39
BRANCH  26  47
ATOM     47  C   UNL A   1      38.671  29.113  29.036  1.00  0.00     0.057 A 
ATOM     48  C   UNL A   1      37.826  29.062  30.150  1.00  0.00     0.134 A 
ATOM     49  C   UNL A   1      38.124  29.573  27.831  1.00  0.00     0.134 A 
ATOM     50  F   UNL A   1      38.288  28.615  31.327  1.00  0.00    -0.206 F 
ATOM     51  C   UNL A   1      36.487  29.445  30.068  1.00  0.00     0.040 A 
ATOM     52  C   UNL A   1      36.796  29.988  27.743  1.00  0.00     0.040 A 
ATOM     53  F   UNL A   1      38.886  29.657  26.730  1.00  0.00    -0.206 F 
ATOM     54  C   UNL A   1      35.971  29.918  28.862  1.00  0.00     0.006 A 
ENDBRANCH  26  47
BRANCH  38  55
ATOM     55  C   UNL A   1      44.447  32.374  31.094  1.00  0.00     0.057 A 
ATOM     56  C   UNL A   1      44.375  32.657  32.463  1.00  0.00     0.134 A 
ATOM     57  C   UNL A   1      44.731  33.433  30.224  1.00  0.00     0.134 A 
ATOM     58  F   UNL A   1      44.088  31.686  33.344  1.00  0.00    -0.206 F 
ATOM     59  C   UNL A   1      44.548  33.953  32.949  1.00  0.00     0.040 A 
ATOM     60  C   UNL A   1      44.929  34.730  30.699  1.00  0.00     0.040 A 
ATOM     61  F   UNL A   1      44.816  33.225  28.901  1.00  0.00    -0.206 F 
ATOM     62  C   UNL A   1      44.828  34.994  32.065  1.00  0.00     0.006 A 
ENDBRANCH  38  55
ENDBRANCH  12  13
ENDBRANCH   5   7
ENDBRANCH   2   3
ENDBRANCH   1   2
BRANCH   1  63
ATOM     63  C   UNL A   1      36.525  21.218  24.904  1.00  0.00     0.117 C 
BRANCH  63  64
ATOM     64  N   UNL A   1      35.524  21.021  25.934  1.00  0.00    -0.354 N 
ATOM     65  C   UNL A   1      34.593  21.876  26.417  1.00  0.00     0.242 C 
ATOM     66  H   UNL A   1      35.521  20.126  26.345  1.00  0.00     0.163 HD
ATOM     67  O   UNL A   1      34.231  21.655  27.579  1.00  0.00    -0.273 OA
BRANCH  65  68
ATOM     68  C   UNL A   1      34.166  23.137  25.668  1.00  0.00     0.176 C 
ATOM     69  C   UNL A   1      35.085  24.257  25.191  1.00  0.00     0.036 C 
ATOM     70  N   UNL A   1      33.137  22.982  24.618  1.00  0.00    -0.310 N 
ATOM     71  C   UNL A   1      34.250  25.553  25.267  1.00  0.00     0.008 C 
ATOM     72  C   UNL A   1      32.147  24.083  24.669  1.00  0.00     0.091 C 
ATOM     73  C   UNL A   1      32.891  25.446  24.519  1.00  0.00     0.012 C 
ATOM     74  C   UNL A   1      31.199  23.926  25.876  1.00  0.00     0.025 C 
ATOM     75  C   UNL A   1      31.961  26.610  24.870  1.00  0.00     0.006 C 
ATOM     76  C   UNL A   1      30.562  25.196  26.432  1.00  0.00     0.002 C 
ATOM     77  C   UNL A   1      31.370  26.474  26.266  1.00  0.00     0.000 C 
BRANCH  70  78
ATOM     78  C   UNL A   1      33.283  22.352  23.402  1.00  0.00     0.318 C 
ATOM     79  O   UNL A   1      33.642  22.971  22.391  1.00  0.00    -0.249 OA
ATOM     80  N   UNL A   1      33.097  21.028  23.192  1.00  0.00    -0.335 N 
ATOM     81  H   UNL A   1      33.507  20.726  22.347  1.00  0.00     0.165 HD
BRANCH  80  82
ATOM     82  C   UNL A   1      32.462  19.966  23.886  1.00  0.00     0.084 C 
ATOM     83  C   UNL A   1      32.350  18.603  23.240  1.00  0.00     0.027 C 
ATOM     84  C   UNL A   1      33.247  18.798  24.421  1.00  0.00     0.027 C 
ENDBRANCH  80  82
ENDBRANCH  70  78
ENDBRANCH  65  68
ENDBRANCH  63  64
ENDBRANCH   1  63
TORSDOF 12
ENDMDL
MODEL 2
REMARK VINA RESULT:     -11.8      4.398      9.086
REMARK SMILES O=C(NCCCNC(=O)[C@H]1CC[C@@H]2CCCC[C@@H]2N1C(=O)NC1CC1)c1ccc(-c2c3nc(c(-c4c(F)cccc4F)c4ccc([nH]4)c(-c4c(F)cccc4F)c4nc(c(-c5c(F)cccc5F)c5ccc2[nH]5)C=C4)C=C3)cc1
REMARK SMILES IDX 5 1 4 2 3 3 1 4 2 5 26 7 27 8 79 9 28 10 78 11 29 12 30 13
REMARK SMILES IDX 31 14 72 15 32 16 77 17 71 18 73 19 33 20 76 21 70 22 69 23
REMARK SMILES IDX 34 25 60 26 43 27 59 28 44 29 47 30 58 31 74 32 45 33 46 34
REMARK SMILES IDX 57 36 75 37 48 38 35 39 36 40 41 41 37 42 38 43 40 44 42 45
REMARK SMILES IDX 39 46 61 47 62 48 67 49 63 50 64 51 66 52 68 53 65 54 49 55
REMARK SMILES IDX 50 56 55 57 51 58 52 59 54 60 56 61 53 62 6 63 7 64 8 65
REMARK SMILES IDX 9 67 10 68 11 69 19 70 12 71 18 72 13 73 17 74 14 75 16 76
REMARK SMILES IDX 15 77 20 78 21 79 22 80 23 82 24 83 25 84
REMARK H PARENT 3 6 73 24 47 35 7 66 22 81
REMARK Flexibility Score: inf
ROOT
ATOM      1  C   UNL A   1      31.962  30.409  25.629  1.00  0.00     0.042 C 
ENDROOT
BRANCH   1   2
ATOM      2  C   UNL A   1      31.916  30.968  27.042  1.00  0.00     0.118 C 
BRANCH   2   3
ATOM      3  N   UNL A   1      31.871  32.422  27.075  1.00  0.00    -0.352 N 
ATOM      4  O   UNL A   1      32.498  34.504  27.693  1.00  0.00    -0.269 OA
ATOM      5  C   UNL A   1      32.771  33.311  27.617  1.00  0.00     0.251 C 
ATOM      6  H   UNL A   1      31.082  32.830  26.648  1.00  0.00     0.163 HD
BRANCH   5   7
ATOM      7  C   UNL A   1      34.056  32.805  28.145  1.00  0.00     0.039 A 
ATOM      8  C   UNL A   1      34.156  31.485  28.575  1.00  0.00     0.014 A 
ATOM      9  C   UNL A   1      35.151  33.664  28.258  1.00  0.00     0.014 A 
ATOM     10  C   UNL A   1      35.250  31.097  29.330  1.00  0.00     0.010 A 
ATOM     11  C   UNL A   1      36.321  33.216  28.881  1.00  0.00     0.010 A 
ATOM     12  C   UNL A   1      36.365  31.940  29.461  1.00  0.00    -0.014 A 
BRANCH  12  13
ATOM     13  C   UNL A   1      37.572  31.402  30.144  1.00  0.00     0.031 A 
ATOM     14  C   UNL A   1      37.849  31.664  31.598  1.00  0.00     0.074 A 
ATOM     15  C   UNL A   1      38.381  30.588  29.436  1.00  0.00     0.049 A 
ATOM     16  N   UNL A   1      38.831  31.212  32.338  1.00  0.00    -0.248 NA
ATOM     17  C   UNL A   1      36.923  32.552  32.317  1.00  0.00     0.031 C 
ATOM     18  C   UNL A   1      38.225  30.280  28.010  1.00  0.00     0.029 A 
ATOM     19  N   UNL A   1      39.456  29.828  29.818  1.00  0.00    -0.354 N 
ATOM     20  C   UNL A   1      38.660  31.780  33.594  1.00  0.00     0.074 A 
ATOM     21  C   UNL A   1      37.487  32.624  33.516  1.00  0.00     0.031 C 
ATOM     22  C   UNL A   1      39.097  29.327  27.664  1.00  0.00     0.029 A 
ATOM     23  C   UNL A   1      39.939  29.025  28.813  1.00  0.00     0.049 A 
ATOM     24  H   UNL A   1      39.844  29.856  30.722  1.00  0.00     0.167 HD
ATOM     25  C   UNL A   1      39.414  31.609  34.708  1.00  0.00     0.037 A 
ATOM     26  C   UNL A   1      40.959  28.149  28.805  1.00  0.00     0.037 A 
ATOM     27  C   UNL A   1      40.568  30.747  34.782  1.00  0.00     0.049 A 
ATOM     28  C   UNL A   1      41.756  27.963  30.058  1.00  0.00     0.074 A 
ATOM     29  C   UNL A   1      41.399  30.508  35.863  1.00  0.00     0.029 A 
ATOM     30  N   UNL A   1      41.045  29.973  33.735  1.00  0.00    -0.354 N 
ATOM     31  N   UNL A   1      41.588  28.524  31.231  1.00  0.00    -0.248 NA
ATOM     32  C   UNL A   1      42.891  27.036  29.986  1.00  0.00     0.031 C 
ATOM     33  C   UNL A   1      42.395  29.611  35.463  1.00  0.00     0.029 A 
ATOM     34  C   UNL A   1      42.162  29.261  34.143  1.00  0.00     0.049 A 
ATOM     35  H   UNL A   1      40.649  29.934  32.835  1.00  0.00     0.167 HD
ATOM     36  C   UNL A   1      42.604  28.030  32.033  1.00  0.00     0.074 A 
ATOM     37  C   UNL A   1      43.354  27.088  31.226  1.00  0.00     0.031 C 
ATOM     38  C   UNL A   1      42.902  28.341  33.318  1.00  0.00     0.037 A 
BRANCH  25  39
ATOM     39  C   UNL A   1      39.028  32.378  35.938  1.00  0.00     0.057 A 
ATOM     40  C   UNL A   1      39.435  33.702  36.141  1.00  0.00     0.134 A 
ATOM     41  C   UNL A   1      38.184  31.808  36.901  1.00  0.00     0.134 A 
ATOM     42  F   UNL A   1      40.254  34.303  35.264  1.00  0.00    -0.206 F 
ATOM     43  C   UNL A   1      39.027  34.429  37.261  1.00  0.00     0.040 A 
ATOM     44  C   UNL A   1      37.752  32.531  38.014  1.00  0.00     0.040 A 
ATOM     45  F   UNL A   1      37.752  30.545  36.765  1.00  0.00    -0.206 F 
ATOM     46  C   UNL A   1      38.174  33.845  38.198  1.00  0.00     0.006 A 
ENDBRANCH  25  39
BRANCH  26  47
ATOM     47  C   UNL A   1      41.291  27.415  27.560  1.00  0.00     0.057 A 
ATOM     48  C   UNL A   1      42.133  27.969  26.589  1.00  0.00     0.134 A 
ATOM     49  C   UNL A   1      40.792  26.128  27.322  1.00  0.00     0.134 A 
ATOM     50  F   UNL A   1      42.630  29.204  26.753  1.00  0.00    -0.206 F 
ATOM     51  C   UNL A   1      42.459  27.275  25.424  1.00  0.00     0.040 A 
ATOM     52  C   UNL A   1      41.134  25.410  26.177  1.00  0.00     0.040 A 
ATOM     53  F   UNL A   1      39.989  25.536  28.221  1.00  0.00    -0.206 F 
ATOM     54  C   UNL A   1      41.964  25.987  25.220  1.00  0.00     0.006 A 
ENDBRANCH  26  47
BRANCH  38  55
ATOM     55  C   UNL A   1      44.092  27.652  33.910  1.00  0.00     0.057 A 
ATOM     56  C   UNL A   1      43.974  26.415  34.555  1.00  0.00     0.134 A 
ATOM     57  C   UNL A   1      45.362  28.235  33.846  1.00  0.00     0.134 A 
ATOM     58  F   UNL A   1      42.779  25.816  34.664  1.00  0.00    -0.206 F 
ATOM     59  C   UNL A   1      45.076  25.793  35.144  1.00  0.00     0.040 A 
ATOM     60  C   UNL A   1      46.476  27.612  34.411  1.00  0.00     0.040 A 
ATOM     61  F   UNL A   1      45.541  29.418  33.239  1.00  0.00    -0.206 F 
ATOM     62  C   UNL A   1      46.332  26.392  35.071  1.00  0.00     0.006 A 
ENDBRANCH  38  55
ENDBRANCH  12  13
ENDBRANCH   5   7
ENDBRANCH   2   3
ENDBRANCH   1   2
BRANCH   1  63
ATOM     63  C   UNL A   1      33.279  29.711  25.345  1.00  0.00     0.117 C 
BRANCH  63  64
ATOM     64  N   UNL A   1      33.383  29.392  23.935  1.00  0.00    -0.354 N 
ATOM     65  C   UNL A   1      33.609  28.205  23.326  1.00  0.00     0.242 C 
ATOM     66  H   UNL A   1      33.270  30.157  23.326  1.00  0.00     0.163 HD
ATOM     67  O   UNL A   1      34.141  28.280  22.211  1.00  0.00    -0.273 OA
BRANCH  65  68
ATOM     68  C   UNL A   1      33.414  26.865  24.034  1.00  0.00     0.176 C 
ATOM     69  C   UNL A   1      33.981  26.474  25.395  1.00  0.00     0.036 C 
ATOM     70  N   UNL A   1      32.069  26.255  23.966  1.00  0.00    -0.310 N 
ATOM     71  C   UNL A   1      34.244  24.955  25.325  1.00  0.00     0.008 C 
ATOM     72  C   UNL A   1      32.154  24.795  23.731  1.00  0.00     0.091 C 
ATOM     73  C   UNL A   1      32.999  24.143  24.867  1.00  0.00     0.012 C 
ATOM     74  C   UNL A   1      32.568  24.486  22.277  1.00  0.00     0.025 C 
ATOM     75  C   UNL A   1      33.369  22.701  24.506  1.00  0.00     0.006 C 
ATOM     76  C   UNL A   1      33.275  23.159  22.020  1.00  0.00     0.002 C 
ATOM     77  C   UNL A   1      34.101  22.611  23.174  1.00  0.00     0.000 C 
BRANCH  70  78
ATOM     78  C   UNL A   1      30.921  26.707  24.579  1.00  0.00     0.318 C 
ATOM     79  O   UNL A   1      30.590  26.308  25.704  1.00  0.00    -0.249 OA
ATOM     80  N   UNL A   1      30.082  27.633  24.060  1.00  0.00    -0.335 N 
ATOM     81  H   UNL A   1      29.489  28.019  24.746  1.00  0.00     0.165 HD
BRANCH  80  82
ATOM     82  C   UNL A   1      29.846  28.187  22.776  1.00  0.00     0.084 C 
ATOM     83  C   UNL A   1      28.636  29.063  22.543  1.00  0.00     0.027 C 
ATOM     84  C   UNL A   1      30.006  29.661  22.516  1.00  0.00     0.027 C 
ENDBRANCH  80  82
ENDBRANCH  70  78
ENDBRANCH  65  68
ENDBRANCH  63  64
ENDBRANCH   1  63
TORSDOF 12
ENDMDL
MODEL 3
REMARK VINA RESULT:     -11.7      3.887      8.565
REMARK SMILES O=C(NCCCNC(=O)[C@H]1CC[C@@H]2CCCC[C@@H]2N1C(=O)NC1CC1)c1ccc(-c2c3nc(c(-c4c(F)cccc4F)c4ccc([nH]4)c(-c4c(F)cccc4F)c4nc(c(-c5c(F)cccc5F)c5ccc2[nH]5)C=C4)C=C3)cc1
REMARK SMILES IDX 5 1 4 2 3 3 1 4 2 5 26 7 27 8 79 9 28 10 78 11 29 12 30 13
REMARK SMILES IDX 31 14 72 15 32 16 77 17 71 18 73 19 33 20 76 21 70 22 69 23
REMARK SMILES IDX 34 25 60 26 43 27 59 28 44 29 47 30 58 31 74 32 45 33 46 34
REMARK SMILES IDX 57 36 75 37 48 38 35 39 36 40 41 41 37 42 38 43 40 44 42 45
REMARK SMILES IDX 39 46 61 47 62 48 67 49 63 50 64 51 66 52 68 53 65 54 49 55
REMARK SMILES IDX 50 56 55 57 51 58 52 59 54 60 56 61 53 62 6 63 7 64 8 65
REMARK SMILES IDX 9 67 10 68 11 69 19 70 12 71 18 72 13 73 17 74 14 75 16 76
REMARK SMILES IDX 15 77 20 78 21 79 22 80 23 82 24 83 25 84
REMARK H PARENT 3 6 73 24 47 35 7 66 22 81
REMARK Flexibility Score: inf
ROOT
ATOM      1  C   UNL A   1      32.859  28.932  24.378  1.00  0.00     0.042 C 
ENDROOT
BRANCH   1   2
ATOM      2  C   UNL A   1      32.652  29.170  25.866  1.00  0.00     0.118 C 
BRANCH   2   3
ATOM      3  N   UNL A   1      32.205  30.521  26.167  1.00  0.00    -0.352 N 
ATOM      4  O   UNL A   1      32.178  32.505  27.251  1.00  0.00    -0.269 OA
ATOM      5  C   UNL A   1      32.775  31.466  26.990  1.00  0.00     0.251 C 
ATOM      6  H   UNL A   1      31.374  30.801  25.717  1.00  0.00     0.163 HD
BRANCH   5   7
ATOM      7  C   UNL A   1      34.099  31.196  27.589  1.00  0.00     0.039 A 
ATOM      8  C   UNL A   1      34.429  29.905  27.988  1.00  0.00     0.014 A 
ATOM      9  C   UNL A   1      34.996  32.246  27.799  1.00  0.00     0.014 A 
ATOM     10  C   UNL A   1      35.530  29.705  28.804  1.00  0.00     0.010 A 
ATOM     11  C   UNL A   1      36.192  32.008  28.487  1.00  0.00     0.010 A 
ATOM     12  C   UNL A   1      36.449  30.742  29.034  1.00  0.00    -0.014 A 
BRANCH  12  13
ATOM     13  C   UNL A   1      37.694  30.419  29.781  1.00  0.00     0.031 A 
ATOM     14  C   UNL A   1      37.889  30.822  31.216  1.00  0.00     0.074 A 
ATOM     15  C   UNL A   1      38.623  29.669  29.156  1.00  0.00     0.049 A 
ATOM     16  N   UNL A   1      38.898  30.560  32.009  1.00  0.00    -0.248 NA
ATOM     17  C   UNL A   1      36.833  31.632  31.845  1.00  0.00     0.031 C 
ATOM     18  C   UNL A   1      38.552  29.238  27.754  1.00  0.00     0.029 A 
ATOM     19  N   UNL A   1      39.775  29.088  29.617  1.00  0.00    -0.354 N 
ATOM     20  C   UNL A   1      38.616  31.192  33.213  1.00  0.00     0.074 A 
ATOM     21  C   UNL A   1      37.346  31.866  33.046  1.00  0.00     0.031 C 
ATOM     22  C   UNL A   1      39.551  28.386  27.502  1.00  0.00     0.029 A 
ATOM     23  C   UNL A   1      40.389  28.283  28.688  1.00  0.00     0.049 A 
ATOM     24  H   UNL A   1      40.128  29.234  30.525  1.00  0.00     0.167 HD
ATOM     25  C   UNL A   1      39.351  31.204  34.353  1.00  0.00     0.037 A 
ATOM     26  C   UNL A   1      41.515  27.552  28.770  1.00  0.00     0.037 A 
ATOM     27  C   UNL A   1      40.604  30.511  34.518  1.00  0.00     0.049 A 
ATOM     28  C   UNL A   1      42.289  27.566  30.050  1.00  0.00     0.074 A 
ATOM     29  C   UNL A   1      41.425  30.464  35.632  1.00  0.00     0.029 A 
ATOM     30  N   UNL A   1      41.210  29.731  33.544  1.00  0.00    -0.354 N 
ATOM     31  N   UNL A   1      42.014  28.185  31.172  1.00  0.00    -0.248 NA
ATOM     32  C   UNL A   1      43.537  26.794  30.073  1.00  0.00     0.031 C 
ATOM     33  C   UNL A   1      42.541  29.679  35.323  1.00  0.00     0.029 A 
ATOM     34  C   UNL A   1      42.397  29.205  34.029  1.00  0.00     0.049 A 
ATOM     35  H   UNL A   1      40.850  29.574  32.641  1.00  0.00     0.167 HD
ATOM     36  C   UNL A   1      43.060  27.890  32.031  1.00  0.00     0.074 A 
ATOM     37  C   UNL A   1      43.950  26.998  31.315  1.00  0.00     0.031 C 
ATOM     38  C   UNL A   1      43.275  28.332  33.294  1.00  0.00     0.037 A 
BRANCH  25  39
ATOM     39  C   UNL A   1      38.830  32.005  35.512  1.00  0.00     0.057 A 
ATOM     40  C   UNL A   1      38.153  31.405  36.580  1.00  0.00     0.134 A 
ATOM     41  C   UNL A   1      39.068  33.384  35.591  1.00  0.00     0.134 A 
ATOM     42  F   UNL A   1      37.882  30.090  36.561  1.00  0.00    -0.206 F 
ATOM     43  C   UNL A   1      37.721  32.147  37.681  1.00  0.00     0.040 A 
ATOM     44  C   UNL A   1      38.659  34.133  36.696  1.00  0.00     0.040 A 
ATOM     45  F   UNL A   1      39.717  34.020  34.605  1.00  0.00    -0.206 F 
ATOM     46  C   UNL A   1      37.982  33.515  37.745  1.00  0.00     0.006 A 
ENDBRANCH  25  39
BRANCH  26  47
ATOM     47  C   UNL A   1      41.978  26.778  27.592  1.00  0.00     0.057 A 
ATOM     48  C   UNL A   1      41.651  25.427  27.434  1.00  0.00     0.134 A 
ATOM     49  C   UNL A   1      42.739  27.380  26.582  1.00  0.00     0.134 A 
ATOM     50  F   UNL A   1      40.937  24.791  28.375  1.00  0.00    -0.206 F 
ATOM     51  C   UNL A   1      42.072  24.700  26.320  1.00  0.00     0.040 A 
ATOM     52  C   UNL A   1      43.141  26.674  25.449  1.00  0.00     0.040 A 
ATOM     53  F   UNL A   1      43.075  28.676  26.669  1.00  0.00    -0.206 F 
ATOM     54  C   UNL A   1      42.813  25.327  25.319  1.00  0.00     0.006 A 
ENDBRANCH  26  47
BRANCH  38  55
ATOM     55  C   UNL A   1      44.526  27.852  33.962  1.00  0.00     0.057 A 
ATOM     56  C   UNL A   1      45.721  28.577  33.885  1.00  0.00     0.134 A 
ATOM     57  C   UNL A   1      44.539  26.650  34.678  1.00  0.00     0.134 A 
ATOM     58  F   UNL A   1      45.775  29.728  33.198  1.00  0.00    -0.206 F 
ATOM     59  C   UNL A   1      46.896  28.108  34.471  1.00  0.00     0.040 A 
ATOM     60  C   UNL A   1      45.703  26.180  35.289  1.00  0.00     0.040 A 
ATOM     61  F   UNL A   1      43.424  25.911  34.791  1.00  0.00    -0.206 F 
ATOM     62  C   UNL A   1      46.888  26.906  35.178  1.00  0.00     0.006 A 
ENDBRANCH  38  55
ENDBRANCH  12  13
ENDBRANCH   5   7
ENDBRANCH   2   3
ENDBRANCH   1   2
BRANCH   1  63
ATOM     63  C   UNL A   1      33.941  27.900  24.119  1.00  0.00     0.117 C 
BRANCH  63  64
ATOM     64  N   UNL A   1      33.540  27.013  23.046  1.00  0.00    -0.354 N 
ATOM     65  C   UNL A   1      33.556  25.661  22.983  1.00  0.00     0.242 C 
ATOM     66  H   UNL A   1      33.204  27.464  22.237  1.00  0.00     0.163 HD
ATOM     67  O   UNL A   1      33.653  25.191  21.843  1.00  0.00    -0.273 OA
BRANCH  65  68
ATOM     68  C   UNL A   1      33.651  24.780  24.227  1.00  0.00     0.176 C 
ATOM     69  C   UNL A   1      34.724  24.861  25.308  1.00  0.00     0.036 C 
ATOM     70  N   UNL A   1      32.389  24.467  24.930  1.00  0.00    -0.310 N 
ATOM     71  C   UNL A   1      34.912  23.419  25.828  1.00  0.00     0.008 C 
ATOM     72  C   UNL A   1      32.348  23.048  25.353  1.00  0.00     0.091 C 
ATOM     73  C   UNL A   1      33.578  22.751  26.264  1.00  0.00     0.012 C 
ATOM     74  C   UNL A   1      32.121  22.112  24.147  1.00  0.00     0.025 C 
ATOM     75  C   UNL A   1      33.745  21.243  26.472  1.00  0.00     0.006 C 
ATOM     76  C   UNL A   1      32.641  20.683  24.267  1.00  0.00     0.002 C 
ATOM     77  C   UNL A   1      33.861  20.490  25.154  1.00  0.00     0.000 C 
BRANCH  70  78
ATOM     78  C   UNL A   1      31.604  25.339  25.651  1.00  0.00     0.318 C 
ATOM     79  O   UNL A   1      31.738  25.469  26.875  1.00  0.00    -0.249 OA
ATOM     80  N   UNL A   1      30.663  26.152  25.117  1.00  0.00    -0.335 N 
ATOM     81  H   UNL A   1      30.410  26.879  25.732  1.00  0.00     0.165 HD
BRANCH  80  82
ATOM     82  C   UNL A   1      29.952  26.218  23.892  1.00  0.00     0.084 C 
ATOM     83  C   UNL A   1      28.519  26.703  23.876  1.00  0.00     0.027 C 
ATOM     84  C   UNL A   1      29.596  27.538  23.261  1.00  0.00     0.027 C 
ENDBRANCH  80  82
ENDBRANCH  70  78
ENDBRANCH  65  68
ENDBRANCH  63  64
ENDBRANCH   1  63
TORSDOF 12
ENDMDL
