MODEL 1
REMARK VINA RESULT:     -12.1      0.000      0.000
REMARK SMILES Cc1cc2[nH]ccc2nc1C(=O)NCCCNC(=O)c1ccc(-c2c3nc(c(-c4c(F)cccc4F)c4ccc([nH]4)c(-c4c(F)cccc4F)c4nc(c(-c5c(F)cccc5F)c5ccc2[nH]5)C=C4)C=C3)cc1
REMARK SMILES IDX 16 1 15 2 14 3 13 4 11 5 12 6 10 8 1 9 2 10 3 11 4 12 9 13
REMARK SMILES IDX 5 14 8 15 6 16 7 18 17 19 18 20 19 22 20 23 21 24 73 25
REMARK SMILES IDX 22 26 72 27 23 28 24 29 25 30 66 31 26 32 71 33 65 34 67 35
REMARK SMILES IDX 27 36 70 37 64 38 63 39 28 41 54 42 37 43 53 44 38 45 41 46
REMARK SMILES IDX 52 47 68 48 39 49 40 50 51 52 69 53 42 54 29 55 30 56 35 57
REMARK SMILES IDX 31 58 32 59 34 60 36 61 33 62 55 63 56 64 61 65 57 66 58 67
REMARK SMILES IDX 60 68 62 69 59 70 43 71 44 72 49 73 45 74 46 75 48 76 50 77
REMARK SMILES IDX 47 78
REMARK H PARENT 13 7 5 17 17 21 67 40 41 51
REMARK Flexibility Score: inf
ROOT
ATOM      1  C   UNL A   1      35.317  29.329  27.440  1.00  0.00     0.118 C 
ENDROOT
BRANCH   1   2
ATOM      2  C   UNL A   1      33.874  28.951  27.197  1.00  0.00     0.042 C 
BRANCH   2   3
ATOM      3  C   UNL A   1      33.379  29.424  25.827  1.00  0.00     0.118 C 
BRANCH   3   4
ATOM      4  N   UNL A   1      33.480  28.392  24.829  1.00  0.00    -0.351 N 
ATOM      5  C   UNL A   1      32.658  27.824  23.893  1.00  0.00     0.270 C 
ATOM      6  O   UNL A   1      33.288  27.035  23.167  1.00  0.00    -0.268 OA
ATOM      7  H   UNL A   1      34.378  27.988  24.816  1.00  0.00     0.163 HD
BRANCH   5   8
ATOM      8  C   UNL A   1      31.156  28.007  23.640  1.00  0.00     0.131 A 
ATOM      9  C   UNL A   1      30.003  25.915  24.716  1.00  0.00     0.047 C 
ATOM     10  C   UNL A   1      30.041  27.200  23.963  1.00  0.00    -0.018 A 
ATOM     11  C   UNL A   1      28.759  27.581  23.502  1.00  0.00     0.034 A 
ATOM     12  C   UNL A   1      28.668  28.726  22.737  1.00  0.00     0.064 A 
ATOM     13  N   UNL A   1      31.012  29.156  22.919  1.00  0.00    -0.241 NA
ATOM     14  N   UNL A   1      27.604  29.327  22.116  1.00  0.00    -0.360 N 
ATOM     15  C   UNL A   1      29.790  29.483  22.470  1.00  0.00     0.089 A 
ATOM     16  C   UNL A   1      28.029  30.454  21.460  1.00  0.00     0.085 A 
ATOM     17  H   UNL A   1      26.675  29.000  22.137  1.00  0.00     0.166 HD
ATOM     18  C   UNL A   1      29.386  30.577  21.673  1.00  0.00     0.048 A 
ENDBRANCH   5   8
ENDBRANCH   3   4
ENDBRANCH   2   3
ENDBRANCH   1   2
BRANCH   1  19
ATOM     19  N   UNL A   1      35.513  29.786  28.818  1.00  0.00    -0.352 N 
ATOM     20  C   UNL A   1      36.536  29.482  29.694  1.00  0.00     0.251 C 
ATOM     21  H   UNL A   1      34.821  30.394  29.167  1.00  0.00     0.163 HD
ATOM     22  O   UNL A   1      36.405  29.642  30.894  1.00  0.00    -0.269 OA
BRANCH  20  23
ATOM     23  C   UNL A   1      37.785  28.948  29.129  1.00  0.00     0.039 A 
ATOM     24  C   UNL A   1      38.385  29.533  28.017  1.00  0.00     0.014 A 
ATOM     25  C   UNL A   1      38.397  27.901  29.810  1.00  0.00     0.014 A 
ATOM     26  C   UNL A   1      39.659  29.103  27.663  1.00  0.00     0.010 A 
ATOM     27  C   UNL A   1      39.727  27.662  29.614  1.00  0.00     0.010 A 
ATOM     28  C   UNL A   1      40.343  28.193  28.495  1.00  0.00    -0.014 A 
BRANCH  28  29
ATOM     29  C   UNL A   1      41.754  27.898  28.287  1.00  0.00     0.031 A 
ATOM     30  C   UNL A   1      41.965  26.647  27.522  1.00  0.00     0.074 A 
ATOM     31  C   UNL A   1      42.768  28.730  28.615  1.00  0.00     0.049 A 
ATOM     32  N   UNL A   1      42.243  25.489  28.019  1.00  0.00    -0.248 NA
ATOM     33  C   UNL A   1      41.604  26.608  26.095  1.00  0.00     0.031 C 
ATOM     34  C   UNL A   1      42.705  30.116  29.097  1.00  0.00     0.029 A 
ATOM     35  N   UNL A   1      44.111  28.516  28.527  1.00  0.00    -0.354 N 
ATOM     36  C   UNL A   1      42.370  24.635  26.932  1.00  0.00     0.074 A 
ATOM     37  C   UNL A   1      41.742  25.306  25.827  1.00  0.00     0.031 C 
ATOM     38  C   UNL A   1      43.932  30.682  29.045  1.00  0.00     0.029 A 
ATOM     39  C   UNL A   1      44.897  29.652  28.716  1.00  0.00     0.049 A 
ATOM     40  H   UNL A   1      44.496  27.629  28.344  1.00  0.00     0.167 HD
ATOM     41  C   UNL A   1      43.270  23.614  26.986  1.00  0.00     0.037 A 
ATOM     42  C   UNL A   1      46.249  29.727  28.632  1.00  0.00     0.037 A 
ATOM     43  C   UNL A   1      43.696  23.397  28.352  1.00  0.00     0.049 A 
ATOM     44  C   UNL A   1      46.759  28.353  28.826  1.00  0.00     0.074 A 
ATOM     45  C   UNL A   1      43.085  23.052  29.540  1.00  0.00     0.029 A 
ATOM     46  N   UNL A   1      44.902  23.962  28.686  1.00  0.00    -0.354 N 
ATOM     47  N   UNL A   1      46.680  27.701  29.952  1.00  0.00    -0.248 NA
ATOM     48  C   UNL A   1      46.979  27.539  27.642  1.00  0.00     0.031 C 
ATOM     49  C   UNL A   1      43.779  23.787  30.547  1.00  0.00     0.029 A 
ATOM     50  C   UNL A   1      44.830  24.483  29.945  1.00  0.00     0.049 A 
ATOM     51  H   UNL A   1      45.697  23.986  28.106  1.00  0.00     0.167 HD
ATOM     52  C   UNL A   1      46.388  26.400  29.578  1.00  0.00     0.074 A 
ATOM     53  C   UNL A   1      46.711  26.336  28.154  1.00  0.00     0.031 C 
ATOM     54  C   UNL A   1      45.634  25.602  30.389  1.00  0.00     0.037 A 
BRANCH  41  55
ATOM     55  C   UNL A   1      44.146  23.188  25.823  1.00  0.00     0.057 A 
ATOM     56  C   UNL A   1      44.275  21.811  25.558  1.00  0.00     0.134 A 
ATOM     57  C   UNL A   1      45.106  24.005  25.191  1.00  0.00     0.134 A 
ATOM     58  F   UNL A   1      43.428  20.922  26.101  1.00  0.00    -0.206 F 
ATOM     59  C   UNL A   1      45.339  21.282  24.818  1.00  0.00     0.040 A 
ATOM     60  C   UNL A   1      46.144  23.490  24.410  1.00  0.00     0.040 A 
ATOM     61  F   UNL A   1      45.165  25.328  25.366  1.00  0.00    -0.206 F 
ATOM     62  C   UNL A   1      46.287  22.122  24.252  1.00  0.00     0.006 A 
ENDBRANCH  41  55
BRANCH  42  63
ATOM     63  C   UNL A   1      47.127  30.810  28.129  1.00  0.00     0.057 A 
ATOM     64  C   UNL A   1      46.902  31.396  26.872  1.00  0.00     0.134 A 
ATOM     65  C   UNL A   1      47.983  31.517  28.991  1.00  0.00     0.134 A 
ATOM     66  F   UNL A   1      46.073  30.818  25.991  1.00  0.00    -0.206 F 
ATOM     67  C   UNL A   1      47.453  32.634  26.511  1.00  0.00     0.040 A 
ATOM     68  C   UNL A   1      48.543  32.752  28.642  1.00  0.00     0.040 A 
ATOM     69  F   UNL A   1      48.222  31.077  30.235  1.00  0.00    -0.206 F 
ATOM     70  C   UNL A   1      48.263  33.326  27.406  1.00  0.00     0.006 A 
ENDBRANCH  42  63
BRANCH  54  71
ATOM     71  C   UNL A   1      45.455  26.009  31.824  1.00  0.00     0.057 A 
ATOM     72  C   UNL A   1      44.328  26.667  32.335  1.00  0.00     0.134 A 
ATOM     73  C   UNL A   1      46.388  25.528  32.752  1.00  0.00     0.134 A 
ATOM     74  F   UNL A   1      43.351  27.105  31.530  1.00  0.00    -0.206 F 
ATOM     75  C   UNL A   1      44.139  26.833  33.713  1.00  0.00     0.040 A 
ATOM     76  C   UNL A   1      46.195  25.658  34.127  1.00  0.00     0.040 A 
ATOM     77  F   UNL A   1      47.472  24.858  32.331  1.00  0.00    -0.206 F 
ATOM     78  C   UNL A   1      45.066  26.312  34.613  1.00  0.00     0.006 A 
ENDBRANCH  54  71
ENDBRANCH  28  29
ENDBRANCH  20  23
ENDBRANCH   1  19
TORSDOF 10
ENDMDL
MODEL 2
REMARK VINA RESULT:     -12.1      1.026      1.908
REMARK SMILES Cc1cc2[nH]ccc2nc1C(=O)NCCCNC(=O)c1ccc(-c2c3nc(c(-c4c(F)cccc4F)c4ccc([nH]4)c(-c4c(F)cccc4F)c4nc(c(-c5c(F)cccc5F)c5ccc2[nH]5)C=C4)C=C3)cc1
REMARK SMILES IDX 16 1 15 2 14 3 13 4 11 5 12 6 10 8 1 9 2 10 3 11 4 12 9 13
REMARK SMILES IDX 5 14 8 15 6 16 7 18 17 19 18 20 19 22 20 23 21 24 73 25
REMARK SMILES IDX 22 26 72 27 23 28 24 29 25 30 66 31 26 32 71 33 65 34 67 35
REMARK SMILES IDX 27 36 70 37 64 38 63 39 28 41 54 42 37 43 53 44 38 45 41 46
REMARK SMILES IDX 52 47 68 48 39 49 40 50 51 52 69 53 42 54 29 55 30 56 35 57
REMARK SMILES IDX 31 58 32 59 34 60 36 61 33 62 55 63 56 64 61 65 57 66 58 67
REMARK SMILES IDX 60 68 62 69 59 70 43 71 44 72 49 73 45 74 46 75 48 76 50 77
REMARK SMILES IDX 47 78
REMARK H PARENT 13 7 5 17 17 21 67 40 41 51
REMARK Flexibility Score: inf
ROOT
ATOM      1  C   UNL A   1      35.352  29.440  27.488  1.00  0.00     0.118 C 
ENDROOT
BRANCH   1   2
ATOM      2  C   UNL A   1      33.919  29.040  27.225  1.00  0.00     0.042 C 
BRANCH   2   3
ATOM      3  C   UNL A   1      33.210  30.024  26.289  1.00  0.00     0.118 C 
BRANCH   3   4
ATOM      4  N   UNL A   1      33.367  29.662  24.905  1.00  0.00    -0.351 N 
ATOM      5  C   UNL A   1      32.791  28.777  24.033  1.00  0.00     0.270 C 
ATOM      6  O   UNL A   1      33.210  28.955  22.876  1.00  0.00    -0.268 OA
ATOM      7  H   UNL A   1      34.076  30.189  24.471  1.00  0.00     0.163 HD
BRANCH   5   8
ATOM      8  C   UNL A   1      31.770  27.657  24.274  1.00  0.00     0.131 A 
ATOM      9  C   UNL A   1      29.563  28.456  23.112  1.00  0.00     0.047 C 
ATOM     10  C   UNL A   1      30.411  27.527  23.910  1.00  0.00    -0.018 A 
ATOM     11  C   UNL A   1      29.680  26.406  24.367  1.00  0.00     0.034 A 
ATOM     12  C   UNL A   1      30.338  25.496  25.171  1.00  0.00     0.064 A 
ATOM     13  N   UNL A   1      32.394  26.709  25.032  1.00  0.00    -0.241 NA
ATOM     14  N   UNL A   1      29.910  24.355  25.799  1.00  0.00    -0.360 N 
ATOM     15  C   UNL A   1      31.672  25.668  25.477  1.00  0.00     0.089 A 
ATOM     16  C   UNL A   1      30.950  23.798  26.499  1.00  0.00     0.085 A 
ATOM     17  H   UNL A   1      28.996  23.992  25.755  1.00  0.00     0.166 HD
ATOM     18  C   UNL A   1      32.060  24.593  26.307  1.00  0.00     0.048 A 
ENDBRANCH   5   8
ENDBRANCH   3   4
ENDBRANCH   2   3
ENDBRANCH   1   2
BRANCH   1  19
ATOM     19  N   UNL A   1      35.531  29.862  28.880  1.00  0.00    -0.352 N 
ATOM     20  C   UNL A   1      36.521  29.505  29.773  1.00  0.00     0.251 C 
ATOM     21  H   UNL A   1      34.851  30.486  29.226  1.00  0.00     0.163 HD
ATOM     22  O   UNL A   1      36.368  29.645  30.973  1.00  0.00    -0.269 OA
BRANCH  20  23
ATOM     23  C   UNL A   1      37.765  28.941  29.226  1.00  0.00     0.039 A 
ATOM     24  C   UNL A   1      38.317  29.417  28.039  1.00  0.00     0.014 A 
ATOM     25  C   UNL A   1      38.422  27.984  29.992  1.00  0.00     0.014 A 
ATOM     26  C   UNL A   1      39.588  28.978  27.690  1.00  0.00     0.010 A 
ATOM     27  C   UNL A   1      39.752  27.753  29.778  1.00  0.00     0.010 A 
ATOM     28  C   UNL A   1      40.319  28.176  28.590  1.00  0.00    -0.014 A 
BRANCH  28  29
ATOM     29  C   UNL A   1      41.730  27.889  28.367  1.00  0.00     0.031 A 
ATOM     30  C   UNL A   1      41.941  26.645  27.591  1.00  0.00     0.074 A 
ATOM     31  C   UNL A   1      42.742  28.725  28.692  1.00  0.00     0.049 A 
ATOM     32  N   UNL A   1      42.230  25.486  28.079  1.00  0.00    -0.248 NA
ATOM     33  C   UNL A   1      41.567  26.614  26.168  1.00  0.00     0.031 C 
ATOM     34  C   UNL A   1      42.677  30.107  29.184  1.00  0.00     0.029 A 
ATOM     35  N   UNL A   1      44.086  28.518  28.590  1.00  0.00    -0.354 N 
ATOM     36  C   UNL A   1      42.351  24.639  26.985  1.00  0.00     0.074 A 
ATOM     37  C   UNL A   1      41.710  25.314  25.890  1.00  0.00     0.031 C 
ATOM     38  C   UNL A   1      43.901  30.679  29.124  1.00  0.00     0.029 A 
ATOM     39  C   UNL A   1      44.868  29.657  28.780  1.00  0.00     0.049 A 
ATOM     40  H   UNL A   1      44.474  27.634  28.398  1.00  0.00     0.167 HD
ATOM     41  C   UNL A   1      43.257  23.623  27.024  1.00  0.00     0.037 A 
ATOM     42  C   UNL A   1      46.219  29.740  28.684  1.00  0.00     0.037 A 
ATOM     43  C   UNL A   1      43.697  23.398  28.384  1.00  0.00     0.049 A 
ATOM     44  C   UNL A   1      46.737  28.367  28.864  1.00  0.00     0.074 A 
ATOM     45  C   UNL A   1      43.098  23.043  29.575  1.00  0.00     0.029 A 
ATOM     46  N   UNL A   1      44.902  23.967  28.711  1.00  0.00    -0.354 N 
ATOM     47  N   UNL A   1      46.671  27.707  29.987  1.00  0.00    -0.248 NA
ATOM     48  C   UNL A   1      46.950  27.563  27.673  1.00  0.00     0.031 C 
ATOM     49  C   UNL A   1      43.797  23.774  30.580  1.00  0.00     0.029 A 
ATOM     50  C   UNL A   1      44.838  24.480  29.974  1.00  0.00     0.049 A 
ATOM     51  H   UNL A   1      45.692  24.000  28.124  1.00  0.00     0.167 HD
ATOM     52  C   UNL A   1      46.384  26.407  29.607  1.00  0.00     0.074 A 
ATOM     53  C   UNL A   1      46.694  26.354  28.179  1.00  0.00     0.031 C 
ATOM     54  C   UNL A   1      45.641  25.600  30.418  1.00  0.00     0.037 A 
BRANCH  41  55
ATOM     55  C   UNL A   1      44.124  23.209  25.850  1.00  0.00     0.057 A 
ATOM     56  C   UNL A   1      44.258  21.834  25.574  1.00  0.00     0.134 A 
ATOM     57  C   UNL A   1      45.074  24.035  25.215  1.00  0.00     0.134 A 
ATOM     58  F   UNL A   1      43.421  20.938  26.118  1.00  0.00    -0.206 F 
ATOM     59  C   UNL A   1      45.318  21.316  24.821  1.00  0.00     0.040 A 
ATOM     60  C   UNL A   1      46.108  23.531  24.421  1.00  0.00     0.040 A 
ATOM     61  F   UNL A   1      45.129  25.358  25.399  1.00  0.00    -0.206 F 
ATOM     62  C   UNL A   1      46.256  22.165  24.252  1.00  0.00     0.006 A 
ENDBRANCH  41  55
BRANCH  42  63
ATOM     63  C   UNL A   1      47.087  30.831  28.181  1.00  0.00     0.057 A 
ATOM     64  C   UNL A   1      46.904  31.361  26.892  1.00  0.00     0.134 A 
ATOM     65  C   UNL A   1      47.878  31.597  29.054  1.00  0.00     0.134 A 
ATOM     66  F   UNL A   1      46.137  30.724  25.997  1.00  0.00    -0.206 F 
ATOM     67  C   UNL A   1      47.435  32.602  26.509  1.00  0.00     0.040 A 
ATOM     68  C   UNL A   1      48.416  32.836  28.683  1.00  0.00     0.040 A 
ATOM     69  F   UNL A   1      48.070  31.213  30.324  1.00  0.00    -0.206 F 
ATOM     70  C   UNL A   1      48.178  33.353  27.414  1.00  0.00     0.006 A 
ENDBRANCH  42  63
BRANCH  54  71
ATOM     71  C   UNL A   1      45.473  25.996  31.858  1.00  0.00     0.057 A 
ATOM     72  C   UNL A   1      44.322  26.587  32.397  1.00  0.00     0.134 A 
ATOM     73  C   UNL A   1      46.454  25.571  32.763  1.00  0.00     0.134 A 
ATOM     74  F   UNL A   1      43.302  26.967  31.615  1.00  0.00    -0.206 F 
ATOM     75  C   UNL A   1      44.156  26.742  33.778  1.00  0.00     0.040 A 
ATOM     76  C   UNL A   1      46.287  25.690  34.142  1.00  0.00     0.040 A 
ATOM     77  F   UNL A   1      47.565  24.966  32.315  1.00  0.00    -0.206 F 
ATOM     78  C   UNL A   1      45.134  26.277  34.655  1.00  0.00     0.006 A 
ENDBRANCH  54  71
ENDBRANCH  28  29
ENDBRANCH  20  23
ENDBRANCH   1  19
TORSDOF 10
ENDMDL
MODEL 3
REMARK VINA RESULT:     -12.0      3.864      8.078
REMARK SMILES Cc1cc2[nH]ccc2nc1C(=O)NCCCNC(=O)c1ccc(-c2c3nc(c(-c4c(F)cccc4F)c4ccc([nH]4)c(-c4c(F)cccc4F)c4nc(c(-c5c(F)cccc5F)c5ccc2[nH]5)C=C4)C=C3)cc1
REMARK SMILES IDX 16 1 15 2 14 3 13 4 11 5 12 6 10 8 1 9 2 10 3 11 4 12 9 13
REMARK SMILES IDX 5 14 8 15 6 16 7 18 17 19 18 20 19 22 20 23 21 24 73 25
REMARK SMILES IDX 22 26 72 27 23 28 24 29 25 30 66 31 26 32 71 33 65 34 67 35
REMARK SMILES IDX 27 36 70 37 64 38 63 39 28 41 54 42 37 43 53 44 38 45 41 46
REMARK SMILES IDX 52 47 68 48 39 49 40 50 51 52 69 53 42 54 29 55 30 56 35 57
REMARK SMILES IDX 31 58 32 59 34 60 36 61 33 62 55 63 56 64 61 65 57 66 58 67
REMARK SMILES IDX 60 68 62 69 59 70 43 71 44 72 49 73 45 74 46 75 48 76 50 77
REMARK SMILES IDX 47 78
REMARK H PARENT 13 7 5 17 17 21 67 40 41 51
REMARK Flexibility Score: inf
ROOT
ATOM      1  C   UNL A   1      42.642  19.760  26.736  1.00  0.00     0.118 C 
ENDROOT
BRANCH   1   2
ATOM      2  C   UNL A   1      41.373  20.047  25.968  1.00  0.00     0.042 C 
BRANCH   2   3
ATOM      3  C   UNL A   1      40.285  20.652  26.861  1.00  0.00     0.118 C 
BRANCH   3   4
ATOM      4  N   UNL A   1      39.901  21.970  26.429  1.00  0.00    -0.351 N 
ATOM      5  C   UNL A   1      38.749  22.595  26.035  1.00  0.00     0.270 C 
ATOM      6  O   UNL A   1      38.933  23.816  25.885  1.00  0.00    -0.268 OA
ATOM      7  H   UNL A   1      40.671  22.584  26.411  1.00  0.00     0.163 HD
BRANCH   5   8
ATOM      8  C   UNL A   1      37.349  22.030  25.758  1.00  0.00     0.131 A 
ATOM      9  C   UNL A   1      37.741  19.641  24.759  1.00  0.00     0.047 C 
ATOM     10  C   UNL A   1      36.921  20.803  25.203  1.00  0.00    -0.018 A 
ATOM     11  C   UNL A   1      35.542  20.597  24.970  1.00  0.00     0.034 A 
ATOM     12  C   UNL A   1      34.678  21.627  25.284  1.00  0.00     0.064 A 
ATOM     13  N   UNL A   1      36.455  23.004  26.097  1.00  0.00    -0.241 NA
ATOM     14  N   UNL A   1      33.321  21.757  25.139  1.00  0.00    -0.360 N 
ATOM     15  C   UNL A   1      35.154  22.796  25.841  1.00  0.00     0.089 A 
ATOM     16  C   UNL A   1      32.925  22.988  25.596  1.00  0.00     0.085 A 
ATOM     17  H   UNL A   1      32.721  21.071  24.765  1.00  0.00     0.166 HD
ATOM     18  C   UNL A   1      34.048  23.650  26.046  1.00  0.00     0.048 A 
ENDBRANCH   5   8
ENDBRANCH   3   4
ENDBRANCH   2   3
ENDBRANCH   1   2
BRANCH   1  19
ATOM     19  N   UNL A   1      43.748  19.455  25.823  1.00  0.00    -0.352 N 
ATOM     20  C   UNL A   1      44.456  20.312  25.004  1.00  0.00     0.251 C 
ATOM     21  H   UNL A   1      44.023  18.510  25.791  1.00  0.00     0.163 HD
ATOM     22  O   UNL A   1      45.101  19.891  24.061  1.00  0.00    -0.269 OA
BRANCH  20  23
ATOM     23  C   UNL A   1      44.397  21.750  25.304  1.00  0.00     0.039 A 
ATOM     24  C   UNL A   1      43.528  22.598  24.622  1.00  0.00     0.014 A 
ATOM     25  C   UNL A   1      45.168  22.214  26.365  1.00  0.00     0.014 A 
ATOM     26  C   UNL A   1      43.382  23.898  25.092  1.00  0.00     0.010 A 
ATOM     27  C   UNL A   1      44.839  23.395  26.966  1.00  0.00     0.010 A 
ATOM     28  C   UNL A   1      44.012  24.277  26.295  1.00  0.00    -0.014 A 
BRANCH  28  29
ATOM     29  C   UNL A   1      43.702  25.546  26.939  1.00  0.00     0.031 A 
ATOM     30  C   UNL A   1      44.661  26.616  26.578  1.00  0.00     0.074 A 
ATOM     31  C   UNL A   1      42.587  25.784  27.667  1.00  0.00     0.049 A 
ATOM     32  N   UNL A   1      45.669  27.002  27.284  1.00  0.00    -0.248 NA
ATOM     33  C   UNL A   1      44.656  27.152  25.207  1.00  0.00     0.031 C 
ATOM     34  C   UNL A   1      41.411  24.926  27.861  1.00  0.00     0.029 A 
ATOM     35  N   UNL A   1      42.244  26.905  28.363  1.00  0.00    -0.354 N 
ATOM     36  C   UNL A   1      46.259  28.031  26.562  1.00  0.00     0.074 A 
ATOM     37  C   UNL A   1      45.754  27.914  25.222  1.00  0.00     0.031 C 
ATOM     38  C   UNL A   1      40.407  25.636  28.426  1.00  0.00     0.029 A 
ATOM     39  C   UNL A   1      40.925  26.932  28.814  1.00  0.00     0.049 A 
ATOM     40  H   UNL A   1      42.878  27.638  28.533  1.00  0.00     0.167 HD
ATOM     41  C   UNL A   1      46.843  29.065  27.229  1.00  0.00     0.037 A 
ATOM     42  C   UNL A   1      40.316  27.943  29.482  1.00  0.00     0.037 A 
ATOM     43  C   UNL A   1      47.048  28.711  28.617  1.00  0.00     0.049 A 
ATOM     44  C   UNL A   1      41.393  28.752  30.092  1.00  0.00     0.074 A 
ATOM     45  C   UNL A   1      47.753  27.742  29.301  1.00  0.00     0.029 A 
ATOM     46  N   UNL A   1      46.104  29.192  29.489  1.00  0.00    -0.354 N 
ATOM     47  N   UNL A   1      42.161  28.330  31.057  1.00  0.00    -0.248 NA
ATOM     48  C   UNL A   1      41.897  29.887  29.337  1.00  0.00     0.031 C 
ATOM     49  C   UNL A   1      46.939  27.409  30.425  1.00  0.00     0.029 A 
ATOM     50  C   UNL A   1      45.817  28.240  30.423  1.00  0.00     0.049 A 
ATOM     51  H   UNL A   1      45.695  30.087  29.447  1.00  0.00     0.167 HD
ATOM     52  C   UNL A   1      43.413  28.834  30.747  1.00  0.00     0.074 A 
ATOM     53  C   UNL A   1      43.164  29.882  29.758  1.00  0.00     0.031 C 
ATOM     54  C   UNL A   1      44.539  28.147  31.096  1.00  0.00     0.037 A 
BRANCH  41  55
ATOM     55  C   UNL A   1      46.740  30.518  26.805  1.00  0.00     0.057 A 
ATOM     56  C   UNL A   1      47.897  31.318  26.886  1.00  0.00     0.134 A 
ATOM     57  C   UNL A   1      45.535  31.235  26.659  1.00  0.00     0.134 A 
ATOM     58  F   UNL A   1      49.110  30.762  27.030  1.00  0.00    -0.206 F 
ATOM     59  C   UNL A   1      47.846  32.716  26.931  1.00  0.00     0.040 A 
ATOM     60  C   UNL A   1      45.478  32.631  26.653  1.00  0.00     0.040 A 
ATOM     61  F   UNL A   1      44.337  30.645  26.614  1.00  0.00    -0.206 F 
ATOM     62  C   UNL A   1      46.631  33.378  26.828  1.00  0.00     0.006 A 
ENDBRANCH  41  55
BRANCH  42  63
ATOM     63  C   UNL A   1      38.921  28.440  29.420  1.00  0.00     0.057 A 
ATOM     64  C   UNL A   1      38.117  28.479  30.573  1.00  0.00     0.134 A 
ATOM     65  C   UNL A   1      38.460  29.190  28.325  1.00  0.00     0.134 A 
ATOM     66  F   UNL A   1      38.488  27.825  31.683  1.00  0.00    -0.206 F 
ATOM     67  C   UNL A   1      36.953  29.256  30.650  1.00  0.00     0.040 A 
ATOM     68  C   UNL A   1      37.296  29.968  28.388  1.00  0.00     0.040 A 
ATOM     69  F   UNL A   1      39.177  29.270  27.196  1.00  0.00    -0.206 F 
ATOM     70  C   UNL A   1      36.549  30.019  29.560  1.00  0.00     0.006 A 
ENDBRANCH  42  63
BRANCH  54  71
ATOM     71  C   UNL A   1      44.421  27.063  32.131  1.00  0.00     0.057 A 
ATOM     72  C   UNL A   1      44.267  25.699  31.849  1.00  0.00     0.134 A 
ATOM     73  C   UNL A   1      44.677  27.413  33.463  1.00  0.00     0.134 A 
ATOM     74  F   UNL A   1      44.083  25.263  30.595  1.00  0.00    -0.206 F 
ATOM     75  C   UNL A   1      44.369  24.728  32.852  1.00  0.00     0.040 A 
ATOM     76  C   UNL A   1      44.813  26.453  34.465  1.00  0.00     0.040 A 
ATOM     77  F   UNL A   1      44.869  28.699  33.796  1.00  0.00    -0.206 F 
ATOM     78  C   UNL A   1      44.660  25.104  34.161  1.00  0.00     0.006 A 
ENDBRANCH  54  71
ENDBRANCH  28  29
ENDBRANCH  20  23
ENDBRANCH   1  19
TORSDOF 10
ENDMDL
