MODEL 1
REMARK VINA RESULT:     -11.5      0.000      0.000
REMARK SMILES C/C(=C/C[N@H+]1C[C@H]2CCC[N@H+]2C[C@@H]1C)C(=O)NCCCNC(=O)c1ccc(-c2c3nc(c(-c4c(F)cccc4F)c4ccc([nH]4)c(-c4c(F)cccc4F)c4nc(c(-c5c(F)cccc5F)c5ccc2[nH]5)C=C4)C=C3)cc1
REMARK SMILES IDX 19 1 18 2 17 3 15 4 16 5 2 7 1 8 3 9 4 10 5 11 6 12 13 13
REMARK SMILES IDX 7 15 12 16 14 17 8 18 11 19 9 20 10 21 20 23 21 24 22 25
REMARK SMILES IDX 23 27 24 28 25 29 77 30 26 31 76 32 27 33 28 34 29 35 70 36
REMARK SMILES IDX 30 37 75 38 69 39 71 40 31 41 74 42 68 43 67 44 32 46 58 47
REMARK SMILES IDX 41 48 57 49 42 50 45 51 56 52 72 53 43 54 44 55 55 57 73 58
REMARK SMILES IDX 46 59 33 60 34 61 39 62 35 63 36 64 38 65 40 66 37 67 59 68
REMARK SMILES IDX 60 69 65 70 61 71 62 72 64 73 66 74 63 75 47 76 48 77 53 78
REMARK SMILES IDX 49 79 50 80 52 81 54 82 51 83
REMARK H PARENT 17 6 5 14 11 22 21 26 71 45 45 56
REMARK Flexibility Score: inf
ROOT
ATOM      1  C   UNL A   1      38.151  19.624  24.975  1.00  0.00     0.042 C 
ENDROOT
BRANCH   1   2
ATOM      2  C   UNL A   1      36.913  20.516  25.005  1.00  0.00     0.118 C 
BRANCH   2   3
ATOM      3  N   UNL A   1      36.943  21.475  23.936  1.00  0.00    -0.352 N 
ATOM      4  C   UNL A   1      36.712  22.803  23.890  1.00  0.00     0.246 C 
ATOM      5  O   UNL A   1      36.928  23.320  22.786  1.00  0.00    -0.270 OA
ATOM      6  H   UNL A   1      37.181  21.085  23.064  1.00  0.00     0.163 HD
BRANCH   4   7
ATOM      7  C   UNL A   1      36.304  23.695  25.046  1.00  0.00     0.015 C 
ATOM      8  C   UNL A   1      37.535  23.972  25.906  1.00  0.00     0.050 C 
ATOM      9  C   UNL A   1      35.168  24.315  25.441  1.00  0.00     0.042 C 
BRANCH   9  10
ATOM     10  C   UNL A   1      33.769  24.456  24.914  1.00  0.00     0.292 C 
BRANCH  10  11
ATOM     11  N   UNL A   1      32.927  23.287  25.247  1.00  0.00    -0.320 N 
ATOM     12  C   UNL A   1      32.959  22.310  24.137  1.00  0.00     0.328 C 
ATOM     13  C   UNL A   1      33.286  22.635  26.543  1.00  0.00     0.237 C 
ATOM     14  H   UNL A   1      31.977  23.638  25.370  1.00  0.00     0.348 HD
ATOM     15  C   UNL A   1      32.231  20.987  24.452  1.00  0.00     0.240 C 
ATOM     16  C   UNL A   1      33.607  21.109  26.465  1.00  0.00     0.328 C 
ATOM     17  C   UNL A   1      32.145  22.831  27.564  1.00  0.00     0.081 C 
ATOM     18  C   UNL A   1      32.510  19.928  23.389  1.00  0.00     0.077 C 
ATOM     19  N   UNL A   1      32.579  20.355  25.740  1.00  0.00    -0.323 N 
ATOM     20  C   UNL A   1      32.357  18.626  24.146  1.00  0.00     0.068 C 
ATOM     21  C   UNL A   1      32.948  18.958  25.505  1.00  0.00     0.263 C 
ATOM     22  H   UNL A   1      31.764  20.367  26.353  1.00  0.00     0.348 HD
ENDBRANCH  10  11
ENDBRANCH   9  10
ENDBRANCH   4   7
ENDBRANCH   2   3
ENDBRANCH   1   2
BRANCH   1  23
ATOM     23  C   UNL A   1      39.176  19.966  26.035  1.00  0.00     0.118 C 
BRANCH  23  24
ATOM     24  N   UNL A   1      40.405  19.198  25.859  1.00  0.00    -0.352 N 
ATOM     25  C   UNL A   1      41.716  19.596  25.932  1.00  0.00     0.251 C 
ATOM     26  H   UNL A   1      40.272  18.244  25.657  1.00  0.00     0.163 HD
ATOM     27  O   UNL A   1      42.603  18.843  25.534  1.00  0.00    -0.269 OA
BRANCH  25  28
ATOM     28  C   UNL A   1      42.069  20.931  26.462  1.00  0.00     0.039 A 
ATOM     29  C   UNL A   1      42.395  21.957  25.570  1.00  0.00     0.014 A 
ATOM     30  C   UNL A   1      42.087  21.174  27.836  1.00  0.00     0.014 A 
ATOM     31  C   UNL A   1      42.678  23.235  26.056  1.00  0.00     0.010 A 
ATOM     32  C   UNL A   1      42.244  22.467  28.310  1.00  0.00     0.010 A 
ATOM     33  C   UNL A   1      42.567  23.508  27.429  1.00  0.00    -0.014 A 
BRANCH  33  34
ATOM     34  C   UNL A   1      42.824  24.857  27.985  1.00  0.00     0.031 A 
ATOM     35  C   UNL A   1      44.221  25.239  28.395  1.00  0.00     0.074 A 
ATOM     36  C   UNL A   1      41.797  25.700  28.195  1.00  0.00     0.049 A 
ATOM     37  N   UNL A   1      44.644  26.326  28.987  1.00  0.00    -0.248 NA
ATOM     38  C   UNL A   1      45.276  24.244  28.144  1.00  0.00     0.031 C 
ATOM     39  C   UNL A   1      40.394  25.423  27.881  1.00  0.00     0.029 A 
ATOM     40  N   UNL A   1      41.775  26.963  28.730  1.00  0.00    -0.354 N 
ATOM     41  C   UNL A   1      46.004  26.135  29.195  1.00  0.00     0.074 A 
ATOM     42  C   UNL A   1      46.318  24.799  28.744  1.00  0.00     0.031 C 
ATOM     43  C   UNL A   1      39.655  26.501  28.186  1.00  0.00     0.029 A 
ATOM     44  C   UNL A   1      40.522  27.525  28.760  1.00  0.00     0.049 A 
ATOM     45  H   UNL A   1      42.580  27.423  29.060  1.00  0.00     0.167 HD
ATOM     46  C   UNL A   1      46.917  27.006  29.687  1.00  0.00     0.037 A 
ATOM     47  C   UNL A   1      40.123  28.732  29.200  1.00  0.00     0.037 A 
ATOM     48  C   UNL A   1      46.597  28.340  30.116  1.00  0.00     0.049 A 
ATOM     49  C   UNL A   1      41.149  29.673  29.769  1.00  0.00     0.074 A 
ATOM     50  C   UNL A   1      47.446  29.326  30.585  1.00  0.00     0.029 A 
ATOM     51  N   UNL A   1      45.315  28.873  30.133  1.00  0.00    -0.354 N 
ATOM     52  N   UNL A   1      42.442  29.507  29.902  1.00  0.00    -0.248 NA
ATOM     53  C   UNL A   1      40.655  30.972  30.247  1.00  0.00     0.031 C 
ATOM     54  C   UNL A   1      46.671  30.438  30.933  1.00  0.00     0.029 A 
ATOM     55  C   UNL A   1      45.347  30.166  30.627  1.00  0.00     0.049 A 
ATOM     56  H   UNL A   1      44.503  28.402  29.838  1.00  0.00     0.167 HD
ATOM     57  C   UNL A   1      42.924  30.691  30.445  1.00  0.00     0.074 A 
ATOM     58  C   UNL A   1      41.782  31.569  30.608  1.00  0.00     0.031 C 
ATOM     59  C   UNL A   1      44.197  31.024  30.777  1.00  0.00     0.037 A 
BRANCH  46  60
ATOM     60  C   UNL A   1      48.340  26.524  29.782  1.00  0.00     0.057 A 
ATOM     61  C   UNL A   1      48.818  25.840  30.910  1.00  0.00     0.134 A 
ATOM     62  C   UNL A   1      49.250  26.765  28.745  1.00  0.00     0.134 A 
ATOM     63  F   UNL A   1      48.006  25.586  31.946  1.00  0.00    -0.206 F 
ATOM     64  C   UNL A   1      50.158  25.463  31.025  1.00  0.00     0.040 A 
ATOM     65  C   UNL A   1      50.583  26.361  28.833  1.00  0.00     0.040 A 
ATOM     66  F   UNL A   1      48.862  27.406  27.632  1.00  0.00    -0.206 F 
ATOM     67  C   UNL A   1      51.044  25.721  29.981  1.00  0.00     0.006 A 
ENDBRANCH  46  60
BRANCH  47  68
ATOM     68  C   UNL A   1      38.701  29.136  29.068  1.00  0.00     0.057 A 
ATOM     69  C   UNL A   1      38.196  29.578  27.839  1.00  0.00     0.134 A 
ATOM     70  C   UNL A   1      37.811  29.080  30.146  1.00  0.00     0.134 A 
ATOM     71  F   UNL A   1      39.004  29.668  26.772  1.00  0.00    -0.206 F 
ATOM     72  C   UNL A   1      36.863  29.962  27.689  1.00  0.00     0.040 A 
ATOM     73  C   UNL A   1      36.468  29.437  30.005  1.00  0.00     0.040 A 
ATOM     74  F   UNL A   1      38.228  28.656  31.348  1.00  0.00    -0.206 F 
ATOM     75  C   UNL A   1      35.993  29.885  28.774  1.00  0.00     0.006 A 
ENDBRANCH  47  68
BRANCH  59  76
ATOM     76  C   UNL A   1      44.425  32.409  31.309  1.00  0.00     0.057 A 
ATOM     77  C   UNL A   1      44.407  32.691  32.680  1.00  0.00     0.134 A 
ATOM     78  C   UNL A   1      44.703  33.467  30.434  1.00  0.00     0.134 A 
ATOM     79  F   UNL A   1      44.132  31.725  33.570  1.00  0.00    -0.206 F 
ATOM     80  C   UNL A   1      44.632  33.982  33.162  1.00  0.00     0.040 A 
ATOM     81  C   UNL A   1      44.961  34.755  30.905  1.00  0.00     0.040 A 
ATOM     82  F   UNL A   1      44.744  33.264  29.108  1.00  0.00    -0.206 F 
ATOM     83  C   UNL A   1      44.919  35.016  32.273  1.00  0.00     0.006 A 
ENDBRANCH  59  76
ENDBRANCH  33  34
ENDBRANCH  25  28
ENDBRANCH  23  24
ENDBRANCH   1  23
TORSDOF 12
ENDMDL
MODEL 2
REMARK VINA RESULT:     -11.4      1.184      6.537
REMARK SMILES C/C(=C/C[N@H+]1C[C@H]2CCC[N@H+]2C[C@@H]1C)C(=O)NCCCNC(=O)c1ccc(-c2c3nc(c(-c4c(F)cccc4F)c4ccc([nH]4)c(-c4c(F)cccc4F)c4nc(c(-c5c(F)cccc5F)c5ccc2[nH]5)C=C4)C=C3)cc1
REMARK SMILES IDX 19 1 18 2 17 3 15 4 16 5 2 7 1 8 3 9 4 10 5 11 6 12 13 13
REMARK SMILES IDX 7 15 12 16 14 17 8 18 11 19 9 20 10 21 20 23 21 24 22 25
REMARK SMILES IDX 23 27 24 28 25 29 77 30 26 31 76 32 27 33 28 34 29 35 70 36
REMARK SMILES IDX 30 37 75 38 69 39 71 40 31 41 74 42 68 43 67 44 32 46 58 47
REMARK SMILES IDX 41 48 57 49 42 50 45 51 56 52 72 53 43 54 44 55 55 57 73 58
REMARK SMILES IDX 46 59 33 60 34 61 39 62 35 63 36 64 38 65 40 66 37 67 59 68
REMARK SMILES IDX 60 69 65 70 61 71 62 72 64 73 66 74 63 75 47 76 48 77 53 78
REMARK SMILES IDX 49 79 50 80 52 81 54 82 51 83
REMARK H PARENT 17 6 5 14 11 22 21 26 71 45 45 56
REMARK Flexibility Score: inf
ROOT
ATOM      1  C   UNL A   1      37.842  19.577  25.008  1.00  0.00     0.042 C 
ENDROOT
BRANCH   1   2
ATOM      2  C   UNL A   1      36.646  20.525  24.973  1.00  0.00     0.118 C 
BRANCH   2   3
ATOM      3  N   UNL A   1      36.797  21.507  23.937  1.00  0.00    -0.352 N 
ATOM      4  C   UNL A   1      36.652  22.848  23.916  1.00  0.00     0.246 C 
ATOM      5  O   UNL A   1      36.963  23.378  22.841  1.00  0.00    -0.270 OA
ATOM      6  H   UNL A   1      37.059  21.125  23.067  1.00  0.00     0.163 HD
BRANCH   4   7
ATOM      7  C   UNL A   1      36.236  23.735  25.073  1.00  0.00     0.015 C 
ATOM      8  C   UNL A   1      37.452  23.979  25.963  1.00  0.00     0.050 C 
ATOM      9  C   UNL A   1      35.103  24.372  25.450  1.00  0.00     0.042 C 
BRANCH   9  10
ATOM     10  C   UNL A   1      33.719  24.547  24.895  1.00  0.00     0.292 C 
BRANCH  10  11
ATOM     11  N   UNL A   1      32.851  23.386  25.186  1.00  0.00    -0.320 N 
ATOM     12  C   UNL A   1      32.968  22.383  24.106  1.00  0.00     0.328 C 
ATOM     13  C   UNL A   1      33.104  22.765  26.522  1.00  0.00     0.237 C 
ATOM     14  H   UNL A   1      31.894  23.740  25.225  1.00  0.00     0.348 HD
ATOM     15  C   UNL A   1      32.215  21.068  24.393  1.00  0.00     0.240 C 
ATOM     16  C   UNL A   1      33.426  21.237  26.505  1.00  0.00     0.328 C 
ATOM     17  C   UNL A   1      31.886  22.984  27.444  1.00  0.00     0.081 C 
ATOM     18  C   UNL A   1      32.575  19.984  23.380  1.00  0.00     0.077 C 
ATOM     19  N   UNL A   1      32.458  20.466  25.718  1.00  0.00    -0.323 N 
ATOM     20  C   UNL A   1      32.359  18.701  24.153  1.00  0.00     0.068 C 
ATOM     21  C   UNL A   1      32.841  19.064  25.546  1.00  0.00     0.263 C 
ATOM     22  H   UNL A   1      31.597  20.493  26.265  1.00  0.00     0.348 HD
ENDBRANCH  10  11
ENDBRANCH   9  10
ENDBRANCH   4   7
ENDBRANCH   2   3
ENDBRANCH   1   2
BRANCH   1  23
ATOM     23  C   UNL A   1      39.052  20.147  25.714  1.00  0.00     0.118 C 
BRANCH  23  24
ATOM     24  N   UNL A   1      40.107  19.148  25.859  1.00  0.00    -0.352 N 
ATOM     25  C   UNL A   1      41.450  19.306  26.093  1.00  0.00     0.251 C 
ATOM     26  H   UNL A   1      39.808  18.214  25.775  1.00  0.00     0.163 HD
ATOM     27  O   UNL A   1      42.207  18.346  25.960  1.00  0.00    -0.269 OA
BRANCH  25  28
ATOM     28  C   UNL A   1      41.996  20.625  26.479  1.00  0.00     0.039 A 
ATOM     29  C   UNL A   1      42.346  21.540  25.481  1.00  0.00     0.014 A 
ATOM     30  C   UNL A   1      42.174  20.961  27.822  1.00  0.00     0.014 A 
ATOM     31  C   UNL A   1      42.813  22.807  25.835  1.00  0.00     0.010 A 
ATOM     32  C   UNL A   1      42.517  22.257  28.173  1.00  0.00     0.010 A 
ATOM     33  C   UNL A   1      42.865  23.188  27.185  1.00  0.00    -0.014 A 
BRANCH  33  34
ATOM     34  C   UNL A   1      43.321  24.534  27.604  1.00  0.00     0.031 A 
ATOM     35  C   UNL A   1      42.308  25.572  28.005  1.00  0.00     0.074 A 
ATOM     36  C   UNL A   1      44.630  24.844  27.545  1.00  0.00     0.049 A 
ATOM     37  N   UNL A   1      42.487  26.831  28.311  1.00  0.00    -0.248 NA
ATOM     38  C   UNL A   1      40.899  25.146  28.021  1.00  0.00     0.031 C 
ATOM     39  C   UNL A   1      45.699  23.936  27.127  1.00  0.00     0.029 A 
ATOM     40  N   UNL A   1      45.282  26.016  27.833  1.00  0.00    -0.354 N 
ATOM     41  C   UNL A   1      41.217  27.347  28.534  1.00  0.00     0.074 A 
ATOM     42  C   UNL A   1      40.274  26.290  28.248  1.00  0.00     0.031 C 
ATOM     43  C   UNL A   1      46.878  24.570  27.230  1.00  0.00     0.029 A 
ATOM     44  C   UNL A   1      46.644  25.940  27.673  1.00  0.00     0.049 A 
ATOM     45  H   UNL A   1      44.818  26.833  28.126  1.00  0.00     0.167 HD
ATOM     46  C   UNL A   1      40.866  28.580  28.972  1.00  0.00     0.037 A 
ATOM     47  C   UNL A   1      47.593  26.873  27.867  1.00  0.00     0.037 A 
ATOM     48  C   UNL A   1      41.814  29.619  29.272  1.00  0.00     0.049 A 
ATOM     49  C   UNL A   1      47.181  28.245  28.325  1.00  0.00     0.074 A 
ATOM     50  C   UNL A   1      41.579  30.889  29.768  1.00  0.00     0.029 A 
ATOM     51  N   UNL A   1      43.187  29.504  29.096  1.00  0.00    -0.354 N 
ATOM     52  N   UNL A   1      45.983  28.703  28.595  1.00  0.00    -0.248 NA
ATOM     53  C   UNL A   1      48.257  29.228  28.508  1.00  0.00     0.031 C 
ATOM     54  C   UNL A   1      42.805  31.559  29.843  1.00  0.00     0.029 A 
ATOM     55  C   UNL A   1      43.810  30.689  29.450  1.00  0.00     0.049 A 
ATOM     56  H   UNL A   1      43.649  28.700  28.768  1.00  0.00     0.167 HD
ATOM     57  C   UNL A   1      46.162  30.015  29.013  1.00  0.00     0.074 A 
ATOM     58  C   UNL A   1      47.587  30.275  28.967  1.00  0.00     0.031 C 
ATOM     59  C   UNL A   1      45.232  30.924  29.402  1.00  0.00     0.037 A 
BRANCH  46  60
ATOM     60  C   UNL A   1      39.397  28.853  29.142  1.00  0.00     0.057 A 
ATOM     61  C   UNL A   1      38.608  29.350  28.093  1.00  0.00     0.134 A 
ATOM     62  C   UNL A   1      38.765  28.641  30.374  1.00  0.00     0.134 A 
ATOM     63  F   UNL A   1      39.149  29.589  26.890  1.00  0.00    -0.206 F 
ATOM     64  C   UNL A   1      37.262  29.674  28.278  1.00  0.00     0.040 A 
ATOM     65  C   UNL A   1      37.412  28.928  30.561  1.00  0.00     0.040 A 
ATOM     66  F   UNL A   1      39.454  28.161  31.420  1.00  0.00    -0.206 F 
ATOM     67  C   UNL A   1      36.660  29.459  29.515  1.00  0.00     0.006 A 
ENDBRANCH  46  60
BRANCH  47  68
ATOM     68  C   UNL A   1      49.024  26.525  27.682  1.00  0.00     0.057 A 
ATOM     69  C   UNL A   1      49.786  26.047  28.755  1.00  0.00     0.134 A 
ATOM     70  C   UNL A   1      49.661  26.640  26.442  1.00  0.00     0.134 A 
ATOM     71  F   UNL A   1      49.235  25.927  29.973  1.00  0.00    -0.206 F 
ATOM     72  C   UNL A   1      51.132  25.710  28.607  1.00  0.00     0.040 A 
ATOM     73  C   UNL A   1      51.001  26.284  26.272  1.00  0.00     0.040 A 
ATOM     74  F   UNL A   1      48.986  27.082  25.371  1.00  0.00    -0.206 F 
ATOM     75  C   UNL A   1      51.741  25.823  27.359  1.00  0.00     0.006 A 
ENDBRANCH  47  68
BRANCH  59  76
ATOM     76  C   UNL A   1      45.733  32.267  29.848  1.00  0.00     0.057 A 
ATOM     77  C   UNL A   1      45.858  33.345  28.964  1.00  0.00     0.134 A 
ATOM     78  C   UNL A   1      46.058  32.490  31.192  1.00  0.00     0.134 A 
ATOM     79  F   UNL A   1      45.577  33.192  27.661  1.00  0.00    -0.206 F 
ATOM     80  C   UNL A   1      46.314  34.592  29.395  1.00  0.00     0.040 A 
ATOM     81  C   UNL A   1      46.484  33.741  31.642  1.00  0.00     0.040 A 
ATOM     82  F   UNL A   1      45.952  31.502  32.094  1.00  0.00    -0.206 F 
ATOM     83  C   UNL A   1      46.621  34.794  30.740  1.00  0.00     0.006 A 
ENDBRANCH  59  76
ENDBRANCH  33  34
ENDBRANCH  25  28
ENDBRANCH  23  24
ENDBRANCH   1  23
TORSDOF 12
ENDMDL
MODEL 3
REMARK VINA RESULT:     -11.4      5.161      9.626
REMARK SMILES C/C(=C/C[N@H+]1C[C@H]2CCC[N@H+]2C[C@@H]1C)C(=O)NCCCNC(=O)c1ccc(-c2c3nc(c(-c4c(F)cccc4F)c4ccc([nH]4)c(-c4c(F)cccc4F)c4nc(c(-c5c(F)cccc5F)c5ccc2[nH]5)C=C4)C=C3)cc1
REMARK SMILES IDX 19 1 18 2 17 3 15 4 16 5 2 7 1 8 3 9 4 10 5 11 6 12 13 13
REMARK SMILES IDX 7 15 12 16 14 17 8 18 11 19 9 20 10 21 20 23 21 24 22 25
REMARK SMILES IDX 23 27 24 28 25 29 77 30 26 31 76 32 27 33 28 34 29 35 70 36
REMARK SMILES IDX 30 37 75 38 69 39 71 40 31 41 74 42 68 43 67 44 32 46 58 47
REMARK SMILES IDX 41 48 57 49 42 50 45 51 56 52 72 53 43 54 44 55 55 57 73 58
REMARK SMILES IDX 46 59 33 60 34 61 39 62 35 63 36 64 38 65 40 66 37 67 59 68
REMARK SMILES IDX 60 69 65 70 61 71 62 72 64 73 66 74 63 75 47 76 48 77 53 78
REMARK SMILES IDX 49 79 50 80 52 81 54 82 51 83
REMARK H PARENT 17 6 5 14 11 22 21 26 71 45 45 56
REMARK Flexibility Score: inf
ROOT
ATOM      1  C   UNL A   1      31.403  32.054  26.508  1.00  0.00     0.042 C 
ENDROOT
BRANCH   1   2
ATOM      2  C   UNL A   1      31.640  30.676  25.893  1.00  0.00     0.118 C 
BRANCH   2   3
ATOM      3  N   UNL A   1      31.403  29.636  26.854  1.00  0.00    -0.352 N 
ATOM      4  C   UNL A   1      32.095  28.530  27.198  1.00  0.00     0.246 C 
ATOM      5  O   UNL A   1      31.617  27.906  28.154  1.00  0.00    -0.270 OA
ATOM      6  H   UNL A   1      30.569  29.754  27.365  1.00  0.00     0.163 HD
BRANCH   4   7
ATOM      7  C   UNL A   1      33.398  28.049  26.591  1.00  0.00     0.015 C 
ATOM      8  C   UNL A   1      34.538  28.898  27.148  1.00  0.00     0.050 C 
ATOM      9  C   UNL A   1      33.771  27.055  25.751  1.00  0.00     0.042 C 
BRANCH   9  10
ATOM     10  C   UNL A   1      33.089  25.921  25.041  1.00  0.00     0.292 C 
BRANCH  10  11
ATOM     11  N   UNL A   1      32.390  26.369  23.818  1.00  0.00    -0.320 N 
ATOM     12  C   UNL A   1      31.032  26.848  24.158  1.00  0.00     0.328 C 
ATOM     13  C   UNL A   1      33.141  27.401  23.039  1.00  0.00     0.237 C 
ATOM     14  H   UNL A   1      32.324  25.557  23.204  1.00  0.00     0.348 HD
ATOM     15  C   UNL A   1      30.278  27.478  22.969  1.00  0.00     0.240 C 
ATOM     16  C   UNL A   1      32.365  28.725  22.751  1.00  0.00     0.328 C 
ATOM     17  C   UNL A   1      33.595  26.812  21.687  1.00  0.00     0.081 C 
ATOM     18  C   UNL A   1      29.002  28.180  23.424  1.00  0.00     0.077 C 
ATOM     19  N   UNL A   1      31.029  28.486  22.195  1.00  0.00    -0.323 N 
ATOM     20  C   UNL A   1      28.804  29.254  22.376  1.00  0.00     0.068 C 
ATOM     21  C   UNL A   1      30.224  29.703  22.083  1.00  0.00     0.263 C 
ATOM     22  H   UNL A   1      31.198  28.132  21.253  1.00  0.00     0.348 HD
ENDBRANCH  10  11
ENDBRANCH   9  10
ENDBRANCH   4   7
ENDBRANCH   2   3
ENDBRANCH   1   2
BRANCH   1  23
ATOM     23  C   UNL A   1      32.600  32.605  27.251  1.00  0.00     0.118 C 
BRANCH  23  24
ATOM     24  N   UNL A   1      32.434  34.022  27.557  1.00  0.00    -0.352 N 
ATOM     25  C   UNL A   1      33.035  34.797  28.517  1.00  0.00     0.251 C 
ATOM     26  H   UNL A   1      31.790  34.497  26.984  1.00  0.00     0.163 HD
ATOM     27  O   UNL A   1      32.594  35.921  28.755  1.00  0.00    -0.269 OA
BRANCH  25  28
ATOM     28  C   UNL A   1      34.191  34.284  29.284  1.00  0.00     0.039 A 
ATOM     29  C   UNL A   1      33.968  33.613  30.491  1.00  0.00     0.014 A 
ATOM     30  C   UNL A   1      35.495  34.467  28.822  1.00  0.00     0.014 A 
ATOM     31  C   UNL A   1      35.048  33.078  31.196  1.00  0.00     0.010 A 
ATOM     32  C   UNL A   1      36.551  33.830  29.455  1.00  0.00     0.010 A 
ATOM     33  C   UNL A   1      36.344  33.150  30.662  1.00  0.00    -0.014 A 
BRANCH  33  34
ATOM     34  C   UNL A   1      37.514  32.566  31.360  1.00  0.00     0.031 A 
ATOM     35  C   UNL A   1      38.233  31.392  30.752  1.00  0.00     0.074 A 
ATOM     36  C   UNL A   1      37.874  33.036  32.568  1.00  0.00     0.049 A 
ATOM     37  N   UNL A   1      39.214  30.677  31.240  1.00  0.00    -0.248 NA
ATOM     38  C   UNL A   1      37.756  30.936  29.436  1.00  0.00     0.031 C 
ATOM     39  C   UNL A   1      37.224  34.138  33.279  1.00  0.00     0.029 A 
ATOM     40  N   UNL A   1      38.876  32.639  33.417  1.00  0.00    -0.354 N 
ATOM     41  C   UNL A   1      39.452  29.679  30.303  1.00  0.00     0.074 A 
ATOM     42  C   UNL A   1      38.463  29.832  29.261  1.00  0.00     0.031 C 
ATOM     43  C   UNL A   1      37.871  34.359  34.434  1.00  0.00     0.029 A 
ATOM     44  C   UNL A   1      38.950  33.385  34.567  1.00  0.00     0.049 A 
ATOM     45  H   UNL A   1      39.484  31.890  33.220  1.00  0.00     0.167 HD
ATOM     46  C   UNL A   1      40.429  28.741  30.292  1.00  0.00     0.037 A 
ATOM     47  C   UNL A   1      39.796  33.293  35.609  1.00  0.00     0.037 A 
ATOM     48  C   UNL A   1      41.420  28.610  31.326  1.00  0.00     0.049 A 
ATOM     49  C   UNL A   1      40.856  32.226  35.591  1.00  0.00     0.074 A 
ATOM     50  C   UNL A   1      42.485  27.730  31.398  1.00  0.00     0.029 A 
ATOM     51  N   UNL A   1      41.461  29.385  32.477  1.00  0.00    -0.354 N 
ATOM     52  N   UNL A   1      41.113  31.329  34.671  1.00  0.00    -0.248 NA
ATOM     53  C   UNL A   1      41.744  32.162  36.760  1.00  0.00     0.031 C 
ATOM     54  C   UNL A   1      43.140  27.939  32.617  1.00  0.00     0.029 A 
ATOM     55  C   UNL A   1      42.519  28.987  33.278  1.00  0.00     0.049 A 
ATOM     56  H   UNL A   1      40.831  30.110  32.693  1.00  0.00     0.167 HD
ATOM     57  C   UNL A   1      42.213  30.616  35.130  1.00  0.00     0.074 A 
ATOM     58  C   UNL A   1      42.577  31.193  36.409  1.00  0.00     0.031 C 
ATOM     59  C   UNL A   1      42.866  29.580  34.546  1.00  0.00     0.037 A 
BRANCH  46  60
ATOM     60  C   UNL A   1      40.454  27.793  29.125  1.00  0.00     0.057 A 
ATOM     61  C   UNL A   1      41.236  28.037  27.986  1.00  0.00     0.134 A 
ATOM     62  C   UNL A   1      39.670  26.632  29.126  1.00  0.00     0.134 A 
ATOM     63  F   UNL A   1      42.001  29.135  27.910  1.00  0.00    -0.206 F 
ATOM     64  C   UNL A   1      41.196  27.192  26.874  1.00  0.00     0.040 A 
ATOM     65  C   UNL A   1      39.649  25.761  28.035  1.00  0.00     0.040 A 
ATOM     66  F   UNL A   1      38.902  26.328  30.184  1.00  0.00    -0.206 F 
ATOM     67  C   UNL A   1      40.403  26.048  26.899  1.00  0.00     0.006 A 
ENDBRANCH  46  60
BRANCH  47  68
ATOM     68  C   UNL A   1      39.710  34.269  36.723  1.00  0.00     0.057 A 
ATOM     69  C   UNL A   1      38.996  33.963  37.887  1.00  0.00     0.134 A 
ATOM     70  C   UNL A   1      40.344  35.515  36.667  1.00  0.00     0.134 A 
ATOM     71  F   UNL A   1      38.355  32.789  37.996  1.00  0.00    -0.206 F 
ATOM     72  C   UNL A   1      38.903  34.864  38.949  1.00  0.00     0.040 A 
ATOM     73  C   UNL A   1      40.280  36.417  37.731  1.00  0.00     0.040 A 
ATOM     74  F   UNL A   1      41.053  35.867  35.584  1.00  0.00    -0.206 F 
ATOM     75  C   UNL A   1      39.552  36.093  38.874  1.00  0.00     0.006 A 
ENDBRANCH  47  68
BRANCH  59  76
ATOM     76  C   UNL A   1      44.064  29.033  35.267  1.00  0.00     0.057 A 
ATOM     77  C   UNL A   1      45.354  29.530  35.048  1.00  0.00     0.134 A 
ATOM     78  C   UNL A   1      43.914  28.020  36.222  1.00  0.00     0.134 A 
ATOM     79  F   UNL A   1      45.567  30.491  34.135  1.00  0.00    -0.206 F 
ATOM     80  C   UNL A   1      46.458  29.020  35.734  1.00  0.00     0.040 A 
ATOM     81  C   UNL A   1      45.005  27.524  36.937  1.00  0.00     0.040 A 
ATOM     82  F   UNL A   1      42.704  27.505  36.488  1.00  0.00    -0.206 F 
ATOM     83  C   UNL A   1      46.283  28.020  36.688  1.00  0.00     0.006 A 
ENDBRANCH  59  76
ENDBRANCH  33  34
ENDBRANCH  25  28
ENDBRANCH  23  24
ENDBRANCH   1  23
TORSDOF 12
ENDMDL
