MODEL 1
REMARK VINA RESULT:     -12.6      0.000      0.000
REMARK SMILES O=C(NCCCNC(=O)[C@@H]1CCn2c(C(=O)c3ccccc3)ccc21)c1ccc(-c2c3nc(c(-c4c(F)cccc4F)c4ccc([nH]4)c(-c4c(F)cccc4F)c4nc(c(-c5c(F)cccc5F)c5ccc2[nH]5)C=C4)C=C3)cc1
REMARK SMILES IDX 5 1 4 2 3 3 1 4 2 5 26 7 27 8 79 9 28 10 78 11 29 12 30 13
REMARK SMILES IDX 31 14 72 15 32 16 77 17 71 18 73 19 33 20 76 21 70 22 69 23
REMARK SMILES IDX 34 25 60 26 43 27 59 28 44 29 47 30 58 31 74 32 45 33 46 34
REMARK SMILES IDX 57 36 75 37 48 38 35 39 36 40 41 41 37 42 38 43 40 44 42 45
REMARK SMILES IDX 39 46 61 47 62 48 67 49 63 50 64 51 66 52 68 53 65 54 49 55
REMARK SMILES IDX 50 56 55 57 51 58 52 59 54 60 56 61 53 62 6 63 7 64 8 65
REMARK SMILES IDX 9 67 10 68 11 69 25 70 12 71 13 72 24 73 14 74 23 75 15 76
REMARK SMILES IDX 16 77 17 78 18 79 22 80 19 81 21 82 20 83
REMARK H PARENT 3 6 73 24 47 35 7 66
REMARK Flexibility Score: inf
ROOT
ATOM      1  C   UNL A   1      31.347  31.785  26.519  1.00  0.00     0.042 C 
ENDROOT
BRANCH   1   2
ATOM      2  C   UNL A   1      32.645  32.463  26.927  1.00  0.00     0.118 C 
BRANCH   2   3
ATOM      3  N   UNL A   1      32.442  33.823  27.408  1.00  0.00    -0.352 N 
ATOM      4  O   UNL A   1      32.634  35.574  28.815  1.00  0.00    -0.269 OA
ATOM      5  C   UNL A   1      33.064  34.487  28.435  1.00  0.00     0.251 C 
ATOM      6  H   UNL A   1      31.758  34.342  26.926  1.00  0.00     0.163 HD
BRANCH   5   7
ATOM      7  C   UNL A   1      34.246  33.892  29.089  1.00  0.00     0.039 A 
ATOM      8  C   UNL A   1      34.098  32.833  29.989  1.00  0.00     0.014 A 
ATOM      9  C   UNL A   1      35.520  34.372  28.771  1.00  0.00     0.014 A 
ATOM     10  C   UNL A   1      35.206  32.338  30.663  1.00  0.00     0.010 A 
ATOM     11  C   UNL A   1      36.644  33.805  29.376  1.00  0.00     0.010 A 
ATOM     12  C   UNL A   1      36.493  32.788  30.332  1.00  0.00    -0.014 A 
BRANCH  12  13
ATOM     13  C   UNL A   1      37.669  32.077  30.888  1.00  0.00     0.031 A 
ATOM     14  C   UNL A   1      38.382  31.008  30.113  1.00  0.00     0.074 A 
ATOM     15  C   UNL A   1      38.078  32.414  32.127  1.00  0.00     0.049 A 
ATOM     16  N   UNL A   1      39.403  30.277  30.479  1.00  0.00    -0.248 NA
ATOM     17  C   UNL A   1      37.888  30.714  28.759  1.00  0.00     0.031 C 
ATOM     18  C   UNL A   1      37.443  33.428  32.976  1.00  0.00     0.029 A 
ATOM     19  N   UNL A   1      39.116  31.948  32.892  1.00  0.00    -0.354 N 
ATOM     20  C   UNL A   1      39.663  29.423  29.415  1.00  0.00     0.074 A 
ATOM     21  C   UNL A   1      38.684  29.718  28.389  1.00  0.00     0.031 C 
ATOM     22  C   UNL A   1      38.116  33.522  34.132  1.00  0.00     0.029 A 
ATOM     23  C   UNL A   1      39.180  32.527  34.137  1.00  0.00     0.049 A 
ATOM     24  H   UNL A   1      39.753  31.264  32.581  1.00  0.00     0.167 HD
ATOM     25  C   UNL A   1      40.630  28.482  29.313  1.00  0.00     0.037 A 
ATOM     26  C   UNL A   1      39.977  32.259  35.187  1.00  0.00     0.037 A 
ATOM     27  C   UNL A   1      41.610  28.213  30.337  1.00  0.00     0.049 A 
ATOM     28  C   UNL A   1      41.009  31.178  35.051  1.00  0.00     0.074 A 
ATOM     29  C   UNL A   1      42.679  27.334  30.293  1.00  0.00     0.029 A 
ATOM     30  N   UNL A   1      41.628  28.802  31.592  1.00  0.00    -0.354 N 
ATOM     31  N   UNL A   1      41.295  30.437  34.008  1.00  0.00    -0.248 NA
ATOM     32  C   UNL A   1      41.823  30.888  36.239  1.00  0.00     0.031 C 
ATOM     33  C   UNL A   1      43.302  27.342  31.544  1.00  0.00     0.029 A 
ATOM     34  C   UNL A   1      42.659  28.267  32.348  1.00  0.00     0.049 A 
ATOM     35  H   UNL A   1      41.002  29.497  31.901  1.00  0.00     0.167 HD
ATOM     36  C   UNL A   1      42.327  29.602  34.410  1.00  0.00     0.074 A 
ATOM     37  C   UNL A   1      42.640  29.950  35.781  1.00  0.00     0.031 C 
ATOM     38  C   UNL A   1      42.953  28.624  33.712  1.00  0.00     0.037 A 
BRANCH  25  39
ATOM     39  C   UNL A   1      40.687  27.646  28.068  1.00  0.00     0.057 A 
ATOM     40  C   UNL A   1      41.442  28.023  26.953  1.00  0.00     0.134 A 
ATOM     41  C   UNL A   1      40.065  26.389  28.034  1.00  0.00     0.134 A 
ATOM     42  F   UNL A   1      42.058  29.215  26.918  1.00  0.00    -0.206 F 
ATOM     43  C   UNL A   1      41.578  27.182  25.846  1.00  0.00     0.040 A 
ATOM     44  C   UNL A   1      40.212  25.530  26.943  1.00  0.00     0.040 A 
ATOM     45  F   UNL A   1      39.335  25.963  29.074  1.00  0.00    -0.206 F 
ATOM     46  C   UNL A   1      40.971  25.926  25.844  1.00  0.00     0.006 A 
ENDBRANCH  25  39
BRANCH  26  47
ATOM     47  C   UNL A   1      39.790  32.981  36.471  1.00  0.00     0.057 A 
ATOM     48  C   UNL A   1      38.868  32.542  37.426  1.00  0.00     0.134 A 
ATOM     49  C   UNL A   1      40.512  34.147  36.758  1.00  0.00     0.134 A 
ATOM     50  F   UNL A   1      38.136  31.442  37.203  1.00  0.00    -0.206 F 
ATOM     51  C   UNL A   1      38.647  33.253  38.607  1.00  0.00     0.040 A 
ATOM     52  C   UNL A   1      40.326  34.848  37.949  1.00  0.00     0.040 A 
ATOM     53  F   UNL A   1      41.419  34.616  35.888  1.00  0.00    -0.206 F 
ATOM     54  C   UNL A   1      39.381  34.408  38.872  1.00  0.00     0.006 A 
ENDBRANCH  26  47
BRANCH  38  55
ATOM     55  C   UNL A   1      44.042  27.872  34.418  1.00  0.00     0.057 A 
ATOM     56  C   UNL A   1      43.790  26.664  35.081  1.00  0.00     0.134 A 
ATOM     57  C   UNL A   1      45.362  28.342  34.403  1.00  0.00     0.134 A 
ATOM     58  F   UNL A   1      42.544  26.171  35.144  1.00  0.00    -0.206 F 
ATOM     59  C   UNL A   1      44.809  25.959  35.721  1.00  0.00     0.040 A 
ATOM     60  C   UNL A   1      46.394  27.629  35.015  1.00  0.00     0.040 A 
ATOM     61  F   UNL A   1      45.671  29.489  33.781  1.00  0.00    -0.206 F 
ATOM     62  C   UNL A   1      46.117  26.437  35.682  1.00  0.00     0.006 A 
ENDBRANCH  38  55
ENDBRANCH  12  13
ENDBRANCH   5   7
ENDBRANCH   2   3
ENDBRANCH   1   2
BRANCH   1  63
ATOM     63  C   UNL A   1      31.521  30.326  26.131  1.00  0.00     0.117 C 
BRANCH  63  64
ATOM     64  N   UNL A   1      31.105  30.074  24.765  1.00  0.00    -0.355 N 
ATOM     65  C   UNL A   1      31.325  28.974  23.986  1.00  0.00     0.229 C 
ATOM     66  H   UNL A   1      30.591  30.799  24.339  1.00  0.00     0.163 HD
ATOM     67  O   UNL A   1      30.929  29.012  22.820  1.00  0.00    -0.274 OA
BRANCH  65  68
ATOM     68  C   UNL A   1      32.070  27.785  24.579  1.00  0.00     0.127 C 
ATOM     69  C   UNL A   1      33.571  27.763  24.186  1.00  0.00     0.042 C 
ATOM     70  C   UNL A   1      31.586  26.495  24.004  1.00  0.00     0.031 A 
ATOM     71  C   UNL A   1      33.917  26.296  23.896  1.00  0.00     0.124 C 
ATOM     72  N   UNL A   1      32.626  25.682  23.645  1.00  0.00    -0.341 N 
ATOM     73  C   UNL A   1      30.417  25.850  23.704  1.00  0.00     0.025 A 
ATOM     74  C   UNL A   1      32.185  24.503  23.120  1.00  0.00     0.090 A 
ATOM     75  C   UNL A   1      30.793  24.598  23.155  1.00  0.00     0.032 A 
BRANCH  74  76
ATOM     76  C   UNL A   1      32.927  23.378  22.574  1.00  0.00     0.209 C 
ATOM     77  O   UNL A   1      33.437  23.395  21.455  1.00  0.00    -0.287 OA
BRANCH  76  78
ATOM     78  C   UNL A   1      33.137  22.153  23.368  1.00  0.00     0.024 A 
ATOM     79  C   UNL A   1      34.223  22.109  24.247  1.00  0.00     0.012 A 
ATOM     80  C   UNL A   1      32.295  21.047  23.223  1.00  0.00     0.012 A 
ATOM     81  C   UNL A   1      34.434  20.974  25.026  1.00  0.00     0.001 A 
ATOM     82  C   UNL A   1      32.502  19.918  24.016  1.00  0.00     0.001 A 
ATOM     83  C   UNL A   1      33.567  19.886  24.920  1.00  0.00     0.000 A 
ENDBRANCH  76  78
ENDBRANCH  74  76
ENDBRANCH  65  68
ENDBRANCH  63  64
ENDBRANCH   1  63
TORSDOF 12
ENDMDL
MODEL 2
REMARK VINA RESULT:     -12.6      0.151      1.430
REMARK SMILES O=C(NCCCNC(=O)[C@@H]1CCn2c(C(=O)c3ccccc3)ccc21)c1ccc(-c2c3nc(c(-c4c(F)cccc4F)c4ccc([nH]4)c(-c4c(F)cccc4F)c4nc(c(-c5c(F)cccc5F)c5ccc2[nH]5)C=C4)C=C3)cc1
REMARK SMILES IDX 5 1 4 2 3 3 1 4 2 5 26 7 27 8 79 9 28 10 78 11 29 12 30 13
REMARK SMILES IDX 31 14 72 15 32 16 77 17 71 18 73 19 33 20 76 21 70 22 69 23
REMARK SMILES IDX 34 25 60 26 43 27 59 28 44 29 47 30 58 31 74 32 45 33 46 34
REMARK SMILES IDX 57 36 75 37 48 38 35 39 36 40 41 41 37 42 38 43 40 44 42 45
REMARK SMILES IDX 39 46 61 47 62 48 67 49 63 50 64 51 66 52 68 53 65 54 49 55
REMARK SMILES IDX 50 56 55 57 51 58 52 59 54 60 56 61 53 62 6 63 7 64 8 65
REMARK SMILES IDX 9 67 10 68 11 69 25 70 12 71 13 72 24 73 14 74 23 75 15 76
REMARK SMILES IDX 16 77 17 78 18 79 22 80 19 81 21 82 20 83
REMARK H PARENT 3 6 73 24 47 35 7 66
REMARK Flexibility Score: inf
ROOT
ATOM      1  C   UNL A   1      31.312  31.834  26.415  1.00  0.00     0.042 C 
ENDROOT
BRANCH   1   2
ATOM      2  C   UNL A   1      32.609  32.478  26.880  1.00  0.00     0.118 C 
BRANCH   2   3
ATOM      3  N   UNL A   1      32.421  33.843  27.353  1.00  0.00    -0.352 N 
ATOM      4  O   UNL A   1      32.627  35.599  28.751  1.00  0.00    -0.269 OA
ATOM      5  C   UNL A   1      33.045  34.504  28.380  1.00  0.00     0.251 C 
ATOM      6  H   UNL A   1      31.747  34.368  26.864  1.00  0.00     0.163 HD
BRANCH   5   7
ATOM      7  C   UNL A   1      34.215  33.896  29.045  1.00  0.00     0.039 A 
ATOM      8  C   UNL A   1      34.049  32.834  29.936  1.00  0.00     0.014 A 
ATOM      9  C   UNL A   1      35.496  34.369  28.746  1.00  0.00     0.014 A 
ATOM     10  C   UNL A   1      35.145  32.326  30.621  1.00  0.00     0.010 A 
ATOM     11  C   UNL A   1      36.608  33.792  29.361  1.00  0.00     0.010 A 
ATOM     12  C   UNL A   1      36.439  32.770  30.308  1.00  0.00    -0.014 A 
BRANCH  12  13
ATOM     13  C   UNL A   1      37.603  32.047  30.874  1.00  0.00     0.031 A 
ATOM     14  C   UNL A   1      38.327  30.989  30.095  1.00  0.00     0.074 A 
ATOM     15  C   UNL A   1      37.991  32.364  32.126  1.00  0.00     0.049 A 
ATOM     16  N   UNL A   1      39.341  30.250  30.468  1.00  0.00    -0.248 NA
ATOM     17  C   UNL A   1      37.857  30.717  28.729  1.00  0.00     0.031 C 
ATOM     18  C   UNL A   1      37.343  33.366  32.979  1.00  0.00     0.029 A 
ATOM     19  N   UNL A   1      39.013  31.883  32.901  1.00  0.00    -0.354 N 
ATOM     20  C   UNL A   1      39.617  29.412  29.396  1.00  0.00     0.074 A 
ATOM     21  C   UNL A   1      38.658  29.725  28.358  1.00  0.00     0.031 C 
ATOM     22  C   UNL A   1      37.994  33.440  34.148  1.00  0.00     0.029 A 
ATOM     23  C   UNL A   1      39.056  32.443  34.156  1.00  0.00     0.049 A 
ATOM     24  H   UNL A   1      39.654  31.203  32.591  1.00  0.00     0.167 HD
ATOM     25  C   UNL A   1      40.585  28.470  29.297  1.00  0.00     0.037 A 
ATOM     26  C   UNL A   1      39.833  32.156  35.216  1.00  0.00     0.037 A 
ATOM     27  C   UNL A   1      41.545  28.183  30.334  1.00  0.00     0.049 A 
ATOM     28  C   UNL A   1      40.866  31.075  35.083  1.00  0.00     0.074 A 
ATOM     29  C   UNL A   1      42.612  27.302  30.295  1.00  0.00     0.029 A 
ATOM     30  N   UNL A   1      41.541  28.752  31.598  1.00  0.00    -0.354 N 
ATOM     31  N   UNL A   1      41.169  30.350  34.033  1.00  0.00    -0.248 NA
ATOM     32  C   UNL A   1      41.657  30.765  36.280  1.00  0.00     0.031 C 
ATOM     33  C   UNL A   1      43.213  27.289  31.557  1.00  0.00     0.029 A 
ATOM     34  C   UNL A   1      42.557  28.203  32.364  1.00  0.00     0.049 A 
ATOM     35  H   UNL A   1      40.912  29.444  31.906  1.00  0.00     0.167 HD
ATOM     36  C   UNL A   1      42.191  29.506  34.441  1.00  0.00     0.074 A 
ATOM     37  C   UNL A   1      42.480  29.832  35.822  1.00  0.00     0.031 C 
ATOM     38  C   UNL A   1      42.828  28.537  33.739  1.00  0.00     0.037 A 
BRANCH  25  39
ATOM     39  C   UNL A   1      40.662  27.653  28.040  1.00  0.00     0.057 A 
ATOM     40  C   UNL A   1      41.429  28.052  26.940  1.00  0.00     0.134 A 
ATOM     41  C   UNL A   1      40.048  26.394  27.979  1.00  0.00     0.134 A 
ATOM     42  F   UNL A   1      42.038  29.248  26.932  1.00  0.00    -0.206 F 
ATOM     43  C   UNL A   1      41.584  27.229  25.823  1.00  0.00     0.040 A 
ATOM     44  C   UNL A   1      40.214  25.553  26.877  1.00  0.00     0.040 A 
ATOM     45  F   UNL A   1      39.306  25.948  29.003  1.00  0.00    -0.206 F 
ATOM     46  C   UNL A   1      40.984  25.970  25.794  1.00  0.00     0.006 A 
ENDBRANCH  25  39
BRANCH  26  47
ATOM     47  C   UNL A   1      39.625  32.859  36.508  1.00  0.00     0.057 A 
ATOM     48  C   UNL A   1      40.402  33.964  36.870  1.00  0.00     0.134 A 
ATOM     49  C   UNL A   1      38.661  32.420  37.425  1.00  0.00     0.134 A 
ATOM     50  F   UNL A   1      41.352  34.422  36.041  1.00  0.00    -0.206 F 
ATOM     51  C   UNL A   1      40.250  34.588  38.108  1.00  0.00     0.040 A 
ATOM     52  C   UNL A   1      38.475  33.056  38.652  1.00  0.00     0.040 A 
ATOM     53  F   UNL A   1      37.876  31.371  37.136  1.00  0.00    -0.206 F 
ATOM     54  C   UNL A   1      39.281  34.135  39.002  1.00  0.00     0.006 A 
ENDBRANCH  26  47
BRANCH  38  55
ATOM     55  C   UNL A   1      43.902  27.772  34.452  1.00  0.00     0.057 A 
ATOM     56  C   UNL A   1      45.220  28.242  34.514  1.00  0.00     0.134 A 
ATOM     57  C   UNL A   1      43.609  26.574  35.115  1.00  0.00     0.134 A 
ATOM     58  F   UNL A   1      45.568  29.375  33.885  1.00  0.00    -0.206 F 
ATOM     59  C   UNL A   1      46.214  27.537  35.194  1.00  0.00     0.040 A 
ATOM     60  C   UNL A   1      44.587  25.876  35.823  1.00  0.00     0.040 A 
ATOM     61  F   UNL A   1      42.365  26.073  35.100  1.00  0.00    -0.206 F 
ATOM     62  C   UNL A   1      45.896  26.354  35.858  1.00  0.00     0.006 A 
ENDBRANCH  38  55
ENDBRANCH  12  13
ENDBRANCH   5   7
ENDBRANCH   2   3
ENDBRANCH   1   2
BRANCH   1  63
ATOM     63  C   UNL A   1      31.454  30.359  26.080  1.00  0.00     0.117 C 
BRANCH  63  64
ATOM     64  N   UNL A   1      31.032  30.067  24.723  1.00  0.00    -0.355 N 
ATOM     65  C   UNL A   1      31.247  28.944  23.976  1.00  0.00     0.229 C 
ATOM     66  H   UNL A   1      30.517  30.779  24.278  1.00  0.00     0.163 HD
ATOM     67  O   UNL A   1      30.846  28.948  22.812  1.00  0.00    -0.274 OA
BRANCH  65  68
ATOM     68  C   UNL A   1      31.992  27.771  24.601  1.00  0.00     0.127 C 
ATOM     69  C   UNL A   1      33.509  27.783  24.273  1.00  0.00     0.042 C 
ATOM     70  C   UNL A   1      31.563  26.471  24.007  1.00  0.00     0.031 A 
ATOM     71  C   UNL A   1      33.899  26.325  23.999  1.00  0.00     0.124 C 
ATOM     72  N   UNL A   1      32.634  25.681  23.694  1.00  0.00    -0.341 N 
ATOM     73  C   UNL A   1      30.422  25.801  23.658  1.00  0.00     0.025 A 
ATOM     74  C   UNL A   1      32.243  24.493  23.151  1.00  0.00     0.090 A 
ATOM     75  C   UNL A   1      30.848  24.557  23.127  1.00  0.00     0.032 A 
BRANCH  74  76
ATOM     76  C   UNL A   1      33.032  23.385  22.638  1.00  0.00     0.209 C 
ATOM     77  O   UNL A   1      33.556  23.398  21.525  1.00  0.00    -0.287 OA
BRANCH  76  78
ATOM     78  C   UNL A   1      33.276  22.185  23.460  1.00  0.00     0.024 A 
ATOM     79  C   UNL A   1      32.323  21.163  23.441  1.00  0.00     0.012 A 
ATOM     80  C   UNL A   1      34.413  22.082  24.266  1.00  0.00     0.012 A 
ATOM     81  C   UNL A   1      32.536  20.007  24.190  1.00  0.00     0.001 A 
ATOM     82  C   UNL A   1      34.628  20.918  25.003  1.00  0.00     0.001 A 
ATOM     83  C   UNL A   1      33.693  19.881  24.959  1.00  0.00     0.000 A 
ENDBRANCH  76  78
ENDBRANCH  74  76
ENDBRANCH  65  68
ENDBRANCH  63  64
ENDBRANCH   1  63
TORSDOF 12
ENDMDL
MODEL 3
REMARK VINA RESULT:     -12.5      5.108     10.381
REMARK SMILES O=C(NCCCNC(=O)[C@@H]1CCn2c(C(=O)c3ccccc3)ccc21)c1ccc(-c2c3nc(c(-c4c(F)cccc4F)c4ccc([nH]4)c(-c4c(F)cccc4F)c4nc(c(-c5c(F)cccc5F)c5ccc2[nH]5)C=C4)C=C3)cc1
REMARK SMILES IDX 5 1 4 2 3 3 1 4 2 5 26 7 27 8 79 9 28 10 78 11 29 12 30 13
REMARK SMILES IDX 31 14 72 15 32 16 77 17 71 18 73 19 33 20 76 21 70 22 69 23
REMARK SMILES IDX 34 25 60 26 43 27 59 28 44 29 47 30 58 31 74 32 45 33 46 34
REMARK SMILES IDX 57 36 75 37 48 38 35 39 36 40 41 41 37 42 38 43 40 44 42 45
REMARK SMILES IDX 39 46 61 47 62 48 67 49 63 50 64 51 66 52 68 53 65 54 49 55
REMARK SMILES IDX 50 56 55 57 51 58 52 59 54 60 56 61 53 62 6 63 7 64 8 65
REMARK SMILES IDX 9 67 10 68 11 69 25 70 12 71 13 72 24 73 14 74 23 75 15 76
REMARK SMILES IDX 16 77 17 78 18 79 22 80 19 81 21 82 20 83
REMARK H PARENT 3 6 73 24 47 35 7 66
REMARK Flexibility Score: inf
ROOT
ATOM      1  C   UNL A   1      37.884  19.588  25.009  1.00  0.00     0.042 C 
ENDROOT
BRANCH   1   2
ATOM      2  C   UNL A   1      39.113  20.095  25.748  1.00  0.00     0.118 C 
BRANCH   2   3
ATOM      3  N   UNL A   1      40.149  19.080  25.880  1.00  0.00    -0.352 N 
ATOM      4  O   UNL A   1      42.245  18.260  25.991  1.00  0.00    -0.269 OA
ATOM      5  C   UNL A   1      41.496  19.230  26.086  1.00  0.00     0.251 C 
ATOM      6  H   UNL A   1      39.836  18.148  25.812  1.00  0.00     0.163 HD
BRANCH   5   7
ATOM      7  C   UNL A   1      42.049  20.559  26.415  1.00  0.00     0.039 A 
ATOM      8  C   UNL A   1      42.421  21.441  25.397  1.00  0.00     0.014 A 
ATOM      9  C   UNL A   1      42.159  20.943  27.754  1.00  0.00     0.014 A 
ATOM     10  C   UNL A   1      43.018  22.653  25.716  1.00  0.00     0.010 A 
ATOM     11  C   UNL A   1      42.669  22.204  28.072  1.00  0.00     0.010 A 
ATOM     12  C   UNL A   1      43.108  23.065  27.054  1.00  0.00    -0.014 A 
BRANCH  12  13
ATOM     13  C   UNL A   1      43.525  24.456  27.352  1.00  0.00     0.031 A 
ATOM     14  C   UNL A   1      42.537  25.497  27.790  1.00  0.00     0.074 A 
ATOM     15  C   UNL A   1      44.829  24.765  27.207  1.00  0.00     0.049 A 
ATOM     16  N   UNL A   1      42.746  26.761  28.055  1.00  0.00    -0.248 NA
ATOM     17  C   UNL A   1      41.137  25.075  27.946  1.00  0.00     0.031 C 
ATOM     18  C   UNL A   1      45.871  23.832  26.767  1.00  0.00     0.029 A 
ATOM     19  N   UNL A   1      45.504  25.941  27.408  1.00  0.00    -0.354 N 
ATOM     20  C   UNL A   1      41.507  27.291  28.388  1.00  0.00     0.074 A 
ATOM     21  C   UNL A   1      40.545  26.214  28.282  1.00  0.00     0.031 C 
ATOM     22  C   UNL A   1      47.053  24.463  26.753  1.00  0.00     0.029 A 
ATOM     23  C   UNL A   1      46.843  25.860  27.109  1.00  0.00     0.049 A 
ATOM     24  H   UNL A   1      45.072  26.764  27.735  1.00  0.00     0.167 HD
ATOM     25  C   UNL A   1      41.209  28.563  28.747  1.00  0.00     0.037 A 
ATOM     26  C   UNL A   1      47.792  26.813  27.078  1.00  0.00     0.037 A 
ATOM     27  C   UNL A   1      42.182  29.620  28.866  1.00  0.00     0.049 A 
ATOM     28  C   UNL A   1      47.414  28.219  27.440  1.00  0.00     0.074 A 
ATOM     29  C   UNL A   1      41.988  30.920  29.301  1.00  0.00     0.029 A 
ATOM     30  N   UNL A   1      43.522  29.506  28.531  1.00  0.00    -0.354 N 
ATOM     31  N   UNL A   1      46.254  28.687  27.833  1.00  0.00    -0.248 NA
ATOM     32  C   UNL A   1      48.472  29.233  27.346  1.00  0.00     0.031 C 
ATOM     33  C   UNL A   1      43.195  31.611  29.165  1.00  0.00     0.029 A 
ATOM     34  C   UNL A   1      44.155  30.727  28.701  1.00  0.00     0.049 A 
ATOM     35  H   UNL A   1      43.960  28.681  28.219  1.00  0.00     0.167 HD
ATOM     36  C   UNL A   1      46.445  30.044  28.042  1.00  0.00     0.074 A 
ATOM     37  C   UNL A   1      47.840  30.319  27.766  1.00  0.00     0.031 C 
ATOM     38  C   UNL A   1      45.544  30.984  28.418  1.00  0.00     0.037 A 
BRANCH  25  39
ATOM     39  C   UNL A   1      39.775  28.911  29.023  1.00  0.00     0.057 A 
ATOM     40  C   UNL A   1      38.885  29.259  28.002  1.00  0.00     0.134 A 
ATOM     41  C   UNL A   1      39.255  28.784  30.319  1.00  0.00     0.134 A 
ATOM     42  F   UNL A   1      39.318  29.403  26.740  1.00  0.00    -0.206 F 
ATOM     43  C   UNL A   1      37.528  29.469  28.258  1.00  0.00     0.040 A 
ATOM     44  C   UNL A   1      37.898  28.969  30.584  1.00  0.00     0.040 A 
ATOM     45  F   UNL A   1      40.054  28.444  31.342  1.00  0.00    -0.206 F 
ATOM     46  C   UNL A   1      37.029  29.312  29.551  1.00  0.00     0.006 A 
ENDBRANCH  25  39
BRANCH  26  47
ATOM     47  C   UNL A   1      49.170  26.481  26.634  1.00  0.00     0.057 A 
ATOM     48  C   UNL A   1      49.578  26.682  25.311  1.00  0.00     0.134 A 
ATOM     49  C   UNL A   1      50.103  25.927  27.520  1.00  0.00     0.134 A 
ATOM     50  F   UNL A   1      48.725  27.194  24.412  1.00  0.00    -0.206 F 
ATOM     51  C   UNL A   1      50.852  26.315  24.877  1.00  0.00     0.040 A 
ATOM     52  C   UNL A   1      51.391  25.588  27.108  1.00  0.00     0.040 A 
ATOM     53  F   UNL A   1      49.779  25.718  28.805  1.00  0.00    -0.206 F 
ATOM     54  C   UNL A   1      51.764  25.769  25.780  1.00  0.00     0.006 A 
ENDBRANCH  26  47
BRANCH  38  55
ATOM     55  C   UNL A   1      46.044  32.390  28.559  1.00  0.00     0.057 A 
ATOM     56  C   UNL A   1      45.982  33.302  27.498  1.00  0.00     0.134 A 
ATOM     57  C   UNL A   1      46.558  32.848  29.779  1.00  0.00     0.134 A 
ATOM     58  F   UNL A   1      45.516  32.919  26.300  1.00  0.00    -0.206 F 
ATOM     59  C   UNL A   1      46.432  34.615  27.638  1.00  0.00     0.040 A 
ATOM     60  C   UNL A   1      46.984  34.167  29.940  1.00  0.00     0.040 A 
ATOM     61  F   UNL A   1      46.640  32.027  30.837  1.00  0.00    -0.206 F 
ATOM     62  C   UNL A   1      46.927  35.053  28.865  1.00  0.00     0.006 A 
ENDBRANCH  38  55
ENDBRANCH  12  13
ENDBRANCH   5   7
ENDBRANCH   2   3
ENDBRANCH   1   2
BRANCH   1  63
ATOM     63  C   UNL A   1      36.807  20.644  24.826  1.00  0.00     0.117 C 
BRANCH  63  64
ATOM     64  N   UNL A   1      35.475  20.098  25.002  1.00  0.00    -0.355 N 
ATOM     65  C   UNL A   1      34.289  20.755  25.162  1.00  0.00     0.229 C 
ATOM     66  H   UNL A   1      35.419  19.115  25.006  1.00  0.00     0.163 HD
ATOM     67  O   UNL A   1      33.282  20.074  25.362  1.00  0.00    -0.274 OA
BRANCH  65  68
ATOM     68  C   UNL A   1      34.275  22.278  25.118  1.00  0.00     0.127 C 
ATOM     69  C   UNL A   1      34.331  22.916  26.531  1.00  0.00     0.042 C 
ATOM     70  C   UNL A   1      32.974  22.798  24.601  1.00  0.00     0.031 A 
ATOM     71  C   UNL A   1      33.365  24.108  26.502  1.00  0.00     0.124 C 
ATOM     72  N   UNL A   1      32.496  23.819  25.375  1.00  0.00    -0.341 N 
ATOM     73  C   UNL A   1      32.081  22.576  23.588  1.00  0.00     0.025 A 
ATOM     74  C   UNL A   1      31.309  24.296  24.903  1.00  0.00     0.090 A 
ATOM     75  C   UNL A   1      31.040  23.520  23.774  1.00  0.00     0.032 A 
BRANCH  74  76
ATOM     76  C   UNL A   1      30.433  25.331  25.427  1.00  0.00     0.209 C 
ATOM     77  O   UNL A   1      29.841  25.224  26.500  1.00  0.00    -0.287 OA
BRANCH  76  78
ATOM     78  C   UNL A   1      30.239  26.599  24.698  1.00  0.00     0.024 A 
ATOM     79  C   UNL A   1      31.170  27.624  24.890  1.00  0.00     0.012 A 
ATOM     80  C   UNL A   1      29.135  26.788  23.863  1.00  0.00     0.012 A 
ATOM     81  C   UNL A   1      31.025  28.825  24.199  1.00  0.00     0.001 A 
ATOM     82  C   UNL A   1      29.002  27.986  23.162  1.00  0.00     0.001 A 
ATOM     83  C   UNL A   1      29.950  29.000  23.326  1.00  0.00     0.000 A 
ENDBRANCH  76  78
ENDBRANCH  74  76
ENDBRANCH  65  68
ENDBRANCH  63  64
ENDBRANCH   1  63
TORSDOF 12
ENDMDL
