MODEL 1
REMARK VINA RESULT:     -12.0      0.000      0.000
REMARK SMILES O=C(NCCCNC(=O)c1ccc(-c2c3nc(c(-c4c(F)cccc4F)c4ccc([nH]4)c(-c4c(F)cccc4F)c4nc(c(-c5c(F)cccc5F)c5ccc2[nH]5)C=C4)C=C3)cc1)C1=Cc2cc(C(F)(F)F)ccc2O[C@@H]1C(F)(F)F
REMARK SMILES IDX 5 1 4 2 3 3 1 4 2 5 64 7 65 8 77 9 66 10 76 11 67 12 75 13
REMARK SMILES IDX 68 14 74 15 73 16 78 17 79 18 80 19 81 20 69 21 70 22 71 23
REMARK SMILES IDX 72 24 6 25 7 26 8 27 9 29 10 30 11 31 63 32 12 33 62 34
REMARK SMILES IDX 13 35 14 36 15 37 56 38 16 39 61 40 55 41 57 42 17 43 60 44
REMARK SMILES IDX 54 45 53 46 18 48 44 49 27 50 43 51 28 52 31 53 42 54 58 55
REMARK SMILES IDX 29 56 30 57 41 59 59 60 32 61 19 62 20 63 25 64 21 65 22 66
REMARK SMILES IDX 24 67 26 68 23 69 45 70 46 71 51 72 47 73 48 74 50 75 52 76
REMARK SMILES IDX 49 77 33 78 34 79 39 80 35 81 36 82 38 83 40 84 37 85
REMARK H PARENT 3 6 7 28 57 47 31 58
REMARK Flexibility Score: inf
ROOT
ATOM      1  C   UNL A   1      37.301  21.179  24.501  1.00  0.00     0.042 C 
ENDROOT
BRANCH   1   2
ATOM      2  C   UNL A   1      37.146  22.648  24.117  1.00  0.00     0.118 C 
BRANCH   2   3
ATOM      3  N   UNL A   1      35.997  22.896  23.242  1.00  0.00    -0.352 N 
ATOM      4  O   UNL A   1      34.061  23.843  22.551  1.00  0.00    -0.270 OA
ATOM      5  C   UNL A   1      34.815  23.557  23.472  1.00  0.00     0.251 C 
ATOM      6  H   UNL A   1      36.088  22.527  22.334  1.00  0.00     0.163 HD
BRANCH   5   7
ATOM      7  C   UNL A   1      34.521  23.962  24.858  1.00  0.00     0.067 C 
ATOM      8  C   UNL A   1      34.790  25.221  25.224  1.00  0.00     0.025 C 
ATOM      9  C   UNL A   1      33.627  23.070  25.662  1.00  0.00     0.314 C 
ATOM     10  C   UNL A   1      33.604  25.876  25.788  1.00  0.00     0.018 A 
ATOM     11  O   UNL A   1      32.442  23.747  26.148  1.00  0.00    -0.475 OA
ATOM     12  C   UNL A   1      33.475  27.258  25.596  1.00  0.00     0.025 A 
ATOM     13  C   UNL A   1      32.468  25.120  26.130  1.00  0.00     0.128 A 
ATOM     14  C   UNL A   1      32.215  27.875  25.657  1.00  0.00     0.056 A 
ATOM     15  C   UNL A   1      31.227  25.739  26.270  1.00  0.00     0.048 A 
ATOM     16  C   UNL A   1      31.096  27.105  26.013  1.00  0.00     0.017 A 
BRANCH   9  17
ATOM     17  C   UNL A   1      34.410  22.450  26.833  1.00  0.00     0.429 C 
ATOM     18  F   UNL A   1      33.736  22.595  27.999  1.00  0.00    -0.167 F 
ATOM     19  F   UNL A   1      34.613  21.123  26.661  1.00  0.00    -0.167 F 
ATOM     20  F   UNL A   1      35.625  23.024  26.998  1.00  0.00    -0.167 F 
ENDBRANCH   9  17
BRANCH  14  21
ATOM     21  C   UNL A   1      32.066  29.331  25.283  1.00  0.00     0.416 C 
ATOM     22  F   UNL A   1      30.867  29.599  24.700  1.00  0.00    -0.166 F 
ATOM     23  F   UNL A   1      32.154  30.160  26.363  1.00  0.00    -0.166 F 
ATOM     24  F   UNL A   1      33.019  29.764  24.413  1.00  0.00    -0.166 F 
ENDBRANCH  14  21
ENDBRANCH   5   7
ENDBRANCH   2   3
ENDBRANCH   1   2
BRANCH   1  25
ATOM     25  C   UNL A   1      38.185  20.972  25.728  1.00  0.00     0.118 C 
BRANCH  25  26
ATOM     26  N   UNL A   1      39.186  19.921  25.582  1.00  0.00    -0.352 N 
ATOM     27  C   UNL A   1      40.521  19.904  25.922  1.00  0.00     0.251 C 
ATOM     28  H   UNL A   1      38.853  19.088  25.174  1.00  0.00     0.163 HD
ATOM     29  O   UNL A   1      41.194  18.908  25.656  1.00  0.00    -0.269 OA
BRANCH  27  30
ATOM     30  C   UNL A   1      41.169  21.081  26.549  1.00  0.00     0.039 A 
ATOM     31  C   UNL A   1      41.755  22.049  25.727  1.00  0.00     0.014 A 
ATOM     32  C   UNL A   1      41.183  21.257  27.932  1.00  0.00     0.014 A 
ATOM     33  C   UNL A   1      42.256  23.230  26.286  1.00  0.00     0.010 A 
ATOM     34  C   UNL A   1      41.561  22.482  28.472  1.00  0.00     0.010 A 
ATOM     35  C   UNL A   1      42.107  23.484  27.658  1.00  0.00    -0.014 A 
BRANCH  35  36
ATOM     36  C   UNL A   1      42.510  24.782  28.265  1.00  0.00     0.031 A 
ATOM     37  C   UNL A   1      41.486  25.864  28.494  1.00  0.00     0.074 A 
ATOM     38  C   UNL A   1      43.813  25.023  28.526  1.00  0.00     0.049 A 
ATOM     39  N   UNL A   1      41.659  27.093  28.913  1.00  0.00    -0.248 NA
ATOM     40  C   UNL A   1      40.089  25.540  28.162  1.00  0.00     0.031 C 
ATOM     41  C   UNL A   1      44.917  24.095  28.270  1.00  0.00     0.029 A 
ATOM     42  N   UNL A   1      44.429  26.129  29.057  1.00  0.00    -0.354 N 
ATOM     43  C   UNL A   1      40.405  27.691  28.856  1.00  0.00     0.074 A 
ATOM     44  C   UNL A   1      39.494  26.714  28.304  1.00  0.00     0.031 C 
ATOM     45  C   UNL A   1      46.068  24.654  28.680  1.00  0.00     0.029 A 
ATOM     46  C   UNL A   1      45.791  25.992  29.189  1.00  0.00     0.049 A 
ATOM     47  H   UNL A   1      43.943  26.944  29.317  1.00  0.00     0.167 HD
ATOM     48  C   UNL A   1      40.036  28.930  29.259  1.00  0.00     0.037 A 
ATOM     49  C   UNL A   1      46.713  26.848  29.668  1.00  0.00     0.037 A 
ATOM     50  C   UNL A   1      40.931  29.876  29.870  1.00  0.00     0.049 A 
ATOM     51  C   UNL A   1      46.268  28.195  30.168  1.00  0.00     0.074 A 
ATOM     52  C   UNL A   1      40.640  31.120  30.401  1.00  0.00     0.029 A 
ATOM     53  N   UNL A   1      42.292  29.675  30.041  1.00  0.00    -0.354 N 
ATOM     54  N   UNL A   1      45.065  28.714  30.183  1.00  0.00    -0.248 NA
ATOM     55  C   UNL A   1      47.308  29.071  30.724  1.00  0.00     0.031 C 
ATOM     56  C   UNL A   1      41.832  31.687  30.864  1.00  0.00     0.029 A 
ATOM     57  C   UNL A   1      42.857  30.778  30.658  1.00  0.00     0.049 A 
ATOM     58  H   UNL A   1      42.783  28.867  29.765  1.00  0.00     0.167 HD
ATOM     59  C   UNL A   1      45.197  29.965  30.771  1.00  0.00     0.074 A 
ATOM     60  C   UNL A   1      46.596  30.117  31.117  1.00  0.00     0.031 C 
ATOM     61  C   UNL A   1      44.250  30.907  30.999  1.00  0.00     0.037 A 
BRANCH  48  62
ATOM     62  C   UNL A   1      38.598  29.324  29.074  1.00  0.00     0.057 A 
ATOM     63  C   UNL A   1      38.088  29.698  27.824  1.00  0.00     0.134 A 
ATOM     64  C   UNL A   1      37.704  29.294  30.151  1.00  0.00     0.134 A 
ATOM     65  F   UNL A   1      38.895  29.760  26.752  1.00  0.00    -0.206 F 
ATOM     66  C   UNL A   1      36.750  30.056  27.656  1.00  0.00     0.040 A 
ATOM     67  C   UNL A   1      36.356  29.621  29.990  1.00  0.00     0.040 A 
ATOM     68  F   UNL A   1      38.123  28.940  31.376  1.00  0.00    -0.206 F 
ATOM     69  C   UNL A   1      35.877  30.010  28.742  1.00  0.00     0.006 A 
ENDBRANCH  48  62
BRANCH  49  70
ATOM     70  C   UNL A   1      48.143  26.450  29.733  1.00  0.00     0.057 A 
ATOM     71  C   UNL A   1      49.017  26.732  28.676  1.00  0.00     0.134 A 
ATOM     72  C   UNL A   1      48.668  25.775  30.840  1.00  0.00     0.134 A 
ATOM     73  F   UNL A   1      48.570  27.362  27.580  1.00  0.00    -0.206 F 
ATOM     74  C   UNL A   1      50.355  26.336  28.707  1.00  0.00     0.040 A 
ATOM     75  C   UNL A   1      50.010  25.395  30.896  1.00  0.00     0.040 A 
ATOM     76  F   UNL A   1      47.885  25.484  31.890  1.00  0.00    -0.206 F 
ATOM     77  C   UNL A   1      50.857  25.668  29.822  1.00  0.00     0.006 A 
ENDBRANCH  49  70
BRANCH  61  78
ATOM     78  C   UNL A   1      44.692  32.168  31.679  1.00  0.00     0.057 A 
ATOM     79  C   UNL A   1      45.114  33.288  30.953  1.00  0.00     0.134 A 
ATOM     80  C   UNL A   1      44.661  32.273  33.076  1.00  0.00     0.134 A 
ATOM     81  F   UNL A   1      45.177  33.246  29.614  1.00  0.00    -0.206 F 
ATOM     82  C   UNL A   1      45.518  34.459  31.593  1.00  0.00     0.040 A 
ATOM     83  C   UNL A   1      45.037  33.448  33.726  1.00  0.00     0.040 A 
ATOM     84  F   UNL A   1      44.256  31.239  33.828  1.00  0.00    -0.206 F 
ATOM     85  C   UNL A   1      45.474  34.544  32.984  1.00  0.00     0.006 A 
ENDBRANCH  61  78
ENDBRANCH  35  36
ENDBRANCH  27  30
ENDBRANCH  25  26
ENDBRANCH   1  25
TORSDOF 12
ENDMDL
MODEL 2
REMARK VINA RESULT:     -12.0      2.789      7.029
REMARK SMILES O=C(NCCCNC(=O)c1ccc(-c2c3nc(c(-c4c(F)cccc4F)c4ccc([nH]4)c(-c4c(F)cccc4F)c4nc(c(-c5c(F)cccc5F)c5ccc2[nH]5)C=C4)C=C3)cc1)C1=Cc2cc(C(F)(F)F)ccc2O[C@@H]1C(F)(F)F
REMARK SMILES IDX 5 1 4 2 3 3 1 4 2 5 64 7 65 8 77 9 66 10 76 11 67 12 75 13
REMARK SMILES IDX 68 14 74 15 73 16 78 17 79 18 80 19 81 20 69 21 70 22 71 23
REMARK SMILES IDX 72 24 6 25 7 26 8 27 9 29 10 30 11 31 63 32 12 33 62 34
REMARK SMILES IDX 13 35 14 36 15 37 56 38 16 39 61 40 55 41 57 42 17 43 60 44
REMARK SMILES IDX 54 45 53 46 18 48 44 49 27 50 43 51 28 52 31 53 42 54 58 55
REMARK SMILES IDX 29 56 30 57 41 59 59 60 32 61 19 62 20 63 25 64 21 65 22 66
REMARK SMILES IDX 24 67 26 68 23 69 45 70 46 71 51 72 47 73 48 74 50 75 52 76
REMARK SMILES IDX 49 77 33 78 34 79 39 80 35 81 36 82 38 83 40 84 37 85
REMARK H PARENT 3 6 7 28 57 47 31 58
REMARK Flexibility Score: inf
ROOT
ATOM      1  C   UNL A   1      32.792  28.828  26.113  1.00  0.00     0.042 C 
ENDROOT
BRANCH   1   2
ATOM      2  C   UNL A   1      31.409  28.275  26.447  1.00  0.00     0.118 C 
BRANCH   2   3
ATOM      3  N   UNL A   1      31.448  26.910  26.980  1.00  0.00    -0.352 N 
ATOM      4  O   UNL A   1      31.745  24.667  26.961  1.00  0.00    -0.270 OA
ATOM      5  C   UNL A   1      31.509  25.696  26.341  1.00  0.00     0.251 C 
ATOM      6  H   UNL A   1      31.426  26.855  27.962  1.00  0.00     0.163 HD
BRANCH   5   7
ATOM      7  C   UNL A   1      31.344  25.689  24.877  1.00  0.00     0.067 C 
ATOM      8  C   UNL A   1      30.116  25.866  24.374  1.00  0.00     0.025 C 
ATOM      9  C   UNL A   1      32.578  25.838  24.043  1.00  0.00     0.314 C 
ATOM     10  C   UNL A   1      30.089  26.980  23.418  1.00  0.00     0.018 A 
ATOM     11  O   UNL A   1      32.527  26.984  23.158  1.00  0.00    -0.475 OA
ATOM     12  C   UNL A   1      28.903  27.721  23.323  1.00  0.00     0.025 A 
ATOM     13  C   UNL A   1      31.288  27.536  22.938  1.00  0.00     0.128 A 
ATOM     14  C   UNL A   1      28.919  29.038  22.833  1.00  0.00     0.056 A 
ATOM     15  C   UNL A   1      31.297  28.812  22.377  1.00  0.00     0.048 A 
ATOM     16  C   UNL A   1      30.124  29.568  22.345  1.00  0.00     0.017 A 
BRANCH   9  17
ATOM     17  C   UNL A   1      32.835  24.551  23.240  1.00  0.00     0.429 C 
ATOM     18  F   UNL A   1      32.134  24.552  22.081  1.00  0.00    -0.167 F 
ATOM     19  F   UNL A   1      34.141  24.414  22.908  1.00  0.00    -0.167 F 
ATOM     20  F   UNL A   1      32.476  23.440  23.925  1.00  0.00    -0.167 F 
ENDBRANCH   9  17
BRANCH  14  21
ATOM     21  C   UNL A   1      27.669  29.883  22.891  1.00  0.00     0.416 C 
ATOM     22  F   UNL A   1      27.749  30.868  23.824  1.00  0.00    -0.166 F 
ATOM     23  F   UNL A   1      27.404  30.506  21.706  1.00  0.00    -0.166 F 
ATOM     24  F   UNL A   1      26.549  29.168  23.185  1.00  0.00    -0.166 F 
ENDBRANCH  14  21
ENDBRANCH   5   7
ENDBRANCH   2   3
ENDBRANCH   1   2
BRANCH   1  25
ATOM     25  C   UNL A   1      33.731  28.858  27.316  1.00  0.00     0.118 C 
BRANCH  25  26
ATOM     26  N   UNL A   1      33.819  30.152  27.983  1.00  0.00    -0.352 N 
ATOM     27  C   UNL A   1      34.886  30.770  28.599  1.00  0.00     0.251 C 
ATOM     28  H   UNL A   1      32.980  30.668  27.995  1.00  0.00     0.163 HD
ATOM     29  O   UNL A   1      34.713  31.858  29.146  1.00  0.00    -0.269 OA
BRANCH  27  30
ATOM     30  C   UNL A   1      36.218  30.122  28.660  1.00  0.00     0.039 A 
ATOM     31  C   UNL A   1      37.065  30.209  27.550  1.00  0.00     0.014 A 
ATOM     32  C   UNL A   1      36.655  29.456  29.804  1.00  0.00     0.014 A 
ATOM     33  C   UNL A   1      38.374  29.721  27.629  1.00  0.00     0.010 A 
ATOM     34  C   UNL A   1      37.992  29.089  29.926  1.00  0.00     0.010 A 
ATOM     35  C   UNL A   1      38.869  29.211  28.840  1.00  0.00    -0.014 A 
BRANCH  35  36
ATOM     36  C   UNL A   1      40.292  28.804  28.997  1.00  0.00     0.031 A 
ATOM     37  C   UNL A   1      41.304  29.777  29.545  1.00  0.00     0.074 A 
ATOM     38  C   UNL A   1      40.693  27.591  28.563  1.00  0.00     0.049 A 
ATOM     39  N   UNL A   1      42.602  29.645  29.660  1.00  0.00    -0.248 NA
ATOM     40  C   UNL A   1      40.801  31.092  29.975  1.00  0.00     0.031 C 
ATOM     41  C   UNL A   1      39.832  26.586  27.932  1.00  0.00     0.029 A 
ATOM     42  N   UNL A   1      41.932  26.999  28.577  1.00  0.00    -0.354 N 
ATOM     43  C   UNL A   1      43.065  30.867  30.136  1.00  0.00     0.074 A 
ATOM     44  C   UNL A   1      41.923  31.747  30.228  1.00  0.00     0.031 C 
ATOM     45  C   UNL A   1      40.559  25.491  27.657  1.00  0.00     0.029 A 
ATOM     46  C   UNL A   1      41.943  25.728  28.052  1.00  0.00     0.049 A 
ATOM     47  H   UNL A   1      42.736  27.443  28.928  1.00  0.00     0.167 HD
ATOM     48  C   UNL A   1      44.324  31.215  30.497  1.00  0.00     0.037 A 
ATOM     49  C   UNL A   1      42.954  24.851  27.908  1.00  0.00     0.037 A 
ATOM     50  C   UNL A   1      45.446  30.317  30.468  1.00  0.00     0.049 A 
ATOM     51  C   UNL A   1      44.329  25.240  28.376  1.00  0.00     0.074 A 
ATOM     52  C   UNL A   1      46.740  30.540  30.903  1.00  0.00     0.029 A 
ATOM     53  N   UNL A   1      45.402  29.017  29.986  1.00  0.00    -0.354 N 
ATOM     54  N   UNL A   1      44.735  26.371  28.900  1.00  0.00    -0.248 NA
ATOM     55  C   UNL A   1      45.386  24.229  28.239  1.00  0.00     0.031 C 
ATOM     56  C   UNL A   1      47.490  29.386  30.652  1.00  0.00     0.029 A 
ATOM     57  C   UNL A   1      46.652  28.431  30.101  1.00  0.00     0.049 A 
ATOM     58  H   UNL A   1      44.602  28.578  29.619  1.00  0.00     0.167 HD
ATOM     59  C   UNL A   1      46.084  26.200  29.178  1.00  0.00     0.074 A 
ATOM     60  C   UNL A   1      46.423  24.848  28.783  1.00  0.00     0.031 C 
ATOM     61  C   UNL A   1      46.966  27.083  29.707  1.00  0.00     0.037 A 
BRANCH  48  62
ATOM     62  C   UNL A   1      44.545  32.621  30.978  1.00  0.00     0.057 A 
ATOM     63  C   UNL A   1      44.855  33.665  30.096  1.00  0.00     0.134 A 
ATOM     64  C   UNL A   1      44.413  32.943  32.334  1.00  0.00     0.134 A 
ATOM     65  F   UNL A   1      45.010  33.423  28.785  1.00  0.00    -0.206 F 
ATOM     66  C   UNL A   1      45.054  34.971  30.547  1.00  0.00     0.040 A 
ATOM     67  C   UNL A   1      44.580  34.251  32.795  1.00  0.00     0.040 A 
ATOM     68  F   UNL A   1      44.112  31.994  33.234  1.00  0.00    -0.206 F 
ATOM     69  C   UNL A   1      44.908  35.267  31.902  1.00  0.00     0.006 A 
ENDBRANCH  48  62
BRANCH  49  70
ATOM     70  C   UNL A   1      42.703  23.507  27.328  1.00  0.00     0.057 A 
ATOM     71  C   UNL A   1      42.872  23.271  25.957  1.00  0.00     0.134 A 
ATOM     72  C   UNL A   1      42.282  22.432  28.119  1.00  0.00     0.134 A 
ATOM     73  F   UNL A   1      43.257  24.265  25.144  1.00  0.00    -0.206 F 
ATOM     74  C   UNL A   1      42.609  22.023  25.391  1.00  0.00     0.040 A 
ATOM     75  C   UNL A   1      42.040  21.171  27.570  1.00  0.00     0.040 A 
ATOM     76  F   UNL A   1      42.111  22.589  29.440  1.00  0.00    -0.206 F 
ATOM     77  C   UNL A   1      42.194  20.967  26.199  1.00  0.00     0.006 A 
ENDBRANCH  49  70
BRANCH  61  78
ATOM     78  C   UNL A   1      48.371  26.601  29.914  1.00  0.00     0.057 A 
ATOM     79  C   UNL A   1      49.381  26.848  28.976  1.00  0.00     0.134 A 
ATOM     80  C   UNL A   1      48.724  25.912  31.081  1.00  0.00     0.134 A 
ATOM     81  F   UNL A   1      49.104  27.493  27.833  1.00  0.00    -0.206 F 
ATOM     82  C   UNL A   1      50.687  26.403  29.179  1.00  0.00     0.040 A 
ATOM     83  C   UNL A   1      50.031  25.485  31.308  1.00  0.00     0.040 A 
ATOM     84  F   UNL A   1      47.804  25.653  32.023  1.00  0.00    -0.206 F 
ATOM     85  C   UNL A   1      51.017  25.724  30.351  1.00  0.00     0.006 A 
ENDBRANCH  61  78
ENDBRANCH  35  36
ENDBRANCH  27  30
ENDBRANCH  25  26
ENDBRANCH   1  25
TORSDOF 12
ENDMDL
MODEL 3
REMARK VINA RESULT:     -12.0      0.516      6.203
REMARK SMILES O=C(NCCCNC(=O)c1ccc(-c2c3nc(c(-c4c(F)cccc4F)c4ccc([nH]4)c(-c4c(F)cccc4F)c4nc(c(-c5c(F)cccc5F)c5ccc2[nH]5)C=C4)C=C3)cc1)C1=Cc2cc(C(F)(F)F)ccc2O[C@@H]1C(F)(F)F
REMARK SMILES IDX 5 1 4 2 3 3 1 4 2 5 64 7 65 8 77 9 66 10 76 11 67 12 75 13
REMARK SMILES IDX 68 14 74 15 73 16 78 17 79 18 80 19 81 20 69 21 70 22 71 23
REMARK SMILES IDX 72 24 6 25 7 26 8 27 9 29 10 30 11 31 63 32 12 33 62 34
REMARK SMILES IDX 13 35 14 36 15 37 56 38 16 39 61 40 55 41 57 42 17 43 60 44
REMARK SMILES IDX 54 45 53 46 18 48 44 49 27 50 43 51 28 52 31 53 42 54 58 55
REMARK SMILES IDX 29 56 30 57 41 59 59 60 32 61 19 62 20 63 25 64 21 65 22 66
REMARK SMILES IDX 24 67 26 68 23 69 45 70 46 71 51 72 47 73 48 74 50 75 52 76
REMARK SMILES IDX 49 77 33 78 34 79 39 80 35 81 36 82 38 83 40 84 37 85
REMARK H PARENT 3 6 7 28 57 47 31 58
REMARK Flexibility Score: inf
ROOT
ATOM      1  C   UNL A   1      37.758  20.808  24.677  1.00  0.00     0.042 C 
ENDROOT
BRANCH   1   2
ATOM      2  C   UNL A   1      37.330  22.271  24.597  1.00  0.00     0.118 C 
BRANCH   2   3
ATOM      3  N   UNL A   1      36.298  22.514  23.585  1.00  0.00    -0.352 N 
ATOM      4  O   UNL A   1      34.478  23.475  22.645  1.00  0.00    -0.270 OA
ATOM      5  C   UNL A   1      35.111  23.201  23.656  1.00  0.00     0.251 C 
ATOM      6  H   UNL A   1      36.488  22.117  22.705  1.00  0.00     0.163 HD
BRANCH   5   7
ATOM      7  C   UNL A   1      34.664  23.651  24.986  1.00  0.00     0.067 C 
ATOM      8  C   UNL A   1      34.970  24.895  25.374  1.00  0.00     0.025 C 
ATOM      9  C   UNL A   1      33.610  22.837  25.670  1.00  0.00     0.314 C 
ATOM     10  C   UNL A   1      33.768  25.640  25.767  1.00  0.00     0.018 A 
ATOM     11  O   UNL A   1      32.421  23.603  25.986  1.00  0.00    -0.475 OA
ATOM     12  C   UNL A   1      33.764  27.024  25.547  1.00  0.00     0.025 A 
ATOM     13  C   UNL A   1      32.546  24.971  25.959  1.00  0.00     0.128 A 
ATOM     14  C   UNL A   1      32.553  27.728  25.432  1.00  0.00     0.056 A 
ATOM     15  C   UNL A   1      31.344  25.676  25.926  1.00  0.00     0.048 A 
ATOM     16  C   UNL A   1      31.346  27.043  25.641  1.00  0.00     0.017 A 
BRANCH   9  17
ATOM     17  C   UNL A   1      34.184  22.187  26.941  1.00  0.00     0.429 C 
ATOM     18  F   UNL A   1      33.205  21.601  27.672  1.00  0.00    -0.167 F 
ATOM     19  F   UNL A   1      35.089  21.222  26.653  1.00  0.00    -0.167 F 
ATOM     20  F   UNL A   1      34.799  23.088  27.744  1.00  0.00    -0.167 F 
ENDBRANCH   9  17
BRANCH  14  21
ATOM     21  C   UNL A   1      32.558  29.183  25.028  1.00  0.00     0.416 C 
ATOM     22  F   UNL A   1      33.048  29.993  26.004  1.00  0.00    -0.166 F 
ATOM     23  F   UNL A   1      33.326  29.416  23.924  1.00  0.00    -0.166 F 
ATOM     24  F   UNL A   1      31.322  29.660  24.719  1.00  0.00    -0.166 F 
ENDBRANCH  14  21
ENDBRANCH   5   7
ENDBRANCH   2   3
ENDBRANCH   1   2
BRANCH   1  25
ATOM     25  C   UNL A   1      38.540  20.483  25.947  1.00  0.00     0.118 C 
BRANCH  25  26
ATOM     26  N   UNL A   1      39.644  19.550  25.755  1.00  0.00    -0.352 N 
ATOM     27  C   UNL A   1      40.991  19.696  26.005  1.00  0.00     0.251 C 
ATOM     28  H   UNL A   1      39.385  18.674  25.387  1.00  0.00     0.163 HD
ATOM     29  O   UNL A   1      41.757  18.778  25.714  1.00  0.00    -0.269 OA
BRANCH  27  30
ATOM     30  C   UNL A   1      41.537  20.956  26.565  1.00  0.00     0.039 A 
ATOM     31  C   UNL A   1      42.009  21.938  25.689  1.00  0.00     0.014 A 
ATOM     32  C   UNL A   1      41.563  21.194  27.939  1.00  0.00     0.014 A 
ATOM     33  C   UNL A   1      42.406  23.185  26.183  1.00  0.00     0.010 A 
ATOM     34  C   UNL A   1      41.834  22.473  28.417  1.00  0.00     0.010 A 
ATOM     35  C   UNL A   1      42.264  23.485  27.547  1.00  0.00    -0.014 A 
BRANCH  35  36
ATOM     36  C   UNL A   1      42.553  24.841  28.088  1.00  0.00     0.031 A 
ATOM     37  C   UNL A   1      43.947  25.199  28.534  1.00  0.00     0.074 A 
ATOM     38  C   UNL A   1      41.545  25.721  28.264  1.00  0.00     0.049 A 
ATOM     39  N   UNL A   1      44.374  26.287  29.125  1.00  0.00    -0.248 NA
ATOM     40  C   UNL A   1      44.993  24.181  28.336  1.00  0.00     0.031 C 
ATOM     41  C   UNL A   1      40.134  25.470  27.956  1.00  0.00     0.029 A 
ATOM     42  N   UNL A   1      41.550  27.003  28.755  1.00  0.00    -0.354 N 
ATOM     43  C   UNL A   1      45.719  26.065  29.400  1.00  0.00     0.074 A 
ATOM     44  C   UNL A   1      46.023  24.719  28.971  1.00  0.00     0.031 C 
ATOM     45  C   UNL A   1      39.419  26.574  28.227  1.00  0.00     0.029 A 
ATOM     46  C   UNL A   1      40.310  27.596  28.766  1.00  0.00     0.049 A 
ATOM     47  H   UNL A   1      42.365  27.454  29.071  1.00  0.00     0.167 HD
ATOM     48  C   UNL A   1      46.630  26.917  29.930  1.00  0.00     0.037 A 
ATOM     49  C   UNL A   1      39.933  28.825  29.163  1.00  0.00     0.037 A 
ATOM     50  C   UNL A   1      46.340  28.278  30.293  1.00  0.00     0.049 A 
ATOM     51  C   UNL A   1      40.974  29.774  29.689  1.00  0.00     0.074 A 
ATOM     52  C   UNL A   1      47.211  29.252  30.747  1.00  0.00     0.029 A 
ATOM     53  N   UNL A   1      45.083  28.859  30.231  1.00  0.00    -0.354 N 
ATOM     54  N   UNL A   1      42.258  29.576  29.866  1.00  0.00    -0.248 NA
ATOM     55  C   UNL A   1      40.516  31.119  30.063  1.00  0.00     0.031 C 
ATOM     56  C   UNL A   1      46.474  30.415  30.994  1.00  0.00     0.029 A 
ATOM     57  C   UNL A   1      45.153  30.176  30.653  1.00  0.00     0.049 A 
ATOM     58  H   UNL A   1      44.263  28.403  29.932  1.00  0.00     0.167 HD
ATOM     59  C   UNL A   1      42.765  30.775  30.347  1.00  0.00     0.074 A 
ATOM     60  C   UNL A   1      41.654  31.701  30.415  1.00  0.00     0.031 C 
ATOM     61  C   UNL A   1      44.035  31.082  30.707  1.00  0.00     0.037 A 
BRANCH  48  62
ATOM     62  C   UNL A   1      48.029  26.407  30.124  1.00  0.00     0.057 A 
ATOM     63  C   UNL A   1      48.432  25.787  31.314  1.00  0.00     0.134 A 
ATOM     64  C   UNL A   1      48.975  26.504  29.097  1.00  0.00     0.134 A 
ATOM     65  F   UNL A   1      47.578  25.672  32.344  1.00  0.00    -0.206 F 
ATOM     66  C   UNL A   1      49.732  25.309  31.487  1.00  0.00     0.040 A 
ATOM     67  C   UNL A   1      50.271  26.004  29.247  1.00  0.00     0.040 A 
ATOM     68  F   UNL A   1      48.657  27.082  27.928  1.00  0.00    -0.206 F 
ATOM     69  C   UNL A   1      50.654  25.410  30.447  1.00  0.00     0.006 A 
ENDBRANCH  48  62
BRANCH  49  70
ATOM     70  C   UNL A   1      38.513  29.247  29.048  1.00  0.00     0.057 A 
ATOM     71  C   UNL A   1      37.997  29.717  27.833  1.00  0.00     0.134 A 
ATOM     72  C   UNL A   1      37.641  29.199  30.142  1.00  0.00     0.134 A 
ATOM     73  F   UNL A   1      38.787  29.802  26.753  1.00  0.00    -0.206 F 
ATOM     74  C   UNL A   1      36.675  30.147  27.716  1.00  0.00     0.040 A 
ATOM     75  C   UNL A   1      36.309  29.602  30.033  1.00  0.00     0.040 A 
ATOM     76  F   UNL A   1      38.070  28.750  31.330  1.00  0.00    -0.206 F 
ATOM     77  C   UNL A   1      35.824  30.087  28.819  1.00  0.00     0.006 A 
ENDBRANCH  49  70
BRANCH  61  78
ATOM     78  C   UNL A   1      44.291  32.483  31.177  1.00  0.00     0.057 A 
ATOM     79  C   UNL A   1      44.611  33.513  30.284  1.00  0.00     0.134 A 
ATOM     80  C   UNL A   1      44.182  32.811  32.534  1.00  0.00     0.134 A 
ATOM     81  F   UNL A   1      44.741  33.262  28.973  1.00  0.00    -0.206 F 
ATOM     82  C   UNL A   1      44.841  34.815  30.729  1.00  0.00     0.040 A 
ATOM     83  C   UNL A   1      44.384  34.113  32.987  1.00  0.00     0.040 A 
ATOM     84  F   UNL A   1      43.868  31.870  33.438  1.00  0.00    -0.206 F 
ATOM     85  C   UNL A   1      44.721  35.120  32.084  1.00  0.00     0.006 A 
ENDBRANCH  61  78
ENDBRANCH  35  36
ENDBRANCH  27  30
ENDBRANCH  25  26
ENDBRANCH   1  25
TORSDOF 12
ENDMDL
