MODEL 1
REMARK VINA RESULT:     -12.1      0.000      0.000
REMARK SMILES CC1(C)C(NC(=O)[C@@H]2CCC[C@@H](C(=O)NCCCNC(=O)c3ccc(-c4c5nc(c(-c6c(F)cccc6F)c6ccc([nH]6)c(-c6c(F)cccc6F)c6nc(c(-c7c(F)cccc7F)c7ccc4[nH]7)C=C6)C=C5)cc3)C2)C1(C)C
REMARK SMILES IDX 17 1 16 2 15 3 13 4 14 5 12 7 8 8 9 9 76 10 10 11 11 12 6 13
REMARK SMILES IDX 5 14 7 16 4 17 1 18 2 19 3 20 77 21 78 22 79 23 18 24 19 25
REMARK SMILES IDX 20 26 21 28 22 29 23 30 75 31 24 32 74 33 25 34 26 35 27 36
REMARK SMILES IDX 68 37 28 38 73 39 67 40 69 41 29 42 72 43 66 44 65 45 30 47
REMARK SMILES IDX 56 48 39 49 55 50 40 51 43 52 54 53 70 54 41 55 42 56 53 58
REMARK SMILES IDX 71 59 44 60 31 61 32 62 37 63 33 64 34 65 36 66 38 67 35 68
REMARK SMILES IDX 57 69 58 70 63 71 59 72 60 73 62 74 64 75 61 76 45 77 46 78
REMARK SMILES IDX 51 79 47 80 48 81 50 82 52 83 49 84
REMARK H PARENT 15 6 5 15 19 27 69 46 43 57
REMARK Flexibility Score: inf
ROOT
ATOM      1  C   UNL A   1      37.446  19.504  24.664  1.00  0.00     0.042 C 
ENDROOT
BRANCH   1   2
ATOM      2  C   UNL A   1      36.045  19.986  25.039  1.00  0.00     0.117 C 
BRANCH   2   3
ATOM      3  N   UNL A   1      35.847  21.378  24.676  1.00  0.00    -0.356 N 
ATOM      4  C   UNL A   1      34.722  22.043  24.302  1.00  0.00     0.223 C 
ATOM      5  O   UNL A   1      34.853  23.196  23.889  1.00  0.00    -0.275 OA
ATOM      6  H   UNL A   1      36.661  21.930  24.705  1.00  0.00     0.163 HD
BRANCH   4   7
ATOM      7  C   UNL A   1      33.350  21.389  24.461  1.00  0.00     0.079 C 
ATOM      8  C   UNL A   1      32.035  23.372  25.405  1.00  0.00     0.079 C 
ATOM      9  C   UNL A   1      31.073  23.264  24.219  1.00  0.00     0.013 C 
ATOM     10  C   UNL A   1      32.637  21.986  25.689  1.00  0.00     0.027 C 
ATOM     11  C   UNL A   1      31.829  22.838  22.968  1.00  0.00     0.002 C 
ATOM     12  C   UNL A   1      32.528  21.497  23.168  1.00  0.00     0.013 C 
BRANCH   8  13
ATOM     13  C   UNL A   1      31.350  23.976  26.630  1.00  0.00     0.223 C 
ATOM     14  N   UNL A   1      31.662  25.271  26.973  1.00  0.00    -0.352 N 
ATOM     15  H   UNL A   1      31.236  25.616  27.792  1.00  0.00     0.163 HD
ATOM     16  O   UNL A   1      30.549  23.345  27.320  1.00  0.00    -0.275 OA
BRANCH  14  17
ATOM     17  C   UNL A   1      32.530  26.177  26.286  1.00  0.00     0.094 C 
ATOM     18  C   UNL A   1      32.863  27.123  23.902  1.00  0.00     0.014 C 
ATOM     19  C   UNL A   1      32.011  27.048  25.152  1.00  0.00    -0.007 C 
ATOM     20  C   UNL A   1      30.534  27.052  24.817  1.00  0.00     0.014 C 
ATOM     21  C   UNL A   1      32.502  27.682  26.469  1.00  0.00    -0.007 C 
ATOM     22  C   UNL A   1      33.848  28.380  26.511  1.00  0.00     0.014 C 
ATOM     23  C   UNL A   1      31.527  28.300  27.446  1.00  0.00     0.014 C 
ENDBRANCH  14  17
ENDBRANCH   8  13
ENDBRANCH   4   7
ENDBRANCH   2   3
ENDBRANCH   1   2
BRANCH   1  24
ATOM     24  C   UNL A   1      38.570  20.158  25.470  1.00  0.00     0.118 C 
BRANCH  24  25
ATOM     25  N   UNL A   1      39.728  19.291  25.629  1.00  0.00    -0.352 N 
ATOM     26  C   UNL A   1      41.005  19.568  26.033  1.00  0.00     0.251 C 
ATOM     27  H   UNL A   1      39.566  18.345  25.407  1.00  0.00     0.163 HD
ATOM     28  O   UNL A   1      41.873  18.697  25.917  1.00  0.00    -0.269 OA
BRANCH  26  29
ATOM     29  C   UNL A   1      41.372  20.885  26.596  1.00  0.00     0.039 A 
ATOM     30  C   UNL A   1      41.913  21.848  25.738  1.00  0.00     0.014 A 
ATOM     31  C   UNL A   1      41.253  21.159  27.960  1.00  0.00     0.014 A 
ATOM     32  C   UNL A   1      42.287  23.098  26.238  1.00  0.00     0.010 A 
ATOM     33  C   UNL A   1      41.563  22.430  28.447  1.00  0.00     0.010 A 
ATOM     34  C   UNL A   1      42.090  23.409  27.593  1.00  0.00    -0.014 A 
BRANCH  34  35
ATOM     35  C   UNL A   1      42.440  24.752  28.121  1.00  0.00     0.031 A 
ATOM     36  C   UNL A   1      43.862  25.086  28.478  1.00  0.00     0.074 A 
ATOM     37  C   UNL A   1      41.467  25.661  28.319  1.00  0.00     0.049 A 
ATOM     38  N   UNL A   1      44.352  26.195  28.974  1.00  0.00    -0.248 NA
ATOM     39  C   UNL A   1      44.865  24.028  28.274  1.00  0.00     0.031 C 
ATOM     40  C   UNL A   1      40.042  25.445  28.061  1.00  0.00     0.029 A 
ATOM     41  N   UNL A   1      41.528  26.950  28.787  1.00  0.00    -0.354 N 
ATOM     42  C   UNL A   1      45.709  25.964  29.155  1.00  0.00     0.074 A 
ATOM     43  C   UNL A   1      45.959  24.594  28.761  1.00  0.00     0.031 C 
ATOM     44  C   UNL A   1      39.368  26.569  28.350  1.00  0.00     0.029 A 
ATOM     45  C   UNL A   1      40.307  27.575  28.838  1.00  0.00     0.049 A 
ATOM     46  H   UNL A   1      42.368  27.385  29.060  1.00  0.00     0.167 HD
ATOM     47  C   UNL A   1      46.666  26.821  29.588  1.00  0.00     0.037 A 
ATOM     48  C   UNL A   1      39.979  28.819  29.233  1.00  0.00     0.037 A 
ATOM     49  C   UNL A   1      46.423  28.192  29.954  1.00  0.00     0.049 A 
ATOM     50  C   UNL A   1      41.060  29.757  29.688  1.00  0.00     0.074 A 
ATOM     51  C   UNL A   1      47.336  29.154  30.353  1.00  0.00     0.029 A 
ATOM     52  N   UNL A   1      45.175  28.796  29.966  1.00  0.00    -0.354 N 
ATOM     53  N   UNL A   1      42.350  29.544  29.790  1.00  0.00    -0.248 NA
ATOM     54  C   UNL A   1      40.643  31.113  30.071  1.00  0.00     0.031 C 
ATOM     55  C   UNL A   1      46.636  30.331  30.637  1.00  0.00     0.029 A 
ATOM     56  C   UNL A   1      45.292  30.115  30.377  1.00  0.00     0.049 A 
ATOM     57  H   UNL A   1      44.331  28.354  29.720  1.00  0.00     0.167 HD
ATOM     58  C   UNL A   1      42.900  30.745  30.222  1.00  0.00     0.074 A 
ATOM     59  C   UNL A   1      41.805  31.685  30.347  1.00  0.00     0.031 C 
ATOM     60  C   UNL A   1      44.195  31.041  30.490  1.00  0.00     0.037 A 
BRANCH  47  61
ATOM     61  C   UNL A   1      48.070  26.297  29.682  1.00  0.00     0.057 A 
ATOM     62  C   UNL A   1      48.962  26.382  28.605  1.00  0.00     0.134 A 
ATOM     63  C   UNL A   1      48.544  25.730  30.871  1.00  0.00     0.134 A 
ATOM     64  F   UNL A   1      48.567  26.904  27.434  1.00  0.00    -0.206 F 
ATOM     65  C   UNL A   1      50.268  25.897  28.698  1.00  0.00     0.040 A 
ATOM     66  C   UNL A   1      49.856  25.264  30.985  1.00  0.00     0.040 A 
ATOM     67  F   UNL A   1      47.745  25.623  31.943  1.00  0.00    -0.206 F 
ATOM     68  C   UNL A   1      50.720  25.341  29.894  1.00  0.00     0.006 A 
ENDBRANCH  47  61
BRANCH  48  69
ATOM     69  C   UNL A   1      38.564  29.265  29.180  1.00  0.00     0.057 A 
ATOM     70  C   UNL A   1      38.006  29.751  27.992  1.00  0.00     0.134 A 
ATOM     71  C   UNL A   1      37.742  29.223  30.310  1.00  0.00     0.134 A 
ATOM     72  F   UNL A   1      38.753  29.831  26.879  1.00  0.00    -0.206 F 
ATOM     73  C   UNL A   1      36.686  30.197  27.932  1.00  0.00     0.040 A 
ATOM     74  C   UNL A   1      36.411  29.646  30.261  1.00  0.00     0.040 A 
ATOM     75  F   UNL A   1      38.215  28.761  31.477  1.00  0.00    -0.206 F 
ATOM     76  C   UNL A   1      35.883  30.141  29.070  1.00  0.00     0.006 A 
ENDBRANCH  48  69
BRANCH  60  77
ATOM     77  C   UNL A   1      44.500  32.448  30.911  1.00  0.00     0.057 A 
ATOM     78  C   UNL A   1      44.532  32.827  32.259  1.00  0.00     0.134 A 
ATOM     79  C   UNL A   1      44.782  33.431  29.955  1.00  0.00     0.134 A 
ATOM     80  F   UNL A   1      44.256  31.935  33.223  1.00  0.00    -0.206 F 
ATOM     81  C   UNL A   1      44.807  34.141  32.640  1.00  0.00     0.040 A 
ATOM     82  C   UNL A   1      45.083  34.743  30.324  1.00  0.00     0.040 A 
ATOM     83  F   UNL A   1      44.775  33.132  28.647  1.00  0.00    -0.206 F 
ATOM     84  C   UNL A   1      45.087  35.102  31.670  1.00  0.00     0.006 A 
ENDBRANCH  60  77
ENDBRANCH  34  35
ENDBRANCH  26  29
ENDBRANCH  24  25
ENDBRANCH   1  24
TORSDOF 12
ENDMDL
MODEL 2
REMARK VINA RESULT:     -12.1      0.378      6.314
REMARK SMILES CC1(C)C(NC(=O)[C@@H]2CCC[C@@H](C(=O)NCCCNC(=O)c3ccc(-c4c5nc(c(-c6c(F)cccc6F)c6ccc([nH]6)c(-c6c(F)cccc6F)c6nc(c(-c7c(F)cccc7F)c7ccc4[nH]7)C=C6)C=C5)cc3)C2)C1(C)C
REMARK SMILES IDX 17 1 16 2 15 3 13 4 14 5 12 7 8 8 9 9 76 10 10 11 11 12 6 13
REMARK SMILES IDX 5 14 7 16 4 17 1 18 2 19 3 20 77 21 78 22 79 23 18 24 19 25
REMARK SMILES IDX 20 26 21 28 22 29 23 30 75 31 24 32 74 33 25 34 26 35 27 36
REMARK SMILES IDX 68 37 28 38 73 39 67 40 69 41 29 42 72 43 66 44 65 45 30 47
REMARK SMILES IDX 56 48 39 49 55 50 40 51 43 52 54 53 70 54 41 55 42 56 53 58
REMARK SMILES IDX 71 59 44 60 31 61 32 62 37 63 33 64 34 65 36 66 38 67 35 68
REMARK SMILES IDX 57 69 58 70 63 71 59 72 60 73 62 74 64 75 61 76 45 77 46 78
REMARK SMILES IDX 51 79 47 80 48 81 50 82 52 83 49 84
REMARK H PARENT 15 6 5 15 19 27 69 46 43 57
REMARK Flexibility Score: inf
ROOT
ATOM      1  C   UNL A   1      37.529  19.660  24.680  1.00  0.00     0.042 C 
ENDROOT
BRANCH   1   2
ATOM      2  C   UNL A   1      36.115  20.107  25.048  1.00  0.00     0.117 C 
BRANCH   2   3
ATOM      3  N   UNL A   1      35.868  21.478  24.639  1.00  0.00    -0.356 N 
ATOM      4  C   UNL A   1      34.716  22.096  24.263  1.00  0.00     0.223 C 
ATOM      5  O   UNL A   1      34.805  23.236  23.806  1.00  0.00    -0.275 OA
ATOM      6  H   UNL A   1      36.666  22.056  24.631  1.00  0.00     0.163 HD
BRANCH   4   7
ATOM      7  C   UNL A   1      33.369  21.408  24.473  1.00  0.00     0.079 C 
ATOM      8  C   UNL A   1      32.025  23.372  25.416  1.00  0.00     0.079 C 
ATOM      9  C   UNL A   1      31.034  23.215  24.260  1.00  0.00     0.013 C 
ATOM     10  C   UNL A   1      32.674  22.009  25.710  1.00  0.00     0.027 C 
ATOM     11  C   UNL A   1      31.767  22.784  22.997  1.00  0.00     0.002 C 
ATOM     12  C   UNL A   1      32.508  21.467  23.202  1.00  0.00     0.013 C 
BRANCH   8  13
ATOM     13  C   UNL A   1      31.358  23.982  26.648  1.00  0.00     0.223 C 
ATOM     14  N   UNL A   1      31.656  25.286  26.967  1.00  0.00    -0.352 N 
ATOM     15  H   UNL A   1      31.243  25.636  27.791  1.00  0.00     0.163 HD
ATOM     16  O   UNL A   1      30.584  23.347  27.364  1.00  0.00    -0.275 OA
BRANCH  14  17
ATOM     17  C   UNL A   1      32.493  26.198  26.248  1.00  0.00     0.094 C 
ATOM     18  C   UNL A   1      32.753  27.120  23.846  1.00  0.00     0.014 C 
ATOM     19  C   UNL A   1      31.933  27.047  25.118  1.00  0.00    -0.007 C 
ATOM     20  C   UNL A   1      30.448  27.025  24.819  1.00  0.00     0.014 C 
ATOM     21  C   UNL A   1      32.446  27.704  26.415  1.00  0.00    -0.007 C 
ATOM     22  C   UNL A   1      33.783  28.422  26.416  1.00  0.00     0.014 C 
ATOM     23  C   UNL A   1      31.487  28.319  27.408  1.00  0.00     0.014 C 
ENDBRANCH  14  17
ENDBRANCH   8  13
ENDBRANCH   4   7
ENDBRANCH   2   3
ENDBRANCH   1   2
BRANCH   1  24
ATOM     24  C   UNL A   1      38.619  20.200  25.608  1.00  0.00     0.118 C 
BRANCH  24  25
ATOM     25  N   UNL A   1      39.765  19.309  25.710  1.00  0.00    -0.352 N 
ATOM     26  C   UNL A   1      41.064  19.558  26.058  1.00  0.00     0.251 C 
ATOM     27  H   UNL A   1      39.573  18.367  25.492  1.00  0.00     0.163 HD
ATOM     28  O   UNL A   1      41.909  18.670  25.898  1.00  0.00    -0.269 OA
BRANCH  26  29
ATOM     29  C   UNL A   1      41.484  20.864  26.609  1.00  0.00     0.039 A 
ATOM     30  C   UNL A   1      41.944  21.843  25.723  1.00  0.00     0.014 A 
ATOM     31  C   UNL A   1      41.491  21.112  27.983  1.00  0.00     0.014 A 
ATOM     32  C   UNL A   1      42.364  23.084  26.209  1.00  0.00     0.010 A 
ATOM     33  C   UNL A   1      41.846  22.373  28.463  1.00  0.00     0.010 A 
ATOM     34  C   UNL A   1      42.294  23.369  27.582  1.00  0.00    -0.014 A 
BRANCH  34  35
ATOM     35  C   UNL A   1      42.693  24.702  28.101  1.00  0.00     0.031 A 
ATOM     36  C   UNL A   1      41.661  25.772  28.333  1.00  0.00     0.074 A 
ATOM     37  C   UNL A   1      43.994  24.966  28.323  1.00  0.00     0.049 A 
ATOM     38  N   UNL A   1      41.824  27.000  28.757  1.00  0.00    -0.248 NA
ATOM     39  C   UNL A   1      40.264  25.424  28.028  1.00  0.00     0.031 C 
ATOM     40  C   UNL A   1      45.098  24.033  28.089  1.00  0.00     0.029 A 
ATOM     41  N   UNL A   1      44.611  26.098  28.793  1.00  0.00    -0.354 N 
ATOM     42  C   UNL A   1      40.559  27.574  28.754  1.00  0.00     0.074 A 
ATOM     43  C   UNL A   1      39.645  26.576  28.242  1.00  0.00     0.031 C 
ATOM     44  C   UNL A   1      46.252  24.622  28.440  1.00  0.00     0.029 A 
ATOM     45  C   UNL A   1      45.974  25.980  28.896  1.00  0.00     0.049 A 
ATOM     46  H   UNL A   1      44.121  26.918  29.033  1.00  0.00     0.167 HD
ATOM     47  C   UNL A   1      40.188  28.812  29.163  1.00  0.00     0.037 A 
ATOM     48  C   UNL A   1      46.898  26.865  29.314  1.00  0.00     0.037 A 
ATOM     49  C   UNL A   1      41.093  29.796  29.699  1.00  0.00     0.049 A 
ATOM     50  C   UNL A   1      46.459  28.224  29.782  1.00  0.00     0.074 A 
ATOM     51  C   UNL A   1      40.803  31.057  30.191  1.00  0.00     0.029 A 
ATOM     52  N   UNL A   1      42.464  29.627  29.814  1.00  0.00    -0.354 N 
ATOM     53  N   UNL A   1      45.250  28.728  29.836  1.00  0.00    -0.248 NA
ATOM     54  C   UNL A   1      47.511  29.131  30.260  1.00  0.00     0.031 C 
ATOM     55  C   UNL A   1      42.004  31.665  30.572  1.00  0.00     0.029 A 
ATOM     56  C   UNL A   1      43.036  30.766  30.356  1.00  0.00     0.049 A 
ATOM     57  H   UNL A   1      42.957  28.818  29.548  1.00  0.00     0.167 HD
ATOM     58  C   UNL A   1      45.393  29.999  30.378  1.00  0.00     0.074 A 
ATOM     59  C   UNL A   1      46.804  30.181  30.650  1.00  0.00     0.031 C 
ATOM     60  C   UNL A   1      44.441  30.931  30.628  1.00  0.00     0.037 A 
BRANCH  47  61
ATOM     61  C   UNL A   1      38.733  29.168  29.051  1.00  0.00     0.057 A 
ATOM     62  C   UNL A   1      37.866  29.075  30.147  1.00  0.00     0.134 A 
ATOM     63  C   UNL A   1      38.202  29.637  27.844  1.00  0.00     0.134 A 
ATOM     64  F   UNL A   1      38.309  28.621  31.330  1.00  0.00    -0.206 F 
ATOM     65  C   UNL A   1      36.515  29.411  30.040  1.00  0.00     0.040 A 
ATOM     66  C   UNL A   1      36.858  30.001  27.730  1.00  0.00     0.040 A 
ATOM     67  F   UNL A   1      38.979  29.757  26.757  1.00  0.00    -0.206 F 
ATOM     68  C   UNL A   1      36.009  29.881  28.829  1.00  0.00     0.006 A 
ENDBRANCH  47  61
BRANCH  48  69
ATOM     69  C   UNL A   1      48.332  26.482  29.344  1.00  0.00     0.057 A 
ATOM     70  C   UNL A   1      49.176  26.768  28.265  1.00  0.00     0.134 A 
ATOM     71  C   UNL A   1      48.889  25.820  30.443  1.00  0.00     0.134 A 
ATOM     72  F   UNL A   1      48.694  27.386  27.176  1.00  0.00    -0.206 F 
ATOM     73  C   UNL A   1      50.520  26.393  28.268  1.00  0.00     0.040 A 
ATOM     74  C   UNL A   1      50.237  25.458  30.470  1.00  0.00     0.040 A 
ATOM     75  F   UNL A   1      48.133  25.525  31.512  1.00  0.00    -0.206 F 
ATOM     76  C   UNL A   1      51.054  25.738  29.376  1.00  0.00     0.006 A 
ENDBRANCH  48  69
BRANCH  60  77
ATOM     77  C   UNL A   1      44.893  32.215  31.258  1.00  0.00     0.057 A 
ATOM     78  C   UNL A   1      45.268  33.324  30.489  1.00  0.00     0.134 A 
ATOM     79  C   UNL A   1      44.935  32.348  32.651  1.00  0.00     0.134 A 
ATOM     80  F   UNL A   1      45.264  33.257  29.149  1.00  0.00    -0.206 F 
ATOM     81  C   UNL A   1      45.697  34.512  31.084  1.00  0.00     0.040 A 
ATOM     82  C   UNL A   1      45.337  33.539  33.259  1.00  0.00     0.040 A 
ATOM     83  F   UNL A   1      44.580  31.326  33.444  1.00  0.00    -0.206 F 
ATOM     84  C   UNL A   1      45.727  34.622  32.473  1.00  0.00     0.006 A 
ENDBRANCH  60  77
ENDBRANCH  34  35
ENDBRANCH  26  29
ENDBRANCH  24  25
ENDBRANCH   1  24
TORSDOF 12
ENDMDL
MODEL 3
REMARK VINA RESULT:     -11.7      4.308      9.294
REMARK SMILES CC1(C)C(NC(=O)[C@@H]2CCC[C@@H](C(=O)NCCCNC(=O)c3ccc(-c4c5nc(c(-c6c(F)cccc6F)c6ccc([nH]6)c(-c6c(F)cccc6F)c6nc(c(-c7c(F)cccc7F)c7ccc4[nH]7)C=C6)C=C5)cc3)C2)C1(C)C
REMARK SMILES IDX 17 1 16 2 15 3 13 4 14 5 12 7 8 8 9 9 76 10 10 11 11 12 6 13
REMARK SMILES IDX 5 14 7 16 4 17 1 18 2 19 3 20 77 21 78 22 79 23 18 24 19 25
REMARK SMILES IDX 20 26 21 28 22 29 23 30 75 31 24 32 74 33 25 34 26 35 27 36
REMARK SMILES IDX 68 37 28 38 73 39 67 40 69 41 29 42 72 43 66 44 65 45 30 47
REMARK SMILES IDX 56 48 39 49 55 50 40 51 43 52 54 53 70 54 41 55 42 56 53 58
REMARK SMILES IDX 71 59 44 60 31 61 32 62 37 63 33 64 34 65 36 66 38 67 35 68
REMARK SMILES IDX 57 69 58 70 63 71 59 72 60 73 62 74 64 75 61 76 45 77 46 78
REMARK SMILES IDX 51 79 47 80 48 81 50 82 52 83 49 84
REMARK H PARENT 15 6 5 15 19 27 69 46 43 57
REMARK Flexibility Score: inf
ROOT
ATOM      1  C   UNL A   1      31.030  31.935  26.490  1.00  0.00     0.042 C 
ENDROOT
BRANCH   1   2
ATOM      2  C   UNL A   1      31.050  30.891  25.375  1.00  0.00     0.117 C 
BRANCH   2   3
ATOM      3  N   UNL A   1      31.742  29.683  25.790  1.00  0.00    -0.356 N 
ATOM      4  C   UNL A   1      31.685  28.417  25.298  1.00  0.00     0.223 C 
ATOM      5  O   UNL A   1      32.257  27.532  25.937  1.00  0.00    -0.275 OA
ATOM      6  H   UNL A   1      32.352  29.801  26.554  1.00  0.00     0.163 HD
BRANCH   4   7
ATOM      7  C   UNL A   1      30.990  28.138  23.967  1.00  0.00     0.079 C 
ATOM      8  C   UNL A   1      32.315  26.081  23.214  1.00  0.00     0.079 C 
ATOM      9  C   UNL A   1      31.006  25.290  23.161  1.00  0.00     0.013 C 
ATOM     10  C   UNL A   1      32.013  27.568  22.965  1.00  0.00     0.027 C 
ATOM     11  C   UNL A   1      30.071  25.750  24.271  1.00  0.00     0.002 C 
ATOM     12  C   UNL A   1      29.760  27.239  24.158  1.00  0.00     0.013 C 
BRANCH   8  13
ATOM     13  C   UNL A   1      33.349  25.521  22.238  1.00  0.00     0.223 C 
ATOM     14  N   UNL A   1      34.404  24.804  22.753  1.00  0.00    -0.352 N 
ATOM     15  H   UNL A   1      35.075  24.494  22.101  1.00  0.00     0.163 HD
ATOM     16  O   UNL A   1      33.278  25.701  21.022  1.00  0.00    -0.275 OA
BRANCH  14  17
ATOM     17  C   UNL A   1      34.646  24.454  24.119  1.00  0.00     0.094 C 
ATOM     18  C   UNL A   1      33.443  23.237  26.058  1.00  0.00     0.014 C 
ATOM     19  C   UNL A   1      34.109  23.156  24.700  1.00  0.00    -0.007 C 
ATOM     20  C   UNL A   1      33.411  22.156  23.800  1.00  0.00     0.014 C 
ATOM     21  C   UNL A   1      35.627  23.386  24.561  1.00  0.00    -0.007 C 
ATOM     22  C   UNL A   1      36.455  23.702  25.792  1.00  0.00     0.014 C 
ATOM     23  C   UNL A   1      36.436  22.638  23.526  1.00  0.00     0.014 C 
ENDBRANCH  14  17
ENDBRANCH   8  13
ENDBRANCH   4   7
ENDBRANCH   2   3
ENDBRANCH   1   2
BRANCH   1  24
ATOM     24  C   UNL A   1      32.412  32.466  26.877  1.00  0.00     0.118 C 
BRANCH  24  25
ATOM     25  N   UNL A   1      32.369  33.827  27.392  1.00  0.00    -0.352 N 
ATOM     26  C   UNL A   1      33.101  34.435  28.375  1.00  0.00     0.251 C 
ATOM     27  H   UNL A   1      31.699  34.407  26.962  1.00  0.00     0.163 HD
ATOM     28  O   UNL A   1      32.762  35.556  28.768  1.00  0.00    -0.269 OA
BRANCH  26  29
ATOM     29  C   UNL A   1      34.279  33.780  28.982  1.00  0.00     0.039 A 
ATOM     30  C   UNL A   1      34.068  32.709  29.857  1.00  0.00     0.014 A 
ATOM     31  C   UNL A   1      35.576  34.245  28.755  1.00  0.00     0.014 A 
ATOM     32  C   UNL A   1      35.156  32.077  30.463  1.00  0.00     0.010 A 
ATOM     33  C   UNL A   1      36.666  33.572  29.307  1.00  0.00     0.010 A 
ATOM     34  C   UNL A   1      36.468  32.486  30.172  1.00  0.00    -0.014 A 
BRANCH  34  35
ATOM     35  C   UNL A   1      37.631  31.787  30.775  1.00  0.00     0.031 A 
ATOM     36  C   UNL A   1      38.092  32.129  32.165  1.00  0.00     0.074 A 
ATOM     37  C   UNL A   1      38.301  30.870  30.051  1.00  0.00     0.049 A 
ATOM     38  N   UNL A   1      39.100  31.642  32.845  1.00  0.00    -0.248 NA
ATOM     39  C   UNL A   1      37.336  33.170  32.878  1.00  0.00     0.031 C 
ATOM     40  C   UNL A   1      37.988  30.485  28.674  1.00  0.00     0.029 A 
ATOM     41  N   UNL A   1      39.389  30.097  30.373  1.00  0.00    -0.354 N 
ATOM     42  C   UNL A   1      39.109  32.326  34.054  1.00  0.00     0.074 A 
ATOM     43  C   UNL A   1      38.035  33.295  33.997  1.00  0.00     0.031 C 
ATOM     44  C   UNL A   1      38.847  29.532  28.279  1.00  0.00     0.029 A 
ATOM     45  C   UNL A   1      39.787  29.259  29.361  1.00  0.00     0.049 A 
ATOM     46  H   UNL A   1      39.842  30.141  31.246  1.00  0.00     0.167 HD
ATOM     47  C   UNL A   1      39.921  32.149  35.124  1.00  0.00     0.037 A 
ATOM     48  C   UNL A   1      40.794  28.368  29.312  1.00  0.00     0.037 A 
ATOM     49  C   UNL A   1      40.972  31.167  35.191  1.00  0.00     0.049 A 
ATOM     50  C   UNL A   1      41.668  28.174  30.519  1.00  0.00     0.074 A 
ATOM     51  C   UNL A   1      41.813  30.874  36.253  1.00  0.00     0.029 A 
ATOM     52  N   UNL A   1      41.325  30.316  34.155  1.00  0.00    -0.354 N 
ATOM     53  N   UNL A   1      41.621  28.783  31.679  1.00  0.00    -0.248 NA
ATOM     54  C   UNL A   1      42.726  27.161  30.414  1.00  0.00     0.031 C 
ATOM     55  C   UNL A   1      42.697  29.869  35.846  1.00  0.00     0.029 A 
ATOM     56  C   UNL A   1      42.380  29.507  34.547  1.00  0.00     0.049 A 
ATOM     57  H   UNL A   1      40.891  30.292  33.272  1.00  0.00     0.167 HD
ATOM     58  C   UNL A   1      42.623  28.208  32.450  1.00  0.00     0.074 A 
ATOM     59  C   UNL A   1      43.251  27.193  31.630  1.00  0.00     0.031 C 
ATOM     60  C   UNL A   1      42.990  28.496  33.722  1.00  0.00     0.037 A 
BRANCH  47  61
ATOM     61  C   UNL A   1      39.698  33.037  36.314  1.00  0.00     0.057 A 
ATOM     62  C   UNL A   1      38.789  32.698  37.325  1.00  0.00     0.134 A 
ATOM     63  C   UNL A   1      40.422  34.225  36.466  1.00  0.00     0.134 A 
ATOM     64  F   UNL A   1      38.056  31.578  37.234  1.00  0.00    -0.206 F 
ATOM     65  C   UNL A   1      38.588  33.525  38.432  1.00  0.00     0.040 A 
ATOM     66  C   UNL A   1      40.248  35.048  37.582  1.00  0.00     0.040 A 
ATOM     67  F   UNL A   1      41.313  34.606  35.539  1.00  0.00    -0.206 F 
ATOM     68  C   UNL A   1      39.323  34.701  38.565  1.00  0.00     0.006 A 
ENDBRANCH  47  61
BRANCH  48  69
ATOM     69  C   UNL A   1      41.010  27.561  28.085  1.00  0.00     0.057 A 
ATOM     70  C   UNL A   1      41.842  28.020  27.058  1.00  0.00     0.134 A 
ATOM     71  C   UNL A   1      40.389  26.320  27.908  1.00  0.00     0.134 A 
ATOM     72  F   UNL A   1      42.450  29.212  27.164  1.00  0.00    -0.206 F 
ATOM     73  C   UNL A   1      42.035  27.284  25.888  1.00  0.00     0.040 A 
ATOM     74  C   UNL A   1      40.591  25.562  26.752  1.00  0.00     0.040 A 
ATOM     75  F   UNL A   1      39.587  25.821  28.860  1.00  0.00    -0.206 F 
ATOM     76  C   UNL A   1      41.410  26.048  25.735  1.00  0.00     0.006 A 
ENDBRANCH  48  69
BRANCH  60  77
ATOM     77  C   UNL A   1      44.098  27.676  34.314  1.00  0.00     0.057 A 
ATOM     78  C   UNL A   1      45.434  28.096  34.269  1.00  0.00     0.134 A 
ATOM     79  C   UNL A   1      43.822  26.461  34.953  1.00  0.00     0.134 A 
ATOM     80  F   UNL A   1      45.767  29.243  33.658  1.00  0.00    -0.206 F 
ATOM     81  C   UNL A   1      46.460  27.321  34.814  1.00  0.00     0.040 A 
ATOM     82  C   UNL A   1      44.836  25.690  35.524  1.00  0.00     0.040 A 
ATOM     83  F   UNL A   1      42.563  26.007  35.038  1.00  0.00    -0.206 F 
ATOM     84  C   UNL A   1      46.160  26.116  35.448  1.00  0.00     0.006 A 
ENDBRANCH  60  77
ENDBRANCH  34  35
ENDBRANCH  26  29
ENDBRANCH  24  25
ENDBRANCH   1  24
TORSDOF 12
ENDMDL
