MODEL 1
REMARK VINA RESULT:     -13.1      0.000      0.000
REMARK SMILES O=C(CC1(NC(=O)C2(c3ccccc3)CC2)CCC1)NCCCNC(=O)c1ccc(-c2c3nc(c(-c4c(F)cccc4F)c4ccc([nH]4)c(-c4c(F)cccc4F)c4nc(c(-c5c(F)cccc5F)c5ccc2[nH]5)C=C4)C=C3)cc1
REMARK SMILES IDX 21 1 20 2 1 3 2 4 3 6 4 7 17 8 19 9 18 10 5 11 6 12 7 14
REMARK SMILES IDX 8 15 15 16 16 17 9 18 10 19 14 20 11 21 13 22 12 23 22 24
REMARK SMILES IDX 23 25 24 26 25 27 26 29 27 30 28 31 80 32 29 33 79 34 30 35
REMARK SMILES IDX 31 36 32 37 73 38 33 39 78 40 72 41 74 42 34 43 77 44 71 45
REMARK SMILES IDX 70 46 35 48 61 49 44 50 60 51 45 52 48 53 59 54 75 55 46 56
REMARK SMILES IDX 47 57 58 59 76 60 49 61 36 62 37 63 42 64 38 65 39 66 41 67
REMARK SMILES IDX 43 68 40 69 62 70 63 71 68 72 64 73 65 74 67 75 69 76 66 77
REMARK SMILES IDX 50 78 51 79 56 80 52 81 53 82 55 83 57 84 54 85
REMARK H PARENT 20 5 5 13 24 28 74 47 48 58
REMARK Flexibility Score: inf
ROOT
ATOM      1  C   UNL A   1      36.295  21.853  24.228  1.00  0.00     0.117 C 
ENDROOT
BRANCH   1   2
ATOM      2  N   UNL A   1      35.131  22.424  24.884  1.00  0.00    -0.356 N 
ATOM      3  O   UNL A   1      36.325  24.110  25.857  1.00  0.00    -0.275 OA
ATOM      4  C   UNL A   1      35.235  23.684  25.462  1.00  0.00     0.222 C 
ATOM      5  H   UNL A   1      34.283  21.927  24.919  1.00  0.00     0.163 HD
BRANCH   4   6
ATOM      6  C   UNL A   1      33.808  24.608  25.589  1.00  0.00     0.128 C 
BRANCH   6   7
ATOM      7  C   UNL A   1      33.451  26.756  25.554  1.00  0.00     0.049 C 
ATOM      8  C   UNL A   1      32.010  27.797  26.076  1.00  0.00     0.029 C 
ATOM      9  C   UNL A   1      34.154  28.151  26.590  1.00  0.00     0.029 C 
ATOM     10  C   UNL A   1      32.798  28.411  27.235  1.00  0.00     0.005 C 
BRANCH   7  11
ATOM     11  N   UNL A   1      33.719  27.841  24.071  1.00  0.00    -0.349 N 
ATOM     12  C   UNL A   1      33.499  27.594  22.719  1.00  0.00     0.231 C 
ATOM     13  H   UNL A   1      34.074  28.736  24.275  1.00  0.00     0.164 HD
ATOM     14  O   UNL A   1      34.015  28.216  21.802  1.00  0.00    -0.274 OA
BRANCH  12  15
ATOM     15  C   UNL A   1      32.489  26.555  22.536  1.00  0.00     0.074 C 
ATOM     16  C   UNL A   1      32.458  25.803  21.223  1.00  0.00     0.023 C 
ATOM     17  C   UNL A   1      32.652  25.070  22.520  1.00  0.00     0.023 C 
BRANCH  15  18
ATOM     18  C   UNL A   1      31.300  27.228  23.048  1.00  0.00    -0.032 A 
ATOM     19  C   UNL A   1      30.064  26.118  23.800  1.00  0.00     0.005 A 
ATOM     20  C   UNL A   1      30.751  28.766  22.277  1.00  0.00     0.005 A 
ATOM     21  C   UNL A   1      28.371  26.603  23.890  1.00  0.00     0.000 A 
ATOM     22  C   UNL A   1      29.016  29.261  22.419  1.00  0.00     0.000 A 
ATOM     23  C   UNL A   1      27.845  28.182  23.215  1.00  0.00     0.000 A 
ENDBRANCH  15  18
ENDBRANCH  12  15
ENDBRANCH   7  11
ENDBRANCH   6   7
ENDBRANCH   4   6
ENDBRANCH   1   2
BRANCH   1  24
ATOM     24  C   UNL A   1      36.968  20.729  25.011  1.00  0.00     0.042 C 
BRANCH  24  25
ATOM     25  C   UNL A   1      38.370  21.048  25.533  1.00  0.00     0.118 C 
BRANCH  25  26
ATOM     26  N   UNL A   1      39.272  19.900  25.554  1.00  0.00    -0.352 N 
ATOM     27  C   UNL A   1      40.589  19.812  25.953  1.00  0.00     0.251 C 
ATOM     28  H   UNL A   1      38.877  19.057  25.234  1.00  0.00     0.163 HD
ATOM     29  O   UNL A   1      41.217  18.771  25.780  1.00  0.00    -0.269 OA
BRANCH  27  30
ATOM     30  C   UNL A   1      41.271  20.980  26.555  1.00  0.00     0.039 A 
ATOM     31  C   UNL A   1      41.908  21.901  25.716  1.00  0.00     0.014 A 
ATOM     32  C   UNL A   1      41.276  21.178  27.937  1.00  0.00     0.014 A 
ATOM     33  C   UNL A   1      42.448  23.075  26.254  1.00  0.00     0.010 A 
ATOM     34  C   UNL A   1      41.748  22.381  28.461  1.00  0.00     0.010 A 
ATOM     35  C   UNL A   1      42.318  23.353  27.624  1.00  0.00    -0.014 A 
BRANCH  35  36
ATOM     36  C   UNL A   1      42.723  24.666  28.200  1.00  0.00     0.031 A 
ATOM     37  C   UNL A   1      41.699  25.739  28.444  1.00  0.00     0.074 A 
ATOM     38  C   UNL A   1      44.029  24.931  28.406  1.00  0.00     0.049 A 
ATOM     39  N   UNL A   1      41.875  26.987  28.799  1.00  0.00    -0.248 NA
ATOM     40  C   UNL A   1      40.291  25.365  28.241  1.00  0.00     0.031 C 
ATOM     41  C   UNL A   1      45.130  23.992  28.182  1.00  0.00     0.029 A 
ATOM     42  N   UNL A   1      44.656  26.079  28.827  1.00  0.00    -0.354 N 
ATOM     43  C   UNL A   1      40.606  27.551  28.842  1.00  0.00     0.074 A 
ATOM     44  C   UNL A   1      39.674  26.521  28.436  1.00  0.00     0.031 C 
ATOM     45  C   UNL A   1      46.291  24.597  28.476  1.00  0.00     0.029 A 
ATOM     46  C   UNL A   1      46.027  25.980  28.859  1.00  0.00     0.049 A 
ATOM     47  H   UNL A   1      44.169  26.896  29.082  1.00  0.00     0.167 HD
ATOM     48  C   UNL A   1      40.250  28.808  29.201  1.00  0.00     0.037 A 
ATOM     49  C   UNL A   1      46.969  26.901  29.142  1.00  0.00     0.037 A 
ATOM     50  C   UNL A   1      41.176  29.828  29.620  1.00  0.00     0.049 A 
ATOM     51  C   UNL A   1      46.549  28.301  29.504  1.00  0.00     0.074 A 
ATOM     52  C   UNL A   1      40.903  31.114  30.052  1.00  0.00     0.029 A 
ATOM     53  N   UNL A   1      42.555  29.680  29.656  1.00  0.00    -0.354 N 
ATOM     54  N   UNL A   1      45.343  28.804  29.593  1.00  0.00    -0.248 NA
ATOM     55  C   UNL A   1      47.622  29.260  29.805  1.00  0.00     0.031 C 
ATOM     56  C   UNL A   1      42.117  31.762  30.297  1.00  0.00     0.029 A 
ATOM     57  C   UNL A   1      43.145  30.861  30.077  1.00  0.00     0.049 A 
ATOM     58  H   UNL A   1      43.041  28.859  29.415  1.00  0.00     0.167 HD
ATOM     59  C   UNL A   1      45.508  30.122  29.998  1.00  0.00     0.074 A 
ATOM     60  C   UNL A   1      46.932  30.342  30.138  1.00  0.00     0.031 C 
ATOM     61  C   UNL A   1      44.563  31.064  30.235  1.00  0.00     0.037 A 
BRANCH  48  62
ATOM     62  C   UNL A   1      38.790  29.156  29.153  1.00  0.00     0.057 A 
ATOM     63  C   UNL A   1      37.972  29.077  30.288  1.00  0.00     0.134 A 
ATOM     64  C   UNL A   1      38.204  29.621  27.968  1.00  0.00     0.134 A 
ATOM     65  F   UNL A   1      38.466  28.632  31.453  1.00  0.00    -0.206 F 
ATOM     66  C   UNL A   1      36.618  29.417  30.239  1.00  0.00     0.040 A 
ATOM     67  C   UNL A   1      36.860  29.994  27.913  1.00  0.00     0.040 A 
ATOM     68  F   UNL A   1      38.932  29.734  26.847  1.00  0.00    -0.206 F 
ATOM     69  C   UNL A   1      36.061  29.885  29.050  1.00  0.00     0.006 A 
ENDBRANCH  48  62
BRANCH  49  70
ATOM     70  C   UNL A   1      48.407  26.533  29.100  1.00  0.00     0.057 A 
ATOM     71  C   UNL A   1      49.177  26.764  27.953  1.00  0.00     0.134 A 
ATOM     72  C   UNL A   1      49.044  25.932  30.193  1.00  0.00     0.134 A 
ATOM     73  F   UNL A   1      48.619  27.317  26.867  1.00  0.00    -0.206 F 
ATOM     74  C   UNL A   1      50.521  26.391  27.887  1.00  0.00     0.040 A 
ATOM     75  C   UNL A   1      50.395  25.580  30.150  1.00  0.00     0.040 A 
ATOM     76  F   UNL A   1      48.365  25.690  31.323  1.00  0.00    -0.206 F 
ATOM     77  C   UNL A   1      51.135  25.802  28.990  1.00  0.00     0.006 A 
ENDBRANCH  49  70
BRANCH  61  78
ATOM     78  C   UNL A   1      45.022  32.405  30.731  1.00  0.00     0.057 A 
ATOM     79  C   UNL A   1      45.214  32.670  32.092  1.00  0.00     0.134 A 
ATOM     80  C   UNL A   1      45.343  33.422  29.822  1.00  0.00     0.134 A 
ATOM     81  F   UNL A   1      44.914  31.744  33.014  1.00  0.00    -0.206 F 
ATOM     82  C   UNL A   1      45.696  33.904  32.533  1.00  0.00     0.040 A 
ATOM     83  C   UNL A   1      45.851  34.650  30.249  1.00  0.00     0.040 A 
ATOM     84  F   UNL A   1      45.190  33.231  28.503  1.00  0.00    -0.206 F 
ATOM     85  C   UNL A   1      46.026  34.894  31.609  1.00  0.00     0.006 A 
ENDBRANCH  61  78
ENDBRANCH  35  36
ENDBRANCH  27  30
ENDBRANCH  25  26
ENDBRANCH  24  25
ENDBRANCH   1  24
TORSDOF 14
ENDMDL
MODEL 2
REMARK VINA RESULT:     -13.0      4.690      9.411
REMARK SMILES O=C(CC1(NC(=O)C2(c3ccccc3)CC2)CCC1)NCCCNC(=O)c1ccc(-c2c3nc(c(-c4c(F)cccc4F)c4ccc([nH]4)c(-c4c(F)cccc4F)c4nc(c(-c5c(F)cccc5F)c5ccc2[nH]5)C=C4)C=C3)cc1
REMARK SMILES IDX 21 1 20 2 1 3 2 4 3 6 4 7 17 8 19 9 18 10 5 11 6 12 7 14
REMARK SMILES IDX 8 15 15 16 16 17 9 18 10 19 14 20 11 21 13 22 12 23 22 24
REMARK SMILES IDX 23 25 24 26 25 27 26 29 27 30 28 31 80 32 29 33 79 34 30 35
REMARK SMILES IDX 31 36 32 37 73 38 33 39 78 40 72 41 74 42 34 43 77 44 71 45
REMARK SMILES IDX 70 46 35 48 61 49 44 50 60 51 45 52 48 53 59 54 75 55 46 56
REMARK SMILES IDX 47 57 58 59 76 60 49 61 36 62 37 63 42 64 38 65 39 66 41 67
REMARK SMILES IDX 43 68 40 69 62 70 63 71 68 72 64 73 65 74 67 75 69 76 66 77
REMARK SMILES IDX 50 78 51 79 56 80 52 81 53 82 55 83 57 84 54 85
REMARK H PARENT 20 5 5 13 24 28 74 47 48 58
REMARK Flexibility Score: inf
ROOT
ATOM      1  C   UNL A   1      31.941  30.317  26.721  1.00  0.00     0.117 C 
ENDROOT
BRANCH   1   2
ATOM      2  N   UNL A   1      32.584  29.812  25.520  1.00  0.00    -0.356 N 
ATOM      3  O   UNL A   1      34.391  28.997  26.653  1.00  0.00    -0.275 OA
ATOM      4  C   UNL A   1      33.675  28.960  25.648  1.00  0.00     0.222 C 
ATOM      5  H   UNL A   1      32.253  30.069  24.630  1.00  0.00     0.163 HD
BRANCH   4   6
ATOM      6  C   UNL A   1      33.968  27.867  24.373  1.00  0.00     0.128 C 
BRANCH   6   7
ATOM      7  C   UNL A   1      33.711  25.710  24.211  1.00  0.00     0.049 C 
ATOM      8  C   UNL A   1      34.849  24.347  23.683  1.00  0.00     0.029 C 
ATOM      9  C   UNL A   1      33.573  24.372  25.515  1.00  0.00     0.029 C 
ATOM     10  C   UNL A   1      34.909  23.770  25.099  1.00  0.00     0.005 C 
BRANCH   7  11
ATOM     11  N   UNL A   1      32.292  24.885  23.342  1.00  0.00    -0.349 N 
ATOM     12  C   UNL A   1      30.941  24.824  23.673  1.00  0.00     0.231 C 
ATOM     13  H   UNL A   1      32.536  24.415  22.512  1.00  0.00     0.164 HD
ATOM     14  O   UNL A   1      30.154  23.991  23.247  1.00  0.00    -0.274 OA
BRANCH  12  15
ATOM     15  C   UNL A   1      30.561  25.951  24.520  1.00  0.00     0.074 C 
ATOM     16  C   UNL A   1      29.964  25.661  25.880  1.00  0.00     0.023 C 
ATOM     17  C   UNL A   1      31.223  26.472  25.754  1.00  0.00     0.023 C 
BRANCH  15  18
ATOM     18  C   UNL A   1      29.868  26.802  23.559  1.00  0.00    -0.032 A 
ATOM     19  C   UNL A   1      30.910  28.086  22.792  1.00  0.00     0.005 A 
ATOM     20  C   UNL A   1      28.098  27.104  23.756  1.00  0.00     0.005 A 
ATOM     21  C   UNL A   1      30.179  29.549  22.133  1.00  0.00     0.000 A 
ATOM     22  C   UNL A   1      27.365  28.593  23.034  1.00  0.00     0.000 A 
ATOM     23  C   UNL A   1      28.403  29.799  22.237  1.00  0.00     0.000 A 
ENDBRANCH  15  18
ENDBRANCH  12  15
ENDBRANCH   7  11
ENDBRANCH   6   7
ENDBRANCH   4   6
ENDBRANCH   1   2
BRANCH   1  24
ATOM     24  C   UNL A   1      31.705  31.825  26.719  1.00  0.00     0.042 C 
BRANCH  24  25
ATOM     25  C   UNL A   1      32.829  32.661  27.333  1.00  0.00     0.118 C 
BRANCH  25  26
ATOM     26  N   UNL A   1      32.445  34.033  27.649  1.00  0.00    -0.352 N 
ATOM     27  C   UNL A   1      32.983  34.920  28.558  1.00  0.00     0.251 C 
ATOM     28  H   UNL A   1      31.683  34.381  27.131  1.00  0.00     0.163 HD
ATOM     29  O   UNL A   1      32.436  36.000  28.763  1.00  0.00    -0.269 OA
BRANCH  27  30
ATOM     30  C   UNL A   1      34.198  34.564  29.325  1.00  0.00     0.039 A 
ATOM     31  C   UNL A   1      34.064  34.143  30.653  1.00  0.00     0.014 A 
ATOM     32  C   UNL A   1      35.464  34.632  28.741  1.00  0.00     0.014 A 
ATOM     33  C   UNL A   1      35.184  33.682  31.354  1.00  0.00     0.010 A 
ATOM     34  C   UNL A   1      36.565  34.104  29.415  1.00  0.00     0.010 A 
ATOM     35  C   UNL A   1      36.434  33.601  30.719  1.00  0.00    -0.014 A 
BRANCH  35  36
ATOM     36  C   UNL A   1      37.606  32.956  31.373  1.00  0.00     0.031 A 
ATOM     37  C   UNL A   1      38.252  31.746  30.757  1.00  0.00     0.074 A 
ATOM     38  C   UNL A   1      38.025  33.395  32.578  1.00  0.00     0.049 A 
ATOM     39  N   UNL A   1      39.180  30.963  31.246  1.00  0.00    -0.248 NA
ATOM     40  C   UNL A   1      37.774  31.350  29.423  1.00  0.00     0.031 C 
ATOM     41  C   UNL A   1      37.469  34.539  33.303  1.00  0.00     0.029 A 
ATOM     42  N   UNL A   1      39.002  32.916  33.417  1.00  0.00    -0.354 N 
ATOM     43  C   UNL A   1      39.383  29.974  30.292  1.00  0.00     0.074 A 
ATOM     44  C   UNL A   1      38.451  30.231  29.215  1.00  0.00     0.031 C 
ATOM     45  C   UNL A   1      38.117  34.677  34.470  1.00  0.00     0.029 A 
ATOM     46  C   UNL A   1      39.098  33.605  34.603  1.00  0.00     0.049 A 
ATOM     47  H   UNL A   1      39.577  32.150  33.191  1.00  0.00     0.167 HD
ATOM     48  C   UNL A   1      40.275  28.954  30.306  1.00  0.00     0.037 A 
ATOM     49  C   UNL A   1      39.871  33.389  35.685  1.00  0.00     0.037 A 
ATOM     50  C   UNL A   1      41.212  28.707  31.370  1.00  0.00     0.049 A 
ATOM     51  C   UNL A   1      40.828  32.228  35.691  1.00  0.00     0.074 A 
ATOM     52  C   UNL A   1      42.189  27.728  31.448  1.00  0.00     0.029 A 
ATOM     53  N   UNL A   1      41.289  29.441  32.545  1.00  0.00    -0.354 N 
ATOM     54  N   UNL A   1      41.047  31.334  34.759  1.00  0.00    -0.248 NA
ATOM     55  C   UNL A   1      41.647  32.046  36.899  1.00  0.00     0.031 C 
ATOM     56  C   UNL A   1      42.819  27.836  32.691  1.00  0.00     0.029 A 
ATOM     57  C   UNL A   1      42.278  28.919  33.363  1.00  0.00     0.049 A 
ATOM     58  H   UNL A   1      40.723  30.216  32.765  1.00  0.00     0.167 HD
ATOM     59  C   UNL A   1      42.052  30.510  35.248  1.00  0.00     0.074 A 
ATOM     60  C   UNL A   1      42.402  31.010  36.560  1.00  0.00     0.031 C 
ATOM     61  C   UNL A   1      42.635  29.437  34.659  1.00  0.00     0.037 A 
BRANCH  48  62
ATOM     62  C   UNL A   1      40.277  28.019  29.130  1.00  0.00     0.057 A 
ATOM     63  C   UNL A   1      39.515  26.844  29.117  1.00  0.00     0.134 A 
ATOM     64  C   UNL A   1      41.016  28.321  27.978  1.00  0.00     0.134 A 
ATOM     65  F   UNL A   1      38.792  26.491  30.190  1.00  0.00    -0.206 F 
ATOM     66  C   UNL A   1      39.510  25.988  28.014  1.00  0.00     0.040 A 
ATOM     67  C   UNL A   1      40.995  27.489  26.857  1.00  0.00     0.040 A 
ATOM     68  F   UNL A   1      41.758  29.436  27.917  1.00  0.00    -0.206 F 
ATOM     69  C   UNL A   1      40.246  26.314  26.876  1.00  0.00     0.006 A 
ENDBRANCH  48  62
BRANCH  49  70
ATOM     70  C   UNL A   1      39.779  34.295  36.859  1.00  0.00     0.057 A 
ATOM     71  C   UNL A   1      40.493  35.499  36.899  1.00  0.00     0.134 A 
ATOM     72  C   UNL A   1      38.990  33.977  37.972  1.00  0.00     0.134 A 
ATOM     73  F   UNL A   1      41.281  35.849  35.873  1.00  0.00    -0.206 F 
ATOM     74  C   UNL A   1      40.443  36.343  38.010  1.00  0.00     0.040 A 
ATOM     75  C   UNL A   1      38.910  34.826  39.078  1.00  0.00     0.040 A 
ATOM     76  F   UNL A   1      38.277  32.842  37.995  1.00  0.00    -0.206 F 
ATOM     77  C   UNL A   1      39.644  36.009  39.102  1.00  0.00     0.006 A 
ENDBRANCH  49  70
BRANCH  61  78
ATOM     78  C   UNL A   1      43.755  28.760  35.395  1.00  0.00     0.057 A 
ATOM     79  C   UNL A   1      45.093  29.137  35.226  1.00  0.00     0.134 A 
ATOM     80  C   UNL A   1      43.479  27.761  36.338  1.00  0.00     0.134 A 
ATOM     81  F   UNL A   1      45.426  30.078  34.330  1.00  0.00    -0.206 F 
ATOM     82  C   UNL A   1      46.117  28.537  35.960  1.00  0.00     0.040 A 
ATOM     83  C   UNL A   1      44.492  27.172  37.096  1.00  0.00     0.040 A 
ATOM     84  F   UNL A   1      42.218  27.358  36.554  1.00  0.00    -0.206 F 
ATOM     85  C   UNL A   1      45.817  27.559  36.906  1.00  0.00     0.006 A 
ENDBRANCH  61  78
ENDBRANCH  35  36
ENDBRANCH  27  30
ENDBRANCH  25  26
ENDBRANCH  24  25
ENDBRANCH   1  24
TORSDOF 14
ENDMDL
MODEL 3
REMARK VINA RESULT:     -13.0      4.328      8.809
REMARK SMILES O=C(CC1(NC(=O)C2(c3ccccc3)CC2)CCC1)NCCCNC(=O)c1ccc(-c2c3nc(c(-c4c(F)cccc4F)c4ccc([nH]4)c(-c4c(F)cccc4F)c4nc(c(-c5c(F)cccc5F)c5ccc2[nH]5)C=C4)C=C3)cc1
REMARK SMILES IDX 21 1 20 2 1 3 2 4 3 6 4 7 17 8 19 9 18 10 5 11 6 12 7 14
REMARK SMILES IDX 8 15 15 16 16 17 9 18 10 19 14 20 11 21 13 22 12 23 22 24
REMARK SMILES IDX 23 25 24 26 25 27 26 29 27 30 28 31 80 32 29 33 79 34 30 35
REMARK SMILES IDX 31 36 32 37 73 38 33 39 78 40 72 41 74 42 34 43 77 44 71 45
REMARK SMILES IDX 70 46 35 48 61 49 44 50 60 51 45 52 48 53 59 54 75 55 46 56
REMARK SMILES IDX 47 57 58 59 76 60 49 61 36 62 37 63 42 64 38 65 39 66 41 67
REMARK SMILES IDX 43 68 40 69 62 70 63 71 68 72 64 73 65 74 67 75 69 76 66 77
REMARK SMILES IDX 50 78 51 79 56 80 52 81 53 82 55 83 57 84 54 85
REMARK H PARENT 20 5 5 13 24 28 74 47 48 58
REMARK Flexibility Score: inf
ROOT
ATOM      1  C   UNL A   1      31.768  30.474  26.823  1.00  0.00     0.117 C 
ENDROOT
BRANCH   1   2
ATOM      2  N   UNL A   1      32.426  29.963  25.632  1.00  0.00    -0.356 N 
ATOM      3  O   UNL A   1      34.302  29.324  26.765  1.00  0.00    -0.275 OA
ATOM      4  C   UNL A   1      33.575  29.194  25.776  1.00  0.00     0.222 C 
ATOM      5  H   UNL A   1      32.063  30.157  24.739  1.00  0.00     0.163 HD
BRANCH   4   6
ATOM      6  C   UNL A   1      33.924  28.069  24.544  1.00  0.00     0.128 C 
BRANCH   6   7
ATOM      7  C   UNL A   1      33.714  25.903  24.441  1.00  0.00     0.049 C 
ATOM      8  C   UNL A   1      34.905  24.545  24.033  1.00  0.00     0.029 C 
ATOM      9  C   UNL A   1      33.518  24.608  25.780  1.00  0.00     0.029 C 
ATOM     10  C   UNL A   1      34.887  24.018  25.469  1.00  0.00     0.005 C 
BRANCH   7  11
ATOM     11  N   UNL A   1      32.367  25.022  23.515  1.00  0.00    -0.349 N 
ATOM     12  C   UNL A   1      31.005  24.915  23.785  1.00  0.00     0.231 C 
ATOM     13  H   UNL A   1      32.664  24.556  22.701  1.00  0.00     0.164 HD
ATOM     14  O   UNL A   1      30.268  24.052  23.331  1.00  0.00    -0.274 OA
BRANCH  12  15
ATOM     15  C   UNL A   1      30.546  26.034  24.604  1.00  0.00     0.074 C 
ATOM     16  C   UNL A   1      29.890  25.731  25.934  1.00  0.00     0.023 C 
ATOM     17  C   UNL A   1      31.128  26.581  25.867  1.00  0.00     0.023 C 
BRANCH  15  18
ATOM     18  C   UNL A   1      29.876  26.857  23.604  1.00  0.00    -0.032 A 
ATOM     19  C   UNL A   1      30.937  28.121  22.827  1.00  0.00     0.005 A 
ATOM     20  C   UNL A   1      28.103  27.163  23.750  1.00  0.00     0.005 A 
ATOM     21  C   UNL A   1      30.222  29.565  22.111  1.00  0.00     0.000 A 
ATOM     22  C   UNL A   1      27.387  28.632  22.970  1.00  0.00     0.000 A 
ATOM     23  C   UNL A   1      28.444  29.816  22.166  1.00  0.00     0.000 A 
ENDBRANCH  15  18
ENDBRANCH  12  15
ENDBRANCH   7  11
ENDBRANCH   6   7
ENDBRANCH   4   6
ENDBRANCH   1   2
BRANCH   1  24
ATOM     24  C   UNL A   1      31.526  31.981  26.807  1.00  0.00     0.042 C 
BRANCH  24  25
ATOM     25  C   UNL A   1      32.752  32.840  27.117  1.00  0.00     0.118 C 
BRANCH  25  26
ATOM     26  N   UNL A   1      32.434  34.198  27.547  1.00  0.00    -0.352 N 
ATOM     27  C   UNL A   1      32.992  34.969  28.545  1.00  0.00     0.251 C 
ATOM     28  H   UNL A   1      31.706  34.633  27.045  1.00  0.00     0.163 HD
ATOM     29  O   UNL A   1      32.498  36.055  28.835  1.00  0.00    -0.269 OA
BRANCH  27  30
ATOM     30  C   UNL A   1      34.164  34.478  29.304  1.00  0.00     0.039 A 
ATOM     31  C   UNL A   1      33.964  33.885  30.556  1.00  0.00     0.014 A 
ATOM     32  C   UNL A   1      35.456  34.590  28.787  1.00  0.00     0.014 A 
ATOM     33  C   UNL A   1      35.041  33.303  31.232  1.00  0.00     0.010 A 
ATOM     34  C   UNL A   1      36.515  33.945  29.426  1.00  0.00     0.010 A 
ATOM     35  C   UNL A   1      36.316  33.274  30.643  1.00  0.00    -0.014 A 
BRANCH  35  36
ATOM     36  C   UNL A   1      37.444  32.514  31.250  1.00  0.00     0.031 A 
ATOM     37  C   UNL A   1      38.103  33.003  32.510  1.00  0.00     0.074 A 
ATOM     38  C   UNL A   1      37.945  31.438  30.609  1.00  0.00     0.049 A 
ATOM     39  N   UNL A   1      39.183  32.564  33.104  1.00  0.00    -0.248 NA
ATOM     40  C   UNL A   1      37.475  34.154  33.178  1.00  0.00     0.031 C 
ATOM     41  C   UNL A   1      37.423  30.874  29.364  1.00  0.00     0.029 A 
ATOM     42  N   UNL A   1      39.024  30.640  30.906  1.00  0.00    -0.354 N 
ATOM     43  C   UNL A   1      39.376  33.393  34.201  1.00  0.00     0.074 A 
ATOM     44  C   UNL A   1      38.326  34.389  34.166  1.00  0.00     0.031 C 
ATOM     45  C   UNL A   1      38.173  29.819  29.009  1.00  0.00     0.029 A 
ATOM     46  C   UNL A   1      39.261  29.661  29.969  1.00  0.00     0.049 A 
ATOM     47  H   UNL A   1      39.576  30.759  31.712  1.00  0.00     0.167 HD
ATOM     48  C   UNL A   1      40.332  33.323  35.159  1.00  0.00     0.037 A 
ATOM     49  C   UNL A   1      40.252  28.753  29.879  1.00  0.00     0.037 A 
ATOM     50  C   UNL A   1      41.368  32.324  35.202  1.00  0.00     0.049 A 
ATOM     51  C   UNL A   1      41.323  28.718  30.935  1.00  0.00     0.074 A 
ATOM     52  C   UNL A   1      42.349  32.143  36.162  1.00  0.00     0.029 A 
ATOM     53  N   UNL A   1      41.560  31.340  34.244  1.00  0.00    -0.354 N 
ATOM     54  N   UNL A   1      41.461  29.475  31.996  1.00  0.00    -0.248 NA
ATOM     55  C   UNL A   1      42.376  27.703  30.783  1.00  0.00     0.031 C 
ATOM     56  C   UNL A   1      43.168  31.084  35.757  1.00  0.00     0.029 A 
ATOM     57  C   UNL A   1      42.661  30.566  34.577  1.00  0.00     0.049 A 
ATOM     58  H   UNL A   1      41.000  31.212  33.445  1.00  0.00     0.167 HD
ATOM     59  C   UNL A   1      42.588  29.004  32.656  1.00  0.00     0.074 A 
ATOM     60  C   UNL A   1      43.097  27.895  31.879  1.00  0.00     0.031 C 
ATOM     61  C   UNL A   1      43.148  29.449  33.808  1.00  0.00     0.037 A 
BRANCH  48  62
ATOM     62  C   UNL A   1      40.307  34.363  36.242  1.00  0.00     0.057 A 
ATOM     63  C   UNL A   1      41.024  35.562  36.135  1.00  0.00     0.134 A 
ATOM     64  C   UNL A   1      39.518  34.185  37.387  1.00  0.00     0.134 A 
ATOM     65  F   UNL A   1      41.805  35.794  35.069  1.00  0.00    -0.206 F 
ATOM     66  C   UNL A   1      40.983  36.531  37.139  1.00  0.00     0.040 A 
ATOM     67  C   UNL A   1      39.444  35.159  38.383  1.00  0.00     0.040 A 
ATOM     68  F   UNL A   1      38.796  33.066  37.549  1.00  0.00    -0.206 F 
ATOM     69  C   UNL A   1      40.185  36.334  38.264  1.00  0.00     0.006 A 
ENDBRANCH  48  62
BRANCH  49  70
ATOM     70  C   UNL A   1      40.281  27.793  28.745  1.00  0.00     0.057 A 
ATOM     71  C   UNL A   1      40.975  28.090  27.565  1.00  0.00     0.134 A 
ATOM     72  C   UNL A   1      39.608  26.566  28.803  1.00  0.00     0.134 A 
ATOM     73  F   UNL A   1      41.622  29.259  27.441  1.00  0.00    -0.206 F 
ATOM     74  C   UNL A   1      40.982  27.214  26.479  1.00  0.00     0.040 A 
ATOM     75  C   UNL A   1      39.630  25.668  27.734  1.00  0.00     0.040 A 
ATOM     76  F   UNL A   1      38.930  26.218  29.906  1.00  0.00    -0.206 F 
ATOM     77  C   UNL A   1      40.312  25.995  26.565  1.00  0.00     0.006 A 
ENDBRANCH  49  70
BRANCH  61  78
ATOM     78  C   UNL A   1      44.340  28.706  34.338  1.00  0.00     0.057 A 
ATOM     79  C   UNL A   1      45.652  29.102  34.053  1.00  0.00     0.134 A 
ATOM     80  C   UNL A   1      44.166  27.617  35.203  1.00  0.00     0.134 A 
ATOM     81  F   UNL A   1      45.887  30.128  33.221  1.00  0.00    -0.206 F 
ATOM     82  C   UNL A   1      46.749  28.435  34.599  1.00  0.00     0.040 A 
ATOM     83  C   UNL A   1      45.255  26.960  35.777  1.00  0.00     0.040 A 
ATOM     84  F   UNL A   1      42.936  27.191  35.524  1.00  0.00    -0.206 F 
ATOM     85  C   UNL A   1      46.552  27.367  35.473  1.00  0.00     0.006 A 
ENDBRANCH  61  78
ENDBRANCH  35  36
ENDBRANCH  27  30
ENDBRANCH  25  26
ENDBRANCH  24  25
ENDBRANCH   1  24
TORSDOF 14
ENDMDL
