MODEL 1
REMARK VINA RESULT:     -11.5      0.000      0.000
REMARK SMILES COc1cc(C(=O)N[C@H]2CCCC[C@H]2C(=O)NCCCNC(=O)c2ccc(-c3c4nc(c(-c5c(F)cccc5F)c5ccc([nH]5)c(-c5c(F)cccc5F)c5nc(c(-c6c(F)cccc6F)c6ccc3[nH]6)C=C5)C=C4)cc2)cc(Cl)c1OC
REMARK SMILES IDX 18 1 17 2 15 3 16 4 14 6 9 7 10 8 11 9 13 10 12 11 8 12 6 13
REMARK SMILES IDX 7 14 5 16 3 17 4 18 81 19 79 20 78 21 80 22 2 23 1 24 82 25
REMARK SMILES IDX 83 26 19 27 20 28 21 29 22 30 23 32 24 33 25 34 77 35 26 36
REMARK SMILES IDX 76 37 27 38 28 39 29 40 70 41 30 42 75 43 69 44 71 45 31 46
REMARK SMILES IDX 74 47 68 48 67 49 32 51 58 52 41 53 57 54 42 55 45 56 56 57
REMARK SMILES IDX 72 58 43 59 44 60 55 62 73 63 46 64 33 65 34 66 39 67 35 68
REMARK SMILES IDX 36 69 38 70 40 71 37 72 59 73 60 74 65 75 61 76 62 77 64 78
REMARK SMILES IDX 66 79 63 80 47 81 48 82 53 83 49 84 50 85 52 86 54 87 51 88
REMARK H PARENT 17 5 8 15 21 31 71 50 45 61
REMARK Flexibility Score: inf
ROOT
ATOM      1  C   UNL A   1      32.624  26.529  26.268  1.00  0.00     0.117 C 
ENDROOT
BRANCH   1   2
ATOM      2  N   UNL A   1      33.873  25.944  25.806  1.00  0.00    -0.356 N 
ATOM      3  C   UNL A   1      34.301  24.662  25.675  1.00  0.00     0.225 C 
ATOM      4  O   UNL A   1      35.419  24.497  25.175  1.00  0.00    -0.275 OA
ATOM      5  H   UNL A   1      34.543  26.612  25.533  1.00  0.00     0.163 HD
BRANCH   3   6
ATOM      6  C   UNL A   1      33.490  23.450  26.118  1.00  0.00     0.101 C 
ATOM      7  C   UNL A   1      32.595  22.822  25.015  1.00  0.00     0.094 C 
ATOM      8  C   UNL A   1      32.247  21.340  25.247  1.00  0.00     0.026 C 
ATOM      9  C   UNL A   1      33.383  20.533  25.849  1.00  0.00     0.002 C 
ATOM     10  C   UNL A   1      34.306  22.528  27.046  1.00  0.00     0.015 C 
ATOM     11  C   UNL A   1      33.758  21.120  27.196  1.00  0.00     0.001 C 
BRANCH   7  12
ATOM     12  N   UNL A   1      33.023  23.001  23.627  1.00  0.00    -0.349 N 
ATOM     13  C   UNL A   1      32.777  23.933  22.644  1.00  0.00     0.251 C 
ATOM     14  O   UNL A   1      33.284  23.699  21.543  1.00  0.00    -0.269 OA
ATOM     15  H   UNL A   1      33.631  22.288  23.325  1.00  0.00     0.164 HD
BRANCH  13  16
ATOM     16  C   UNL A   1      32.014  25.209  22.797  1.00  0.00     0.045 A 
ATOM     17  C   UNL A   1      32.128  27.657  22.668  1.00  0.00     0.163 A 
ATOM     18  C   UNL A   1      32.728  26.396  22.545  1.00  0.00     0.064 A 
ATOM     19  C   UNL A   1      30.785  27.756  23.079  1.00  0.00     0.179 A 
ATOM     20  C   UNL A   1      30.070  26.577  23.329  1.00  0.00     0.087 A 
ATOM     21  C   UNL A   1      30.673  25.322  23.148  1.00  0.00     0.038 A 
ATOM     22  Cl  UNL A   1      28.447  26.552  23.931  1.00  0.00    -0.080 Cl
BRANCH  17  23
ATOM     23  O   UNL A   1      32.785  28.841  22.434  1.00  0.00    -0.493 OA
ATOM     24  C   UNL A   1      34.175  28.881  22.732  1.00  0.00     0.278 C 
ENDBRANCH  17  23
BRANCH  19  25
ATOM     25  O   UNL A   1      30.310  29.027  23.286  1.00  0.00    -0.491 OA
ATOM     26  C   UNL A   1      29.483  29.561  22.258  1.00  0.00     0.278 C 
ENDBRANCH  19  25
ENDBRANCH  13  16
ENDBRANCH   7  12
ENDBRANCH   3   6
ENDBRANCH   1   2
BRANCH   1  27
ATOM     27  C   UNL A   1      32.599  28.054  26.304  1.00  0.00     0.042 C 
BRANCH  27  28
ATOM     28  C   UNL A   1      33.952  28.741  26.398  1.00  0.00     0.118 C 
BRANCH  28  29
ATOM     29  N   UNL A   1      33.821  30.152  26.728  1.00  0.00    -0.352 N 
ATOM     30  C   UNL A   1      34.558  30.892  27.618  1.00  0.00     0.251 C 
ATOM     31  H   UNL A   1      33.110  30.639  26.251  1.00  0.00     0.163 HD
ATOM     32  O   UNL A   1      34.170  32.007  27.962  1.00  0.00    -0.269 OA
BRANCH  30  33
ATOM     33  C   UNL A   1      35.820  30.353  28.175  1.00  0.00     0.039 A 
ATOM     34  C   UNL A   1      36.997  30.473  27.430  1.00  0.00     0.014 A 
ATOM     35  C   UNL A   1      35.836  29.689  29.406  1.00  0.00     0.014 A 
ATOM     36  C   UNL A   1      38.195  29.957  27.933  1.00  0.00     0.010 A 
ATOM     37  C   UNL A   1      37.040  29.221  29.931  1.00  0.00     0.010 A 
ATOM     38  C   UNL A   1      38.228  29.337  29.193  1.00  0.00    -0.014 A 
BRANCH  38  39
ATOM     39  C   UNL A   1      39.486  28.764  29.731  1.00  0.00     0.031 A 
ATOM     40  C   UNL A   1      40.120  29.362  30.957  1.00  0.00     0.074 A 
ATOM     41  C   UNL A   1      40.088  27.740  29.097  1.00  0.00     0.049 A 
ATOM     42  N   UNL A   1      41.245  29.043  31.546  1.00  0.00    -0.248 NA
ATOM     43  C   UNL A   1      39.404  30.478  31.592  1.00  0.00     0.031 C 
ATOM     44  C   UNL A   1      39.598  27.092  27.880  1.00  0.00     0.029 A 
ATOM     45  N   UNL A   1      41.251  27.071  29.386  1.00  0.00    -0.354 N 
ATOM     46  C   UNL A   1      41.380  29.930  32.607  1.00  0.00     0.074 A 
ATOM     47  C   UNL A   1      40.242  30.823  32.560  1.00  0.00     0.031 C 
ATOM     48  C   UNL A   1      40.449  26.111  27.533  1.00  0.00     0.029 A 
ATOM     49  C   UNL A   1      41.553  26.078  28.487  1.00  0.00     0.049 A 
ATOM     50  H   UNL A   1      41.816  27.283  30.165  1.00  0.00     0.167 HD
ATOM     51  C   UNL A   1      42.353  29.985  33.548  1.00  0.00     0.037 A 
ATOM     52  C   UNL A   1      42.606  25.240  28.436  1.00  0.00     0.037 A 
ATOM     53  C   UNL A   1      43.468  29.080  33.619  1.00  0.00     0.049 A 
ATOM     54  C   UNL A   1      43.669  25.316  29.495  1.00  0.00     0.074 A 
ATOM     55  C   UNL A   1      44.470  29.018  34.574  1.00  0.00     0.029 A 
ATOM     56  N   UNL A   1      43.727  28.074  32.701  1.00  0.00    -0.354 N 
ATOM     57  N   UNL A   1      43.754  26.122  30.525  1.00  0.00    -0.248 NA
ATOM     58  C   UNL A   1      44.782  24.361  29.387  1.00  0.00     0.031 C 
ATOM     59  C   UNL A   1      45.353  27.994  34.215  1.00  0.00     0.029 A 
ATOM     60  C   UNL A   1      44.883  27.397  33.057  1.00  0.00     0.049 A 
ATOM     61  H   UNL A   1      43.173  27.872  31.913  1.00  0.00     0.167 HD
ATOM     62  C   UNL A   1      44.911  25.758  31.199  1.00  0.00     0.074 A 
ATOM     63  C   UNL A   1      45.494  24.651  30.468  1.00  0.00     0.031 C 
ATOM     64  C   UNL A   1      45.445  26.293  32.324  1.00  0.00     0.037 A 
BRANCH  51  65
ATOM     65  C   UNL A   1      42.250  31.065  34.582  1.00  0.00     0.057 A 
ATOM     66  C   UNL A   1      41.538  30.876  35.774  1.00  0.00     0.134 A 
ATOM     67  C   UNL A   1      42.894  32.294  34.399  1.00  0.00     0.134 A 
ATOM     68  F   UNL A   1      40.888  29.725  36.002  1.00  0.00    -0.206 F 
ATOM     69  C   UNL A   1      41.453  31.881  36.739  1.00  0.00     0.040 A 
ATOM     70  C   UNL A   1      42.836  33.298  35.367  1.00  0.00     0.040 A 
ATOM     71  F   UNL A   1      43.597  32.537  33.282  1.00  0.00    -0.206 F 
ATOM     72  C   UNL A   1      42.110  33.094  36.540  1.00  0.00     0.006 A 
ENDBRANCH  51  65
BRANCH  52  73
ATOM     73  C   UNL A   1      42.697  24.234  27.350  1.00  0.00     0.057 A 
ATOM     74  C   UNL A   1      42.188  22.942  27.523  1.00  0.00     0.134 A 
ATOM     75  C   UNL A   1      43.297  24.535  26.123  1.00  0.00     0.134 A 
ATOM     76  F   UNL A   1      41.621  22.590  28.686  1.00  0.00    -0.206 F 
ATOM     77  C   UNL A   1      42.283  21.979  26.518  1.00  0.00     0.040 A 
ATOM     78  C   UNL A   1      43.382  23.588  25.101  1.00  0.00     0.040 A 
ATOM     79  F   UNL A   1      43.801  25.757  25.897  1.00  0.00    -0.206 F 
ATOM     80  C   UNL A   1      42.879  22.303  25.299  1.00  0.00     0.006 A 
ENDBRANCH  52  73
BRANCH  64  81
ATOM     81  C   UNL A   1      46.703  25.672  32.848  1.00  0.00     0.057 A 
ATOM     82  C   UNL A   1      46.676  24.667  33.823  1.00  0.00     0.134 A 
ATOM     83  C   UNL A   1      47.952  26.056  32.346  1.00  0.00     0.134 A 
ATOM     84  F   UNL A   1      45.511  24.265  34.353  1.00  0.00    -0.206 F 
ATOM     85  C   UNL A   1      47.850  24.077  34.292  1.00  0.00     0.040 A 
ATOM     86  C   UNL A   1      49.132  25.459  32.793  1.00  0.00     0.040 A 
ATOM     87  F   UNL A   1      48.045  27.009  31.407  1.00  0.00    -0.206 F 
ATOM     88  C   UNL A   1      49.082  24.469  33.773  1.00  0.00     0.006 A 
ENDBRANCH  64  81
ENDBRANCH  38  39
ENDBRANCH  30  33
ENDBRANCH  28  29
ENDBRANCH  27  28
ENDBRANCH   1  27
TORSDOF 14
ENDMDL
MODEL 2
REMARK VINA RESULT:     -11.5      3.169      7.952
REMARK SMILES COc1cc(C(=O)N[C@H]2CCCC[C@H]2C(=O)NCCCNC(=O)c2ccc(-c3c4nc(c(-c5c(F)cccc5F)c5ccc([nH]5)c(-c5c(F)cccc5F)c5nc(c(-c6c(F)cccc6F)c6ccc3[nH]6)C=C5)C=C4)cc2)cc(Cl)c1OC
REMARK SMILES IDX 18 1 17 2 15 3 16 4 14 6 9 7 10 8 11 9 13 10 12 11 8 12 6 13
REMARK SMILES IDX 7 14 5 16 3 17 4 18 81 19 79 20 78 21 80 22 2 23 1 24 82 25
REMARK SMILES IDX 83 26 19 27 20 28 21 29 22 30 23 32 24 33 25 34 77 35 26 36
REMARK SMILES IDX 76 37 27 38 28 39 29 40 70 41 30 42 75 43 69 44 71 45 31 46
REMARK SMILES IDX 74 47 68 48 67 49 32 51 58 52 41 53 57 54 42 55 45 56 56 57
REMARK SMILES IDX 72 58 43 59 44 60 55 62 73 63 46 64 33 65 34 66 39 67 35 68
REMARK SMILES IDX 36 69 38 70 40 71 37 72 59 73 60 74 65 75 61 76 62 77 64 78
REMARK SMILES IDX 66 79 63 80 47 81 48 82 53 83 49 84 50 85 52 86 54 87 51 88
REMARK H PARENT 17 5 8 15 21 31 71 50 45 61
REMARK Flexibility Score: inf
ROOT
ATOM      1  C   UNL A   1      37.881  23.541  25.959  1.00  0.00     0.117 C 
ENDROOT
BRANCH   1   2
ATOM      2  N   UNL A   1      37.546  23.359  24.556  1.00  0.00    -0.356 N 
ATOM      3  C   UNL A   1      36.396  23.019  23.916  1.00  0.00     0.225 C 
ATOM      4  O   UNL A   1      36.427  23.017  22.681  1.00  0.00    -0.275 OA
ATOM      5  H   UNL A   1      38.303  23.512  23.946  1.00  0.00     0.163 HD
BRANCH   3   6
ATOM      6  C   UNL A   1      35.108  22.637  24.637  1.00  0.00     0.101 C 
ATOM      7  C   UNL A   1      33.892  23.553  24.333  1.00  0.00     0.094 C 
ATOM      8  C   UNL A   1      32.522  22.886  24.559  1.00  0.00     0.026 C 
ATOM      9  C   UNL A   1      32.483  21.422  24.162  1.00  0.00     0.002 C 
ATOM     10  C   UNL A   1      34.913  21.108  24.679  1.00  0.00     0.015 C 
ATOM     11  C   UNL A   1      33.498  20.651  24.985  1.00  0.00     0.001 C 
BRANCH   7  12
ATOM     12  N   UNL A   1      33.882  24.241  23.041  1.00  0.00    -0.349 N 
ATOM     13  C   UNL A   1      33.557  25.509  22.615  1.00  0.00     0.251 C 
ATOM     14  O   UNL A   1      33.615  25.697  21.395  1.00  0.00    -0.269 OA
ATOM     15  H   UNL A   1      34.176  23.660  22.303  1.00  0.00     0.164 HD
BRANCH  13  16
ATOM     16  C   UNL A   1      33.203  26.676  23.479  1.00  0.00     0.045 A 
ATOM     17  C   UNL A   1      31.567  28.458  23.894  1.00  0.00     0.163 A 
ATOM     18  C   UNL A   1      32.001  27.341  23.166  1.00  0.00     0.064 A 
ATOM     19  C   UNL A   1      32.355  28.955  24.949  1.00  0.00     0.179 A 
ATOM     20  C   UNL A   1      33.550  28.296  25.264  1.00  0.00     0.087 A 
ATOM     21  C   UNL A   1      33.942  27.147  24.559  1.00  0.00     0.038 A 
ATOM     22  Cl  UNL A   1      34.662  28.852  26.469  1.00  0.00    -0.080 Cl
BRANCH  17  23
ATOM     23  O   UNL A   1      30.404  29.138  23.625  1.00  0.00    -0.493 OA
ATOM     24  C   UNL A   1      30.184  29.541  22.278  1.00  0.00     0.278 C 
ENDBRANCH  17  23
BRANCH  19  25
ATOM     25  O   UNL A   1      31.917  30.118  25.533  1.00  0.00    -0.491 OA
ATOM     26  C   UNL A   1      31.686  30.065  26.936  1.00  0.00     0.278 C 
ENDBRANCH  19  25
ENDBRANCH  13  16
ENDBRANCH   7  12
ENDBRANCH   3   6
ENDBRANCH   1   2
BRANCH   1  27
ATOM     27  C   UNL A   1      38.959  22.603  26.492  1.00  0.00     0.042 C 
BRANCH  27  28
ATOM     28  C   UNL A   1      40.185  23.270  27.097  1.00  0.00     0.118 C 
BRANCH  28  29
ATOM     29  N   UNL A   1      41.009  23.909  26.083  1.00  0.00    -0.352 N 
ATOM     30  C   UNL A   1      41.367  25.231  25.983  1.00  0.00     0.251 C 
ATOM     31  H   UNL A   1      41.355  23.316  25.377  1.00  0.00     0.163 HD
ATOM     32  O   UNL A   1      41.864  25.656  24.942  1.00  0.00    -0.269 OA
BRANCH  30  33
ATOM     33  C   UNL A   1      41.152  26.153  27.122  1.00  0.00     0.039 A 
ATOM     34  C   UNL A   1      41.997  27.256  27.271  1.00  0.00     0.014 A 
ATOM     35  C   UNL A   1      40.151  25.905  28.067  1.00  0.00     0.014 A 
ATOM     36  C   UNL A   1      41.819  28.130  28.348  1.00  0.00     0.010 A 
ATOM     37  C   UNL A   1      39.940  26.804  29.111  1.00  0.00     0.010 A 
ATOM     38  C   UNL A   1      40.781  27.916  29.270  1.00  0.00    -0.014 A 
BRANCH  38  39
ATOM     39  C   UNL A   1      40.592  28.821  30.432  1.00  0.00     0.031 A 
ATOM     40  C   UNL A   1      39.516  29.871  30.398  1.00  0.00     0.074 A 
ATOM     41  C   UNL A   1      41.412  28.735  31.496  1.00  0.00     0.049 A 
ATOM     42  N   UNL A   1      39.231  30.792  31.285  1.00  0.00    -0.248 NA
ATOM     43  C   UNL A   1      38.662  29.903  29.202  1.00  0.00     0.031 C 
ATOM     44  C   UNL A   1      42.517  27.786  31.639  1.00  0.00     0.029 A 
ATOM     45  N   UNL A   1      41.449  29.466  32.656  1.00  0.00    -0.354 N 
ATOM     46  C   UNL A   1      38.179  31.522  30.745  1.00  0.00     0.074 A 
ATOM     47  C   UNL A   1      37.901  30.962  29.440  1.00  0.00     0.031 C 
ATOM     48  C   UNL A   1      43.115  27.986  32.826  1.00  0.00     0.029 A 
ATOM     49  C   UNL A   1      42.453  29.091  33.513  1.00  0.00     0.049 A 
ATOM     50  H   UNL A   1      40.813  30.193  32.855  1.00  0.00     0.167 HD
ATOM     51  C   UNL A   1      37.493  32.553  31.294  1.00  0.00     0.037 A 
ATOM     52  C   UNL A   1      42.803  29.585  34.715  1.00  0.00     0.037 A 
ATOM     53  C   UNL A   1      37.744  33.092  32.603  1.00  0.00     0.049 A 
ATOM     54  C   UNL A   1      42.023  30.725  35.306  1.00  0.00     0.074 A 
ATOM     55  C   UNL A   1      37.059  34.094  33.270  1.00  0.00     0.029 A 
ATOM     56  N   UNL A   1      38.758  32.669  33.449  1.00  0.00    -0.354 N 
ATOM     57  N   UNL A   1      40.995  31.369  34.810  1.00  0.00    -0.248 NA
ATOM     58  C   UNL A   1      42.450  31.206  36.629  1.00  0.00     0.031 C 
ATOM     59  C   UNL A   1      37.679  34.299  34.507  1.00  0.00     0.029 A 
ATOM     60  C   UNL A   1      38.728  33.402  34.625  1.00  0.00     0.049 A 
ATOM     61  H   UNL A   1      39.404  31.955  33.245  1.00  0.00     0.167 HD
ATOM     62  C   UNL A   1      40.637  32.310  35.765  1.00  0.00     0.074 A 
ATOM     63  C   UNL A   1      41.552  32.151  36.876  1.00  0.00     0.031 C 
ATOM     64  C   UNL A   1      39.640  33.226  35.724  1.00  0.00     0.037 A 
BRANCH  51  65
ATOM     65  C   UNL A   1      36.399  33.166  30.473  1.00  0.00     0.057 A 
ATOM     66  C   UNL A   1      36.677  34.047  29.419  1.00  0.00     0.134 A 
ATOM     67  C   UNL A   1      35.059  32.848  30.717  1.00  0.00     0.134 A 
ATOM     68  F   UNL A   1      37.941  34.402  29.144  1.00  0.00    -0.206 F 
ATOM     69  C   UNL A   1      35.655  34.607  28.650  1.00  0.00     0.040 A 
ATOM     70  C   UNL A   1      34.030  33.384  29.940  1.00  0.00     0.040 A 
ATOM     71  F   UNL A   1      34.726  32.006  31.708  1.00  0.00    -0.206 F 
ATOM     72  C   UNL A   1      34.327  34.270  28.906  1.00  0.00     0.006 A 
ENDBRANCH  51  65
BRANCH  52  73
ATOM     73  C   UNL A   1      43.941  28.987  35.457  1.00  0.00     0.057 A 
ATOM     74  C   UNL A   1      45.237  29.495  35.316  1.00  0.00     0.134 A 
ATOM     75  C   UNL A   1      43.761  27.897  36.315  1.00  0.00     0.134 A 
ATOM     76  F   UNL A   1      45.472  30.525  34.490  1.00  0.00    -0.206 F 
ATOM     77  C   UNL A   1      46.319  28.931  35.992  1.00  0.00     0.040 A 
ATOM     78  C   UNL A   1      44.831  27.335  37.014  1.00  0.00     0.040 A 
ATOM     79  F   UNL A   1      42.542  27.368  36.493  1.00  0.00    -0.206 F 
ATOM     80  C   UNL A   1      46.116  27.850  36.848  1.00  0.00     0.006 A 
ENDBRANCH  52  73
BRANCH  64  81
ATOM     81  C   UNL A   1      39.467  34.105  36.925  1.00  0.00     0.057 A 
ATOM     82  C   UNL A   1      39.963  35.413  36.958  1.00  0.00     0.134 A 
ATOM     83  C   UNL A   1      38.764  33.649  38.047  1.00  0.00     0.134 A 
ATOM     84  F   UNL A   1      40.656  35.903  35.918  1.00  0.00    -0.206 F 
ATOM     85  C   UNL A   1      39.780  36.234  38.071  1.00  0.00     0.040 A 
ATOM     86  C   UNL A   1      38.557  34.467  39.159  1.00  0.00     0.040 A 
ATOM     87  F   UNL A   1      38.258  32.407  38.077  1.00  0.00    -0.206 F 
ATOM     88  C   UNL A   1      39.070  35.763  39.174  1.00  0.00     0.006 A 
ENDBRANCH  64  81
ENDBRANCH  38  39
ENDBRANCH  30  33
ENDBRANCH  28  29
ENDBRANCH  27  28
ENDBRANCH   1  27
TORSDOF 14
ENDMDL
MODEL 3
REMARK VINA RESULT:     -11.5      3.160      7.892
REMARK SMILES COc1cc(C(=O)N[C@H]2CCCC[C@H]2C(=O)NCCCNC(=O)c2ccc(-c3c4nc(c(-c5c(F)cccc5F)c5ccc([nH]5)c(-c5c(F)cccc5F)c5nc(c(-c6c(F)cccc6F)c6ccc3[nH]6)C=C5)C=C4)cc2)cc(Cl)c1OC
REMARK SMILES IDX 18 1 17 2 15 3 16 4 14 6 9 7 10 8 11 9 13 10 12 11 8 12 6 13
REMARK SMILES IDX 7 14 5 16 3 17 4 18 81 19 79 20 78 21 80 22 2 23 1 24 82 25
REMARK SMILES IDX 83 26 19 27 20 28 21 29 22 30 23 32 24 33 25 34 77 35 26 36
REMARK SMILES IDX 76 37 27 38 28 39 29 40 70 41 30 42 75 43 69 44 71 45 31 46
REMARK SMILES IDX 74 47 68 48 67 49 32 51 58 52 41 53 57 54 42 55 45 56 56 57
REMARK SMILES IDX 72 58 43 59 44 60 55 62 73 63 46 64 33 65 34 66 39 67 35 68
REMARK SMILES IDX 36 69 38 70 40 71 37 72 59 73 60 74 65 75 61 76 62 77 64 78
REMARK SMILES IDX 66 79 63 80 47 81 48 82 53 83 49 84 50 85 52 86 54 87 51 88
REMARK H PARENT 17 5 8 15 21 31 71 50 45 61
REMARK Flexibility Score: inf
ROOT
ATOM      1  C   UNL A   1      37.886  23.501  26.078  1.00  0.00     0.117 C 
ENDROOT
BRANCH   1   2
ATOM      2  N   UNL A   1      37.594  23.416  24.656  1.00  0.00    -0.356 N 
ATOM      3  C   UNL A   1      36.465  23.125  23.959  1.00  0.00     0.225 C 
ATOM      4  O   UNL A   1      36.534  23.208  22.728  1.00  0.00    -0.275 OA
ATOM      5  H   UNL A   1      38.371  23.609  24.082  1.00  0.00     0.163 HD
BRANCH   3   6
ATOM      6  C   UNL A   1      35.155  22.698  24.611  1.00  0.00     0.101 C 
ATOM      7  C   UNL A   1      33.945  23.627  24.318  1.00  0.00     0.094 C 
ATOM      8  C   UNL A   1      32.571  22.944  24.459  1.00  0.00     0.026 C 
ATOM      9  C   UNL A   1      32.554  21.504  23.976  1.00  0.00     0.002 C 
ATOM     10  C   UNL A   1      34.966  21.169  24.559  1.00  0.00     0.015 C 
ATOM     11  C   UNL A   1      33.543  20.691  24.789  1.00  0.00     0.001 C 
BRANCH   7  12
ATOM     12  N   UNL A   1      33.976  24.388  23.069  1.00  0.00    -0.349 N 
ATOM     13  C   UNL A   1      33.543  25.634  22.676  1.00  0.00     0.251 C 
ATOM     14  O   UNL A   1      33.694  25.903  21.480  1.00  0.00    -0.269 OA
ATOM     15  H   UNL A   1      34.408  23.892  22.337  1.00  0.00     0.164 HD
BRANCH  13  16
ATOM     16  C   UNL A   1      32.969  26.697  23.556  1.00  0.00     0.045 A 
ATOM     17  C   UNL A   1      33.132  27.822  25.731  1.00  0.00     0.163 A 
ATOM     18  C   UNL A   1      33.587  26.867  24.811  1.00  0.00     0.064 A 
ATOM     19  C   UNL A   1      32.015  28.619  25.419  1.00  0.00     0.179 A 
ATOM     20  C   UNL A   1      31.399  28.454  24.172  1.00  0.00     0.087 A 
ATOM     21  C   UNL A   1      31.901  27.530  23.241  1.00  0.00     0.038 A 
ATOM     22  Cl  UNL A   1      29.963  29.296  23.694  1.00  0.00    -0.080 Cl
BRANCH  17  23
ATOM     23  O   UNL A   1      33.702  28.022  26.966  1.00  0.00    -0.493 OA
ATOM     24  C   UNL A   1      34.800  28.923  27.035  1.00  0.00     0.278 C 
ENDBRANCH  17  23
BRANCH  19  25
ATOM     25  O   UNL A   1      31.565  29.445  26.419  1.00  0.00    -0.491 OA
ATOM     26  C   UNL A   1      31.849  30.831  26.261  1.00  0.00     0.278 C 
ENDBRANCH  19  25
ENDBRANCH  13  16
ENDBRANCH   7  12
ENDBRANCH   3   6
ENDBRANCH   1   2
BRANCH   1  27
ATOM     27  C   UNL A   1      39.027  22.608  26.557  1.00  0.00     0.042 C 
BRANCH  27  28
ATOM     28  C   UNL A   1      40.237  23.325  27.136  1.00  0.00     0.118 C 
BRANCH  28  29
ATOM     29  N   UNL A   1      41.020  23.986  26.103  1.00  0.00    -0.352 N 
ATOM     30  C   UNL A   1      41.368  25.311  26.014  1.00  0.00     0.251 C 
ATOM     31  H   UNL A   1      41.341  23.408  25.374  1.00  0.00     0.163 HD
ATOM     32  O   UNL A   1      41.823  25.758  24.963  1.00  0.00    -0.269 OA
BRANCH  30  33
ATOM     33  C   UNL A   1      41.192  26.211  27.177  1.00  0.00     0.039 A 
ATOM     34  C   UNL A   1      40.131  25.983  28.057  1.00  0.00     0.014 A 
ATOM     35  C   UNL A   1      42.042  27.305  27.373  1.00  0.00     0.014 A 
ATOM     36  C   UNL A   1      39.940  26.830  29.153  1.00  0.00     0.010 A 
ATOM     37  C   UNL A   1      41.884  28.117  28.494  1.00  0.00     0.010 A 
ATOM     38  C   UNL A   1      40.823  27.897  29.386  1.00  0.00    -0.014 A 
BRANCH  38  39
ATOM     39  C   UNL A   1      40.621  28.820  30.531  1.00  0.00     0.031 A 
ATOM     40  C   UNL A   1      39.549  29.873  30.467  1.00  0.00     0.074 A 
ATOM     41  C   UNL A   1      41.427  28.749  31.607  1.00  0.00     0.049 A 
ATOM     42  N   UNL A   1      39.254  30.808  31.335  1.00  0.00    -0.248 NA
ATOM     43  C   UNL A   1      38.710  29.889  29.259  1.00  0.00     0.031 C 
ATOM     44  C   UNL A   1      42.526  27.799  31.780  1.00  0.00     0.029 A 
ATOM     45  N   UNL A   1      41.450  29.498  32.757  1.00  0.00    -0.354 N 
ATOM     46  C   UNL A   1      38.212  31.533  30.770  1.00  0.00     0.074 A 
ATOM     47  C   UNL A   1      37.950  30.953  29.470  1.00  0.00     0.031 C 
ATOM     48  C   UNL A   1      43.109  28.016  32.971  1.00  0.00     0.029 A 
ATOM     49  C   UNL A   1      42.442  29.133  33.632  1.00  0.00     0.049 A 
ATOM     50  H   UNL A   1      40.815  30.230  32.936  1.00  0.00     0.167 HD
ATOM     51  C   UNL A   1      37.523  32.575  31.294  1.00  0.00     0.037 A 
ATOM     52  C   UNL A   1      42.778  29.646  34.831  1.00  0.00     0.037 A 
ATOM     53  C   UNL A   1      37.758  33.133  32.598  1.00  0.00     0.049 A 
ATOM     54  C   UNL A   1      41.994  30.797  35.394  1.00  0.00     0.074 A 
ATOM     55  C   UNL A   1      37.067  34.148  33.239  1.00  0.00     0.029 A 
ATOM     56  N   UNL A   1      38.759  32.721  33.463  1.00  0.00    -0.354 N 
ATOM     57  N   UNL A   1      40.974  31.436  34.874  1.00  0.00    -0.248 NA
ATOM     58  C   UNL A   1      42.405  31.298  36.714  1.00  0.00     0.031 C 
ATOM     59  C   UNL A   1      37.672  34.371  34.481  1.00  0.00     0.029 A 
ATOM     60  C   UNL A   1      38.716  33.473  34.627  1.00  0.00     0.049 A 
ATOM     61  H   UNL A   1      39.405  32.002  33.279  1.00  0.00     0.167 HD
ATOM     62  C   UNL A   1      40.607  32.393  35.809  1.00  0.00     0.074 A 
ATOM     63  C   UNL A   1      41.507  32.249  36.934  1.00  0.00     0.031 C 
ATOM     64  C   UNL A   1      39.613  33.312  35.741  1.00  0.00     0.037 A 
BRANCH  51  65
ATOM     65  C   UNL A   1      36.441  33.178  30.449  1.00  0.00     0.057 A 
ATOM     66  C   UNL A   1      36.734  34.059  29.400  1.00  0.00     0.134 A 
ATOM     67  C   UNL A   1      35.098  32.849  30.665  1.00  0.00     0.134 A 
ATOM     68  F   UNL A   1      38.000  34.423  29.150  1.00  0.00    -0.206 F 
ATOM     69  C   UNL A   1      35.724  34.610  28.608  1.00  0.00     0.040 A 
ATOM     70  C   UNL A   1      34.082  33.376  29.866  1.00  0.00     0.040 A 
ATOM     71  F   UNL A   1      34.752  32.007  31.650  1.00  0.00    -0.206 F 
ATOM     72  C   UNL A   1      34.394  34.263  28.837  1.00  0.00     0.006 A 
ENDBRANCH  51  65
BRANCH  52  73
ATOM     73  C   UNL A   1      43.904  29.057  35.597  1.00  0.00     0.057 A 
ATOM     74  C   UNL A   1      43.686  28.015  36.505  1.00  0.00     0.134 A 
ATOM     75  C   UNL A   1      45.214  29.523  35.447  1.00  0.00     0.134 A 
ATOM     76  F   UNL A   1      42.448  27.542  36.707  1.00  0.00    -0.206 F 
ATOM     77  C   UNL A   1      44.731  27.463  37.248  1.00  0.00     0.040 A 
ATOM     78  C   UNL A   1      46.272  28.968  36.168  1.00  0.00     0.040 A 
ATOM     79  F   UNL A   1      45.484  30.519  34.590  1.00  0.00    -0.206 F 
ATOM     80  C   UNL A   1      46.031  27.938  37.076  1.00  0.00     0.006 A 
ENDBRANCH  52  73
BRANCH  64  81
ATOM     81  C   UNL A   1      39.427  34.209  36.926  1.00  0.00     0.057 A 
ATOM     82  C   UNL A   1      38.761  33.777  38.079  1.00  0.00     0.134 A 
ATOM     83  C   UNL A   1      39.952  35.507  36.927  1.00  0.00     0.134 A 
ATOM     84  F   UNL A   1      38.225  32.548  38.134  1.00  0.00    -0.206 F 
ATOM     85  C   UNL A   1      38.610  34.610  39.188  1.00  0.00     0.040 A 
ATOM     86  C   UNL A   1      39.824  36.344  38.037  1.00  0.00     0.040 A 
ATOM     87  F   UNL A   1      40.605  35.979  35.854  1.00  0.00    -0.206 F 
ATOM     88  C   UNL A   1      39.147  35.896  39.170  1.00  0.00     0.006 A 
ENDBRANCH  64  81
ENDBRANCH  38  39
ENDBRANCH  30  33
ENDBRANCH  28  29
ENDBRANCH  27  28
ENDBRANCH   1  27
TORSDOF 14
ENDMDL
