MODEL 1
REMARK VINA RESULT:     -12.0      0.000      0.000
REMARK SMILES O=C(NCCCNC(=O)c1cccc2c(C(F)(F)F)cc(Br)nc12)c1ccc(-c2c3nc(c(-c4c(F)cccc4F)c4ccc([nH]4)c(-c4c(F)cccc4F)c4nc(c(-c5c(F)cccc5F)c5ccc2[nH]5)C=C4)C=C3)cc1
REMARK SMILES IDX 4 1 3 2 1 3 2 4 25 6 26 7 78 8 27 9 77 10 28 11 29 12 30 13
REMARK SMILES IDX 71 14 31 15 76 16 70 17 72 18 32 19 75 20 69 21 68 22 33 24
REMARK SMILES IDX 59 25 42 26 58 27 43 28 46 29 57 30 73 31 44 32 45 33 56 35
REMARK SMILES IDX 74 36 47 37 34 38 35 39 40 40 36 41 37 42 39 43 41 44 38 45
REMARK SMILES IDX 60 46 61 47 66 48 62 49 63 50 65 51 67 52 64 53 48 54 49 55
REMARK SMILES IDX 54 56 50 57 51 58 53 59 55 60 52 61 5 62 6 63 7 64 8 65 9 67
REMARK SMILES IDX 10 68 11 69 24 70 12 71 14 72 23 73 13 74 15 75 21 76 20 77
REMARK SMILES IDX 22 78 16 79 17 80 18 81 19 82
REMARK H PARENT 3 5 72 23 46 34 7 66
REMARK Flexibility Score: inf
ROOT
ATOM      1  C   UNL A   1      33.618  28.502  27.250  1.00  0.00     0.118 C 
ENDROOT
BRANCH   1   2
ATOM      2  N   UNL A   1      33.671  29.886  27.697  1.00  0.00    -0.352 N 
ATOM      3  O   UNL A   1      34.423  31.717  28.752  1.00  0.00    -0.269 OA
ATOM      4  C   UNL A   1      34.676  30.604  28.294  1.00  0.00     0.251 C 
ATOM      5  H   UNL A   1      32.841  30.396  27.546  1.00  0.00     0.163 HD
BRANCH   4   6
ATOM      6  C   UNL A   1      36.053  30.070  28.403  1.00  0.00     0.039 A 
ATOM      7  C   UNL A   1      36.449  29.483  29.610  1.00  0.00     0.014 A 
ATOM      8  C   UNL A   1      36.982  30.215  27.370  1.00  0.00     0.014 A 
ATOM      9  C   UNL A   1      37.759  29.021  29.769  1.00  0.00     0.010 A 
ATOM     10  C   UNL A   1      38.260  29.678  27.497  1.00  0.00     0.010 A 
ATOM     11  C   UNL A   1      38.673  29.105  28.709  1.00  0.00    -0.014 A 
BRANCH  11  12
ATOM     12  C   UNL A   1      40.090  28.691  28.872  1.00  0.00     0.031 A 
ATOM     13  C   UNL A   1      41.081  29.664  29.457  1.00  0.00     0.074 A 
ATOM     14  C   UNL A   1      40.500  27.476  28.465  1.00  0.00     0.049 A 
ATOM     15  N   UNL A   1      42.378  29.549  29.591  1.00  0.00    -0.248 NA
ATOM     16  C   UNL A   1      40.542  30.951  29.926  1.00  0.00     0.031 C 
ATOM     17  C   UNL A   1      39.647  26.449  27.865  1.00  0.00     0.029 A 
ATOM     18  N   UNL A   1      41.746  26.903  28.490  1.00  0.00    -0.354 N 
ATOM     19  C   UNL A   1      42.810  30.754  30.129  1.00  0.00     0.074 A 
ATOM     20  C   UNL A   1      41.646  31.605  30.251  1.00  0.00     0.031 C 
ATOM     21  C   UNL A   1      40.392  25.362  27.600  1.00  0.00     0.029 A 
ATOM     22  C   UNL A   1      41.777  25.629  27.978  1.00  0.00     0.049 A 
ATOM     23  H   UNL A   1      42.543  27.362  28.841  1.00  0.00     0.167 HD
ATOM     24  C   UNL A   1      44.058  31.116  30.512  1.00  0.00     0.037 A 
ATOM     25  C   UNL A   1      42.809  24.777  27.829  1.00  0.00     0.037 A 
ATOM     26  C   UNL A   1      45.207  30.258  30.436  1.00  0.00     0.049 A 
ATOM     27  C   UNL A   1      44.185  25.201  28.261  1.00  0.00     0.074 A 
ATOM     28  C   UNL A   1      46.504  30.512  30.845  1.00  0.00     0.029 A 
ATOM     29  N   UNL A   1      45.193  28.970  29.924  1.00  0.00    -0.354 N 
ATOM     30  N   UNL A   1      44.573  26.332  28.797  1.00  0.00    -0.248 NA
ATOM     31  C   UNL A   1      45.268  24.226  28.066  1.00  0.00     0.031 C 
ATOM     32  C   UNL A   1      47.282  29.383  30.558  1.00  0.00     0.029 A 
ATOM     33  C   UNL A   1      46.460  28.418  29.998  1.00  0.00     0.049 A 
ATOM     34  H   UNL A   1      44.399  28.514  29.561  1.00  0.00     0.167 HD
ATOM     35  C   UNL A   1      45.935  26.196  29.028  1.00  0.00     0.074 A 
ATOM     36  C   UNL A   1      46.306  24.869  28.583  1.00  0.00     0.031 C 
ATOM     37  C   UNL A   1      46.805  27.090  29.560  1.00  0.00     0.037 A 
BRANCH  24  38
ATOM     38  C   UNL A   1      44.230  32.505  31.052  1.00  0.00     0.057 A 
ATOM     39  C   UNL A   1      44.091  32.762  32.422  1.00  0.00     0.134 A 
ATOM     40  C   UNL A   1      44.533  33.589  30.218  1.00  0.00     0.134 A 
ATOM     41  F   UNL A   1      43.797  31.771  33.276  1.00  0.00    -0.206 F 
ATOM     42  C   UNL A   1      44.256  34.048  32.943  1.00  0.00     0.040 A 
ATOM     43  C   UNL A   1      44.726  34.874  30.729  1.00  0.00     0.040 A 
ATOM     44  F   UNL A   1      44.696  33.406  28.899  1.00  0.00    -0.206 F 
ATOM     45  C   UNL A   1      44.583  35.105  32.096  1.00  0.00     0.006 A 
ENDBRANCH  24  38
BRANCH  25  46
ATOM     46  C   UNL A   1      42.582  23.424  27.265  1.00  0.00     0.057 A 
ATOM     47  C   UNL A   1      42.728  23.163  25.899  1.00  0.00     0.134 A 
ATOM     48  C   UNL A   1      42.230  22.353  28.095  1.00  0.00     0.134 A 
ATOM     49  F   UNL A   1      43.060  24.150  25.052  1.00  0.00    -0.206 F 
ATOM     50  C   UNL A   1      42.531  21.884  25.376  1.00  0.00     0.040 A 
ATOM     51  C   UNL A   1      42.050  21.064  27.589  1.00  0.00     0.040 A 
ATOM     52  F   UNL A   1      42.097  22.539  29.417  1.00  0.00    -0.206 F 
ATOM     53  C   UNL A   1      42.198  20.829  26.223  1.00  0.00     0.006 A 
ENDBRANCH  25  46
BRANCH  37  54
ATOM     54  C   UNL A   1      48.226  26.645  29.722  1.00  0.00     0.057 A 
ATOM     55  C   UNL A   1      48.631  25.956  30.872  1.00  0.00     0.134 A 
ATOM     56  C   UNL A   1      49.200  26.927  28.756  1.00  0.00     0.134 A 
ATOM     57  F   UNL A   1      47.745  25.662  31.836  1.00  0.00    -0.206 F 
ATOM     58  C   UNL A   1      49.955  25.561  31.055  1.00  0.00     0.040 A 
ATOM     59  C   UNL A   1      50.525  26.519  28.920  1.00  0.00     0.040 A 
ATOM     60  F   UNL A   1      48.872  27.571  27.627  1.00  0.00    -0.206 F 
ATOM     61  C   UNL A   1      50.907  25.839  30.076  1.00  0.00     0.006 A 
ENDBRANCH  37  54
ENDBRANCH  11  12
ENDBRANCH   4   6
ENDBRANCH   1   2
BRANCH   1  62
ATOM     62  C   UNL A   1      32.199  27.952  27.194  1.00  0.00     0.042 C 
BRANCH  62  63
ATOM     63  C   UNL A   1      31.965  26.916  26.105  1.00  0.00     0.118 C 
BRANCH  63  64
ATOM     64  N   UNL A   1      30.925  25.960  26.448  1.00  0.00    -0.352 N 
ATOM     65  C   UNL A   1      31.003  24.597  26.602  1.00  0.00     0.253 C 
ATOM     66  H   UNL A   1      30.031  26.348  26.591  1.00  0.00     0.163 HD
ATOM     67  O   UNL A   1      29.996  23.959  26.902  1.00  0.00    -0.269 OA
BRANCH  65  68
ATOM     68  C   UNL A   1      32.313  23.925  26.499  1.00  0.00     0.066 A 
ATOM     69  C   UNL A   1      32.761  23.216  27.624  1.00  0.00     0.016 A 
ATOM     70  C   UNL A   1      33.030  23.966  25.296  1.00  0.00     0.085 A 
ATOM     71  C   UNL A   1      33.987  22.578  27.586  1.00  0.00     0.002 A 
ATOM     72  C   UNL A   1      34.268  23.277  25.250  1.00  0.00     0.013 A 
ATOM     73  N   UNL A   1      32.567  24.645  24.224  1.00  0.00    -0.240 NA
ATOM     74  C   UNL A   1      34.734  22.612  26.413  1.00  0.00     0.011 A 
ATOM     75  C   UNL A   1      34.987  23.284  24.027  1.00  0.00     0.068 A 
ATOM     76  C   UNL A   1      33.256  24.620  23.069  1.00  0.00     0.107 A 
ATOM     77  C   UNL A   1      34.456  23.961  22.922  1.00  0.00     0.049 A 
ATOM     78  Br  UNL A   1      32.524  25.541  21.585  1.00  0.00    -0.029 Br
BRANCH  75  79
ATOM     79  C   UNL A   1      36.310  22.575  23.876  1.00  0.00     0.417 C 
ATOM     80  F   UNL A   1      36.245  21.268  24.251  1.00  0.00    -0.166 F 
ATOM     81  F   UNL A   1      36.767  22.578  22.593  1.00  0.00    -0.166 F 
ATOM     82  F   UNL A   1      37.310  23.124  24.621  1.00  0.00    -0.166 F 
ENDBRANCH  75  79
ENDBRANCH  65  68
ENDBRANCH  63  64
ENDBRANCH  62  63
ENDBRANCH   1  62
TORSDOF 11
ENDMDL
MODEL 2
REMARK VINA RESULT:     -12.0      1.574      2.010
REMARK SMILES O=C(NCCCNC(=O)c1cccc2c(C(F)(F)F)cc(Br)nc12)c1ccc(-c2c3nc(c(-c4c(F)cccc4F)c4ccc([nH]4)c(-c4c(F)cccc4F)c4nc(c(-c5c(F)cccc5F)c5ccc2[nH]5)C=C4)C=C3)cc1
REMARK SMILES IDX 4 1 3 2 1 3 2 4 25 6 26 7 78 8 27 9 77 10 28 11 29 12 30 13
REMARK SMILES IDX 71 14 31 15 76 16 70 17 72 18 32 19 75 20 69 21 68 22 33 24
REMARK SMILES IDX 59 25 42 26 58 27 43 28 46 29 57 30 73 31 44 32 45 33 56 35
REMARK SMILES IDX 74 36 47 37 34 38 35 39 40 40 36 41 37 42 39 43 41 44 38 45
REMARK SMILES IDX 60 46 61 47 66 48 62 49 63 50 65 51 67 52 64 53 48 54 49 55
REMARK SMILES IDX 54 56 50 57 51 58 53 59 55 60 52 61 5 62 6 63 7 64 8 65 9 67
REMARK SMILES IDX 10 68 11 69 24 70 12 71 14 72 23 73 13 74 15 75 21 76 20 77
REMARK SMILES IDX 22 78 16 79 17 80 18 81 19 82
REMARK H PARENT 3 5 72 23 46 34 7 66
REMARK Flexibility Score: inf
ROOT
ATOM      1  C   UNL A   1      33.661  28.658  27.237  1.00  0.00     0.118 C 
ENDROOT
BRANCH   1   2
ATOM      2  N   UNL A   1      33.722  30.023  27.739  1.00  0.00    -0.352 N 
ATOM      3  O   UNL A   1      34.482  31.803  28.870  1.00  0.00    -0.269 OA
ATOM      4  C   UNL A   1      34.729  30.707  28.370  1.00  0.00     0.251 C 
ATOM      5  H   UNL A   1      32.898  30.545  27.601  1.00  0.00     0.163 HD
BRANCH   4   6
ATOM      6  C   UNL A   1      36.101  30.157  28.467  1.00  0.00     0.039 A 
ATOM      7  C   UNL A   1      36.516  29.608  29.686  1.00  0.00     0.014 A 
ATOM      8  C   UNL A   1      37.008  30.251  27.409  1.00  0.00     0.014 A 
ATOM      9  C   UNL A   1      37.822  29.131  29.832  1.00  0.00     0.010 A 
ATOM     10  C   UNL A   1      38.281  29.699  27.527  1.00  0.00     0.010 A 
ATOM     11  C   UNL A   1      38.713  29.164  28.749  1.00  0.00    -0.014 A 
BRANCH  11  12
ATOM     12  C   UNL A   1      40.127  28.735  28.896  1.00  0.00     0.031 A 
ATOM     13  C   UNL A   1      41.136  29.697  29.466  1.00  0.00     0.074 A 
ATOM     14  C   UNL A   1      40.519  27.515  28.485  1.00  0.00     0.049 A 
ATOM     15  N   UNL A   1      42.433  29.569  29.585  1.00  0.00    -0.248 NA
ATOM     16  C   UNL A   1      40.617  30.991  29.941  1.00  0.00     0.031 C 
ATOM     17  C   UNL A   1      39.648  26.496  27.897  1.00  0.00     0.029 A 
ATOM     18  N   UNL A   1      41.760  26.929  28.495  1.00  0.00    -0.354 N 
ATOM     19  C   UNL A   1      42.885  30.770  30.116  1.00  0.00     0.074 A 
ATOM     20  C   UNL A   1      41.732  31.634  30.251  1.00  0.00     0.031 C 
ATOM     21  C   UNL A   1      40.378  25.401  27.625  1.00  0.00     0.029 A 
ATOM     22  C   UNL A   1      41.770  25.654  27.985  1.00  0.00     0.049 A 
ATOM     23  H   UNL A   1      42.566  27.379  28.836  1.00  0.00     0.167 HD
ATOM     24  C   UNL A   1      44.141  31.119  30.483  1.00  0.00     0.037 A 
ATOM     25  C   UNL A   1      42.791  24.791  27.824  1.00  0.00     0.037 A 
ATOM     26  C   UNL A   1      45.280  30.248  30.394  1.00  0.00     0.049 A 
ATOM     27  C   UNL A   1      44.177  25.200  28.238  1.00  0.00     0.074 A 
ATOM     28  C   UNL A   1      46.585  30.488  30.786  1.00  0.00     0.029 A 
ATOM     29  N   UNL A   1      45.246  28.959  29.884  1.00  0.00    -0.354 N 
ATOM     30  N   UNL A   1      44.584  26.327  28.768  1.00  0.00    -0.248 NA
ATOM     31  C   UNL A   1      45.246  24.213  28.032  1.00  0.00     0.031 C 
ATOM     32  C   UNL A   1      47.347  29.351  30.491  1.00  0.00     0.029 A 
ATOM     33  C   UNL A   1      46.508  28.394  29.943  1.00  0.00     0.049 A 
ATOM     34  H   UNL A   1      44.443  28.512  29.531  1.00  0.00     0.167 HD
ATOM     35  C   UNL A   1      45.947  26.177  28.983  1.00  0.00     0.074 A 
ATOM     36  C   UNL A   1      46.298  24.845  28.535  1.00  0.00     0.031 C 
ATOM     37  C   UNL A   1      46.833  27.062  29.502  1.00  0.00     0.037 A 
BRANCH  24  38
ATOM     38  C   UNL A   1      44.335  32.506  31.019  1.00  0.00     0.057 A 
ATOM     39  C   UNL A   1      44.258  32.759  32.395  1.00  0.00     0.134 A 
ATOM     40  C   UNL A   1      44.597  33.594  30.175  1.00  0.00     0.134 A 
ATOM     41  F   UNL A   1      44.007  31.764  33.258  1.00  0.00    -0.206 F 
ATOM     42  C   UNL A   1      44.445  34.043  32.911  1.00  0.00     0.040 A 
ATOM     43  C   UNL A   1      44.810  34.877  30.681  1.00  0.00     0.040 A 
ATOM     44  F   UNL A   1      44.699  33.415  28.849  1.00  0.00    -0.206 F 
ATOM     45  C   UNL A   1      44.730  35.104  32.054  1.00  0.00     0.006 A 
ENDBRANCH  24  38
BRANCH  25  46
ATOM     46  C   UNL A   1      42.542  23.439  27.265  1.00  0.00     0.057 A 
ATOM     47  C   UNL A   1      42.664  23.176  25.897  1.00  0.00     0.134 A 
ATOM     48  C   UNL A   1      42.195  22.371  28.102  1.00  0.00     0.134 A 
ATOM     49  F   UNL A   1      42.989  24.159  25.044  1.00  0.00    -0.206 F 
ATOM     50  C   UNL A   1      42.446  21.899  25.378  1.00  0.00     0.040 A 
ATOM     51  C   UNL A   1      41.995  21.085  27.600  1.00  0.00     0.040 A 
ATOM     52  F   UNL A   1      42.085  22.559  29.425  1.00  0.00    -0.206 F 
ATOM     53  C   UNL A   1      42.117  20.847  26.232  1.00  0.00     0.006 A 
ENDBRANCH  25  46
BRANCH  37  54
ATOM     54  C   UNL A   1      48.251  26.602  29.648  1.00  0.00     0.057 A 
ATOM     55  C   UNL A   1      48.673  25.948  30.812  1.00  0.00     0.134 A 
ATOM     56  C   UNL A   1      49.206  26.835  28.651  1.00  0.00     0.134 A 
ATOM     57  F   UNL A   1      47.805  25.701  31.806  1.00  0.00    -0.206 F 
ATOM     58  C   UNL A   1      49.996  25.540  30.979  1.00  0.00     0.040 A 
ATOM     59  C   UNL A   1      50.528  26.414  28.798  1.00  0.00     0.040 A 
ATOM     60  F   UNL A   1      48.860  27.444  27.507  1.00  0.00    -0.206 F 
ATOM     61  C   UNL A   1      50.928  25.769  29.968  1.00  0.00     0.006 A 
ENDBRANCH  37  54
ENDBRANCH  11  12
ENDBRANCH   4   6
ENDBRANCH   1   2
BRANCH   1  62
ATOM     62  C   UNL A   1      32.245  28.096  27.222  1.00  0.00     0.042 C 
BRANCH  62  63
ATOM     63  C   UNL A   1      31.960  27.129  26.082  1.00  0.00     0.118 C 
BRANCH  63  64
ATOM     64  N   UNL A   1      32.693  27.456  24.869  1.00  0.00    -0.352 N 
ATOM     65  C   UNL A   1      32.998  26.662  23.790  1.00  0.00     0.253 C 
ATOM     66  H   UNL A   1      33.021  28.383  24.814  1.00  0.00     0.163 HD
ATOM     67  O   UNL A   1      33.633  27.133  22.848  1.00  0.00    -0.269 OA
BRANCH  65  68
ATOM     68  C   UNL A   1      32.479  25.282  23.728  1.00  0.00     0.066 A 
ATOM     69  C   UNL A   1      31.193  25.103  23.195  1.00  0.00     0.016 A 
ATOM     70  C   UNL A   1      33.282  24.211  24.141  1.00  0.00     0.085 A 
ATOM     71  C   UNL A   1      30.653  23.832  23.126  1.00  0.00     0.002 A 
ATOM     72  C   UNL A   1      32.739  22.907  24.031  1.00  0.00     0.013 A 
ATOM     73  N   UNL A   1      34.523  24.412  24.636  1.00  0.00    -0.240 NA
ATOM     74  C   UNL A   1      31.417  22.746  23.543  1.00  0.00     0.011 A 
ATOM     75  C   UNL A   1      33.556  21.812  24.415  1.00  0.00     0.068 A 
ATOM     76  C   UNL A   1      35.286  23.358  24.975  1.00  0.00     0.107 A 
ATOM     77  C   UNL A   1      34.854  22.055  24.883  1.00  0.00     0.049 A 
ATOM     78  Br  UNL A   1      37.038  23.703  25.606  1.00  0.00    -0.029 Br
BRANCH  75  79
ATOM     79  C   UNL A   1      33.071  20.387  24.329  1.00  0.00     0.417 C 
ATOM     80  F   UNL A   1      34.073  19.484  24.515  1.00  0.00    -0.166 F 
ATOM     81  F   UNL A   1      32.122  20.094  25.259  1.00  0.00    -0.166 F 
ATOM     82  F   UNL A   1      32.513  20.073  23.126  1.00  0.00    -0.166 F 
ENDBRANCH  75  79
ENDBRANCH  65  68
ENDBRANCH  63  64
ENDBRANCH  62  63
ENDBRANCH   1  62
TORSDOF 11
ENDMDL
MODEL 3
REMARK VINA RESULT:     -11.9      4.756      8.957
REMARK SMILES O=C(NCCCNC(=O)c1cccc2c(C(F)(F)F)cc(Br)nc12)c1ccc(-c2c3nc(c(-c4c(F)cccc4F)c4ccc([nH]4)c(-c4c(F)cccc4F)c4nc(c(-c5c(F)cccc5F)c5ccc2[nH]5)C=C4)C=C3)cc1
REMARK SMILES IDX 4 1 3 2 1 3 2 4 25 6 26 7 78 8 27 9 77 10 28 11 29 12 30 13
REMARK SMILES IDX 71 14 31 15 76 16 70 17 72 18 32 19 75 20 69 21 68 22 33 24
REMARK SMILES IDX 59 25 42 26 58 27 43 28 46 29 57 30 73 31 44 32 45 33 56 35
REMARK SMILES IDX 74 36 47 37 34 38 35 39 40 40 36 41 37 42 39 43 41 44 38 45
REMARK SMILES IDX 60 46 61 47 66 48 62 49 63 50 65 51 67 52 64 53 48 54 49 55
REMARK SMILES IDX 54 56 50 57 51 58 53 59 55 60 52 61 5 62 6 63 7 64 8 65 9 67
REMARK SMILES IDX 10 68 11 69 24 70 12 71 14 72 23 73 13 74 15 75 21 76 20 77
REMARK SMILES IDX 22 78 16 79 17 80 18 81 19 82
REMARK H PARENT 3 5 72 23 46 34 7 66
REMARK Flexibility Score: inf
ROOT
ATOM      1  C   UNL A   1      39.988  23.226  27.095  1.00  0.00     0.118 C 
ENDROOT
BRANCH   1   2
ATOM      2  N   UNL A   1      40.788  23.945  26.114  1.00  0.00    -0.352 N 
ATOM      3  O   UNL A   1      41.668  25.682  25.001  1.00  0.00    -0.269 OA
ATOM      4  C   UNL A   1      41.133  25.270  26.029  1.00  0.00     0.251 C 
ATOM      5  H   UNL A   1      41.142  23.384  25.386  1.00  0.00     0.163 HD
BRANCH   4   6
ATOM      6  C   UNL A   1      40.872  26.214  27.141  1.00  0.00     0.039 A 
ATOM      7  C   UNL A   1      41.596  27.411  27.185  1.00  0.00     0.014 A 
ATOM      8  C   UNL A   1      39.994  25.901  28.181  1.00  0.00     0.014 A 
ATOM      9  C   UNL A   1      41.419  28.300  28.250  1.00  0.00     0.010 A 
ATOM     10  C   UNL A   1      39.755  26.823  29.197  1.00  0.00     0.010 A 
ATOM     11  C   UNL A   1      40.488  28.017  29.260  1.00  0.00    -0.014 A 
BRANCH  11  12
ATOM     12  C   UNL A   1      40.332  28.903  30.441  1.00  0.00     0.031 A 
ATOM     13  C   UNL A   1      39.272  29.974  30.428  1.00  0.00     0.074 A 
ATOM     14  C   UNL A   1      41.155  28.784  31.499  1.00  0.00     0.049 A 
ATOM     15  N   UNL A   1      39.033  30.918  31.303  1.00  0.00    -0.248 NA
ATOM     16  C   UNL A   1      38.380  30.002  29.258  1.00  0.00     0.031 C 
ATOM     17  C   UNL A   1      42.235  27.805  31.630  1.00  0.00     0.029 A 
ATOM     18  N   UNL A   1      41.213  29.504  32.666  1.00  0.00    -0.354 N 
ATOM     19  C   UNL A   1      37.988  31.665  30.775  1.00  0.00     0.074 A 
ATOM     20  C   UNL A   1      37.672  31.098  29.483  1.00  0.00     0.031 C 
ATOM     21  C   UNL A   1      42.833  27.969  32.823  1.00  0.00     0.029 A 
ATOM     22  C   UNL A   1      42.203  29.086  33.522  1.00  0.00     0.049 A 
ATOM     23  H   UNL A   1      40.603  30.248  32.871  1.00  0.00     0.167 HD
ATOM     24  C   UNL A   1      37.333  32.716  31.323  1.00  0.00     0.037 A 
ATOM     25  C   UNL A   1      42.563  29.557  34.731  1.00  0.00     0.037 A 
ATOM     26  C   UNL A   1      37.614  33.253  32.626  1.00  0.00     0.049 A 
ATOM     27  C   UNL A   1      41.820  30.724  35.320  1.00  0.00     0.074 A 
ATOM     28  C   UNL A   1      36.973  34.282  33.294  1.00  0.00     0.029 A 
ATOM     29  N   UNL A   1      38.616  32.793  33.466  1.00  0.00    -0.354 N 
ATOM     30  N   UNL A   1      40.814  31.401  34.823  1.00  0.00    -0.248 NA
ATOM     31  C   UNL A   1      42.265  31.191  36.641  1.00  0.00     0.031 C 
ATOM     32  C   UNL A   1      37.604  34.460  34.530  1.00  0.00     0.029 A 
ATOM     33  C   UNL A   1      38.618  33.522  34.643  1.00  0.00     0.049 A 
ATOM     34  H   UNL A   1      39.235  32.056  33.257  1.00  0.00     0.167 HD
ATOM     35  C   UNL A   1      40.489  32.354  35.778  1.00  0.00     0.074 A 
ATOM     36  C   UNL A   1      41.398  32.163  36.890  1.00  0.00     0.031 C 
ATOM     37  C   UNL A   1      39.524  33.306  35.741  1.00  0.00     0.037 A 
BRANCH  24  38
ATOM     38  C   UNL A   1      36.242  33.343  30.506  1.00  0.00     0.057 A 
ATOM     39  C   UNL A   1      36.549  34.196  29.438  1.00  0.00     0.134 A 
ATOM     40  C   UNL A   1      34.889  33.104  30.775  1.00  0.00     0.134 A 
ATOM     41  F   UNL A   1      37.825  34.470  29.128  1.00  0.00    -0.206 F 
ATOM     42  C   UNL A   1      35.546  34.781  28.662  1.00  0.00     0.040 A 
ATOM     43  C   UNL A   1      33.877  33.662  29.991  1.00  0.00     0.040 A 
ATOM     44  F   UNL A   1      34.529  32.283  31.774  1.00  0.00    -0.206 F 
ATOM     45  C   UNL A   1      34.207  34.507  28.933  1.00  0.00     0.006 A 
ENDBRANCH  24  38
BRANCH  25  46
ATOM     46  C   UNL A   1      43.665  28.911  35.484  1.00  0.00     0.057 A 
ATOM     47  C   UNL A   1      43.426  27.876  36.394  1.00  0.00     0.134 A 
ATOM     48  C   UNL A   1      44.994  29.309  35.290  1.00  0.00     0.134 A 
ATOM     49  F   UNL A   1      42.175  27.453  36.626  1.00  0.00    -0.206 F 
ATOM     50  C   UNL A   1      44.469  27.260  37.087  1.00  0.00     0.040 A 
ATOM     51  C   UNL A   1      46.048  28.688  35.960  1.00  0.00     0.040 A 
ATOM     52  F   UNL A   1      45.285  30.282  34.414  1.00  0.00    -0.206 F 
ATOM     53  C   UNL A   1      45.786  27.661  36.866  1.00  0.00     0.006 A 
ENDBRANCH  25  46
BRANCH  37  54
ATOM     54  C   UNL A   1      39.383  34.182  36.948  1.00  0.00     0.057 A 
ATOM     55  C   UNL A   1      38.687  33.731  38.078  1.00  0.00     0.134 A 
ATOM     56  C   UNL A   1      39.906  35.480  36.982  1.00  0.00     0.134 A 
ATOM     57  F   UNL A   1      38.158  32.498  38.104  1.00  0.00    -0.206 F 
ATOM     58  C   UNL A   1      38.518  34.542  39.199  1.00  0.00     0.040 A 
ATOM     59  C   UNL A   1      39.759  36.293  38.107  1.00  0.00     0.040 A 
ATOM     60  F   UNL A   1      40.593  35.963  35.937  1.00  0.00    -0.206 F 
ATOM     61  C   UNL A   1      39.059  35.827  39.218  1.00  0.00     0.006 A 
ENDBRANCH  37  54
ENDBRANCH  11  12
ENDBRANCH   4   6
ENDBRANCH   1   2
BRANCH   1  62
ATOM     62  C   UNL A   1      38.755  22.571  26.486  1.00  0.00     0.042 C 
BRANCH  62  63
ATOM     63  C   UNL A   1      37.735  23.547  25.919  1.00  0.00     0.118 C 
BRANCH  63  64
ATOM     64  N   UNL A   1      37.607  23.453  24.474  1.00  0.00    -0.352 N 
ATOM     65  C   UNL A   1      36.583  22.939  23.716  1.00  0.00     0.253 C 
ATOM     66  H   UNL A   1      38.369  23.811  23.962  1.00  0.00     0.163 HD
ATOM     67  O   UNL A   1      36.665  22.955  22.490  1.00  0.00    -0.269 OA
BRANCH  65  68
ATOM     68  C   UNL A   1      35.355  22.459  24.378  1.00  0.00     0.066 A 
ATOM     69  C   UNL A   1      35.300  21.099  24.722  1.00  0.00     0.016 A 
ATOM     70  C   UNL A   1      34.326  23.358  24.687  1.00  0.00     0.085 A 
ATOM     71  C   UNL A   1      34.168  20.593  25.333  1.00  0.00     0.002 A 
ATOM     72  C   UNL A   1      33.184  22.842  25.349  1.00  0.00     0.013 A 
ATOM     73  N   UNL A   1      34.412  24.665  24.357  1.00  0.00    -0.240 NA
ATOM     74  C   UNL A   1      33.120  21.455  25.639  1.00  0.00     0.011 A 
ATOM     75  C   UNL A   1      32.150  23.750  25.696  1.00  0.00     0.068 A 
ATOM     76  C   UNL A   1      33.429  25.510  24.714  1.00  0.00     0.107 A 
ATOM     77  C   UNL A   1      32.292  25.107  25.378  1.00  0.00     0.049 A 
ATOM     78  Br  UNL A   1      33.636  27.341  24.276  1.00  0.00    -0.029 Br
BRANCH  75  79
ATOM     79  C   UNL A   1      30.899  23.300  26.408  1.00  0.00     0.417 C 
ATOM     80  F   UNL A   1      31.147  22.879  27.679  1.00  0.00    -0.166 F 
ATOM     81  F   UNL A   1      29.966  24.286  26.511  1.00  0.00    -0.166 F 
ATOM     82  F   UNL A   1      30.267  22.261  25.792  1.00  0.00    -0.166 F 
ENDBRANCH  75  79
ENDBRANCH  65  68
ENDBRANCH  63  64
ENDBRANCH  62  63
ENDBRANCH   1  62
TORSDOF 11
ENDMDL
