MODEL 1
REMARK VINA RESULT:      -9.7      0.000      0.000
REMARK SMILES C=CCN(CC(=O)NCCCNC(=O)c1ccc(-c2c3nc(c(-c4c(F)cccc4F)c4ccc([nH]4)c(-c4c(F)cccc4F)c4nc(c(-c5c(F)cccc5F)c5ccc2[nH]5)C=C4)C=C3)cc1)C(=O)NC(C)(C)CC
REMARK SMILES IDX 9 1 8 2 6 3 7 4 5 6 4 7 3 8 2 9 1 10 69 11 70 12 71 13 72 15
REMARK SMILES IDX 73 16 74 17 75 18 76 19 10 20 11 21 12 22 13 23 14 25 15 26
REMARK SMILES IDX 16 27 68 28 17 29 67 30 18 31 19 32 20 33 61 34 21 35 66 36
REMARK SMILES IDX 60 37 62 38 22 39 65 40 59 41 58 42 23 44 49 45 32 46 48 47
REMARK SMILES IDX 33 48 36 49 47 50 63 51 34 52 35 53 46 55 64 56 37 57 24 58
REMARK SMILES IDX 25 59 30 60 26 61 27 62 29 63 31 64 28 65 50 66 51 67 56 68
REMARK SMILES IDX 52 69 53 70 55 71 57 72 54 73 38 74 39 75 44 76 40 77 41 78
REMARK SMILES IDX 43 79 45 80 42 81
REMARK H PARENT 8 5 71 14 12 24 62 43 36 54
REMARK Flexibility Score: inf
ROOT
ATOM      1  C   UNL A   1      31.530  30.632  26.538  1.00  0.00     0.117 C 
ENDROOT
BRANCH   1   2
ATOM      2  N   UNL A   1      32.237  30.414  25.296  1.00  0.00    -0.354 N 
ATOM      3  C   UNL A   1      33.071  29.399  24.939  1.00  0.00     0.239 C 
ATOM      4  O   UNL A   1      33.302  29.271  23.733  1.00  0.00    -0.273 OA
ATOM      5  H   UNL A   1      32.094  31.101  24.606  1.00  0.00     0.163 HD
BRANCH   3   6
ATOM      6  C   UNL A   1      33.554  28.367  25.964  1.00  0.00     0.221 C 
BRANCH   6   7
ATOM      7  N   UNL A   1      32.792  27.124  26.033  1.00  0.00    -0.312 N 
BRANCH   7   8
ATOM      8  C   UNL A   1      33.573  25.888  25.923  1.00  0.00     0.149 C 
BRANCH   8   9
ATOM      9  C   UNL A   1      34.033  25.687  24.507  1.00  0.00    -0.013 C 
ATOM     10  C   UNL A   1      34.401  24.495  24.015  1.00  0.00     0.006 C 
ENDBRANCH   8   9
ENDBRANCH   7   8
BRANCH   7  11
ATOM     11  C   UNL A   1      31.460  26.962  26.246  1.00  0.00     0.318 C 
ATOM     12  O   UNL A   1      30.988  27.113  27.384  1.00  0.00    -0.249 OA
ATOM     13  N   UNL A   1      30.523  26.687  25.341  1.00  0.00    -0.333 N 
ATOM     14  H   UNL A   1      29.660  26.795  25.803  1.00  0.00     0.165 HD
BRANCH  13  15
ATOM     15  C   UNL A   1      30.193  26.289  23.945  1.00  0.00     0.036 C 
ATOM     16  C   UNL A   1      30.482  24.785  23.794  1.00  0.00     0.034 C 
ATOM     17  C   UNL A   1      28.657  26.466  23.793  1.00  0.00     0.034 C 
BRANCH  15  18
ATOM     18  C   UNL A   1      30.837  27.083  22.789  1.00  0.00     0.024 C 
ATOM     19  C   UNL A   1      31.629  26.254  21.785  1.00  0.00     0.006 C 
ENDBRANCH  15  18
ENDBRANCH  13  15
ENDBRANCH   7  11
ENDBRANCH   6   7
ENDBRANCH   3   6
ENDBRANCH   1   2
BRANCH   1  20
ATOM     20  C   UNL A   1      31.372  32.106  26.878  1.00  0.00     0.042 C 
BRANCH  20  21
ATOM     21  C   UNL A   1      32.687  32.879  26.883  1.00  0.00     0.118 C 
BRANCH  21  22
ATOM     22  N   UNL A   1      32.594  34.129  27.628  1.00  0.00    -0.352 N 
ATOM     23  C   UNL A   1      33.226  34.537  28.770  1.00  0.00     0.251 C 
ATOM     24  H   UNL A   1      31.973  34.790  27.245  1.00  0.00     0.163 HD
ATOM     25  O   UNL A   1      32.798  35.521  29.378  1.00  0.00    -0.269 OA
BRANCH  23  26
ATOM     26  C   UNL A   1      34.411  33.822  29.277  1.00  0.00     0.039 A 
ATOM     27  C   UNL A   1      34.231  32.742  30.147  1.00  0.00     0.014 A 
ATOM     28  C   UNL A   1      35.700  34.255  28.958  1.00  0.00     0.014 A 
ATOM     29  C   UNL A   1      35.343  32.074  30.660  1.00  0.00     0.010 A 
ATOM     30  C   UNL A   1      36.804  33.533  29.396  1.00  0.00     0.010 A 
ATOM     31  C   UNL A   1      36.637  32.452  30.271  1.00  0.00    -0.014 A 
BRANCH  31  32
ATOM     32  C   UNL A   1      37.833  31.761  30.807  1.00  0.00     0.031 A 
ATOM     33  C   UNL A   1      38.372  32.137  32.160  1.00  0.00     0.074 A 
ATOM     34  C   UNL A   1      38.466  30.843  30.051  1.00  0.00     0.049 A 
ATOM     35  N   UNL A   1      39.437  31.696  32.778  1.00  0.00    -0.248 NA
ATOM     36  C   UNL A   1      37.633  33.171  32.904  1.00  0.00     0.031 C 
ATOM     37  C   UNL A   1      38.070  30.440  28.701  1.00  0.00     0.029 A 
ATOM     38  N   UNL A   1      39.579  30.089  30.312  1.00  0.00    -0.354 N 
ATOM     39  C   UNL A   1      39.509  32.416  33.965  1.00  0.00     0.074 A 
ATOM     40  C   UNL A   1      38.412  33.358  33.957  1.00  0.00     0.031 C 
ATOM     41  C   UNL A   1      38.911  29.489  28.263  1.00  0.00     0.029 A 
ATOM     42  C   UNL A   1      39.919  29.239  29.288  1.00  0.00     0.049 A 
ATOM     43  H   UNL A   1      40.088  30.150  31.153  1.00  0.00     0.167 HD
ATOM     44  C   UNL A   1      40.393  32.284  34.981  1.00  0.00     0.037 A 
ATOM     45  C   UNL A   1      40.929  28.354  29.193  1.00  0.00     0.037 A 
ATOM     46  C   UNL A   1      41.455  31.315  35.001  1.00  0.00     0.049 A 
ATOM     47  C   UNL A   1      41.872  28.197  30.350  1.00  0.00     0.074 A 
ATOM     48  C   UNL A   1      42.367  31.053  36.008  1.00  0.00     0.029 A 
ATOM     49  N   UNL A   1      41.740  30.441  33.963  1.00  0.00    -0.354 N 
ATOM     50  N   UNL A   1      41.891  28.838  31.494  1.00  0.00    -0.248 NA
ATOM     51  C   UNL A   1      42.929  27.185  30.210  1.00  0.00     0.031 C 
ATOM     52  C   UNL A   1      43.223  30.037  35.566  1.00  0.00     0.029 A 
ATOM     53  C   UNL A   1      42.819  29.643  34.300  1.00  0.00     0.049 A 
ATOM     54  H   UNL A   1      41.248  30.395  33.112  1.00  0.00     0.167 HD
ATOM     55  C   UNL A   1      42.939  28.290  32.221  1.00  0.00     0.074 A 
ATOM     56  C   UNL A   1      43.526  27.257  31.392  1.00  0.00     0.031 C 
ATOM     57  C   UNL A   1      43.377  28.612  33.463  1.00  0.00     0.037 A 
BRANCH  44  58
ATOM     58  C   UNL A   1      40.235  33.205  36.157  1.00  0.00     0.057 A 
ATOM     59  C   UNL A   1      39.339  32.925  37.197  1.00  0.00     0.134 A 
ATOM     60  C   UNL A   1      40.995  34.376  36.257  1.00  0.00     0.134 A 
ATOM     61  F   UNL A   1      38.571  31.826  37.156  1.00  0.00    -0.206 F 
ATOM     62  C   UNL A   1      39.184  33.792  38.280  1.00  0.00     0.040 A 
ATOM     63  C   UNL A   1      40.867  35.238  37.348  1.00  0.00     0.040 A 
ATOM     64  F   UNL A   1      41.875  34.703  35.298  1.00  0.00    -0.206 F 
ATOM     65  C   UNL A   1      39.953  34.950  38.360  1.00  0.00     0.006 A 
ENDBRANCH  44  58
BRANCH  45  66
ATOM     66  C   UNL A   1      41.063  27.515  27.978  1.00  0.00     0.057 A 
ATOM     67  C   UNL A   1      40.437  26.266  27.896  1.00  0.00     0.134 A 
ATOM     68  C   UNL A   1      41.803  27.940  26.869  1.00  0.00     0.134 A 
ATOM     69  F   UNL A   1      39.725  25.799  28.933  1.00  0.00    -0.206 F 
ATOM     70  C   UNL A   1      40.554  25.461  26.763  1.00  0.00     0.040 A 
ATOM     71  C   UNL A   1      41.912  27.155  25.720  1.00  0.00     0.040 A 
ATOM     72  F   UNL A   1      42.418  29.131  26.882  1.00  0.00    -0.206 F 
ATOM     73  C   UNL A   1      41.289  25.908  25.667  1.00  0.00     0.006 A 
ENDBRANCH  45  66
BRANCH  57  74
ATOM     74  C   UNL A   1      44.520  27.813  34.011  1.00  0.00     0.057 A 
ATOM     75  C   UNL A   1      45.845  28.246  33.895  1.00  0.00     0.134 A 
ATOM     76  C   UNL A   1      44.283  26.616  34.700  1.00  0.00     0.134 A 
ATOM     77  F   UNL A   1      46.136  29.378  33.236  1.00  0.00    -0.206 F 
ATOM     78  C   UNL A   1      46.901  27.505  34.429  1.00  0.00     0.040 A 
ATOM     79  C   UNL A   1      45.329  25.879  35.257  1.00  0.00     0.040 A 
ATOM     80  F   UNL A   1      43.034  26.152  34.851  1.00  0.00    -0.206 F 
ATOM     81  C   UNL A   1      46.642  26.322  35.118  1.00  0.00     0.006 A 
ENDBRANCH  57  74
ENDBRANCH  31  32
ENDBRANCH  23  26
ENDBRANCH  21  22
ENDBRANCH  20  21
ENDBRANCH   1  20
TORSDOF 16
ENDMDL
MODEL 2
REMARK VINA RESULT:      -9.5      4.483      9.263
REMARK SMILES C=CCN(CC(=O)NCCCNC(=O)c1ccc(-c2c3nc(c(-c4c(F)cccc4F)c4ccc([nH]4)c(-c4c(F)cccc4F)c4nc(c(-c5c(F)cccc5F)c5ccc2[nH]5)C=C4)C=C3)cc1)C(=O)NC(C)(C)CC
REMARK SMILES IDX 9 1 8 2 6 3 7 4 5 6 4 7 3 8 2 9 1 10 69 11 70 12 71 13 72 15
REMARK SMILES IDX 73 16 74 17 75 18 76 19 10 20 11 21 12 22 13 23 14 25 15 26
REMARK SMILES IDX 16 27 68 28 17 29 67 30 18 31 19 32 20 33 61 34 21 35 66 36
REMARK SMILES IDX 60 37 62 38 22 39 65 40 59 41 58 42 23 44 49 45 32 46 48 47
REMARK SMILES IDX 33 48 36 49 47 50 63 51 34 52 35 53 46 55 64 56 37 57 24 58
REMARK SMILES IDX 25 59 30 60 26 61 27 62 29 63 31 64 28 65 50 66 51 67 56 68
REMARK SMILES IDX 52 69 53 70 55 71 57 72 54 73 38 74 39 75 44 76 40 77 41 78
REMARK SMILES IDX 43 79 45 80 42 81
REMARK H PARENT 8 5 71 14 12 24 62 43 36 54
REMARK Flexibility Score: inf
ROOT
ATOM      1  C   UNL A   1      36.174  20.322  24.952  1.00  0.00     0.117 C 
ENDROOT
BRANCH   1   2
ATOM      2  N   UNL A   1      34.957  19.545  25.009  1.00  0.00    -0.354 N 
ATOM      3  C   UNL A   1      33.700  19.926  25.368  1.00  0.00     0.239 C 
ATOM      4  O   UNL A   1      32.779  19.172  25.042  1.00  0.00    -0.273 OA
ATOM      5  H   UNL A   1      35.050  18.599  24.751  1.00  0.00     0.163 HD
BRANCH   3   6
ATOM      6  C   UNL A   1      33.432  21.302  25.989  1.00  0.00     0.221 C 
BRANCH   6   7
ATOM      7  N   UNL A   1      32.685  22.244  25.162  1.00  0.00    -0.312 N 
BRANCH   7   8
ATOM      8  C   UNL A   1      33.214  22.470  23.813  1.00  0.00     0.149 C 
BRANCH   8   9
ATOM      9  C   UNL A   1      32.157  22.181  22.785  1.00  0.00    -0.013 C 
ATOM     10  C   UNL A   1      31.974  20.970  22.239  1.00  0.00     0.006 C 
ENDBRANCH   8   9
ENDBRANCH   7   8
BRANCH   7  11
ATOM     11  C   UNL A   1      31.530  22.895  25.458  1.00  0.00     0.318 C 
ATOM     12  O   UNL A   1      30.550  22.263  25.880  1.00  0.00    -0.249 OA
ATOM     13  N   UNL A   1      31.300  24.205  25.394  1.00  0.00    -0.333 N 
ATOM     14  H   UNL A   1      30.425  24.347  25.824  1.00  0.00     0.165 HD
BRANCH  13  15
ATOM     15  C   UNL A   1      31.770  25.550  24.966  1.00  0.00     0.036 C 
ATOM     16  C   UNL A   1      31.426  25.727  23.477  1.00  0.00     0.034 C 
ATOM     17  C   UNL A   1      30.909  26.582  25.748  1.00  0.00     0.034 C 
BRANCH  15  18
ATOM     18  C   UNL A   1      33.242  25.927  25.231  1.00  0.00     0.024 C 
ATOM     19  C   UNL A   1      33.459  27.087  26.197  1.00  0.00     0.006 C 
ENDBRANCH  15  18
ENDBRANCH  13  15
ENDBRANCH   7  11
ENDBRANCH   6   7
ENDBRANCH   3   6
ENDBRANCH   1   2
BRANCH   1  20
ATOM     20  C   UNL A   1      37.427  19.460  24.936  1.00  0.00     0.042 C 
BRANCH  20  21
ATOM     21  C   UNL A   1      38.694  20.211  25.332  1.00  0.00     0.118 C 
BRANCH  21  22
ATOM     22  N   UNL A   1      39.796  19.312  25.656  1.00  0.00    -0.352 N 
ATOM     23  C   UNL A   1      41.068  19.575  26.081  1.00  0.00     0.251 C 
ATOM     24  H   UNL A   1      39.588  18.355  25.551  1.00  0.00     0.163 HD
ATOM     25  O   UNL A   1      41.918  18.683  26.032  1.00  0.00    -0.269 OA
BRANCH  23  26
ATOM     26  C   UNL A   1      41.434  20.906  26.600  1.00  0.00     0.039 A 
ATOM     27  C   UNL A   1      41.273  21.169  27.963  1.00  0.00     0.014 A 
ATOM     28  C   UNL A   1      41.867  21.916  25.739  1.00  0.00     0.014 A 
ATOM     29  C   UNL A   1      41.586  22.433  28.466  1.00  0.00     0.010 A 
ATOM     30  C   UNL A   1      42.264  23.145  26.253  1.00  0.00     0.010 A 
ATOM     31  C   UNL A   1      42.103  23.423  27.617  1.00  0.00    -0.014 A 
BRANCH  31  32
ATOM     32  C   UNL A   1      42.437  24.774  28.126  1.00  0.00     0.031 A 
ATOM     33  C   UNL A   1      43.859  25.106  28.490  1.00  0.00     0.074 A 
ATOM     34  C   UNL A   1      41.456  25.676  28.316  1.00  0.00     0.049 A 
ATOM     35  N   UNL A   1      44.346  26.205  29.007  1.00  0.00    -0.248 NA
ATOM     36  C   UNL A   1      44.862  24.049  28.277  1.00  0.00     0.031 C 
ATOM     37  C   UNL A   1      40.034  25.447  28.054  1.00  0.00     0.029 A 
ATOM     38  N   UNL A   1      41.507  26.964  28.779  1.00  0.00    -0.354 N 
ATOM     39  C   UNL A   1      45.699  25.961  29.204  1.00  0.00     0.074 A 
ATOM     40  C   UNL A   1      45.948  24.595  28.802  1.00  0.00     0.031 C 
ATOM     41  C   UNL A   1      39.351  26.569  28.332  1.00  0.00     0.029 A 
ATOM     42  C   UNL A   1      40.281  27.582  28.819  1.00  0.00     0.049 A 
ATOM     43  H   UNL A   1      42.342  27.404  29.058  1.00  0.00     0.167 HD
ATOM     44  C   UNL A   1      46.655  26.808  29.653  1.00  0.00     0.037 A 
ATOM     45  C   UNL A   1      39.950  28.830  29.201  1.00  0.00     0.037 A 
ATOM     46  C   UNL A   1      46.408  28.180  30.010  1.00  0.00     0.049 A 
ATOM     47  C   UNL A   1      41.033  29.765  29.657  1.00  0.00     0.074 A 
ATOM     48  C   UNL A   1      47.314  29.143  30.415  1.00  0.00     0.029 A 
ATOM     49  N   UNL A   1      45.159  28.783  29.995  1.00  0.00    -0.354 N 
ATOM     50  N   UNL A   1      42.320  29.542  29.777  1.00  0.00    -0.248 NA
ATOM     51  C   UNL A   1      40.621  31.128  30.020  1.00  0.00     0.031 C 
ATOM     52  C   UNL A   1      46.607  30.324  30.673  1.00  0.00     0.029 A 
ATOM     53  C   UNL A   1      45.268  30.104  30.391  1.00  0.00     0.049 A 
ATOM     54  H   UNL A   1      44.320  28.336  29.741  1.00  0.00     0.167 HD
ATOM     55  C   UNL A   1      42.876  30.742  30.200  1.00  0.00     0.074 A 
ATOM     56  C   UNL A   1      41.786  31.692  30.306  1.00  0.00     0.031 C 
ATOM     57  C   UNL A   1      44.170  31.033  30.476  1.00  0.00     0.037 A 
BRANCH  44  58
ATOM     58  C   UNL A   1      48.053  26.273  29.769  1.00  0.00     0.057 A 
ATOM     59  C   UNL A   1      48.959  26.343  28.703  1.00  0.00     0.134 A 
ATOM     60  C   UNL A   1      48.502  25.695  30.963  1.00  0.00     0.134 A 
ATOM     61  F   UNL A   1      48.588  26.872  27.528  1.00  0.00    -0.206 F 
ATOM     62  C   UNL A   1      50.253  25.829  28.810  1.00  0.00     0.040 A 
ATOM     63  C   UNL A   1      49.802  25.201  31.090  1.00  0.00     0.040 A 
ATOM     64  F   UNL A   1      47.687  25.601  32.024  1.00  0.00    -0.206 F 
ATOM     65  C   UNL A   1      50.679  25.261  30.009  1.00  0.00     0.006 A 
ENDBRANCH  44  58
BRANCH  45  66
ATOM     66  C   UNL A   1      38.539  29.277  29.116  1.00  0.00     0.057 A 
ATOM     67  C   UNL A   1      38.011  29.759  27.913  1.00  0.00     0.134 A 
ATOM     68  C   UNL A   1      37.683  29.224  30.222  1.00  0.00     0.134 A 
ATOM     69  F   UNL A   1      38.786  29.846  26.823  1.00  0.00    -0.206 F 
ATOM     70  C   UNL A   1      36.687  30.187  27.815  1.00  0.00     0.040 A 
ATOM     71  C   UNL A   1      36.351  29.630  30.134  1.00  0.00     0.040 A 
ATOM     72  F   UNL A   1      38.128  28.763  31.401  1.00  0.00    -0.206 F 
ATOM     73  C   UNL A   1      35.850  30.118  28.928  1.00  0.00     0.006 A 
ENDBRANCH  45  66
BRANCH  57  74
ATOM     74  C   UNL A   1      44.482  32.441  30.881  1.00  0.00     0.057 A 
ATOM     75  C   UNL A   1      44.827  33.420  29.943  1.00  0.00     0.134 A 
ATOM     76  C   UNL A   1      44.393  32.829  32.225  1.00  0.00     0.134 A 
ATOM     77  F   UNL A   1      44.940  33.105  28.643  1.00  0.00    -0.206 F 
ATOM     78  C   UNL A   1      45.094  34.734  30.328  1.00  0.00     0.040 A 
ATOM     79  C   UNL A   1      44.636  34.146  32.618  1.00  0.00     0.040 A 
ATOM     80  F   UNL A   1      44.059  31.940  33.170  1.00  0.00    -0.206 F 
ATOM     81  C   UNL A   1      44.992  35.101  31.668  1.00  0.00     0.006 A 
ENDBRANCH  57  74
ENDBRANCH  31  32
ENDBRANCH  23  26
ENDBRANCH  21  22
ENDBRANCH  20  21
ENDBRANCH   1  20
TORSDOF 16
ENDMDL
MODEL 3
REMARK VINA RESULT:      -9.5      1.342      2.190
REMARK SMILES C=CCN(CC(=O)NCCCNC(=O)c1ccc(-c2c3nc(c(-c4c(F)cccc4F)c4ccc([nH]4)c(-c4c(F)cccc4F)c4nc(c(-c5c(F)cccc5F)c5ccc2[nH]5)C=C4)C=C3)cc1)C(=O)NC(C)(C)CC
REMARK SMILES IDX 9 1 8 2 6 3 7 4 5 6 4 7 3 8 2 9 1 10 69 11 70 12 71 13 72 15
REMARK SMILES IDX 73 16 74 17 75 18 76 19 10 20 11 21 12 22 13 23 14 25 15 26
REMARK SMILES IDX 16 27 68 28 17 29 67 30 18 31 19 32 20 33 61 34 21 35 66 36
REMARK SMILES IDX 60 37 62 38 22 39 65 40 59 41 58 42 23 44 49 45 32 46 48 47
REMARK SMILES IDX 33 48 36 49 47 50 63 51 34 52 35 53 46 55 64 56 37 57 24 58
REMARK SMILES IDX 25 59 30 60 26 61 27 62 29 63 31 64 28 65 50 66 51 67 56 68
REMARK SMILES IDX 52 69 53 70 55 71 57 72 54 73 38 74 39 75 44 76 40 77 41 78
REMARK SMILES IDX 43 79 45 80 42 81
REMARK H PARENT 8 5 71 14 12 24 62 43 36 54
REMARK Flexibility Score: inf
ROOT
ATOM      1  C   UNL A   1      31.017  31.235  25.704  1.00  0.00     0.117 C 
ENDROOT
BRANCH   1   2
ATOM      2  N   UNL A   1      32.208  30.423  25.818  1.00  0.00    -0.354 N 
ATOM      3  C   UNL A   1      32.391  29.106  25.528  1.00  0.00     0.239 C 
ATOM      4  O   UNL A   1      33.558  28.722  25.413  1.00  0.00    -0.273 OA
ATOM      5  H   UNL A   1      33.005  30.893  26.154  1.00  0.00     0.163 HD
BRANCH   3   6
ATOM      6  C   UNL A   1      31.207  28.192  25.193  1.00  0.00     0.221 C 
BRANCH   6   7
ATOM      7  N   UNL A   1      30.818  28.133  23.788  1.00  0.00    -0.312 N 
BRANCH   7   8
ATOM      8  C   UNL A   1      30.175  26.889  23.353  1.00  0.00     0.149 C 
BRANCH   8   9
ATOM      9  C   UNL A   1      31.205  25.814  23.148  1.00  0.00    -0.013 C 
ATOM     10  C   UNL A   1      31.945  25.707  22.035  1.00  0.00     0.006 C 
ENDBRANCH   8   9
ENDBRANCH   7   8
BRANCH   7  11
ATOM     11  C   UNL A   1      30.920  29.104  22.843  1.00  0.00     0.318 C 
ATOM     12  O   UNL A   1      32.008  29.321  22.287  1.00  0.00    -0.249 OA
ATOM     13  N   UNL A   1      29.945  29.877  22.369  1.00  0.00    -0.333 N 
ATOM     14  H   UNL A   1      30.327  30.351  21.595  1.00  0.00     0.165 HD
BRANCH  13  15
ATOM     15  C   UNL A   1      28.538  30.347  22.482  1.00  0.00     0.036 C 
ATOM     16  C   UNL A   1      28.044  30.728  21.076  1.00  0.00     0.034 C 
ATOM     17  C   UNL A   1      27.702  29.115  22.930  1.00  0.00     0.034 C 
BRANCH  15  18
ATOM     18  C   UNL A   1      28.223  31.472  23.490  1.00  0.00     0.024 C 
ATOM     19  C   UNL A   1      28.777  32.847  23.133  1.00  0.00     0.006 C 
ENDBRANCH  15  18
ENDBRANCH  13  15
ENDBRANCH   7  11
ENDBRANCH   6   7
ENDBRANCH   3   6
ENDBRANCH   1   2
BRANCH   1  20
ATOM     20  C   UNL A   1      31.067  32.484  26.570  1.00  0.00     0.042 C 
BRANCH  20  21
ATOM     21  C   UNL A   1      32.463  32.820  27.083  1.00  0.00     0.118 C 
BRANCH  21  22
ATOM     22  N   UNL A   1      32.546  34.171  27.627  1.00  0.00    -0.352 N 
ATOM     23  C   UNL A   1      33.292  34.675  28.656  1.00  0.00     0.251 C 
ATOM     24  H   UNL A   1      31.969  34.829  27.177  1.00  0.00     0.163 HD
ATOM     25  O   UNL A   1      33.006  35.779  29.124  1.00  0.00    -0.269 OA
BRANCH  23  26
ATOM     26  C   UNL A   1      34.432  33.920  29.207  1.00  0.00     0.039 A 
ATOM     27  C   UNL A   1      34.191  32.936  30.171  1.00  0.00     0.014 A 
ATOM     28  C   UNL A   1      35.742  34.225  28.831  1.00  0.00     0.014 A 
ATOM     29  C   UNL A   1      35.262  32.233  30.725  1.00  0.00     0.010 A 
ATOM     30  C   UNL A   1      36.799  33.463  29.315  1.00  0.00     0.010 A 
ATOM     31  C   UNL A   1      36.572  32.478  30.285  1.00  0.00    -0.014 A 
BRANCH  31  32
ATOM     32  C   UNL A   1      37.726  31.748  30.861  1.00  0.00     0.031 A 
ATOM     33  C   UNL A   1      38.202  32.078  32.250  1.00  0.00     0.074 A 
ATOM     34  C   UNL A   1      38.377  30.837  30.115  1.00  0.00     0.049 A 
ATOM     35  N   UNL A   1      39.226  31.600  32.909  1.00  0.00    -0.248 NA
ATOM     36  C   UNL A   1      37.447  33.109  32.982  1.00  0.00     0.031 C 
ATOM     37  C   UNL A   1      38.043  30.477  28.736  1.00  0.00     0.029 A 
ATOM     38  N   UNL A   1      39.461  30.053  30.412  1.00  0.00    -0.354 N 
ATOM     39  C   UNL A   1      39.251  32.288  34.116  1.00  0.00     0.074 A 
ATOM     40  C   UNL A   1      38.175  33.253  34.077  1.00  0.00     0.031 C 
ATOM     41  C   UNL A   1      38.886  29.520  28.316  1.00  0.00     0.029 A 
ATOM     42  C   UNL A   1      39.835  29.222  29.384  1.00  0.00     0.049 A 
ATOM     43  H   UNL A   1      39.927  30.082  31.278  1.00  0.00     0.167 HD
ATOM     44  C   UNL A   1      40.079  32.112  35.172  1.00  0.00     0.037 A 
ATOM     45  C   UNL A   1      40.831  28.319  29.316  1.00  0.00     0.037 A 
ATOM     46  C   UNL A   1      41.120  31.120  35.219  1.00  0.00     0.049 A 
ATOM     47  C   UNL A   1      41.711  28.112  30.515  1.00  0.00     0.074 A 
ATOM     48  C   UNL A   1      41.974  30.813  36.263  1.00  0.00     0.029 A 
ATOM     49  N   UNL A   1      41.440  30.267  34.174  1.00  0.00    -0.354 N 
ATOM     50  N   UNL A   1      41.684  28.724  31.675  1.00  0.00    -0.248 NA
ATOM     51  C   UNL A   1      42.754  27.083  30.402  1.00  0.00     0.031 C 
ATOM     52  C   UNL A   1      42.831  29.791  35.839  1.00  0.00     0.029 A 
ATOM     53  C   UNL A   1      42.484  29.438  34.544  1.00  0.00     0.049 A 
ATOM     54  H   UNL A   1      40.991  30.253  33.298  1.00  0.00     0.167 HD
ATOM     55  C   UNL A   1      42.683  28.136  32.439  1.00  0.00     0.074 A 
ATOM     56  C   UNL A   1      43.290  27.112  31.613  1.00  0.00     0.031 C 
ATOM     57  C   UNL A   1      43.063  28.417  33.709  1.00  0.00     0.037 A 
BRANCH  44  58
ATOM     58  C   UNL A   1      39.880  33.005  36.362  1.00  0.00     0.057 A 
ATOM     59  C   UNL A   1      38.955  32.698  37.368  1.00  0.00     0.134 A 
ATOM     60  C   UNL A   1      40.631  34.178  36.511  1.00  0.00     0.134 A 
ATOM     61  F   UNL A   1      38.195  31.597  37.278  1.00  0.00    -0.206 F 
ATOM     62  C   UNL A   1      38.761  33.540  38.464  1.00  0.00     0.040 A 
ATOM     63  C   UNL A   1      40.464  35.016  37.616  1.00  0.00     0.040 A 
ATOM     64  F   UNL A   1      41.537  34.530  35.587  1.00  0.00    -0.206 F 
ATOM     65  C   UNL A   1      39.521  34.701  38.593  1.00  0.00     0.006 A 
ENDBRANCH  44  58
BRANCH  45  66
ATOM     66  C   UNL A   1      41.009  27.508  28.088  1.00  0.00     0.057 A 
ATOM     67  C   UNL A   1      41.839  27.950  27.051  1.00  0.00     0.134 A 
ATOM     68  C   UNL A   1      40.371  26.274  27.923  1.00  0.00     0.134 A 
ATOM     69  F   UNL A   1      42.466  29.132  27.146  1.00  0.00    -0.206 F 
ATOM     70  C   UNL A   1      42.017  27.202  25.887  1.00  0.00     0.040 A 
ATOM     71  C   UNL A   1      40.556  25.505  26.772  1.00  0.00     0.040 A 
ATOM     72  F   UNL A   1      39.571  25.791  28.885  1.00  0.00    -0.206 F 
ATOM     73  C   UNL A   1      41.378  25.972  25.748  1.00  0.00     0.006 A 
ENDBRANCH  45  66
BRANCH  57  74
ATOM     74  C   UNL A   1      44.161  27.580  34.293  1.00  0.00     0.057 A 
ATOM     75  C   UNL A   1      45.501  27.976  34.233  1.00  0.00     0.134 A 
ATOM     76  C   UNL A   1      43.863  26.384  34.959  1.00  0.00     0.134 A 
ATOM     77  F   UNL A   1      45.849  29.105  33.598  1.00  0.00    -0.206 F 
ATOM     78  C   UNL A   1      46.514  27.201  34.800  1.00  0.00     0.040 A 
ATOM     79  C   UNL A   1      44.865  25.612  35.549  1.00  0.00     0.040 A 
ATOM     80  F   UNL A   1      42.597  25.955  35.057  1.00  0.00    -0.206 F 
ATOM     81  C   UNL A   1      46.195  26.019  35.466  1.00  0.00     0.006 A 
ENDBRANCH  57  74
ENDBRANCH  31  32
ENDBRANCH  23  26
ENDBRANCH  21  22
ENDBRANCH  20  21
ENDBRANCH   1  20
TORSDOF 16
ENDMDL
