MODEL 1
REMARK VINA RESULT:     -11.3      0.000      0.000
REMARK SMILES CC[C@H]1CC[C@@](C(=O)NCCCNC(=O)c2ccc(-c3c4nc(c(-c5c(F)cccc5F)c5ccc([nH]5)c(-c5c(F)cccc5F)c5nc(c(-c6c(F)cccc6F)c6ccc3[nH]6)C=C5)C=C4)cc2)(C2CCCC2)C1
REMARK SMILES IDX 11 1 10 2 9 3 7 4 8 5 6 7 3 8 4 9 75 10 5 11 2 12 1 13 70 14
REMARK SMILES IDX 71 15 74 16 72 17 73 18 12 19 13 20 14 21 15 23 16 24 17 25
REMARK SMILES IDX 69 26 18 27 68 28 19 29 20 30 21 31 62 32 22 33 67 34 61 35
REMARK SMILES IDX 63 36 23 37 66 38 60 39 59 40 24 42 50 43 33 44 49 45 34 46
REMARK SMILES IDX 37 47 48 48 64 49 35 50 36 51 47 53 65 54 38 55 25 56 26 57
REMARK SMILES IDX 31 58 27 59 28 60 30 61 32 62 29 63 51 64 52 65 57 66 53 67
REMARK SMILES IDX 54 68 56 69 58 70 55 71 39 72 40 73 45 74 41 75 42 76 44 77
REMARK SMILES IDX 46 78 43 79
REMARK H PARENT 9 6 13 22 63 41 37 52
REMARK Flexibility Score: inf
ROOT
ATOM      1  C   UNL A   1      32.232  28.001  27.267  1.00  0.00     0.042 C 
ENDROOT
BRANCH   1   2
ATOM      2  C   UNL A   1      32.006  26.945  26.193  1.00  0.00     0.117 C 
BRANCH   2   3
ATOM      3  N   UNL A   1      31.350  25.763  26.719  1.00  0.00    -0.356 N 
ATOM      4  C   UNL A   1      31.561  24.432  26.550  1.00  0.00     0.226 C 
ATOM      5  O   UNL A   1      30.829  23.709  27.234  1.00  0.00    -0.274 OA
ATOM      6  H   UNL A   1      30.600  25.967  27.322  1.00  0.00     0.163 HD
BRANCH   4   7
ATOM      7  C   UNL A   1      32.666  23.842  25.626  1.00  0.00     0.052 C 
ATOM      8  C   UNL A   1      35.015  24.604  25.218  1.00  0.00    -0.010 C 
ATOM      9  C   UNL A   1      34.138  25.125  24.077  1.00  0.00     0.005 C 
ATOM     10  C   UNL A   1      34.043  24.090  26.288  1.00  0.00     0.020 C 
ATOM     11  C   UNL A   1      32.734  24.546  24.256  1.00  0.00     0.017 C 
BRANCH   8  12
ATOM     12  C   UNL A   1      36.079  23.617  24.708  1.00  0.00     0.000 C 
ATOM     13  C   UNL A   1      35.738  22.917  23.400  1.00  0.00     0.004 C 
ENDBRANCH   8  12
BRANCH   7  14
ATOM     14  C   UNL A   1      32.407  22.295  25.486  1.00  0.00     0.004 C 
ATOM     15  C   UNL A   1      32.374  21.736  24.054  1.00  0.00     0.005 C 
ATOM     16  C   UNL A   1      33.442  21.374  26.140  1.00  0.00     0.005 C 
ATOM     17  C   UNL A   1      32.453  20.223  24.239  1.00  0.00     0.000 C 
ATOM     18  C   UNL A   1      33.206  19.995  25.542  1.00  0.00     0.000 C 
ENDBRANCH   7  14
ENDBRANCH   4   7
ENDBRANCH   2   3
ENDBRANCH   1   2
BRANCH   1  19
ATOM     19  C   UNL A   1      33.637  28.592  27.253  1.00  0.00     0.118 C 
BRANCH  19  20
ATOM     20  N   UNL A   1      33.662  29.983  27.686  1.00  0.00    -0.352 N 
ATOM     21  C   UNL A   1      34.645  30.691  28.336  1.00  0.00     0.251 C 
ATOM     22  H   UNL A   1      32.849  30.497  27.479  1.00  0.00     0.163 HD
ATOM     23  O   UNL A   1      34.395  31.800  28.795  1.00  0.00    -0.269 OA
BRANCH  21  24
ATOM     24  C   UNL A   1      35.994  30.110  28.502  1.00  0.00     0.039 A 
ATOM     25  C   UNL A   1      36.897  30.180  27.438  1.00  0.00     0.014 A 
ATOM     26  C   UNL A   1      36.367  29.492  29.698  1.00  0.00     0.014 A 
ATOM     27  C   UNL A   1      38.198  29.701  27.602  1.00  0.00     0.010 A 
ATOM     28  C   UNL A   1      37.687  29.098  29.890  1.00  0.00     0.010 A 
ATOM     29  C   UNL A   1      38.617  29.200  28.845  1.00  0.00    -0.014 A 
BRANCH  29  30
ATOM     30  C   UNL A   1      40.024  28.785  29.079  1.00  0.00     0.031 A 
ATOM     31  C   UNL A   1      41.005  29.746  29.692  1.00  0.00     0.074 A 
ATOM     32  C   UNL A   1      40.435  27.570  28.668  1.00  0.00     0.049 A 
ATOM     33  N   UNL A   1      42.290  29.602  29.890  1.00  0.00    -0.248 NA
ATOM     34  C   UNL A   1      40.476  31.054  30.113  1.00  0.00     0.031 C 
ATOM     35  C   UNL A   1      39.591  26.564  28.020  1.00  0.00     0.029 A 
ATOM     36  N   UNL A   1      41.672  26.978  28.722  1.00  0.00    -0.354 N 
ATOM     37  C   UNL A   1      42.724  30.799  30.445  1.00  0.00     0.074 A 
ATOM     38  C   UNL A   1      41.577  31.679  30.499  1.00  0.00     0.031 C 
ATOM     39  C   UNL A   1      40.328  25.473  27.759  1.00  0.00     0.029 A 
ATOM     40  C   UNL A   1      41.705  25.717  28.177  1.00  0.00     0.049 A 
ATOM     41  H   UNL A   1      42.462  27.415  29.115  1.00  0.00     0.167 HD
ATOM     42  C   UNL A   1      43.959  31.126  30.891  1.00  0.00     0.037 A 
ATOM     43  C   UNL A   1      42.731  24.860  28.019  1.00  0.00     0.037 A 
ATOM     44  C   UNL A   1      45.093  30.240  30.852  1.00  0.00     0.049 A 
ATOM     45  C   UNL A   1      44.100  25.259  28.495  1.00  0.00     0.074 A 
ATOM     46  C   UNL A   1      46.374  30.459  31.328  1.00  0.00     0.029 A 
ATOM     47  N   UNL A   1      45.085  28.969  30.296  1.00  0.00    -0.354 N 
ATOM     48  N   UNL A   1      44.481  26.370  29.079  1.00  0.00    -0.248 NA
ATOM     49  C   UNL A   1      45.182  24.286  28.291  1.00  0.00     0.031 C 
ATOM     50  C   UNL A   1      47.153  29.340  31.015  1.00  0.00     0.029 A 
ATOM     51  C   UNL A   1      46.344  28.402  30.394  1.00  0.00     0.049 A 
ATOM     52  H   UNL A   1      44.298  28.535  29.892  1.00  0.00     0.167 HD
ATOM     53  C   UNL A   1      45.837  26.217  29.339  1.00  0.00     0.074 A 
ATOM     54  C   UNL A   1      46.209  24.900  28.861  1.00  0.00     0.031 C 
ATOM     55  C   UNL A   1      46.697  27.088  29.920  1.00  0.00     0.037 A 
BRANCH  42  56
ATOM     56  C   UNL A   1      44.148  32.503  31.464  1.00  0.00     0.057 A 
ATOM     57  C   UNL A   1      43.975  32.765  32.829  1.00  0.00     0.134 A 
ATOM     58  C   UNL A   1      44.544  33.569  30.646  1.00  0.00     0.134 A 
ATOM     59  F   UNL A   1      43.586  31.791  33.665  1.00  0.00    -0.206 F 
ATOM     60  C   UNL A   1      44.160  34.045  33.356  1.00  0.00     0.040 A 
ATOM     61  C   UNL A   1      44.761  34.847  31.167  1.00  0.00     0.040 A 
ATOM     62  F   UNL A   1      44.736  33.387  29.332  1.00  0.00    -0.206 F 
ATOM     63  C   UNL A   1      44.561  35.088  32.525  1.00  0.00     0.006 A 
ENDBRANCH  42  56
BRANCH  43  64
ATOM     64  C   UNL A   1      42.503  23.532  27.392  1.00  0.00     0.057 A 
ATOM     65  C   UNL A   1      42.162  22.418  28.168  1.00  0.00     0.134 A 
ATOM     66  C   UNL A   1      42.630  23.341  26.011  1.00  0.00     0.134 A 
ATOM     67  F   UNL A   1      42.043  22.534  29.498  1.00  0.00    -0.206 F 
ATOM     68  C   UNL A   1      41.976  21.158  27.597  1.00  0.00     0.040 A 
ATOM     69  C   UNL A   1      42.420  22.092  25.423  1.00  0.00     0.040 A 
ATOM     70  F   UNL A   1      42.946  24.369  25.210  1.00  0.00    -0.206 F 
ATOM     71  C   UNL A   1      42.100  20.994  26.219  1.00  0.00     0.006 A 
ENDBRANCH  43  64
BRANCH  55  72
ATOM     72  C   UNL A   1      48.117  26.635  30.106  1.00  0.00     0.057 A 
ATOM     73  C   UNL A   1      48.518  25.898  31.228  1.00  0.00     0.134 A 
ATOM     74  C   UNL A   1      49.082  26.899  29.127  1.00  0.00     0.134 A 
ATOM     75  F   UNL A   1      47.644  25.624  32.209  1.00  0.00    -0.206 F 
ATOM     76  C   UNL A   1      49.833  25.459  31.378  1.00  0.00     0.040 A 
ATOM     77  C   UNL A   1      50.394  26.440  29.252  1.00  0.00     0.040 A 
ATOM     78  F   UNL A   1      48.763  27.592  28.023  1.00  0.00    -0.206 F 
ATOM     79  C   UNL A   1      50.774  25.721  30.384  1.00  0.00     0.006 A 
ENDBRANCH  55  72
ENDBRANCH  29  30
ENDBRANCH  21  24
ENDBRANCH  19  20
ENDBRANCH   1  19
TORSDOF 12
ENDMDL
MODEL 2
REMARK VINA RESULT:     -11.2      2.905      7.573
REMARK SMILES CC[C@H]1CC[C@@](C(=O)NCCCNC(=O)c2ccc(-c3c4nc(c(-c5c(F)cccc5F)c5ccc([nH]5)c(-c5c(F)cccc5F)c5nc(c(-c6c(F)cccc6F)c6ccc3[nH]6)C=C5)C=C4)cc2)(C2CCCC2)C1
REMARK SMILES IDX 11 1 10 2 9 3 7 4 8 5 6 7 3 8 4 9 75 10 5 11 2 12 1 13 70 14
REMARK SMILES IDX 71 15 74 16 72 17 73 18 12 19 13 20 14 21 15 23 16 24 17 25
REMARK SMILES IDX 69 26 18 27 68 28 19 29 20 30 21 31 62 32 22 33 67 34 61 35
REMARK SMILES IDX 63 36 23 37 66 38 60 39 59 40 24 42 50 43 33 44 49 45 34 46
REMARK SMILES IDX 37 47 48 48 64 49 35 50 36 51 47 53 65 54 38 55 25 56 26 57
REMARK SMILES IDX 31 58 27 59 28 60 30 61 32 62 29 63 51 64 52 65 57 66 53 67
REMARK SMILES IDX 54 68 56 69 58 70 55 71 39 72 40 73 45 74 41 75 42 76 44 77
REMARK SMILES IDX 46 78 43 79
REMARK H PARENT 9 6 13 22 63 41 37 52
REMARK Flexibility Score: inf
ROOT
ATOM      1  C   UNL A   1      37.836  19.527  24.848  1.00  0.00     0.042 C 
ENDROOT
BRANCH   1   2
ATOM      2  C   UNL A   1      36.551  20.329  25.007  1.00  0.00     0.117 C 
BRANCH   2   3
ATOM      3  N   UNL A   1      36.809  21.697  25.415  1.00  0.00    -0.356 N 
ATOM      4  C   UNL A   1      35.998  22.742  25.725  1.00  0.00     0.226 C 
ATOM      5  O   UNL A   1      36.595  23.754  26.107  1.00  0.00    -0.274 OA
ATOM      6  H   UNL A   1      37.767  21.911  25.482  1.00  0.00     0.163 HD
BRANCH   4   7
ATOM      7  C   UNL A   1      34.445  22.676  25.671  1.00  0.00     0.052 C 
ATOM      8  C   UNL A   1      32.722  23.864  27.046  1.00  0.00    -0.010 C 
ATOM      9  C   UNL A   1      32.905  22.456  27.619  1.00  0.00     0.005 C 
ATOM     10  C   UNL A   1      33.880  24.064  26.060  1.00  0.00     0.020 C 
ATOM     11  C   UNL A   1      33.854  21.689  26.699  1.00  0.00     0.017 C 
BRANCH   8  12
ATOM     12  C   UNL A   1      31.298  24.073  26.504  1.00  0.00     0.000 C 
ATOM     13  C   UNL A   1      30.311  22.963  26.834  1.00  0.00     0.004 C 
ENDBRANCH   8  12
BRANCH   7  14
ATOM     14  C   UNL A   1      34.024  22.318  24.196  1.00  0.00     0.004 C 
ATOM     15  C   UNL A   1      32.681  21.589  24.028  1.00  0.00     0.005 C 
ATOM     16  C   UNL A   1      33.843  23.500  23.239  1.00  0.00     0.005 C 
ATOM     17  C   UNL A   1      32.387  21.683  22.534  1.00  0.00     0.000 C 
ATOM     18  C   UNL A   1      33.072  22.953  22.046  1.00  0.00     0.000 C 
ENDBRANCH   7  14
ENDBRANCH   4   7
ENDBRANCH   2   3
ENDBRANCH   1   2
BRANCH   1  19
ATOM     19  C   UNL A   1      38.983  20.036  25.714  1.00  0.00     0.118 C 
BRANCH  19  20
ATOM     20  N   UNL A   1      40.033  19.042  25.893  1.00  0.00    -0.352 N 
ATOM     21  C   UNL A   1      41.379  19.205  26.116  1.00  0.00     0.251 C 
ATOM     22  H   UNL A   1      39.731  18.106  25.847  1.00  0.00     0.163 HD
ATOM     23  O   UNL A   1      42.132  18.241  26.035  1.00  0.00    -0.269 OA
BRANCH  21  24
ATOM     24  C   UNL A   1      41.924  20.542  26.429  1.00  0.00     0.039 A 
ATOM     25  C   UNL A   1      42.304  21.382  25.378  1.00  0.00     0.014 A 
ATOM     26  C   UNL A   1      42.070  20.967  27.752  1.00  0.00     0.014 A 
ATOM     27  C   UNL A   1      42.753  22.675  25.653  1.00  0.00     0.010 A 
ATOM     28  C   UNL A   1      42.430  22.283  28.020  1.00  0.00     0.010 A 
ATOM     29  C   UNL A   1      42.774  23.151  26.974  1.00  0.00    -0.014 A 
BRANCH  29  30
ATOM     30  C   UNL A   1      43.144  24.556  27.285  1.00  0.00     0.031 A 
ATOM     31  C   UNL A   1      44.585  24.984  27.260  1.00  0.00     0.074 A 
ATOM     32  C   UNL A   1      42.188  25.426  27.665  1.00  0.00     0.049 A 
ATOM     33  N   UNL A   1      45.112  26.135  27.590  1.00  0.00    -0.248 NA
ATOM     34  C   UNL A   1      45.568  23.974  26.835  1.00  0.00     0.031 C 
ATOM     35  C   UNL A   1      40.758  25.121  27.772  1.00  0.00     0.029 A 
ATOM     36  N   UNL A   1      42.274  26.741  28.046  1.00  0.00    -0.354 N 
ATOM     37  C   UNL A   1      46.483  25.985  27.423  1.00  0.00     0.074 A 
ATOM     38  C   UNL A   1      46.711  24.615  27.020  1.00  0.00     0.031 C 
ATOM     39  C   UNL A   1      40.102  26.223  28.167  1.00  0.00     0.029 A 
ATOM     40  C   UNL A   1      41.065  27.298  28.386  1.00  0.00     0.049 A 
ATOM     41  H   UNL A   1      43.122  27.240  28.073  1.00  0.00     0.167 HD
ATOM     42  C   UNL A   1      47.459  26.911  27.570  1.00  0.00     0.037 A 
ATOM     43  C   UNL A   1      40.766  28.531  28.837  1.00  0.00     0.037 A 
ATOM     44  C   UNL A   1      47.225  28.278  27.955  1.00  0.00     0.049 A 
ATOM     45  C   UNL A   1      41.873  29.532  29.021  1.00  0.00     0.074 A 
ATOM     46  C   UNL A   1      48.141  29.307  28.078  1.00  0.00     0.029 A 
ATOM     47  N   UNL A   1      45.985  28.805  28.286  1.00  0.00    -0.354 N 
ATOM     48  N   UNL A   1      43.157  29.395  28.795  1.00  0.00    -0.248 NA
ATOM     49  C   UNL A   1      41.489  30.860  29.521  1.00  0.00     0.031 C 
ATOM     50  C   UNL A   1      47.464  30.443  28.534  1.00  0.00     0.029 A 
ATOM     51  C   UNL A   1      46.116  30.137  28.640  1.00  0.00     0.049 A 
ATOM     52  H   UNL A   1      45.136  28.304  28.271  1.00  0.00     0.167 HD
ATOM     53  C   UNL A   1      43.729  30.625  29.097  1.00  0.00     0.074 A 
ATOM     54  C   UNL A   1      42.649  31.499  29.508  1.00  0.00     0.031 C 
ATOM     55  C   UNL A   1      45.032  30.997  29.040  1.00  0.00     0.037 A 
BRANCH  42  56
ATOM     56  C   UNL A   1      48.874  26.475  27.312  1.00  0.00     0.057 A 
ATOM     57  C   UNL A   1      49.696  25.989  28.337  1.00  0.00     0.134 A 
ATOM     58  C   UNL A   1      49.407  26.506  26.017  1.00  0.00     0.134 A 
ATOM     59  F   UNL A   1      49.251  25.942  29.601  1.00  0.00    -0.206 F 
ATOM     60  C   UNL A   1      51.007  25.577  28.088  1.00  0.00     0.040 A 
ATOM     61  C   UNL A   1      50.706  26.070  25.751  1.00  0.00     0.040 A 
ATOM     62  F   UNL A   1      48.672  26.952  24.987  1.00  0.00    -0.206 F 
ATOM     63  C   UNL A   1      51.513  25.611  26.791  1.00  0.00     0.006 A 
ENDBRANCH  42  56
BRANCH  43  64
ATOM     64  C   UNL A   1      39.357  28.895  29.136  1.00  0.00     0.057 A 
ATOM     65  C   UNL A   1      38.810  28.677  30.406  1.00  0.00     0.134 A 
ATOM     66  C   UNL A   1      38.521  29.454  28.162  1.00  0.00     0.134 A 
ATOM     67  F   UNL A   1      39.555  28.127  31.375  1.00  0.00    -0.206 F 
ATOM     68  C   UNL A   1      37.479  28.983  30.692  1.00  0.00     0.040 A 
ATOM     69  C   UNL A   1      37.195  29.791  28.442  1.00  0.00     0.040 A 
ATOM     70  F   UNL A   1      38.986  29.697  26.928  1.00  0.00    -0.206 F 
ATOM     71  C   UNL A   1      36.669  29.548  29.708  1.00  0.00     0.006 A 
ENDBRANCH  43  64
BRANCH  55  72
ATOM     72  C   UNL A   1      45.359  32.419  29.394  1.00  0.00     0.057 A 
ATOM     73  C   UNL A   1      45.741  32.790  30.690  1.00  0.00     0.134 A 
ATOM     74  C   UNL A   1      45.340  33.419  28.414  1.00  0.00     0.134 A 
ATOM     75  F   UNL A   1      45.767  31.882  31.678  1.00  0.00    -0.206 F 
ATOM     76  C   UNL A   1      46.070  34.110  31.002  1.00  0.00     0.040 A 
ATOM     77  C   UNL A   1      45.694  34.735  28.707  1.00  0.00     0.040 A 
ATOM     78  F   UNL A   1      44.992  33.129  27.151  1.00  0.00    -0.206 F 
ATOM     79  C   UNL A   1      46.056  35.085  30.007  1.00  0.00     0.006 A 
ENDBRANCH  55  72
ENDBRANCH  29  30
ENDBRANCH  21  24
ENDBRANCH  19  20
ENDBRANCH   1  19
TORSDOF 12
ENDMDL
MODEL 3
REMARK VINA RESULT:     -11.2      1.100      2.515
REMARK SMILES CC[C@H]1CC[C@@](C(=O)NCCCNC(=O)c2ccc(-c3c4nc(c(-c5c(F)cccc5F)c5ccc([nH]5)c(-c5c(F)cccc5F)c5nc(c(-c6c(F)cccc6F)c6ccc3[nH]6)C=C5)C=C4)cc2)(C2CCCC2)C1
REMARK SMILES IDX 11 1 10 2 9 3 7 4 8 5 6 7 3 8 4 9 75 10 5 11 2 12 1 13 70 14
REMARK SMILES IDX 71 15 74 16 72 17 73 18 12 19 13 20 14 21 15 23 16 24 17 25
REMARK SMILES IDX 69 26 18 27 68 28 19 29 20 30 21 31 62 32 22 33 67 34 61 35
REMARK SMILES IDX 63 36 23 37 66 38 60 39 59 40 24 42 50 43 33 44 49 45 34 46
REMARK SMILES IDX 37 47 48 48 64 49 35 50 36 51 47 53 65 54 38 55 25 56 26 57
REMARK SMILES IDX 31 58 27 59 28 60 30 61 32 62 29 63 51 64 52 65 57 66 53 67
REMARK SMILES IDX 54 68 56 69 58 70 55 71 39 72 40 73 45 74 41 75 42 76 44 77
REMARK SMILES IDX 46 78 43 79
REMARK H PARENT 9 6 13 22 63 41 37 52
REMARK Flexibility Score: inf
ROOT
ATOM      1  C   UNL A   1      33.984  28.262  25.671  1.00  0.00     0.042 C 
ENDROOT
BRANCH   1   2
ATOM      2  C   UNL A   1      32.845  27.644  24.871  1.00  0.00     0.117 C 
BRANCH   2   3
ATOM      3  N   UNL A   1      33.244  27.322  23.514  1.00  0.00    -0.356 N 
ATOM      4  C   UNL A   1      33.482  26.149  22.871  1.00  0.00     0.226 C 
ATOM      5  O   UNL A   1      33.737  26.271  21.668  1.00  0.00    -0.274 OA
ATOM      6  H   UNL A   1      33.365  28.114  22.943  1.00  0.00     0.163 HD
BRANCH   4   7
ATOM      7  C   UNL A   1      33.389  24.754  23.554  1.00  0.00     0.052 C 
ATOM      8  C   UNL A   1      32.044  22.734  22.938  1.00  0.00    -0.010 C 
ATOM      9  C   UNL A   1      31.301  23.485  24.046  1.00  0.00     0.005 C 
ATOM     10  C   UNL A   1      33.147  23.687  22.458  1.00  0.00     0.020 C 
ATOM     11  C   UNL A   1      32.187  24.639  24.513  1.00  0.00     0.017 C 
BRANCH   8  12
ATOM     12  C   UNL A   1      32.482  21.334  23.399  1.00  0.00     0.000 C 
ATOM     13  C   UNL A   1      32.356  21.077  24.894  1.00  0.00     0.004 C 
ENDBRANCH   8  12
BRANCH   7  14
ATOM     14  C   UNL A   1      34.758  24.476  24.281  1.00  0.00     0.004 C 
ATOM     15  C   UNL A   1      34.670  24.000  25.741  1.00  0.00     0.005 C 
ATOM     16  C   UNL A   1      35.643  23.388  23.666  1.00  0.00     0.005 C 
ATOM     17  C   UNL A   1      36.075  23.498  26.058  1.00  0.00     0.000 C 
ATOM     18  C   UNL A   1      36.669  23.036  24.734  1.00  0.00     0.000 C 
ENDBRANCH   7  14
ENDBRANCH   4   7
ENDBRANCH   2   3
ENDBRANCH   1   2
BRANCH   1  19
ATOM     19  C   UNL A   1      33.650  28.472  27.144  1.00  0.00     0.118 C 
BRANCH  19  20
ATOM     20  N   UNL A   1      33.653  29.879  27.523  1.00  0.00    -0.352 N 
ATOM     21  C   UNL A   1      34.620  30.623  28.156  1.00  0.00     0.251 C 
ATOM     22  H   UNL A   1      32.836  30.374  27.288  1.00  0.00     0.163 HD
ATOM     23  O   UNL A   1      34.351  31.745  28.570  1.00  0.00    -0.269 OA
BRANCH  21  24
ATOM     24  C   UNL A   1      35.973  30.066  28.359  1.00  0.00     0.039 A 
ATOM     25  C   UNL A   1      36.902  30.146  27.317  1.00  0.00     0.014 A 
ATOM     26  C   UNL A   1      36.327  29.460  29.567  1.00  0.00     0.014 A 
ATOM     27  C   UNL A   1      38.206  29.690  27.516  1.00  0.00     0.010 A 
ATOM     28  C   UNL A   1      37.648  29.090  29.794  1.00  0.00     0.010 A 
ATOM     29  C   UNL A   1      38.602  29.203  28.772  1.00  0.00    -0.014 A 
BRANCH  29  30
ATOM     30  C   UNL A   1      40.010  28.813  29.044  1.00  0.00     0.031 A 
ATOM     31  C   UNL A   1      40.958  29.792  29.679  1.00  0.00     0.074 A 
ATOM     32  C   UNL A   1      40.453  27.605  28.647  1.00  0.00     0.049 A 
ATOM     33  N   UNL A   1      42.240  29.671  29.911  1.00  0.00    -0.248 NA
ATOM     34  C   UNL A   1      40.395  31.091  30.083  1.00  0.00     0.031 C 
ATOM     35  C   UNL A   1      39.643  26.582  27.979  1.00  0.00     0.029 A 
ATOM     36  N   UNL A   1      41.698  27.034  28.734  1.00  0.00    -0.354 N 
ATOM     37  C   UNL A   1      42.638  30.877  30.474  1.00  0.00     0.074 A 
ATOM     38  C   UNL A   1      41.475  31.737  30.496  1.00  0.00     0.031 C 
ATOM     39  C   UNL A   1      40.406  25.504  27.740  1.00  0.00     0.029 A 
ATOM     40  C   UNL A   1      41.767  25.773  28.193  1.00  0.00     0.049 A 
ATOM     41  H   UNL A   1      42.470  27.486  29.146  1.00  0.00     0.167 HD
ATOM     42  C   UNL A   1      43.856  31.226  30.951  1.00  0.00     0.037 A 
ATOM     43  C   UNL A   1      42.812  24.934  28.063  1.00  0.00     0.037 A 
ATOM     44  C   UNL A   1      45.006  30.361  30.943  1.00  0.00     0.049 A 
ATOM     45  C   UNL A   1      44.161  25.358  28.574  1.00  0.00     0.074 A 
ATOM     46  C   UNL A   1      46.269  30.602  31.452  1.00  0.00     0.029 A 
ATOM     47  N   UNL A   1      45.034  29.089  30.390  1.00  0.00    -0.354 N 
ATOM     48  N   UNL A   1      44.507  26.476  29.165  1.00  0.00    -0.248 NA
ATOM     49  C   UNL A   1      45.265  24.403  28.401  1.00  0.00     0.031 C 
ATOM     50  C   UNL A   1      47.076  29.497  31.162  1.00  0.00     0.029 A 
ATOM     51  C   UNL A   1      46.300  28.544  30.522  1.00  0.00     0.049 A 
ATOM     52  H   UNL A   1      44.265  28.639  29.967  1.00  0.00     0.167 HD
ATOM     53  C   UNL A   1      45.859  26.348  29.460  1.00  0.00     0.074 A 
ATOM     54  C   UNL A   1      46.265  25.037  28.995  1.00  0.00     0.031 C 
ATOM     55  C   UNL A   1      46.688  27.235  30.061  1.00  0.00     0.037 A 
BRANCH  42  56
ATOM     56  C   UNL A   1      44.006  32.607  31.524  1.00  0.00     0.057 A 
ATOM     57  C   UNL A   1      44.379  33.701  30.731  1.00  0.00     0.134 A 
ATOM     58  C   UNL A   1      43.738  32.853  32.877  1.00  0.00     0.134 A 
ATOM     59  F   UNL A   1      44.659  33.533  29.430  1.00  0.00    -0.206 F 
ATOM     60  C   UNL A   1      44.508  34.983  31.269  1.00  0.00     0.040 A 
ATOM     61  C   UNL A   1      43.836  34.136  33.420  1.00  0.00     0.040 A 
ATOM     62  F   UNL A   1      43.369  31.854  33.692  1.00  0.00    -0.206 F 
ATOM     63  C   UNL A   1      44.230  35.204  32.616  1.00  0.00     0.006 A 
ENDBRANCH  42  56
BRANCH  43  64
ATOM     64  C   UNL A   1      42.623  23.601  27.434  1.00  0.00     0.057 A 
ATOM     65  C   UNL A   1      42.743  23.435  26.049  1.00  0.00     0.134 A 
ATOM     66  C   UNL A   1      42.309  22.468  28.194  1.00  0.00     0.134 A 
ATOM     67  F   UNL A   1      43.025  24.486  25.266  1.00  0.00    -0.206 F 
ATOM     68  C   UNL A   1      42.537  22.196  25.440  1.00  0.00     0.040 A 
ATOM     69  C   UNL A   1      42.127  21.217  27.601  1.00  0.00     0.040 A 
ATOM     70  F   UNL A   1      42.189  22.558  29.527  1.00  0.00    -0.206 F 
ATOM     71  C   UNL A   1      42.233  21.081  26.219  1.00  0.00     0.006 A 
ENDBRANCH  43  64
BRANCH  55  72
ATOM     72  C   UNL A   1      48.110  26.808  30.285  1.00  0.00     0.057 A 
ATOM     73  C   UNL A   1      49.131  27.126  29.380  1.00  0.00     0.134 A 
ATOM     74  C   UNL A   1      48.469  26.111  31.446  1.00  0.00     0.134 A 
ATOM     75  F   UNL A   1      48.851  27.781  28.243  1.00  0.00    -0.206 F 
ATOM     76  C   UNL A   1      50.454  26.748  29.612  1.00  0.00     0.040 A 
ATOM     77  C   UNL A   1      49.792  25.752  31.702  1.00  0.00     0.040 A 
ATOM     78  F   UNL A   1      47.542  25.781  32.358  1.00  0.00    -0.206 F 
ATOM     79  C   UNL A   1      50.789  26.066  30.781  1.00  0.00     0.006 A 
ENDBRANCH  55  72
ENDBRANCH  29  30
ENDBRANCH  21  24
ENDBRANCH  19  20
ENDBRANCH   1  19
TORSDOF 12
ENDMDL
