MODEL 1
REMARK VINA RESULT:     -10.9      0.000      0.000
REMARK SMILES CCCc1nc2cc(C(=O)NCCCNC(=O)c3ccc(-c4c5nc(c(-c6c(F)cccc6F)c6ccc([nH]6)c(-c6c(F)cccc6F)c6nc(c(-c7c(F)cccc7F)c7ccc4[nH]7)C=C6)C=C5)cc3)ccc2n1[C@H](CO)C(C)C
REMARK SMILES IDX 12 1 11 2 9 3 10 4 8 6 4 7 5 8 75 9 6 10 74 11 7 12 73 13
REMARK SMILES IDX 72 14 3 15 2 16 1 17 76 18 79 19 80 20 81 21 77 22 78 23
REMARK SMILES IDX 13 25 14 26 15 27 16 28 17 30 18 31 19 32 71 33 20 34 70 35
REMARK SMILES IDX 21 36 22 37 23 38 64 39 24 40 69 41 63 42 65 43 25 44 68 45
REMARK SMILES IDX 62 46 61 47 26 49 52 50 35 51 51 52 36 53 39 54 50 55 66 56
REMARK SMILES IDX 37 57 38 58 49 60 67 61 40 62 27 63 28 64 33 65 29 66 30 67
REMARK SMILES IDX 32 68 34 69 31 70 53 71 54 72 59 73 55 74 56 75 58 76 60 77
REMARK SMILES IDX 57 78 41 79 42 80 47 81 43 82 44 83 46 84 48 85 45 86
REMARK H PARENT 11 5 78 24 15 29 65 48 39 59
REMARK Flexibility Score: inf
ROOT
ATOM      1  C   UNL A   1      32.146  29.674  27.242  1.00  0.00     0.118 C 
ENDROOT
BRANCH   1   2
ATOM      2  N   UNL A   1      31.614  29.626  25.888  1.00  0.00    -0.352 N 
ATOM      3  C   UNL A   1      31.452  28.628  24.963  1.00  0.00     0.251 C 
ATOM      4  O   UNL A   1      30.880  28.949  23.910  1.00  0.00    -0.269 OA
ATOM      5  H   UNL A   1      31.303  30.502  25.566  1.00  0.00     0.163 HD
BRANCH   3   6
ATOM      6  C   UNL A   1      31.885  27.211  25.140  1.00  0.00     0.042 A 
ATOM      7  C   UNL A   1      34.950  23.896  25.639  1.00  0.00     0.110 A 
ATOM      8  N   UNL A   1      35.025  25.168  25.293  1.00  0.00    -0.233 NA
ATOM      9  N   UNL A   1      33.624  23.477  25.638  1.00  0.00    -0.322 N 
ATOM     10  C   UNL A   1      33.742  25.638  25.245  1.00  0.00     0.090 A 
ATOM     11  C   UNL A   1      32.840  24.611  25.477  1.00  0.00     0.069 A 
ATOM     12  C   UNL A   1      33.266  26.944  25.039  1.00  0.00     0.044 A 
ATOM     13  C   UNL A   1      31.464  24.836  25.560  1.00  0.00     0.029 A 
ATOM     14  C   UNL A   1      31.019  26.159  25.451  1.00  0.00     0.016 A 
BRANCH   7  15
ATOM     15  C   UNL A   1      36.136  23.051  26.007  1.00  0.00     0.075 C 
BRANCH  15  16
ATOM     16  C   UNL A   1      37.479  23.522  25.444  1.00  0.00     0.005 C 
ATOM     17  C   UNL A   1      38.434  24.075  26.488  1.00  0.00     0.004 C 
ENDBRANCH  15  16
ENDBRANCH   7  15
BRANCH   9  18
ATOM     18  C   UNL A   1      33.037  22.146  25.864  1.00  0.00     0.117 C 
BRANCH  18  19
ATOM     19  C   UNL A   1      33.310  21.059  24.778  1.00  0.00     0.008 C 
ATOM     20  C   UNL A   1      32.951  19.635  25.234  1.00  0.00     0.009 C 
ATOM     21  C   UNL A   1      32.501  21.326  23.493  1.00  0.00     0.009 C 
ENDBRANCH  18  19
BRANCH  18  22
ATOM     22  C   UNL A   1      33.293  21.684  27.324  1.00  0.00     0.181 C 
BRANCH  22  23
ATOM     23  O   UNL A   1      32.522  22.359  28.307  1.00  0.00    -0.394 OA
ATOM     24  H   UNL A   1      32.310  23.253  27.995  1.00  0.00     0.210 HD
ENDBRANCH  22  23
ENDBRANCH  18  22
ENDBRANCH   9  18
ENDBRANCH   3   6
ENDBRANCH   1   2
BRANCH   1  25
ATOM     25  C   UNL A   1      33.668  29.871  27.252  1.00  0.00     0.042 C 
BRANCH  25  26
ATOM     26  C   UNL A   1      34.085  31.339  27.366  1.00  0.00     0.118 C 
BRANCH  26  27
ATOM     27  N   UNL A   1      34.064  31.840  28.729  1.00  0.00    -0.352 N 
ATOM     28  C   UNL A   1      34.926  31.896  29.783  1.00  0.00     0.251 C 
ATOM     29  H   UNL A   1      33.195  32.249  28.950  1.00  0.00     0.163 HD
ATOM     30  O   UNL A   1      34.488  32.466  30.788  1.00  0.00    -0.269 OA
BRANCH  28  31
ATOM     31  C   UNL A   1      36.283  31.287  29.858  1.00  0.00     0.039 A 
ATOM     32  C   UNL A   1      37.497  31.965  29.954  1.00  0.00     0.014 A 
ATOM     33  C   UNL A   1      36.310  29.877  29.787  1.00  0.00     0.014 A 
ATOM     34  C   UNL A   1      38.699  31.252  29.857  1.00  0.00     0.010 A 
ATOM     35  C   UNL A   1      37.502  29.165  29.706  1.00  0.00     0.010 A 
ATOM     36  C   UNL A   1      38.702  29.857  29.678  1.00  0.00    -0.014 A 
BRANCH  36  37
ATOM     37  C   UNL A   1      39.978  29.125  29.702  1.00  0.00     0.031 A 
ATOM     38  C   UNL A   1      40.496  28.981  31.092  1.00  0.00     0.074 A 
ATOM     39  C   UNL A   1      40.575  28.541  28.632  1.00  0.00     0.049 A 
ATOM     40  N   UNL A   1      41.528  29.571  31.599  1.00  0.00    -0.248 NA
ATOM     41  C   UNL A   1      39.666  28.285  32.091  1.00  0.00     0.031 C 
ATOM     42  C   UNL A   1      40.056  28.407  27.269  1.00  0.00     0.029 A 
ATOM     43  N   UNL A   1      41.777  27.878  28.547  1.00  0.00    -0.354 N 
ATOM     44  C   UNL A   1      41.616  29.124  32.915  1.00  0.00     0.074 A 
ATOM     45  C   UNL A   1      40.354  28.505  33.214  1.00  0.00     0.031 C 
ATOM     46  C   UNL A   1      40.814  27.528  26.566  1.00  0.00     0.029 A 
ATOM     47  C   UNL A   1      41.960  27.138  27.366  1.00  0.00     0.049 A 
ATOM     48  H   UNL A   1      42.456  27.919  29.257  1.00  0.00     0.167 HD
ATOM     49  C   UNL A   1      42.831  29.050  33.525  1.00  0.00     0.037 A 
ATOM     50  C   UNL A   1      42.975  26.270  27.079  1.00  0.00     0.037 A 
ATOM     51  C   UNL A   1      43.789  29.881  32.831  1.00  0.00     0.049 A 
ATOM     52  C   UNL A   1      44.092  26.577  27.998  1.00  0.00     0.074 A 
ATOM     53  C   UNL A   1      43.914  31.227  32.552  1.00  0.00     0.029 A 
ATOM     54  N   UNL A   1      44.627  29.235  31.962  1.00  0.00    -0.354 N 
ATOM     55  N   UNL A   1      44.805  27.663  27.925  1.00  0.00    -0.248 NA
ATOM     56  C   UNL A   1      44.095  25.902  29.283  1.00  0.00     0.031 C 
ATOM     57  C   UNL A   1      44.476  31.284  31.240  1.00  0.00     0.029 A 
ATOM     58  C   UNL A   1      44.751  29.982  30.825  1.00  0.00     0.049 A 
ATOM     59  H   UNL A   1      45.069  28.371  32.128  1.00  0.00     0.167 HD
ATOM     60  C   UNL A   1      44.929  28.073  29.242  1.00  0.00     0.074 A 
ATOM     61  C   UNL A   1      44.531  26.911  30.040  1.00  0.00     0.031 C 
ATOM     62  C   UNL A   1      45.048  29.400  29.540  1.00  0.00     0.037 A 
BRANCH  49  63
ATOM     63  C   UNL A   1      43.282  27.861  34.360  1.00  0.00     0.057 A 
ATOM     64  C   UNL A   1      43.595  26.587  33.845  1.00  0.00     0.134 A 
ATOM     65  C   UNL A   1      43.769  28.106  35.661  1.00  0.00     0.134 A 
ATOM     66  F   UNL A   1      43.220  26.180  32.629  1.00  0.00    -0.206 F 
ATOM     67  C   UNL A   1      44.409  25.674  34.522  1.00  0.00     0.040 A 
ATOM     68  C   UNL A   1      44.619  27.216  36.328  1.00  0.00     0.040 A 
ATOM     69  F   UNL A   1      43.526  29.272  36.279  1.00  0.00    -0.206 F 
ATOM     70  C   UNL A   1      44.959  26.002  35.748  1.00  0.00     0.006 A 
ENDBRANCH  49  63
BRANCH  50  71
ATOM     71  C   UNL A   1      43.003  25.010  26.285  1.00  0.00     0.057 A 
ATOM     72  C   UNL A   1      42.389  23.843  26.764  1.00  0.00     0.134 A 
ATOM     73  C   UNL A   1      43.906  24.826  25.218  1.00  0.00     0.134 A 
ATOM     74  F   UNL A   1      41.571  23.886  27.824  1.00  0.00    -0.206 F 
ATOM     75  C   UNL A   1      42.670  22.573  26.239  1.00  0.00     0.040 A 
ATOM     76  C   UNL A   1      44.198  23.559  24.684  1.00  0.00     0.040 A 
ATOM     77  F   UNL A   1      44.590  25.865  24.716  1.00  0.00    -0.206 F 
ATOM     78  C   UNL A   1      43.587  22.425  25.205  1.00  0.00     0.006 A 
ENDBRANCH  50  71
BRANCH  62  79
ATOM     79  C   UNL A   1      45.358  30.343  28.412  1.00  0.00     0.057 A 
ATOM     80  C   UNL A   1      46.689  30.737  28.236  1.00  0.00     0.134 A 
ATOM     81  C   UNL A   1      44.403  30.938  27.572  1.00  0.00     0.134 A 
ATOM     82  F   UNL A   1      47.648  30.248  29.038  1.00  0.00    -0.206 F 
ATOM     83  C   UNL A   1      47.064  31.664  27.264  1.00  0.00     0.040 A 
ATOM     84  C   UNL A   1      44.771  31.842  26.567  1.00  0.00     0.040 A 
ATOM     85  F   UNL A   1      43.093  30.698  27.725  1.00  0.00    -0.206 F 
ATOM     86  C   UNL A   1      46.105  32.208  26.415  1.00  0.00     0.006 A 
ENDBRANCH  62  79
ENDBRANCH  36  37
ENDBRANCH  28  31
ENDBRANCH  26  27
ENDBRANCH  25  26
ENDBRANCH   1  25
TORSDOF 16
ENDMDL
MODEL 2
REMARK VINA RESULT:     -10.9      1.852      5.977
REMARK SMILES CCCc1nc2cc(C(=O)NCCCNC(=O)c3ccc(-c4c5nc(c(-c6c(F)cccc6F)c6ccc([nH]6)c(-c6c(F)cccc6F)c6nc(c(-c7c(F)cccc7F)c7ccc4[nH]7)C=C6)C=C5)cc3)ccc2n1[C@H](CO)C(C)C
REMARK SMILES IDX 12 1 11 2 9 3 10 4 8 6 4 7 5 8 75 9 6 10 74 11 7 12 73 13
REMARK SMILES IDX 72 14 3 15 2 16 1 17 76 18 79 19 80 20 81 21 77 22 78 23
REMARK SMILES IDX 13 25 14 26 15 27 16 28 17 30 18 31 19 32 71 33 20 34 70 35
REMARK SMILES IDX 21 36 22 37 23 38 64 39 24 40 69 41 63 42 65 43 25 44 68 45
REMARK SMILES IDX 62 46 61 47 26 49 52 50 35 51 51 52 36 53 39 54 50 55 66 56
REMARK SMILES IDX 37 57 38 58 49 60 67 61 40 62 27 63 28 64 33 65 29 66 30 67
REMARK SMILES IDX 32 68 34 69 31 70 53 71 54 72 59 73 55 74 56 75 58 76 60 77
REMARK SMILES IDX 57 78 41 79 42 80 47 81 43 82 44 83 46 84 48 85 45 86
REMARK H PARENT 11 5 78 24 15 29 65 48 39 59
REMARK Flexibility Score: inf
ROOT
ATOM      1  C   UNL A   1      32.593  29.738  27.242  1.00  0.00     0.118 C 
ENDROOT
BRANCH   1   2
ATOM      2  N   UNL A   1      31.793  29.672  26.029  1.00  0.00    -0.352 N 
ATOM      3  C   UNL A   1      31.439  28.662  25.173  1.00  0.00     0.251 C 
ATOM      4  O   UNL A   1      30.664  28.971  24.256  1.00  0.00    -0.269 OA
ATOM      5  H   UNL A   1      31.426  30.546  25.762  1.00  0.00     0.163 HD
BRANCH   3   6
ATOM      6  C   UNL A   1      31.892  27.244  25.282  1.00  0.00     0.042 A 
ATOM      7  C   UNL A   1      35.006  23.952  25.601  1.00  0.00     0.110 A 
ATOM      8  N   UNL A   1      35.061  25.240  25.312  1.00  0.00    -0.233 NA
ATOM      9  N   UNL A   1      33.686  23.515  25.592  1.00  0.00    -0.322 N 
ATOM     10  C   UNL A   1      33.771  25.693  25.298  1.00  0.00     0.090 A 
ATOM     11  C   UNL A   1      32.886  24.645  25.491  1.00  0.00     0.069 A 
ATOM     12  C   UNL A   1      33.276  27.001  25.156  1.00  0.00     0.044 A 
ATOM     13  C   UNL A   1      31.508  24.847  25.597  1.00  0.00     0.029 A 
ATOM     14  C   UNL A   1      31.044  26.167  25.552  1.00  0.00     0.016 A 
BRANCH   7  15
ATOM     15  C   UNL A   1      36.207  23.108  25.918  1.00  0.00     0.075 C 
BRANCH  15  16
ATOM     16  C   UNL A   1      37.236  22.978  24.793  1.00  0.00     0.005 C 
ATOM     17  C   UNL A   1      36.636  22.665  23.433  1.00  0.00     0.004 C 
ENDBRANCH  15  16
ENDBRANCH   7  15
BRANCH   9  18
ATOM     18  C   UNL A   1      33.119  22.168  25.763  1.00  0.00     0.117 C 
BRANCH  18  19
ATOM     19  C   UNL A   1      33.400  21.134  24.629  1.00  0.00     0.008 C 
ATOM     20  C   UNL A   1      33.517  19.686  25.135  1.00  0.00     0.009 C 
ATOM     21  C   UNL A   1      32.283  21.140  23.566  1.00  0.00     0.009 C 
ENDBRANCH  18  19
BRANCH  18  22
ATOM     22  C   UNL A   1      33.391  21.645  27.199  1.00  0.00     0.181 C 
BRANCH  22  23
ATOM     23  O   UNL A   1      32.560  22.206  28.205  1.00  0.00    -0.394 OA
ATOM     24  H   UNL A   1      31.651  21.884  28.092  1.00  0.00     0.210 HD
ENDBRANCH  22  23
ENDBRANCH  18  22
ENDBRANCH   9  18
ENDBRANCH   3   6
ENDBRANCH   1   2
BRANCH   1  25
ATOM     25  C   UNL A   1      33.860  30.584  27.049  1.00  0.00     0.042 C 
BRANCH  25  26
ATOM     26  C   UNL A   1      35.144  29.841  27.427  1.00  0.00     0.118 C 
BRANCH  26  27
ATOM     27  N   UNL A   1      35.312  29.675  28.860  1.00  0.00    -0.352 N 
ATOM     28  C   UNL A   1      36.346  29.475  29.725  1.00  0.00     0.251 C 
ATOM     29  H   UNL A   1      34.449  29.721  29.332  1.00  0.00     0.163 HD
ATOM     30  O   UNL A   1      36.029  29.423  30.917  1.00  0.00    -0.269 OA
BRANCH  28  31
ATOM     31  C   UNL A   1      37.774  29.246  29.368  1.00  0.00     0.039 A 
ATOM     32  C   UNL A   1      38.435  29.711  28.233  1.00  0.00     0.014 A 
ATOM     33  C   UNL A   1      38.496  28.442  30.278  1.00  0.00     0.014 A 
ATOM     34  C   UNL A   1      39.740  29.279  27.963  1.00  0.00     0.010 A 
ATOM     35  C   UNL A   1      39.797  28.024  30.021  1.00  0.00     0.010 A 
ATOM     36  C   UNL A   1      40.403  28.390  28.830  1.00  0.00    -0.014 A 
BRANCH  36  37
ATOM     37  C   UNL A   1      41.812  28.052  28.582  1.00  0.00     0.031 A 
ATOM     38  C   UNL A   1      41.942  26.749  27.869  1.00  0.00     0.074 A 
ATOM     39  C   UNL A   1      42.876  28.852  28.847  1.00  0.00     0.049 A 
ATOM     40  N   UNL A   1      42.399  25.643  28.356  1.00  0.00    -0.248 NA
ATOM     41  C   UNL A   1      41.300  26.593  26.552  1.00  0.00     0.031 C 
ATOM     42  C   UNL A   1      42.868  30.238  29.322  1.00  0.00     0.029 A 
ATOM     43  N   UNL A   1      44.221  28.611  28.692  1.00  0.00    -0.354 N 
ATOM     44  C   UNL A   1      42.328  24.712  27.322  1.00  0.00     0.074 A 
ATOM     45  C   UNL A   1      41.475  25.289  26.321  1.00  0.00     0.031 C 
ATOM     46  C   UNL A   1      44.106  30.780  29.200  1.00  0.00     0.029 A 
ATOM     47  C   UNL A   1      45.039  29.751  28.777  1.00  0.00     0.049 A 
ATOM     48  H   UNL A   1      44.583  27.710  28.533  1.00  0.00     0.167 HD
ATOM     49  C   UNL A   1      43.221  23.686  27.273  1.00  0.00     0.037 A 
ATOM     50  C   UNL A   1      46.376  29.834  28.514  1.00  0.00     0.037 A 
ATOM     51  C   UNL A   1      43.825  23.488  28.571  1.00  0.00     0.049 A 
ATOM     52  C   UNL A   1      46.926  28.463  28.578  1.00  0.00     0.074 A 
ATOM     53  C   UNL A   1      43.377  23.151  29.832  1.00  0.00     0.029 A 
ATOM     54  N   UNL A   1      45.067  24.038  28.746  1.00  0.00    -0.354 N 
ATOM     55  N   UNL A   1      47.039  27.785  29.683  1.00  0.00    -0.248 NA
ATOM     56  C   UNL A   1      46.899  27.683  27.355  1.00  0.00     0.031 C 
ATOM     57  C   UNL A   1      44.176  23.922  30.730  1.00  0.00     0.029 A 
ATOM     58  C   UNL A   1      45.128  24.614  29.983  1.00  0.00     0.049 A 
ATOM     59  H   UNL A   1      45.799  24.023  28.087  1.00  0.00     0.167 HD
ATOM     60  C   UNL A   1      46.597  26.517  29.345  1.00  0.00     0.074 A 
ATOM     61  C   UNL A   1      46.591  26.495  27.881  1.00  0.00     0.031 C 
ATOM     62  C   UNL A   1      45.997  25.726  30.282  1.00  0.00     0.037 A 
BRANCH  49  63
ATOM     63  C   UNL A   1      43.932  23.251  26.000  1.00  0.00     0.057 A 
ATOM     64  C   UNL A   1      44.803  24.063  25.246  1.00  0.00     0.134 A 
ATOM     65  C   UNL A   1      44.036  21.869  25.734  1.00  0.00     0.134 A 
ATOM     66  F   UNL A   1      44.847  25.392  25.366  1.00  0.00    -0.206 F 
ATOM     67  C   UNL A   1      45.765  23.540  24.376  1.00  0.00     0.040 A 
ATOM     68  C   UNL A   1      45.024  21.335  24.898  1.00  0.00     0.040 A 
ATOM     69  F   UNL A   1      43.251  20.985  26.368  1.00  0.00    -0.206 F 
ATOM     70  C   UNL A   1      45.907  22.171  24.231  1.00  0.00     0.006 A 
ENDBRANCH  49  63
BRANCH  50  71
ATOM     71  C   UNL A   1      47.203  30.930  27.934  1.00  0.00     0.057 A 
ATOM     72  C   UNL A   1      48.275  31.480  28.654  1.00  0.00     0.134 A 
ATOM     73  C   UNL A   1      46.765  31.685  26.828  1.00  0.00     0.134 A 
ATOM     74  F   UNL A   1      48.726  30.890  29.769  1.00  0.00    -0.206 F 
ATOM     75  C   UNL A   1      48.857  32.711  28.316  1.00  0.00     0.040 A 
ATOM     76  C   UNL A   1      47.338  32.919  26.478  1.00  0.00     0.040 A 
ATOM     77  F   UNL A   1      45.714  31.280  26.099  1.00  0.00    -0.206 F 
ATOM     78  C   UNL A   1      48.381  33.443  27.234  1.00  0.00     0.006 A 
ENDBRANCH  50  71
BRANCH  62  79
ATOM     79  C   UNL A   1      46.119  26.136  31.723  1.00  0.00     0.057 A 
ATOM     80  C   UNL A   1      47.305  25.817  32.394  1.00  0.00     0.134 A 
ATOM     81  C   UNL A   1      45.101  26.734  32.482  1.00  0.00     0.134 A 
ATOM     82  F   UNL A   1      48.302  25.196  31.743  1.00  0.00    -0.206 F 
ATOM     83  C   UNL A   1      47.484  26.091  33.749  1.00  0.00     0.040 A 
ATOM     84  C   UNL A   1      45.282  27.048  33.834  1.00  0.00     0.040 A 
ATOM     85  F   UNL A   1      43.896  26.990  31.953  1.00  0.00    -0.206 F 
ATOM     86  C   UNL A   1      46.477  26.723  34.471  1.00  0.00     0.006 A 
ENDBRANCH  62  79
ENDBRANCH  36  37
ENDBRANCH  28  31
ENDBRANCH  26  27
ENDBRANCH  25  26
ENDBRANCH   1  25
TORSDOF 16
ENDMDL
MODEL 3
REMARK VINA RESULT:     -10.8      2.987      7.999
REMARK SMILES CCCc1nc2cc(C(=O)NCCCNC(=O)c3ccc(-c4c5nc(c(-c6c(F)cccc6F)c6ccc([nH]6)c(-c6c(F)cccc6F)c6nc(c(-c7c(F)cccc7F)c7ccc4[nH]7)C=C6)C=C5)cc3)ccc2n1[C@H](CO)C(C)C
REMARK SMILES IDX 12 1 11 2 9 3 10 4 8 6 4 7 5 8 75 9 6 10 74 11 7 12 73 13
REMARK SMILES IDX 72 14 3 15 2 16 1 17 76 18 79 19 80 20 81 21 77 22 78 23
REMARK SMILES IDX 13 25 14 26 15 27 16 28 17 30 18 31 19 32 71 33 20 34 70 35
REMARK SMILES IDX 21 36 22 37 23 38 64 39 24 40 69 41 63 42 65 43 25 44 68 45
REMARK SMILES IDX 62 46 61 47 26 49 52 50 35 51 51 52 36 53 39 54 50 55 66 56
REMARK SMILES IDX 37 57 38 58 49 60 67 61 40 62 27 63 28 64 33 65 29 66 30 67
REMARK SMILES IDX 32 68 34 69 31 70 53 71 54 72 59 73 55 74 56 75 58 76 60 77
REMARK SMILES IDX 57 78 41 79 42 80 47 81 43 82 44 83 46 84 48 85 45 86
REMARK H PARENT 11 5 78 24 15 29 65 48 39 59
REMARK Flexibility Score: inf
ROOT
ATOM      1  C   UNL A   1      39.888  21.152  26.023  1.00  0.00     0.118 C 
ENDROOT
BRANCH   1   2
ATOM      2  N   UNL A   1      39.611  22.563  26.247  1.00  0.00    -0.352 N 
ATOM      3  C   UNL A   1      38.492  23.346  26.126  1.00  0.00     0.251 C 
ATOM      4  O   UNL A   1      38.613  24.527  26.484  1.00  0.00    -0.269 OA
ATOM      5  H   UNL A   1      40.399  23.066  26.552  1.00  0.00     0.163 HD
BRANCH   3   6
ATOM      6  C   UNL A   1      37.165  22.879  25.627  1.00  0.00     0.042 A 
ATOM      7  C   UNL A   1      34.014  19.747  24.683  1.00  0.00     0.110 A 
ATOM      8  N   UNL A   1      35.295  19.691  25.001  1.00  0.00    -0.233 NA
ATOM      9  N   UNL A   1      33.652  21.055  24.383  1.00  0.00    -0.322 N 
ATOM     10  C   UNL A   1      35.733  20.983  25.093  1.00  0.00     0.090 A 
ATOM     11  C   UNL A   1      34.725  21.863  24.734  1.00  0.00     0.069 A 
ATOM     12  C   UNL A   1      36.977  21.486  25.510  1.00  0.00     0.044 A 
ATOM     13  C   UNL A   1      34.885  23.249  24.817  1.00  0.00     0.029 A 
ATOM     14  C   UNL A   1      36.097  23.729  25.328  1.00  0.00     0.016 A 
BRANCH   7  15
ATOM     15  C   UNL A   1      33.094  18.560  24.681  1.00  0.00     0.075 C 
BRANCH  15  16
ATOM     16  C   UNL A   1      33.064  17.752  23.381  1.00  0.00     0.005 C 
ATOM     17  C   UNL A   1      34.028  16.578  23.354  1.00  0.00     0.004 C 
ENDBRANCH  15  16
ENDBRANCH   7  15
BRANCH   9  18
ATOM     18  C   UNL A   1      32.380  21.612  23.896  1.00  0.00     0.117 C 
BRANCH  18  19
ATOM     19  C   UNL A   1      31.776  22.806  24.699  1.00  0.00     0.008 C 
ATOM     20  C   UNL A   1      30.963  23.779  23.831  1.00  0.00     0.009 C 
ATOM     21  C   UNL A   1      30.831  22.317  25.816  1.00  0.00     0.009 C 
ENDBRANCH  18  19
BRANCH  18  22
ATOM     22  C   UNL A   1      32.439  21.828  22.359  1.00  0.00     0.181 C 
BRANCH  22  23
ATOM     23  O   UNL A   1      31.772  20.837  21.592  1.00  0.00    -0.394 OA
ATOM     24  H   UNL A   1      31.054  20.448  22.117  1.00  0.00     0.210 HD
ENDBRANCH  22  23
ENDBRANCH  18  22
ENDBRANCH   9  18
ENDBRANCH   3   6
ENDBRANCH   1   2
BRANCH   1  25
ATOM     25  C   UNL A   1      41.106  20.673  26.825  1.00  0.00     0.042 C 
BRANCH  25  26
ATOM     26  C   UNL A   1      41.764  19.423  26.233  1.00  0.00     0.118 C 
BRANCH  26  27
ATOM     27  N   UNL A   1      42.851  19.723  25.319  1.00  0.00    -0.352 N 
ATOM     28  C   UNL A   1      43.716  20.755  25.104  1.00  0.00     0.251 C 
ATOM     29  H   UNL A   1      43.006  18.984  24.687  1.00  0.00     0.163 HD
ATOM     30  O   UNL A   1      44.540  20.569  24.203  1.00  0.00    -0.269 OA
BRANCH  28  31
ATOM     31  C   UNL A   1      43.711  22.078  25.788  1.00  0.00     0.039 A 
ATOM     32  C   UNL A   1      44.311  22.389  27.007  1.00  0.00     0.014 A 
ATOM     33  C   UNL A   1      42.988  23.093  25.123  1.00  0.00     0.014 A 
ATOM     34  C   UNL A   1      44.084  23.641  27.594  1.00  0.00     0.010 A 
ATOM     35  C   UNL A   1      42.774  24.342  25.695  1.00  0.00     0.010 A 
ATOM     36  C   UNL A   1      43.270  24.599  26.963  1.00  0.00    -0.014 A 
BRANCH  36  37
ATOM     37  C   UNL A   1      43.151  25.945  27.545  1.00  0.00     0.031 A 
ATOM     38  C   UNL A   1      44.288  26.817  27.134  1.00  0.00     0.074 A 
ATOM     39  C   UNL A   1      42.098  26.404  28.268  1.00  0.00     0.049 A 
ATOM     40  N   UNL A   1      45.247  27.243  27.888  1.00  0.00    -0.248 NA
ATOM     41  C   UNL A   1      44.511  27.066  25.699  1.00  0.00     0.031 C 
ATOM     42  C   UNL A   1      40.824  25.731  28.537  1.00  0.00     0.029 A 
ATOM     43  N   UNL A   1      41.914  27.620  28.883  1.00  0.00    -0.354 N 
ATOM     44  C   UNL A   1      46.062  28.020  27.067  1.00  0.00     0.074 A 
ATOM     45  C   UNL A   1      45.678  27.715  25.717  1.00  0.00     0.031 C 
ATOM     46  C   UNL A   1      39.931  26.613  29.052  1.00  0.00     0.029 A 
ATOM     47  C   UNL A   1      40.596  27.881  29.293  1.00  0.00     0.049 A 
ATOM     48  H   UNL A   1      42.650  28.258  29.026  1.00  0.00     0.167 HD
ATOM     49  C   UNL A   1      46.768  29.056  27.599  1.00  0.00     0.037 A 
ATOM     50  C   UNL A   1      40.095  29.053  29.784  1.00  0.00     0.037 A 
ATOM     51  C   UNL A   1      46.892  28.891  29.030  1.00  0.00     0.049 A 
ATOM     52  C   UNL A   1      41.242  29.859  30.258  1.00  0.00     0.074 A 
ATOM     53  C   UNL A   1      47.457  27.959  29.875  1.00  0.00     0.029 A 
ATOM     54  N   UNL A   1      46.015  29.614  29.796  1.00  0.00    -0.354 N 
ATOM     55  N   UNL A   1      41.951  29.553  31.305  1.00  0.00    -0.248 NA
ATOM     56  C   UNL A   1      41.883  30.727  29.287  1.00  0.00     0.031 C 
ATOM     57  C   UNL A   1      46.567  27.877  30.988  1.00  0.00     0.029 A 
ATOM     58  C   UNL A   1      45.559  28.825  30.813  1.00  0.00     0.049 A 
ATOM     59  H   UNL A   1      45.755  30.551  29.638  1.00  0.00     0.167 HD
ATOM     60  C   UNL A   1      43.258  29.763  30.898  1.00  0.00     0.074 A 
ATOM     61  C   UNL A   1      43.150  30.553  29.670  1.00  0.00     0.031 C 
ATOM     62  C   UNL A   1      44.271  29.019  31.431  1.00  0.00     0.037 A 
BRANCH  49  63
ATOM     63  C   UNL A   1      46.858  30.431  26.954  1.00  0.00     0.057 A 
ATOM     64  C   UNL A   1      45.752  31.246  26.638  1.00  0.00     0.134 A 
ATOM     65  C   UNL A   1      48.096  31.106  26.995  1.00  0.00     0.134 A 
ATOM     66  F   UNL A   1      44.503  30.780  26.557  1.00  0.00    -0.206 F 
ATOM     67  C   UNL A   1      45.853  32.631  26.475  1.00  0.00     0.040 A 
ATOM     68  C   UNL A   1      48.199  32.497  26.876  1.00  0.00     0.040 A 
ATOM     69  F   UNL A   1      49.232  30.446  27.265  1.00  0.00    -0.206 F 
ATOM     70  C   UNL A   1      47.071  33.268  26.636  1.00  0.00     0.006 A 
ENDBRANCH  49  63
BRANCH  50  71
ATOM     71  C   UNL A   1      38.756  29.693  29.645  1.00  0.00     0.057 A 
ATOM     72  C   UNL A   1      37.909  29.835  30.754  1.00  0.00     0.134 A 
ATOM     73  C   UNL A   1      38.145  29.868  28.388  1.00  0.00     0.134 A 
ATOM     74  F   UNL A   1      38.362  29.615  31.995  1.00  0.00    -0.206 F 
ATOM     75  C   UNL A   1      36.538  30.106  30.625  1.00  0.00     0.040 A 
ATOM     76  C   UNL A   1      36.774  30.139  28.244  1.00  0.00     0.040 A 
ATOM     77  F   UNL A   1      38.849  29.704  27.258  1.00  0.00    -0.206 F 
ATOM     78  C   UNL A   1      35.962  30.246  29.367  1.00  0.00     0.006 A 
ENDBRANCH  50  71
BRANCH  62  79
ATOM     79  C   UNL A   1      43.972  28.219  32.667  1.00  0.00     0.057 A 
ATOM     80  C   UNL A   1      44.142  28.845  33.907  1.00  0.00     0.134 A 
ATOM     81  C   UNL A   1      43.625  26.858  32.684  1.00  0.00     0.134 A 
ATOM     82  F   UNL A   1      44.525  30.130  33.967  1.00  0.00    -0.206 F 
ATOM     83  C   UNL A   1      43.960  28.164  35.110  1.00  0.00     0.040 A 
ATOM     84  C   UNL A   1      43.403  26.173  33.885  1.00  0.00     0.040 A 
ATOM     85  F   UNL A   1      43.533  26.148  31.552  1.00  0.00    -0.206 F 
ATOM     86  C   UNL A   1      43.574  26.827  35.102  1.00  0.00     0.006 A 
ENDBRANCH  62  79
ENDBRANCH  36  37
ENDBRANCH  28  31
ENDBRANCH  26  27
ENDBRANCH  25  26
ENDBRANCH   1  25
TORSDOF 16
ENDMDL
