MODEL 1
REMARK VINA RESULT:     -12.4      0.000      0.000
REMARK SMILES Cc1ccc2oc(C(=O)N[C@@H]3C=C[C@H](C(=O)NCCCNC(=O)c4ccc(-c5c6nc(c(-c7c(F)cccc7F)c7ccc([nH]7)c(-c7c(F)cccc7F)c7nc(c(-c8c(F)cccc8F)c8ccc5[nH]8)C=C7)C=C6)cc4)C3)cc2c1
REMARK SMILES IDX 19 1 18 2 17 3 15 4 16 5 14 7 11 8 12 9 78 10 13 11 10 12
REMARK SMILES IDX 8 13 9 14 7 16 1 17 2 18 3 19 81 20 4 21 80 22 5 23 79 24
REMARK SMILES IDX 6 25 20 26 21 27 22 28 23 30 24 31 25 32 77 33 26 34 76 35
REMARK SMILES IDX 27 36 28 37 29 38 70 39 30 40 75 41 69 42 71 43 31 44 74 45
REMARK SMILES IDX 68 46 67 47 32 49 58 50 41 51 57 52 42 53 45 54 56 55 72 56
REMARK SMILES IDX 43 57 44 58 55 60 73 61 46 62 33 63 34 64 39 65 35 66 36 67
REMARK SMILES IDX 38 68 40 69 37 70 59 71 60 72 65 73 61 74 62 75 64 76 66 77
REMARK SMILES IDX 63 78 47 79 48 80 53 81 49 82 50 83 52 84 54 85 51 86
REMARK H PARENT 17 6 10 15 21 29 71 48 45 59
REMARK Flexibility Score: inf
ROOT
ATOM      1  C   UNL A   1      37.705  19.975  24.620  1.00  0.00     0.042 C 
ENDROOT
BRANCH   1   2
ATOM      2  C   UNL A   1      36.232  20.090  24.983  1.00  0.00     0.117 C 
BRANCH   2   3
ATOM      3  N   UNL A   1      35.942  21.077  26.001  1.00  0.00    -0.356 N 
ATOM      4  C   UNL A   1      35.626  22.395  25.953  1.00  0.00     0.227 C 
ATOM      5  O   UNL A   1      35.190  22.850  27.020  1.00  0.00    -0.274 OA
ATOM      6  H   UNL A   1      35.982  20.717  26.917  1.00  0.00     0.163 HD
BRANCH   4   7
ATOM      7  C   UNL A   1      35.910  23.349  24.761  1.00  0.00     0.103 C 
ATOM      8  C   UNL A   1      33.940  24.592  23.908  1.00  0.00     0.106 C 
ATOM      9  C   UNL A   1      34.475  23.657  22.893  1.00  0.00    -0.006 C 
ATOM     10  C   UNL A   1      35.078  24.646  24.940  1.00  0.00     0.047 C 
ATOM     11  C   UNL A   1      35.569  23.014  23.336  1.00  0.00    -0.016 C 
BRANCH   8  12
ATOM     12  N   UNL A   1      32.608  24.326  24.453  1.00  0.00    -0.343 N 
ATOM     13  C   UNL A   1      31.745  23.307  24.788  1.00  0.00     0.287 C 
ATOM     14  O   UNL A   1      30.650  23.699  25.217  1.00  0.00    -0.266 OA
ATOM     15  H   UNL A   1      32.172  25.186  24.655  1.00  0.00     0.164 HD
BRANCH  13  16
ATOM     16  C   UNL A   1      32.041  21.900  24.632  1.00  0.00     0.192 A 
ATOM     17  C   UNL A   1      33.344  16.023  24.721  1.00  0.00     0.044 C 
ATOM     18  C   UNL A   1      33.009  17.412  24.260  1.00  0.00    -0.050 A 
ATOM     19  C   UNL A   1      32.729  17.721  22.921  1.00  0.00     0.007 A 
ATOM     20  C   UNL A   1      32.958  18.422  25.222  1.00  0.00     0.015 A 
ATOM     21  C   UNL A   1      32.407  19.031  22.505  1.00  0.00     0.048 A 
ATOM     22  C   UNL A   1      32.581  19.710  24.830  1.00  0.00     0.021 A 
ATOM     23  C   UNL A   1      32.345  20.001  23.501  1.00  0.00     0.135 A 
ATOM     24  C   UNL A   1      32.290  20.889  25.522  1.00  0.00     0.065 A 
ATOM     25  O   UNL A   1      32.041  21.331  23.364  1.00  0.00    -0.451 OA
ENDBRANCH  13  16
ENDBRANCH   8  12
ENDBRANCH   4   7
ENDBRANCH   2   3
ENDBRANCH   1   2
BRANCH   1  26
ATOM     26  C   UNL A   1      38.680  20.162  25.781  1.00  0.00     0.118 C 
BRANCH  26  27
ATOM     27  N   UNL A   1      39.851  19.294  25.734  1.00  0.00    -0.352 N 
ATOM     28  C   UNL A   1      41.164  19.547  26.071  1.00  0.00     0.251 C 
ATOM     29  H   UNL A   1      39.677  18.381  25.408  1.00  0.00     0.163 HD
ATOM     30  O   UNL A   1      42.013  18.679  25.870  1.00  0.00    -0.269 OA
BRANCH  28  31
ATOM     31  C   UNL A   1      41.586  20.857  26.629  1.00  0.00     0.039 A 
ATOM     32  C   UNL A   1      42.024  21.851  25.745  1.00  0.00     0.014 A 
ATOM     33  C   UNL A   1      41.578  21.120  27.999  1.00  0.00     0.014 A 
ATOM     34  C   UNL A   1      42.372  23.119  26.225  1.00  0.00     0.010 A 
ATOM     35  C   UNL A   1      41.835  22.409  28.468  1.00  0.00     0.010 A 
ATOM     36  C   UNL A   1      42.241  23.423  27.589  1.00  0.00    -0.014 A 
BRANCH  36  37
ATOM     37  C   UNL A   1      42.544  24.782  28.114  1.00  0.00     0.031 A 
ATOM     38  C   UNL A   1      43.944  25.143  28.531  1.00  0.00     0.074 A 
ATOM     39  C   UNL A   1      41.550  25.676  28.286  1.00  0.00     0.049 A 
ATOM     40  N   UNL A   1      44.389  26.248  29.076  1.00  0.00    -0.248 NA
ATOM     41  C   UNL A   1      44.976  24.111  28.341  1.00  0.00     0.031 C 
ATOM     42  C   UNL A   1      40.135  25.440  27.989  1.00  0.00     0.029 A 
ATOM     43  N   UNL A   1      41.578  26.963  28.764  1.00  0.00    -0.354 N 
ATOM     44  C   UNL A   1      45.740  26.032  29.319  1.00  0.00     0.074 A 
ATOM     45  C   UNL A   1      46.029  24.674  28.912  1.00  0.00     0.031 C 
ATOM     46  C   UNL A   1      39.436  26.552  28.270  1.00  0.00     0.029 A 
ATOM     47  C   UNL A   1      40.344  27.569  28.789  1.00  0.00     0.049 A 
ATOM     48  H   UNL A   1      42.403  27.408  29.061  1.00  0.00     0.167 HD
ATOM     49  C   UNL A   1      46.666  26.892  29.809  1.00  0.00     0.037 A 
ATOM     50  C   UNL A   1      39.986  28.807  29.180  1.00  0.00     0.037 A 
ATOM     51  C   UNL A   1      46.393  28.255  30.180  1.00  0.00     0.049 A 
ATOM     52  C   UNL A   1      41.038  29.765  29.664  1.00  0.00     0.074 A 
ATOM     53  C   UNL A   1      47.274  29.220  30.639  1.00  0.00     0.029 A 
ATOM     54  N   UNL A   1      45.143  28.852  30.123  1.00  0.00    -0.354 N 
ATOM     55  N   UNL A   1      42.322  29.566  29.832  1.00  0.00    -0.248 NA
ATOM     56  C   UNL A   1      40.592  31.126  29.994  1.00  0.00     0.031 C 
ATOM     57  C   UNL A   1      46.552  30.395  30.880  1.00  0.00     0.029 A 
ATOM     58  C   UNL A   1      45.228  30.171  30.537  1.00  0.00     0.049 A 
ATOM     59  H   UNL A   1      44.317  28.404  29.830  1.00  0.00     0.167 HD
ATOM     60  C   UNL A   1      42.842  30.780  30.259  1.00  0.00     0.074 A 
ATOM     61  C   UNL A   1      41.736  31.713  30.315  1.00  0.00     0.031 C 
ATOM     62  C   UNL A   1      44.123  31.092  30.576  1.00  0.00     0.037 A 
BRANCH  49  63
ATOM     63  C   UNL A   1      48.066  26.371  29.961  1.00  0.00     0.057 A 
ATOM     64  C   UNL A   1      49.000  26.455  28.920  1.00  0.00     0.134 A 
ATOM     65  C   UNL A   1      48.484  25.775  31.158  1.00  0.00     0.134 A 
ATOM     66  F   UNL A   1      48.658  27.002  27.743  1.00  0.00    -0.206 F 
ATOM     67  C   UNL A   1      50.287  25.930  29.049  1.00  0.00     0.040 A 
ATOM     68  C   UNL A   1      49.778  25.272  31.308  1.00  0.00     0.040 A 
ATOM     69  F   UNL A   1      47.643  25.668  32.197  1.00  0.00    -0.206 F 
ATOM     70  C   UNL A   1      50.679  25.339  30.247  1.00  0.00     0.006 A 
ENDBRANCH  49  63
BRANCH  50  71
ATOM     71  C   UNL A   1      38.567  29.227  29.080  1.00  0.00     0.057 A 
ATOM     72  C   UNL A   1      37.732  29.209  30.202  1.00  0.00     0.134 A 
ATOM     73  C   UNL A   1      38.018  29.667  27.871  1.00  0.00     0.134 A 
ATOM     74  F   UNL A   1      38.199  28.781  31.384  1.00  0.00    -0.206 F 
ATOM     75  C   UNL A   1      36.395  29.602  30.124  1.00  0.00     0.040 A 
ATOM     76  C   UNL A   1      36.688  30.082  27.782  1.00  0.00     0.040 A 
ATOM     77  F   UNL A   1      38.773  29.715  26.762  1.00  0.00    -0.206 F 
ATOM     78  C   UNL A   1      35.871  30.045  28.911  1.00  0.00     0.006 A 
ENDBRANCH  50  71
BRANCH  62  79
ATOM     79  C   UNL A   1      44.403  32.512  30.969  1.00  0.00     0.057 A 
ATOM     80  C   UNL A   1      44.358  32.934  32.303  1.00  0.00     0.134 A 
ATOM     81  C   UNL A   1      44.749  33.462  30.000  1.00  0.00     0.134 A 
ATOM     82  F   UNL A   1      44.021  32.075  33.277  1.00  0.00    -0.206 F 
ATOM     83  C   UNL A   1      44.624  34.258  32.658  1.00  0.00     0.040 A 
ATOM     84  C   UNL A   1      45.038  34.783  30.344  1.00  0.00     0.040 A 
ATOM     85  F   UNL A   1      44.816  33.120  28.705  1.00  0.00    -0.206 F 
ATOM     86  C   UNL A   1      44.970  35.185  31.677  1.00  0.00     0.006 A 
ENDBRANCH  62  79
ENDBRANCH  36  37
ENDBRANCH  28  31
ENDBRANCH  26  27
ENDBRANCH   1  26
TORSDOF 12
ENDMDL
MODEL 2
REMARK VINA RESULT:     -12.4      0.454      6.229
REMARK SMILES Cc1ccc2oc(C(=O)N[C@@H]3C=C[C@H](C(=O)NCCCNC(=O)c4ccc(-c5c6nc(c(-c7c(F)cccc7F)c7ccc([nH]7)c(-c7c(F)cccc7F)c7nc(c(-c8c(F)cccc8F)c8ccc5[nH]8)C=C7)C=C6)cc4)C3)cc2c1
REMARK SMILES IDX 19 1 18 2 17 3 15 4 16 5 14 7 11 8 12 9 78 10 13 11 10 12
REMARK SMILES IDX 8 13 9 14 7 16 1 17 2 18 3 19 81 20 4 21 80 22 5 23 79 24
REMARK SMILES IDX 6 25 20 26 21 27 22 28 23 30 24 31 25 32 77 33 26 34 76 35
REMARK SMILES IDX 27 36 28 37 29 38 70 39 30 40 75 41 69 42 71 43 31 44 74 45
REMARK SMILES IDX 68 46 67 47 32 49 58 50 41 51 57 52 42 53 45 54 56 55 72 56
REMARK SMILES IDX 43 57 44 58 55 60 73 61 46 62 33 63 34 64 39 65 35 66 36 67
REMARK SMILES IDX 38 68 40 69 37 70 59 71 60 72 65 73 61 74 62 75 64 76 66 77
REMARK SMILES IDX 63 78 47 79 48 80 53 81 49 82 50 83 52 84 54 85 51 86
REMARK H PARENT 17 6 10 15 21 29 71 48 45 59
REMARK Flexibility Score: inf
ROOT
ATOM      1  C   UNL A   1      37.703  20.214  24.595  1.00  0.00     0.042 C 
ENDROOT
BRANCH   1   2
ATOM      2  C   UNL A   1      36.244  20.087  25.008  1.00  0.00     0.117 C 
BRANCH   2   3
ATOM      3  N   UNL A   1      35.824  21.034  26.019  1.00  0.00    -0.356 N 
ATOM      4  C   UNL A   1      35.479  22.345  25.978  1.00  0.00     0.227 C 
ATOM      5  O   UNL A   1      34.924  22.754  27.007  1.00  0.00    -0.274 OA
ATOM      6  H   UNL A   1      35.779  20.645  26.924  1.00  0.00     0.163 HD
BRANCH   4   7
ATOM      7  C   UNL A   1      35.859  23.344  24.851  1.00  0.00     0.103 C 
ATOM      8  C   UNL A   1      33.980  24.693  23.957  1.00  0.00     0.106 C 
ATOM      9  C   UNL A   1      34.539  23.789  22.926  1.00  0.00    -0.006 C 
ATOM     10  C   UNL A   1      35.061  24.658  25.049  1.00  0.00     0.047 C 
ATOM     11  C   UNL A   1      35.585  23.088  23.395  1.00  0.00    -0.016 C 
BRANCH   8  12
ATOM     12  N   UNL A   1      32.612  24.449  24.417  1.00  0.00    -0.343 N 
ATOM     13  C   UNL A   1      31.713  23.443  24.695  1.00  0.00     0.287 C 
ATOM     14  O   UNL A   1      30.600  23.852  25.056  1.00  0.00    -0.266 OA
ATOM     15  H   UNL A   1      32.178  25.315  24.592  1.00  0.00     0.164 HD
BRANCH  13  16
ATOM     16  C   UNL A   1      31.996  22.031  24.556  1.00  0.00     0.192 A 
ATOM     17  C   UNL A   1      33.214  16.138  24.718  1.00  0.00     0.044 C 
ATOM     18  C   UNL A   1      32.916  17.529  24.239  1.00  0.00    -0.050 A 
ATOM     19  C   UNL A   1      32.692  17.836  22.889  1.00  0.00     0.007 A 
ATOM     20  C   UNL A   1      32.842  18.544  25.195  1.00  0.00     0.015 A 
ATOM     21  C   UNL A   1      32.404  19.149  22.456  1.00  0.00     0.048 A 
ATOM     22  C   UNL A   1      32.498  19.836  24.783  1.00  0.00     0.021 A 
ATOM     23  C   UNL A   1      32.317  20.124  23.445  1.00  0.00     0.135 A 
ATOM     24  C   UNL A   1      32.197  21.021  25.459  1.00  0.00     0.065 A 
ATOM     25  O   UNL A   1      32.037  21.458  23.291  1.00  0.00    -0.451 OA
ENDBRANCH  13  16
ENDBRANCH   8  12
ENDBRANCH   4   7
ENDBRANCH   2   3
ENDBRANCH   1   2
BRANCH   1  26
ATOM     26  C   UNL A   1      38.697  20.368  25.745  1.00  0.00     0.118 C 
BRANCH  26  27
ATOM     27  N   UNL A   1      39.805  19.421  25.717  1.00  0.00    -0.352 N 
ATOM     28  C   UNL A   1      41.127  19.584  26.076  1.00  0.00     0.251 C 
ATOM     29  H   UNL A   1      39.574  18.522  25.390  1.00  0.00     0.163 HD
ATOM     30  O   UNL A   1      41.917  18.659  25.889  1.00  0.00    -0.269 OA
BRANCH  28  31
ATOM     31  C   UNL A   1      41.630  20.862  26.639  1.00  0.00     0.039 A 
ATOM     32  C   UNL A   1      42.051  21.864  25.755  1.00  0.00     0.014 A 
ATOM     33  C   UNL A   1      41.713  21.089  28.013  1.00  0.00     0.014 A 
ATOM     34  C   UNL A   1      42.473  23.105  26.245  1.00  0.00     0.010 A 
ATOM     35  C   UNL A   1      42.045  22.355  28.498  1.00  0.00     0.010 A 
ATOM     36  C   UNL A   1      42.435  23.377  27.621  1.00  0.00    -0.014 A 
BRANCH  36  37
ATOM     37  C   UNL A   1      42.818  24.710  28.160  1.00  0.00     0.031 A 
ATOM     38  C   UNL A   1      41.772  25.768  28.390  1.00  0.00     0.074 A 
ATOM     39  C   UNL A   1      44.115  25.001  28.379  1.00  0.00     0.049 A 
ATOM     40  N   UNL A   1      41.918  27.008  28.785  1.00  0.00    -0.248 NA
ATOM     41  C   UNL A   1      40.379  25.391  28.104  1.00  0.00     0.031 C 
ATOM     42  C   UNL A   1      45.241  24.098  28.138  1.00  0.00     0.029 A 
ATOM     43  N   UNL A   1      44.707  26.149  28.847  1.00  0.00    -0.354 N 
ATOM     44  C   UNL A   1      40.645  27.563  28.767  1.00  0.00     0.074 A 
ATOM     45  C   UNL A   1      39.748  26.542  28.272  1.00  0.00     0.031 C 
ATOM     46  C   UNL A   1      46.383  24.717  28.479  1.00  0.00     0.029 A 
ATOM     47  C   UNL A   1      46.076  26.067  28.940  1.00  0.00     0.049 A 
ATOM     48  H   UNL A   1      44.198  26.955  29.092  1.00  0.00     0.167 HD
ATOM     49  C   UNL A   1      40.249  28.801  29.153  1.00  0.00     0.037 A 
ATOM     50  C   UNL A   1      46.981  26.973  29.354  1.00  0.00     0.037 A 
ATOM     51  C   UNL A   1      41.131  29.808  29.682  1.00  0.00     0.049 A 
ATOM     52  C   UNL A   1      46.515  28.319  29.836  1.00  0.00     0.074 A 
ATOM     53  C   UNL A   1      40.818  31.074  30.148  1.00  0.00     0.029 A 
ATOM     54  N   UNL A   1      42.502  29.658  29.825  1.00  0.00    -0.354 N 
ATOM     55  N   UNL A   1      45.300  28.809  29.869  1.00  0.00    -0.248 NA
ATOM     56  C   UNL A   1      47.545  29.229  30.355  1.00  0.00     0.031 C 
ATOM     57  C   UNL A   1      42.003  31.698  30.554  1.00  0.00     0.029 A 
ATOM     58  C   UNL A   1      43.049  30.806  30.373  1.00  0.00     0.049 A 
ATOM     59  H   UNL A   1      43.010  28.853  29.576  1.00  0.00     0.167 HD
ATOM     60  C   UNL A   1      45.414  30.071  30.437  1.00  0.00     0.074 A 
ATOM     61  C   UNL A   1      46.816  30.267  30.742  1.00  0.00     0.031 C 
ATOM     62  C   UNL A   1      44.444  30.984  30.684  1.00  0.00     0.037 A 
BRANCH  49  63
ATOM     63  C   UNL A   1      38.789  29.121  29.020  1.00  0.00     0.057 A 
ATOM     64  C   UNL A   1      38.233  29.536  27.802  1.00  0.00     0.134 A 
ATOM     65  C   UNL A   1      37.929  29.021  30.121  1.00  0.00     0.134 A 
ATOM     66  F   UNL A   1      39.006  29.667  26.712  1.00  0.00    -0.206 F 
ATOM     67  C   UNL A   1      36.884  29.876  27.692  1.00  0.00     0.040 A 
ATOM     68  C   UNL A   1      36.572  29.331  30.016  1.00  0.00     0.040 A 
ATOM     69  F   UNL A   1      38.393  28.624  31.315  1.00  0.00    -0.206 F 
ATOM     70  C   UNL A   1      36.049  29.771  28.801  1.00  0.00     0.006 A 
ENDBRANCH  49  63
BRANCH  50  71
ATOM     71  C   UNL A   1      48.420  26.615  29.381  1.00  0.00     0.057 A 
ATOM     72  C   UNL A   1      49.266  26.964  28.323  1.00  0.00     0.134 A 
ATOM     73  C   UNL A   1      48.984  25.934  30.465  1.00  0.00     0.134 A 
ATOM     74  F   UNL A   1      48.777  27.604  27.250  1.00  0.00    -0.206 F 
ATOM     75  C   UNL A   1      50.622  26.635  28.334  1.00  0.00     0.040 A 
ATOM     76  C   UNL A   1      50.343  25.616  30.498  1.00  0.00     0.040 A 
ATOM     77  F   UNL A   1      48.224  25.581  31.513  1.00  0.00    -0.206 F 
ATOM     78  C   UNL A   1      51.165  25.963  29.427  1.00  0.00     0.006 A 
ENDBRANCH  50  71
BRANCH  62  79
ATOM     79  C   UNL A   1      44.859  32.259  31.354  1.00  0.00     0.057 A 
ATOM     80  C   UNL A   1      45.248  33.388  30.623  1.00  0.00     0.134 A 
ATOM     81  C   UNL A   1      44.843  32.366  32.750  1.00  0.00     0.134 A 
ATOM     82  F   UNL A   1      45.296  33.346  29.282  1.00  0.00    -0.206 F 
ATOM     83  C   UNL A   1      45.629  34.572  31.258  1.00  0.00     0.040 A 
ATOM     84  C   UNL A   1      45.201  33.550  33.396  1.00  0.00     0.040 A 
ATOM     85  F   UNL A   1      44.475  31.322  33.508  1.00  0.00    -0.206 F 
ATOM     86  C   UNL A   1      45.602  34.656  32.648  1.00  0.00     0.006 A 
ENDBRANCH  62  79
ENDBRANCH  36  37
ENDBRANCH  28  31
ENDBRANCH  26  27
ENDBRANCH   1  26
TORSDOF 12
ENDMDL
MODEL 3
REMARK VINA RESULT:     -12.3      4.980      9.750
REMARK SMILES Cc1ccc2oc(C(=O)N[C@@H]3C=C[C@H](C(=O)NCCCNC(=O)c4ccc(-c5c6nc(c(-c7c(F)cccc7F)c7ccc([nH]7)c(-c7c(F)cccc7F)c7nc(c(-c8c(F)cccc8F)c8ccc5[nH]8)C=C7)C=C6)cc4)C3)cc2c1
REMARK SMILES IDX 19 1 18 2 17 3 15 4 16 5 14 7 11 8 12 9 78 10 13 11 10 12
REMARK SMILES IDX 8 13 9 14 7 16 1 17 2 18 3 19 81 20 4 21 80 22 5 23 79 24
REMARK SMILES IDX 6 25 20 26 21 27 22 28 23 30 24 31 25 32 77 33 26 34 76 35
REMARK SMILES IDX 27 36 28 37 29 38 70 39 30 40 75 41 69 42 71 43 31 44 74 45
REMARK SMILES IDX 68 46 67 47 32 49 58 50 41 51 57 52 42 53 45 54 56 55 72 56
REMARK SMILES IDX 43 57 44 58 55 60 73 61 46 62 33 63 34 64 39 65 35 66 36 67
REMARK SMILES IDX 38 68 40 69 37 70 59 71 60 72 65 73 61 74 62 75 64 76 66 77
REMARK SMILES IDX 63 78 47 79 48 80 53 81 49 82 50 83 52 84 54 85 51 86
REMARK H PARENT 17 6 10 15 21 29 71 48 45 59
REMARK Flexibility Score: inf
ROOT
ATOM      1  C   UNL A   1      31.304  31.949  26.501  1.00  0.00     0.042 C 
ENDROOT
BRANCH   1   2
ATOM      2  C   UNL A   1      31.403  30.453  26.246  1.00  0.00     0.117 C 
BRANCH   2   3
ATOM      3  N   UNL A   1      32.589  30.047  25.520  1.00  0.00    -0.356 N 
ATOM      4  C   UNL A   1      33.232  28.861  25.383  1.00  0.00     0.227 C 
ATOM      5  O   UNL A   1      34.069  28.844  24.470  1.00  0.00    -0.274 OA
ATOM      6  H   UNL A   1      33.015  30.784  25.025  1.00  0.00     0.163 HD
BRANCH   4   7
ATOM      7  C   UNL A   1      33.107  27.649  26.345  1.00  0.00     0.103 C 
ATOM      8  C   UNL A   1      32.845  25.444  25.238  1.00  0.00     0.106 C 
ATOM      9  C   UNL A   1      31.644  25.804  26.025  1.00  0.00    -0.006 C 
ATOM     10  C   UNL A   1      33.889  26.448  25.751  1.00  0.00     0.047 C 
ATOM     11  C   UNL A   1      31.800  26.978  26.661  1.00  0.00    -0.016 C 
BRANCH   8  12
ATOM     12  N   UNL A   1      32.714  25.360  23.782  1.00  0.00    -0.343 N 
ATOM     13  C   UNL A   1      32.060  25.921  22.708  1.00  0.00     0.287 C 
ATOM     14  O   UNL A   1      32.339  25.393  21.622  1.00  0.00    -0.266 OA
ATOM     15  H   UNL A   1      33.307  24.648  23.452  1.00  0.00     0.164 HD
BRANCH  13  16
ATOM     16  C   UNL A   1      31.104  27.002  22.805  1.00  0.00     0.192 A 
ATOM     17  C   UNL A   1      27.688  31.953  23.044  1.00  0.00     0.044 C 
ATOM     18  C   UNL A   1      28.154  30.527  23.096  1.00  0.00    -0.050 A 
ATOM     19  C   UNL A   1      27.278  29.449  23.292  1.00  0.00     0.007 A 
ATOM     20  C   UNL A   1      29.516  30.281  22.918  1.00  0.00     0.015 A 
ATOM     21  C   UNL A   1      27.731  28.112  23.331  1.00  0.00     0.048 A 
ATOM     22  C   UNL A   1      29.966  28.957  22.894  1.00  0.00     0.021 A 
ATOM     23  C   UNL A   1      29.093  27.912  23.126  1.00  0.00     0.135 A 
ATOM     24  C   UNL A   1      31.192  28.353  22.602  1.00  0.00     0.065 A 
ATOM     25  O   UNL A   1      29.775  26.723  23.099  1.00  0.00    -0.451 OA
ENDBRANCH  13  16
ENDBRANCH   8  12
ENDBRANCH   4   7
ENDBRANCH   2   3
ENDBRANCH   1   2
BRANCH   1  26
ATOM     26  C   UNL A   1      32.609  32.630  26.910  1.00  0.00     0.118 C 
BRANCH  26  27
ATOM     27  N   UNL A   1      32.444  33.965  27.475  1.00  0.00    -0.352 N 
ATOM     28  C   UNL A   1      33.147  34.604  28.474  1.00  0.00     0.251 C 
ATOM     29  H   UNL A   1      31.714  34.494  27.080  1.00  0.00     0.163 HD
ATOM     30  O   UNL A   1      32.777  35.715  28.851  1.00  0.00    -0.269 OA
BRANCH  28  31
ATOM     31  C   UNL A   1      34.313  33.966  29.137  1.00  0.00     0.039 A 
ATOM     32  C   UNL A   1      34.076  32.991  30.114  1.00  0.00     0.014 A 
ATOM     33  C   UNL A   1      35.628  34.320  28.833  1.00  0.00     0.014 A 
ATOM     34  C   UNL A   1      35.147  32.323  30.718  1.00  0.00     0.010 A 
ATOM     35  C   UNL A   1      36.692  33.591  29.366  1.00  0.00     0.010 A 
ATOM     36  C   UNL A   1      36.467  32.588  30.319  1.00  0.00    -0.014 A 
BRANCH  36  37
ATOM     37  C   UNL A   1      37.617  31.845  30.900  1.00  0.00     0.031 A 
ATOM     38  C   UNL A   1      38.102  32.159  32.290  1.00  0.00     0.074 A 
ATOM     39  C   UNL A   1      38.279  30.936  30.157  1.00  0.00     0.049 A 
ATOM     40  N   UNL A   1      39.129  31.672  32.941  1.00  0.00    -0.248 NA
ATOM     41  C   UNL A   1      37.351  33.181  33.036  1.00  0.00     0.031 C 
ATOM     42  C   UNL A   1      37.963  30.580  28.772  1.00  0.00     0.029 A 
ATOM     43  N   UNL A   1      39.364  30.151  30.461  1.00  0.00    -0.354 N 
ATOM     44  C   UNL A   1      39.163  32.347  34.154  1.00  0.00     0.074 A 
ATOM     45  C   UNL A   1      38.087  33.314  34.128  1.00  0.00     0.031 C 
ATOM     46  C   UNL A   1      38.819  29.633  28.355  1.00  0.00     0.029 A 
ATOM     47  C   UNL A   1      39.759  29.332  29.431  1.00  0.00     0.049 A 
ATOM     48  H   UNL A   1      39.816  30.174  31.334  1.00  0.00     0.167 HD
ATOM     49  C   UNL A   1      39.994  32.164  35.209  1.00  0.00     0.037 A 
ATOM     50  C   UNL A   1      40.761  28.435  29.361  1.00  0.00     0.037 A 
ATOM     51  C   UNL A   1      41.041  31.178  35.257  1.00  0.00     0.049 A 
ATOM     52  C   UNL A   1      41.633  28.203  30.563  1.00  0.00     0.074 A 
ATOM     53  C   UNL A   1      41.903  30.880  36.299  1.00  0.00     0.029 A 
ATOM     54  N   UNL A   1      41.362  30.319  34.217  1.00  0.00    -0.354 N 
ATOM     55  N   UNL A   1      41.615  28.808  31.726  1.00  0.00    -0.248 NA
ATOM     56  C   UNL A   1      42.652  27.150  30.449  1.00  0.00     0.031 C 
ATOM     57  C   UNL A   1      42.760  29.856  35.882  1.00  0.00     0.029 A 
ATOM     58  C   UNL A   1      42.407  29.491  34.592  1.00  0.00     0.049 A 
ATOM     59  H   UNL A   1      40.912  30.300  33.342  1.00  0.00     0.167 HD
ATOM     60  C   UNL A   1      42.597  28.193  32.490  1.00  0.00     0.074 A 
ATOM     61  C   UNL A   1      43.186  27.160  31.663  1.00  0.00     0.031 C 
ATOM     62  C   UNL A   1      42.976  28.459  33.764  1.00  0.00     0.037 A 
BRANCH  49  63
ATOM     63  C   UNL A   1      39.787  33.052  36.402  1.00  0.00     0.057 A 
ATOM     64  C   UNL A   1      38.875  32.725  37.414  1.00  0.00     0.134 A 
ATOM     65  C   UNL A   1      40.501  34.249  36.538  1.00  0.00     0.134 A 
ATOM     66  F   UNL A   1      38.148  31.599  37.337  1.00  0.00    -0.206 F 
ATOM     67  C   UNL A   1      38.652  33.574  38.500  1.00  0.00     0.040 A 
ATOM     68  C   UNL A   1      40.308  35.093  37.633  1.00  0.00     0.040 A 
ATOM     69  F   UNL A   1      41.395  34.619  35.609  1.00  0.00    -0.206 F 
ATOM     70  C   UNL A   1      39.373  34.761  38.612  1.00  0.00     0.006 A 
ENDBRANCH  49  63
BRANCH  50  71
ATOM     71  C   UNL A   1      40.959  27.650  28.119  1.00  0.00     0.057 A 
ATOM     72  C   UNL A   1      40.328  26.413  27.943  1.00  0.00     0.134 A 
ATOM     73  C   UNL A   1      41.766  28.119  27.078  1.00  0.00     0.134 A 
ATOM     74  F   UNL A   1      39.555  25.906  28.915  1.00  0.00    -0.206 F 
ATOM     75  C   UNL A   1      40.504  25.663  26.780  1.00  0.00     0.040 A 
ATOM     76  C   UNL A   1      41.935  27.388  25.901  1.00  0.00     0.040 A 
ATOM     77  F   UNL A   1      42.390  29.303  27.184  1.00  0.00    -0.206 F 
ATOM     78  C   UNL A   1      41.306  26.153  25.751  1.00  0.00     0.006 A 
ENDBRANCH  50  71
BRANCH  62  79
ATOM     79  C   UNL A   1      44.048  27.593  34.354  1.00  0.00     0.057 A 
ATOM     80  C   UNL A   1      45.398  27.961  34.322  1.00  0.00     0.134 A 
ATOM     81  C   UNL A   1      43.720  26.388  34.987  1.00  0.00     0.134 A 
ATOM     82  F   UNL A   1      45.779  29.098  33.720  1.00  0.00    -0.206 F 
ATOM     83  C   UNL A   1      46.389  27.148  34.879  1.00  0.00     0.040 A 
ATOM     84  C   UNL A   1      44.697  25.577  35.565  1.00  0.00     0.040 A 
ATOM     85  F   UNL A   1      42.443  25.982  35.056  1.00  0.00    -0.206 F 
ATOM     86  C   UNL A   1      46.037  25.955  35.506  1.00  0.00     0.006 A 
ENDBRANCH  62  79
ENDBRANCH  36  37
ENDBRANCH  28  31
ENDBRANCH  26  27
ENDBRANCH   1  26
TORSDOF 12
ENDMDL
