MODEL 1
REMARK VINA RESULT:     -11.2      0.000      0.000
REMARK SMILES CCOC(=O)NC(=O)C[N@H+]1CC[C@@H](C(=O)NCCCNC(=O)c2ccc(-c3c4nc(c(-c5c(F)cccc5F)c5ccc([nH]5)c(-c5c(F)cccc5F)c5nc(c(-c6c(F)cccc6F)c6ccc3[nH]6)C=C5)C=C4)cc2)[C@@H]1C
REMARK SMILES IDX 17 1 16 2 14 3 15 4 13 6 10 7 11 8 77 9 12 11 78 12 9 13
REMARK SMILES IDX 7 14 4 15 5 16 6 17 8 19 3 20 2 21 1 22 18 23 19 24 20 25
REMARK SMILES IDX 21 26 22 28 23 29 24 30 76 31 25 32 75 33 26 34 27 35 28 36
REMARK SMILES IDX 69 37 29 38 74 39 68 40 70 41 30 42 73 43 67 44 66 45 31 47
REMARK SMILES IDX 57 48 40 49 56 50 41 51 44 52 55 53 71 54 42 55 43 56 54 58
REMARK SMILES IDX 72 59 45 60 32 61 33 62 38 63 34 64 35 65 37 66 39 67 36 68
REMARK SMILES IDX 58 69 59 70 64 71 60 72 61 73 63 74 65 75 62 76 46 77 47 78
REMARK SMILES IDX 52 79 48 80 49 81 51 82 53 83 50 84
REMARK H PARENT 16 5 10 10 6 18 20 27 70 46 44 57
REMARK Flexibility Score: inf
ROOT
ATOM      1  C   UNL A   1      31.896  27.571  26.378  1.00  0.00     0.117 C 
ENDROOT
BRANCH   1   2
ATOM      2  N   UNL A   1      31.379  26.295  26.848  1.00  0.00    -0.356 N 
ATOM      3  C   UNL A   1      31.539  25.009  26.445  1.00  0.00     0.229 C 
ATOM      4  O   UNL A   1      31.065  24.154  27.203  1.00  0.00    -0.275 OA
ATOM      5  H   UNL A   1      30.784  26.383  27.628  1.00  0.00     0.163 HD
BRANCH   3   6
ATOM      6  C   UNL A   1      32.114  24.564  25.104  1.00  0.00     0.142 C 
ATOM      7  N   UNL A   1      33.445  22.685  24.453  1.00  0.00    -0.324 N 
ATOM      8  C   UNL A   1      32.083  22.372  24.045  1.00  0.00     0.263 C 
ATOM      9  C   UNL A   1      33.444  23.849  25.330  1.00  0.00     0.194 C 
ATOM     10  H   UNL A   1      33.944  22.929  23.597  1.00  0.00     0.348 HD
ATOM     11  C   UNL A   1      31.299  23.675  24.182  1.00  0.00     0.081 C 
ATOM     12  C   UNL A   1      34.627  24.745  24.945  1.00  0.00     0.076 C 
BRANCH   7  13
ATOM     13  C   UNL A   1      34.291  21.562  24.900  1.00  0.00     0.364 C 
BRANCH  13  14
ATOM     14  C   UNL A   1      33.865  20.900  26.212  1.00  0.00     0.284 C 
ATOM     15  C   UNL A   1      32.728  18.752  25.393  1.00  0.00     0.414 C 
ATOM     16  O   UNL A   1      32.303  17.688  25.857  1.00  0.00    -0.224 OA
ATOM     17  N   UNL A   1      33.066  19.777  26.249  1.00  0.00    -0.256 N 
ATOM     18  H   UNL A   1      32.617  19.683  27.120  1.00  0.00     0.176 HD
ATOM     19  O   UNL A   1      34.235  21.344  27.305  1.00  0.00    -0.268 OA
BRANCH  15  20
ATOM     20  O   UNL A   1      32.968  18.972  24.084  1.00  0.00    -0.450 OA
BRANCH  20  21
ATOM     21  C   UNL A   1      32.853  17.815  23.233  1.00  0.00     0.231 C 
ATOM     22  C   UNL A   1      34.125  16.981  23.262  1.00  0.00     0.049 C 
ENDBRANCH  20  21
ENDBRANCH  15  20
ENDBRANCH  13  14
ENDBRANCH   7  13
ENDBRANCH   3   6
ENDBRANCH   1   2
BRANCH   1  23
ATOM     23  C   UNL A   1      33.266  27.937  26.951  1.00  0.00     0.042 C 
BRANCH  23  24
ATOM     24  C   UNL A   1      34.053  29.010  26.199  1.00  0.00     0.118 C 
BRANCH  24  25
ATOM     25  N   UNL A   1      33.830  30.347  26.721  1.00  0.00    -0.352 N 
ATOM     26  C   UNL A   1      34.461  31.059  27.712  1.00  0.00     0.251 C 
ATOM     27  H   UNL A   1      33.091  30.830  26.287  1.00  0.00     0.163 HD
ATOM     28  O   UNL A   1      33.959  32.126  28.069  1.00  0.00    -0.269 OA
BRANCH  26  29
ATOM     29  C   UNL A   1      35.711  30.604  28.380  1.00  0.00     0.039 A 
ATOM     30  C   UNL A   1      36.928  31.099  27.890  1.00  0.00     0.014 A 
ATOM     31  C   UNL A   1      35.736  29.613  29.365  1.00  0.00     0.014 A 
ATOM     32  C   UNL A   1      38.148  30.622  28.384  1.00  0.00     0.010 A 
ATOM     33  C   UNL A   1      36.956  29.176  29.902  1.00  0.00     0.010 A 
ATOM     34  C   UNL A   1      38.176  29.656  29.400  1.00  0.00    -0.014 A 
BRANCH  34  35
ATOM     35  C   UNL A   1      39.469  29.094  29.882  1.00  0.00     0.031 A 
ATOM     36  C   UNL A   1      40.135  29.657  31.110  1.00  0.00     0.074 A 
ATOM     37  C   UNL A   1      40.056  28.073  29.227  1.00  0.00     0.049 A 
ATOM     38  N   UNL A   1      41.267  29.310  31.674  1.00  0.00    -0.248 NA
ATOM     39  C   UNL A   1      39.443  30.764  31.788  1.00  0.00     0.031 C 
ATOM     40  C   UNL A   1      39.534  27.427  28.024  1.00  0.00     0.029 A 
ATOM     41  N   UNL A   1      41.224  27.398  29.490  1.00  0.00    -0.354 N 
ATOM     42  C   UNL A   1      41.430  30.163  32.759  1.00  0.00     0.074 A 
ATOM     43  C   UNL A   1      40.298  31.067  32.754  1.00  0.00     0.031 C 
ATOM     44  C   UNL A   1      40.365  26.432  27.667  1.00  0.00     0.029 A 
ATOM     45  C   UNL A   1      41.490  26.390  28.598  1.00  0.00     0.049 A 
ATOM     46  H   UNL A   1      41.814  27.618  30.246  1.00  0.00     0.167 HD
ATOM     47  C   UNL A   1      42.418  30.186  33.686  1.00  0.00     0.037 A 
ATOM     48  C   UNL A   1      42.521  25.525  28.534  1.00  0.00     0.037 A 
ATOM     49  C   UNL A   1      43.532  29.276  33.724  1.00  0.00     0.049 A 
ATOM     50  C   UNL A   1      43.616  25.581  29.562  1.00  0.00     0.074 A 
ATOM     51  C   UNL A   1      44.552  29.199  34.659  1.00  0.00     0.029 A 
ATOM     52  N   UNL A   1      43.773  28.284  32.787  1.00  0.00    -0.354 N 
ATOM     53  N   UNL A   1      43.737  26.372  30.598  1.00  0.00    -0.248 NA
ATOM     54  C   UNL A   1      44.720  24.621  29.407  1.00  0.00     0.031 C 
ATOM     55  C   UNL A   1      45.426  28.176  34.271  1.00  0.00     0.029 A 
ATOM     56  C   UNL A   1      44.934  27.600  33.112  1.00  0.00     0.049 A 
ATOM     57  H   UNL A   1      43.205  28.094  32.007  1.00  0.00     0.167 HD
ATOM     58  C   UNL A   1      44.914  25.992  31.232  1.00  0.00     0.074 A 
ATOM     59  C   UNL A   1      45.468  24.895  30.467  1.00  0.00     0.031 C 
ATOM     60  C   UNL A   1      45.479  26.508  32.349  1.00  0.00     0.037 A 
BRANCH  47  61
ATOM     61  C   UNL A   1      42.335  31.244  34.746  1.00  0.00     0.057 A 
ATOM     62  C   UNL A   1      42.929  32.501  34.579  1.00  0.00     0.134 A 
ATOM     63  C   UNL A   1      41.635  31.010  35.936  1.00  0.00     0.134 A 
ATOM     64  F   UNL A   1      43.622  32.783  33.466  1.00  0.00    -0.206 F 
ATOM     65  C   UNL A   1      42.852  33.480  35.571  1.00  0.00     0.040 A 
ATOM     66  C   UNL A   1      41.534  31.989  36.926  1.00  0.00     0.040 A 
ATOM     67  F   UNL A   1      41.038  29.828  36.154  1.00  0.00    -0.206 F 
ATOM     68  C   UNL A   1      42.150  33.226  36.747  1.00  0.00     0.006 A 
ENDBRANCH  47  61
BRANCH  48  69
ATOM     69  C   UNL A   1      42.555  24.500  27.464  1.00  0.00     0.057 A 
ATOM     70  C   UNL A   1      43.096  24.795  26.208  1.00  0.00     0.134 A 
ATOM     71  C   UNL A   1      42.050  23.212  27.667  1.00  0.00     0.134 A 
ATOM     72  F   UNL A   1      43.572  26.022  25.949  1.00  0.00    -0.206 F 
ATOM     73  C   UNL A   1      43.129  23.846  25.186  1.00  0.00     0.040 A 
ATOM     74  C   UNL A   1      42.091  22.247  26.660  1.00  0.00     0.040 A 
ATOM     75  F   UNL A   1      41.519  22.872  28.851  1.00  0.00    -0.206 F 
ATOM     76  C   UNL A   1      42.629  22.564  25.414  1.00  0.00     0.006 A 
ENDBRANCH  48  69
BRANCH  60  77
ATOM     77  C   UNL A   1      46.752  25.877  32.828  1.00  0.00     0.057 A 
ATOM     78  C   UNL A   1      46.750  24.833  33.762  1.00  0.00     0.134 A 
ATOM     79  C   UNL A   1      47.990  26.297  32.327  1.00  0.00     0.134 A 
ATOM     80  F   UNL A   1      45.596  24.397  34.289  1.00  0.00    -0.206 F 
ATOM     81  C   UNL A   1      47.937  24.239  34.192  1.00  0.00     0.040 A 
ATOM     82  C   UNL A   1      49.183  25.697  32.735  1.00  0.00     0.040 A 
ATOM     83  F   UNL A   1      48.060  27.289  31.426  1.00  0.00    -0.206 F 
ATOM     84  C   UNL A   1      49.158  24.667  33.673  1.00  0.00     0.006 A 
ENDBRANCH  60  77
ENDBRANCH  34  35
ENDBRANCH  26  29
ENDBRANCH  24  25
ENDBRANCH  23  24
ENDBRANCH   1  23
TORSDOF 14
ENDMDL
MODEL 2
REMARK VINA RESULT:     -11.0      1.929      6.474
REMARK SMILES CCOC(=O)NC(=O)C[N@H+]1CC[C@@H](C(=O)NCCCNC(=O)c2ccc(-c3c4nc(c(-c5c(F)cccc5F)c5ccc([nH]5)c(-c5c(F)cccc5F)c5nc(c(-c6c(F)cccc6F)c6ccc3[nH]6)C=C5)C=C4)cc2)[C@@H]1C
REMARK SMILES IDX 17 1 16 2 14 3 15 4 13 6 10 7 11 8 77 9 12 11 78 12 9 13
REMARK SMILES IDX 7 14 4 15 5 16 6 17 8 19 3 20 2 21 1 22 18 23 19 24 20 25
REMARK SMILES IDX 21 26 22 28 23 29 24 30 76 31 25 32 75 33 26 34 27 35 28 36
REMARK SMILES IDX 69 37 29 38 74 39 68 40 70 41 30 42 73 43 67 44 66 45 31 47
REMARK SMILES IDX 57 48 40 49 56 50 41 51 44 52 55 53 71 54 42 55 43 56 54 58
REMARK SMILES IDX 72 59 45 60 32 61 33 62 38 63 34 64 35 65 37 66 39 67 36 68
REMARK SMILES IDX 58 69 59 70 64 71 60 72 61 73 63 74 65 75 62 76 46 77 47 78
REMARK SMILES IDX 52 79 48 80 49 81 51 82 53 83 50 84
REMARK H PARENT 16 5 10 10 6 18 20 27 70 46 44 57
REMARK Flexibility Score: inf
ROOT
ATOM      1  C   UNL A   1      31.395  27.655  26.024  1.00  0.00     0.117 C 
ENDROOT
BRANCH   1   2
ATOM      2  N   UNL A   1      31.257  26.370  26.692  1.00  0.00    -0.356 N 
ATOM      3  C   UNL A   1      31.642  25.105  26.385  1.00  0.00     0.229 C 
ATOM      4  O   UNL A   1      31.495  24.274  27.290  1.00  0.00    -0.275 OA
ATOM      5  H   UNL A   1      30.783  26.430  27.552  1.00  0.00     0.163 HD
BRANCH   3   6
ATOM      6  C   UNL A   1      32.094  24.623  25.010  1.00  0.00     0.142 C 
ATOM      7  N   UNL A   1      33.310  22.693  24.287  1.00  0.00    -0.324 N 
ATOM      8  C   UNL A   1      31.911  22.418  23.993  1.00  0.00     0.263 C 
ATOM      9  C   UNL A   1      33.415  23.868  25.141  1.00  0.00     0.194 C 
ATOM     10  H   UNL A   1      33.746  22.908  23.390  1.00  0.00     0.348 HD
ATOM     11  C   UNL A   1      31.181  23.747  24.171  1.00  0.00     0.081 C 
ATOM     12  C   UNL A   1      34.591  24.720  24.649  1.00  0.00     0.076 C 
BRANCH   7  13
ATOM     13  C   UNL A   1      34.153  21.550  24.684  1.00  0.00     0.364 C 
BRANCH  13  14
ATOM     14  C   UNL A   1      33.802  20.908  26.027  1.00  0.00     0.284 C 
ATOM     15  C   UNL A   1      32.639  18.739  25.307  1.00  0.00     0.414 C 
ATOM     16  O   UNL A   1      32.247  17.681  25.812  1.00  0.00    -0.224 OA
ATOM     17  N   UNL A   1      33.014  19.781  26.126  1.00  0.00    -0.256 N 
ATOM     18  H   UNL A   1      32.612  19.699  27.021  1.00  0.00     0.176 HD
ATOM     19  O   UNL A   1      34.226  21.375  27.092  1.00  0.00    -0.268 OA
BRANCH  15  20
ATOM     20  O   UNL A   1      32.809  18.936  23.984  1.00  0.00    -0.450 OA
BRANCH  20  21
ATOM     21  C   UNL A   1      32.889  17.739  23.186  1.00  0.00     0.231 C 
ATOM     22  C   UNL A   1      34.226  17.039  23.376  1.00  0.00     0.049 C 
ENDBRANCH  20  21
ENDBRANCH  15  20
ENDBRANCH  13  14
ENDBRANCH   7  13
ENDBRANCH   3   6
ENDBRANCH   1   2
BRANCH   1  23
ATOM     23  C   UNL A   1      32.833  28.171  25.954  1.00  0.00     0.042 C 
BRANCH  23  24
ATOM     24  C   UNL A   1      33.553  28.361  27.288  1.00  0.00     0.118 C 
BRANCH  24  25
ATOM     25  N   UNL A   1      33.617  29.750  27.706  1.00  0.00    -0.352 N 
ATOM     26  C   UNL A   1      34.637  30.497  28.246  1.00  0.00     0.251 C 
ATOM     27  H   UNL A   1      32.776  30.246  27.582  1.00  0.00     0.163 HD
ATOM     28  O   UNL A   1      34.370  31.624  28.665  1.00  0.00    -0.269 OA
BRANCH  26  29
ATOM     29  C   UNL A   1      36.039  30.011  28.356  1.00  0.00     0.039 A 
ATOM     30  C   UNL A   1      36.434  29.433  29.571  1.00  0.00     0.014 A 
ATOM     31  C   UNL A   1      37.004  30.229  27.370  1.00  0.00     0.014 A 
ATOM     32  C   UNL A   1      37.768  29.068  29.792  1.00  0.00     0.010 A 
ATOM     33  C   UNL A   1      38.329  29.811  27.567  1.00  0.00     0.010 A 
ATOM     34  C   UNL A   1      38.731  29.250  28.789  1.00  0.00    -0.014 A 
BRANCH  34  35
ATOM     35  C   UNL A   1      40.164  28.928  29.042  1.00  0.00     0.031 A 
ATOM     36  C   UNL A   1      40.735  27.602  28.612  1.00  0.00     0.074 A 
ATOM     37  C   UNL A   1      40.967  29.819  29.655  1.00  0.00     0.049 A 
ATOM     38  N   UNL A   1      41.952  27.136  28.757  1.00  0.00    -0.248 NA
ATOM     39  C   UNL A   1      39.815  26.673  27.939  1.00  0.00     0.031 C 
ATOM     40  C   UNL A   1      40.557  31.140  30.131  1.00  0.00     0.029 A 
ATOM     41  N   UNL A   1      42.300  29.746  29.978  1.00  0.00    -0.354 N 
ATOM     42  C   UNL A   1      41.939  25.858  28.210  1.00  0.00     0.074 A 
ATOM     43  C   UNL A   1      40.584  25.609  27.762  1.00  0.00     0.031 C 
ATOM     44  C   UNL A   1      41.623  31.763  30.663  1.00  0.00     0.029 A 
ATOM     45  C   UNL A   1      42.782  30.876  30.590  1.00  0.00     0.049 A 
ATOM     46  H   UNL A   1      42.857  28.957  29.789  1.00  0.00     0.167 HD
ATOM     47  C   UNL A   1      42.958  24.976  28.076  1.00  0.00     0.037 A 
ATOM     48  C   UNL A   1      44.017  31.170  31.041  1.00  0.00     0.037 A 
ATOM     49  C   UNL A   1      44.317  25.219  28.486  1.00  0.00     0.049 A 
ATOM     50  C   UNL A   1      45.129  30.169  30.899  1.00  0.00     0.074 A 
ATOM     51  C   UNL A   1      45.422  24.397  28.341  1.00  0.00     0.029 A 
ATOM     52  N   UNL A   1      44.754  26.369  29.122  1.00  0.00    -0.354 N 
ATOM     53  N   UNL A   1      45.106  28.980  30.352  1.00  0.00    -0.248 NA
ATOM     54  C   UNL A   1      46.441  30.555  31.442  1.00  0.00     0.031 C 
ATOM     55  C   UNL A   1      46.525  25.041  28.915  1.00  0.00     0.029 A 
ATOM     56  C   UNL A   1      46.111  26.274  29.391  1.00  0.00     0.049 A 
ATOM     57  H   UNL A   1      44.187  27.141  29.349  1.00  0.00     0.167 HD
ATOM     58  C   UNL A   1      46.399  28.485  30.461  1.00  0.00     0.074 A 
ATOM     59  C   UNL A   1      47.185  29.505  31.123  1.00  0.00     0.031 C 
ATOM     60  C   UNL A   1      46.888  27.291  30.047  1.00  0.00     0.037 A 
BRANCH  47  61
ATOM     61  C   UNL A   1      42.637  23.650  27.453  1.00  0.00     0.057 A 
ATOM     62  C   UNL A   1      42.201  22.563  28.219  1.00  0.00     0.134 A 
ATOM     63  C   UNL A   1      42.744  23.467  26.068  1.00  0.00     0.134 A 
ATOM     64  F   UNL A   1      42.089  22.672  29.552  1.00  0.00    -0.206 F 
ATOM     65  C   UNL A   1      41.908  21.330  27.635  1.00  0.00     0.040 A 
ATOM     66  C   UNL A   1      42.433  22.244  25.470  1.00  0.00     0.040 A 
ATOM     67  F   UNL A   1      43.149  24.472  25.277  1.00  0.00    -0.206 F 
ATOM     68  C   UNL A   1      42.020  21.170  26.255  1.00  0.00     0.006 A 
ENDBRANCH  47  61
BRANCH  48  69
ATOM     69  C   UNL A   1      44.280  32.495  31.652  1.00  0.00     0.057 A 
ATOM     70  C   UNL A   1      44.158  32.683  33.033  1.00  0.00     0.134 A 
ATOM     71  C   UNL A   1      44.654  33.597  30.877  1.00  0.00     0.134 A 
ATOM     72  F   UNL A   1      43.778  31.667  33.822  1.00  0.00    -0.206 F 
ATOM     73  C   UNL A   1      44.394  33.925  33.623  1.00  0.00     0.040 A 
ATOM     74  C   UNL A   1      44.909  34.841  31.455  1.00  0.00     0.040 A 
ATOM     75  F   UNL A   1      44.786  33.476  29.547  1.00  0.00    -0.206 F 
ATOM     76  C   UNL A   1      44.776  35.008  32.833  1.00  0.00     0.006 A 
ENDBRANCH  48  69
BRANCH  60  77
ATOM     77  C   UNL A   1      48.347  27.032  30.274  1.00  0.00     0.057 A 
ATOM     78  C   UNL A   1      48.803  26.335  31.399  1.00  0.00     0.134 A 
ATOM     79  C   UNL A   1      49.302  27.455  29.341  1.00  0.00     0.134 A 
ATOM     80  F   UNL A   1      47.939  25.916  32.335  1.00  0.00    -0.206 F 
ATOM     81  C   UNL A   1      50.162  26.082  31.597  1.00  0.00     0.040 A 
ATOM     82  C   UNL A   1      50.661  27.192  29.518  1.00  0.00     0.040 A 
ATOM     83  F   UNL A   1      48.928  28.123  28.239  1.00  0.00    -0.206 F 
ATOM     84  C   UNL A   1      51.094  26.506  30.651  1.00  0.00     0.006 A 
ENDBRANCH  60  77
ENDBRANCH  34  35
ENDBRANCH  26  29
ENDBRANCH  24  25
ENDBRANCH  23  24
ENDBRANCH   1  23
TORSDOF 14
ENDMDL
MODEL 3
REMARK VINA RESULT:     -11.0      2.654      3.975
REMARK SMILES CCOC(=O)NC(=O)C[N@H+]1CC[C@@H](C(=O)NCCCNC(=O)c2ccc(-c3c4nc(c(-c5c(F)cccc5F)c5ccc([nH]5)c(-c5c(F)cccc5F)c5nc(c(-c6c(F)cccc6F)c6ccc3[nH]6)C=C5)C=C4)cc2)[C@@H]1C
REMARK SMILES IDX 17 1 16 2 14 3 15 4 13 6 10 7 11 8 77 9 12 11 78 12 9 13
REMARK SMILES IDX 7 14 4 15 5 16 6 17 8 19 3 20 2 21 1 22 18 23 19 24 20 25
REMARK SMILES IDX 21 26 22 28 23 29 24 30 76 31 25 32 75 33 26 34 27 35 28 36
REMARK SMILES IDX 69 37 29 38 74 39 68 40 70 41 30 42 73 43 67 44 66 45 31 47
REMARK SMILES IDX 57 48 40 49 56 50 41 51 44 52 55 53 71 54 42 55 43 56 54 58
REMARK SMILES IDX 72 59 45 60 32 61 33 62 38 63 34 64 35 65 37 66 39 67 36 68
REMARK SMILES IDX 58 69 59 70 64 71 60 72 61 73 63 74 65 75 62 76 46 77 47 78
REMARK SMILES IDX 52 79 48 80 49 81 51 82 53 83 50 84
REMARK H PARENT 16 5 10 10 6 18 20 27 70 46 44 57
REMARK Flexibility Score: inf
ROOT
ATOM      1  C   UNL A   1      31.814  30.527  26.434  1.00  0.00     0.117 C 
ENDROOT
BRANCH   1   2
ATOM      2  N   UNL A   1      31.239  30.182  25.143  1.00  0.00    -0.356 N 
ATOM      3  C   UNL A   1      31.525  29.242  24.207  1.00  0.00     0.229 C 
ATOM      4  O   UNL A   1      30.699  29.139  23.291  1.00  0.00    -0.275 OA
ATOM      5  H   UNL A   1      30.476  30.753  24.895  1.00  0.00     0.163 HD
BRANCH   3   6
ATOM      6  C   UNL A   1      32.816  28.433  24.127  1.00  0.00     0.142 C 
ATOM      7  N   UNL A   1      33.250  26.092  23.881  1.00  0.00    -0.324 N 
ATOM      8  C   UNL A   1      33.463  26.679  22.566  1.00  0.00     0.263 C 
ATOM      9  C   UNL A   1      32.596  27.057  24.755  1.00  0.00     0.194 C 
ATOM     10  H   UNL A   1      34.179  25.899  24.254  1.00  0.00     0.348 HD
ATOM     11  C   UNL A   1      33.483  28.190  22.785  1.00  0.00     0.081 C 
ATOM     12  C   UNL A   1      33.245  26.971  26.142  1.00  0.00     0.076 C 
BRANCH   7  13
ATOM     13  C   UNL A   1      32.695  24.726  23.928  1.00  0.00     0.364 C 
BRANCH  13  14
ATOM     14  C   UNL A   1      31.185  24.637  24.155  1.00  0.00     0.284 C 
ATOM     15  C   UNL A   1      31.048  23.610  26.502  1.00  0.00     0.414 C 
ATOM     16  O   UNL A   1      30.202  23.404  27.379  1.00  0.00    -0.224 OA
ATOM     17  N   UNL A   1      30.637  23.990  25.243  1.00  0.00    -0.256 N 
ATOM     18  H   UNL A   1      29.702  23.730  25.074  1.00  0.00     0.176 HD
ATOM     19  O   UNL A   1      30.385  25.159  23.369  1.00  0.00    -0.268 OA
BRANCH  15  20
ATOM     20  O   UNL A   1      32.381  23.569  26.701  1.00  0.00    -0.450 OA
BRANCH  20  21
ATOM     21  C   UNL A   1      32.828  22.621  27.689  1.00  0.00     0.231 C 
ATOM     22  C   UNL A   1      33.633  21.499  27.052  1.00  0.00     0.049 C 
ENDBRANCH  20  21
ENDBRANCH  15  20
ENDBRANCH  13  14
ENDBRANCH   7  13
ENDBRANCH   3   6
ENDBRANCH   1   2
BRANCH   1  23
ATOM     23  C   UNL A   1      31.423  31.916  26.939  1.00  0.00     0.042 C 
BRANCH  23  24
ATOM     24  C   UNL A   1      32.341  33.070  26.537  1.00  0.00     0.118 C 
BRANCH  24  25
ATOM     25  N   UNL A   1      32.296  34.182  27.469  1.00  0.00    -0.352 N 
ATOM     26  C   UNL A   1      33.058  34.481  28.573  1.00  0.00     0.251 C 
ATOM     27  H   UNL A   1      31.590  34.841  27.277  1.00  0.00     0.163 HD
ATOM     28  O   UNL A   1      32.698  35.416  29.290  1.00  0.00    -0.269 OA
BRANCH  26  29
ATOM     29  C   UNL A   1      34.287  33.731  28.949  1.00  0.00     0.039 A 
ATOM     30  C   UNL A   1      34.124  32.500  29.600  1.00  0.00     0.014 A 
ATOM     31  C   UNL A   1      35.575  34.254  28.812  1.00  0.00     0.014 A 
ATOM     32  C   UNL A   1      35.230  31.798  30.095  1.00  0.00     0.010 A 
ATOM     33  C   UNL A   1      36.689  33.525  29.254  1.00  0.00     0.010 A 
ATOM     34  C   UNL A   1      36.528  32.302  29.924  1.00  0.00    -0.014 A 
BRANCH  34  35
ATOM     35  C   UNL A   1      37.702  31.595  30.507  1.00  0.00     0.031 A 
ATOM     36  C   UNL A   1      38.116  31.850  31.934  1.00  0.00     0.074 A 
ATOM     37  C   UNL A   1      38.407  30.716  29.768  1.00  0.00     0.049 A 
ATOM     38  N   UNL A   1      39.117  31.342  32.611  1.00  0.00    -0.248 NA
ATOM     39  C   UNL A   1      37.305  32.813  32.695  1.00  0.00     0.031 C 
ATOM     40  C   UNL A   1      38.129  30.367  28.376  1.00  0.00     0.029 A 
ATOM     41  N   UNL A   1      39.501  29.951  30.093  1.00  0.00    -0.354 N 
ATOM     42  C   UNL A   1      39.065  31.932  33.869  1.00  0.00     0.074 A 
ATOM     43  C   UNL A   1      37.955  32.863  33.848  1.00  0.00     0.031 C 
ATOM     44  C   UNL A   1      39.014  29.439  27.972  1.00  0.00     0.029 A 
ATOM     45  C   UNL A   1      39.936  29.148  29.068  1.00  0.00     0.049 A 
ATOM     46  H   UNL A   1      39.933  29.976  30.977  1.00  0.00     0.167 HD
ATOM     47  C   UNL A   1      39.853  31.712  34.948  1.00  0.00     0.037 A 
ATOM     48  C   UNL A   1      40.960  28.275  29.012  1.00  0.00     0.037 A 
ATOM     49  C   UNL A   1      40.939  30.769  34.996  1.00  0.00     0.049 A 
ATOM     50  C   UNL A   1      41.834  28.061  30.216  1.00  0.00     0.074 A 
ATOM     51  C   UNL A   1      41.757  30.449  36.067  1.00  0.00     0.029 A 
ATOM     52  N   UNL A   1      41.358  29.994  33.927  1.00  0.00    -0.354 N 
ATOM     53  N   UNL A   1      41.750  28.604  31.405  1.00  0.00    -0.248 NA
ATOM     54  C   UNL A   1      42.947  27.110  30.066  1.00  0.00     0.031 C 
ATOM     55  C   UNL A   1      42.691  29.497  35.638  1.00  0.00     0.029 A 
ATOM     56  C   UNL A   1      42.434  29.206  34.308  1.00  0.00     0.049 A 
ATOM     57  H   UNL A   1      40.953  30.001  33.031  1.00  0.00     0.167 HD
ATOM     58  C   UNL A   1      42.781  28.046  32.151  1.00  0.00     0.074 A 
ATOM     59  C   UNL A   1      43.474  27.118  31.283  1.00  0.00     0.031 C 
ATOM     60  C   UNL A   1      43.118  28.284  33.442  1.00  0.00     0.037 A 
BRANCH  47  61
ATOM     61  C   UNL A   1      39.565  32.519  36.180  1.00  0.00     0.057 A 
ATOM     62  C   UNL A   1      40.224  33.726  36.440  1.00  0.00     0.134 A 
ATOM     63  C   UNL A   1      38.602  32.094  37.103  1.00  0.00     0.134 A 
ATOM     64  F   UNL A   1      41.165  34.182  35.599  1.00  0.00    -0.206 F 
ATOM     65  C   UNL A   1      39.956  34.470  37.589  1.00  0.00     0.040 A 
ATOM     66  C   UNL A   1      38.310  32.840  38.246  1.00  0.00     0.040 A 
ATOM     67  F   UNL A   1      37.930  30.949  36.909  1.00  0.00    -0.206 F 
ATOM     68  C   UNL A   1      38.993  34.028  38.495  1.00  0.00     0.006 A 
ENDBRANCH  47  61
BRANCH  48  69
ATOM     69  C   UNL A   1      41.202  27.505  27.769  1.00  0.00     0.057 A 
ATOM     70  C   UNL A   1      42.043  28.006  26.769  1.00  0.00     0.134 A 
ATOM     71  C   UNL A   1      40.603  26.261  27.549  1.00  0.00     0.134 A 
ATOM     72  F   UNL A   1      42.626  29.206  26.916  1.00  0.00    -0.206 F 
ATOM     73  C   UNL A   1      42.276  27.299  25.590  1.00  0.00     0.040 A 
ATOM     74  C   UNL A   1      40.840  25.535  26.382  1.00  0.00     0.040 A 
ATOM     75  F   UNL A   1      39.786  25.731  28.472  1.00  0.00    -0.206 F 
ATOM     76  C   UNL A   1      41.676  26.056  25.396  1.00  0.00     0.006 A 
ENDBRANCH  48  69
BRANCH  60  77
ATOM     77  C   UNL A   1      44.273  27.510  34.003  1.00  0.00     0.057 A 
ATOM     78  C   UNL A   1      45.580  28.012  33.969  1.00  0.00     0.134 A 
ATOM     79  C   UNL A   1      44.071  26.265  34.611  1.00  0.00     0.134 A 
ATOM     80  F   UNL A   1      45.839  29.192  33.388  1.00  0.00    -0.206 F 
ATOM     81  C   UNL A   1      46.649  27.294  34.507  1.00  0.00     0.040 A 
ATOM     82  C   UNL A   1      45.130  25.547  35.169  1.00  0.00     0.040 A 
ATOM     83  F   UNL A   1      42.842  25.731  34.680  1.00  0.00    -0.206 F 
ATOM     84  C   UNL A   1      46.424  26.060  35.115  1.00  0.00     0.006 A 
ENDBRANCH  60  77
ENDBRANCH  34  35
ENDBRANCH  26  29
ENDBRANCH  24  25
ENDBRANCH  23  24
ENDBRANCH   1  23
TORSDOF 14
ENDMDL
