MODEL 1
REMARK VINA RESULT:     -13.0      0.000      0.000
REMARK SMILES Cc1cc2c(=O)c3ccccc3oc2c(C(=O)NCCCNC(=O)c2ccc(-c3c4nc(c(-c5c(F)cccc5F)c5ccc([nH]5)c(-c5c(F)cccc5F)c5nc(c(-c6c(F)cccc6F)c6ccc3[nH]6)C=C5)C=C4)cc2)c1C
REMARK SMILES IDX 21 1 20 2 19 3 18 4 16 5 17 6 15 8 1 9 2 10 3 11 79 12 4 13
REMARK SMILES IDX 80 14 5 15 14 16 6 17 7 18 13 19 8 20 12 21 9 22 11 23 10 24
REMARK SMILES IDX 22 25 23 26 24 28 25 29 26 30 78 31 27 32 77 33 28 34 29 35
REMARK SMILES IDX 30 36 71 37 31 38 76 39 70 40 72 41 32 42 75 43 69 44 68 45
REMARK SMILES IDX 33 47 59 48 42 49 58 50 43 51 46 52 57 53 73 54 44 55 45 56
REMARK SMILES IDX 56 58 74 59 47 60 34 61 35 62 40 63 36 64 37 65 39 66 41 67
REMARK SMILES IDX 38 68 60 69 61 70 66 71 62 72 63 73 65 74 67 75 64 76 48 77
REMARK SMILES IDX 49 78 54 79 50 80 51 81 53 82 55 83 52 84
REMARK H PARENT 18 7 22 27 72 46 46 57
REMARK Flexibility Score: inf
ROOT
ATOM      1  C   UNL A   1      37.929  24.019  26.226  1.00  0.00     0.118 C 
ENDROOT
BRANCH   1   2
ATOM      2  C   UNL A   1      37.081  23.236  25.239  1.00  0.00     0.042 C 
BRANCH   2   3
ATOM      3  C   UNL A   1      36.767  21.789  25.640  1.00  0.00     0.118 C 
BRANCH   3   4
ATOM      4  N   UNL A   1      35.591  21.761  26.491  1.00  0.00    -0.352 N 
ATOM      5  C   UNL A   1      34.256  22.048  26.361  1.00  0.00     0.255 C 
ATOM      6  O   UNL A   1      33.669  22.141  27.445  1.00  0.00    -0.269 OA
ATOM      7  H   UNL A   1      35.810  21.454  27.400  1.00  0.00     0.163 HD
BRANCH   5   8
ATOM      8  C   UNL A   1      33.448  22.216  25.091  1.00  0.00     0.086 A 
ATOM      9  C   UNL A   1      31.883  20.485  21.997  1.00  0.00     0.044 C 
ATOM     10  C   UNL A   1      32.383  21.528  22.967  1.00  0.00    -0.046 A 
ATOM     11  C   UNL A   1      32.219  22.865  22.612  1.00  0.00     0.019 A 
ATOM     12  C   UNL A   1      33.077  21.194  24.167  1.00  0.00    -0.032 A 
ATOM     13  C   UNL A   1      32.651  23.871  23.464  1.00  0.00     0.066 A 
ATOM     14  C   UNL A   1      33.448  19.752  24.331  1.00  0.00     0.045 C 
ATOM     15  C   UNL A   1      32.562  25.267  23.010  1.00  0.00     0.200 A 
ATOM     16  C   UNL A   1      33.207  23.571  24.711  1.00  0.00     0.151 A 
ATOM     17  O   UNL A   1      32.119  25.557  21.906  1.00  0.00    -0.288 OA
ATOM     18  C   UNL A   1      33.054  26.293  23.928  1.00  0.00     0.065 A 
ATOM     19  O   UNL A   1      33.531  24.583  25.599  1.00  0.00    -0.455 OA
ATOM     20  C   UNL A   1      33.065  27.641  23.554  1.00  0.00     0.016 A 
ATOM     21  C   UNL A   1      33.506  25.890  25.178  1.00  0.00     0.138 A 
ATOM     22  C   UNL A   1      33.524  28.599  24.456  1.00  0.00     0.001 A 
ATOM     23  C   UNL A   1      33.965  26.853  26.077  1.00  0.00     0.048 A 
ATOM     24  C   UNL A   1      33.971  28.205  25.718  1.00  0.00     0.004 A 
ENDBRANCH   5   8
ENDBRANCH   3   4
ENDBRANCH   2   3
ENDBRANCH   1   2
BRANCH   1  25
ATOM     25  N   UNL A   1      39.350  23.747  26.083  1.00  0.00    -0.352 N 
ATOM     26  C   UNL A   1      40.444  24.451  26.543  1.00  0.00     0.251 C 
ATOM     27  H   UNL A   1      39.566  22.932  25.576  1.00  0.00     0.163 HD
ATOM     28  O   UNL A   1      41.560  24.148  26.146  1.00  0.00    -0.269 OA
BRANCH  26  29
ATOM     29  C   UNL A   1      40.281  25.588  27.486  1.00  0.00     0.039 A 
ATOM     30  C   UNL A   1      40.973  26.785  27.310  1.00  0.00     0.014 A 
ATOM     31  C   UNL A   1      39.398  25.459  28.565  1.00  0.00     0.014 A 
ATOM     32  C   UNL A   1      40.942  27.760  28.302  1.00  0.00     0.010 A 
ATOM     33  C   UNL A   1      39.276  26.493  29.503  1.00  0.00     0.010 A 
ATOM     34  C   UNL A   1      40.087  27.634  29.409  1.00  0.00    -0.014 A 
BRANCH  34  35
ATOM     35  C   UNL A   1      40.066  28.713  30.435  1.00  0.00     0.031 A 
ATOM     36  C   UNL A   1      39.060  29.833  30.365  1.00  0.00     0.074 A 
ATOM     37  C   UNL A   1      40.912  28.639  31.482  1.00  0.00     0.049 A 
ATOM     38  N   UNL A   1      38.871  30.829  31.197  1.00  0.00    -0.248 NA
ATOM     39  C   UNL A   1      38.150  29.844  29.209  1.00  0.00     0.031 C 
ATOM     40  C   UNL A   1      41.931  27.603  31.670  1.00  0.00     0.029 A 
ATOM     41  N   UNL A   1      41.029  29.422  32.602  1.00  0.00    -0.354 N 
ATOM     42  C   UNL A   1      37.836  31.586  30.660  1.00  0.00     0.074 A 
ATOM     43  C   UNL A   1      37.464  30.960  29.410  1.00  0.00     0.031 C 
ATOM     44  C   UNL A   1      42.516  27.772  32.865  1.00  0.00     0.029 A 
ATOM     45  C   UNL A   1      41.971  28.968  33.493  1.00  0.00     0.049 A 
ATOM     46  H   UNL A   1      40.490  30.232  32.752  1.00  0.00     0.167 HD
ATOM     47  C   UNL A   1      37.238  32.692  31.168  1.00  0.00     0.037 A 
ATOM     48  C   UNL A   1      42.366  29.466  34.679  1.00  0.00     0.037 A 
ATOM     49  C   UNL A   1      37.603  33.312  32.418  1.00  0.00     0.049 A 
ATOM     50  C   UNL A   1      41.725  30.726  35.187  1.00  0.00     0.074 A 
ATOM     51  C   UNL A   1      37.059  34.433  33.019  1.00  0.00     0.029 A 
ATOM     52  N   UNL A   1      38.608  32.857  33.259  1.00  0.00    -0.354 N 
ATOM     53  N   UNL A   1      40.746  31.425  34.668  1.00  0.00    -0.248 NA
ATOM     54  C   UNL A   1      42.256  31.270  36.444  1.00  0.00     0.031 C 
ATOM     55  C   UNL A   1      37.763  34.683  34.203  1.00  0.00     0.029 A 
ATOM     56  C   UNL A   1      38.712  33.687  34.364  1.00  0.00     0.049 A 
ATOM     57  H   UNL A   1      39.166  32.063  33.095  1.00  0.00     0.167 HD
ATOM     58  C   UNL A   1      40.532  32.482  35.543  1.00  0.00     0.074 A 
ATOM     59  C   UNL A   1      41.463  32.312  36.639  1.00  0.00     0.031 C 
ATOM     60  C   UNL A   1      39.648  33.505  35.445  1.00  0.00     0.037 A 
BRANCH  47  61
ATOM     61  C   UNL A   1      36.134  33.314  30.359  1.00  0.00     0.057 A 
ATOM     62  C   UNL A   1      36.424  34.120  29.250  1.00  0.00     0.134 A 
ATOM     63  C   UNL A   1      34.782  33.129  30.684  1.00  0.00     0.134 A 
ATOM     64  F   UNL A   1      37.695  34.345  28.886  1.00  0.00    -0.206 F 
ATOM     65  C   UNL A   1      35.413  34.716  28.494  1.00  0.00     0.040 A 
ATOM     66  C   UNL A   1      33.762  33.699  29.919  1.00  0.00     0.040 A 
ATOM     67  F   UNL A   1      34.433  32.359  31.724  1.00  0.00    -0.206 F 
ATOM     68  C   UNL A   1      34.077  34.499  28.823  1.00  0.00     0.006 A 
ENDBRANCH  47  61
BRANCH  48  69
ATOM     69  C   UNL A   1      43.433  28.791  35.461  1.00  0.00     0.057 A 
ATOM     70  C   UNL A   1      43.133  27.798  36.400  1.00  0.00     0.134 A 
ATOM     71  C   UNL A   1      44.783  29.103  35.262  1.00  0.00     0.134 A 
ATOM     72  F   UNL A   1      41.859  27.455  36.641  1.00  0.00    -0.206 F 
ATOM     73  C   UNL A   1      44.134  27.142  37.118  1.00  0.00     0.040 A 
ATOM     74  C   UNL A   1      45.797  28.434  35.951  1.00  0.00     0.040 A 
ATOM     75  F   UNL A   1      45.137  30.032  34.362  1.00  0.00    -0.206 F 
ATOM     76  C   UNL A   1      45.472  27.452  36.885  1.00  0.00     0.006 A 
ENDBRANCH  48  69
BRANCH  60  77
ATOM     77  C   UNL A   1      39.638  34.494  36.574  1.00  0.00     0.057 A 
ATOM     78  C   UNL A   1      38.895  34.245  37.734  1.00  0.00     0.134 A 
ATOM     79  C   UNL A   1      40.373  35.686  36.520  1.00  0.00     0.134 A 
ATOM     80  F   UNL A   1      38.163  33.126  37.847  1.00  0.00    -0.206 F 
ATOM     81  C   UNL A   1      38.890  35.140  38.804  1.00  0.00     0.040 A 
ATOM     82  C   UNL A   1      40.400  36.575  37.595  1.00  0.00     0.040 A 
ATOM     83  F   UNL A   1      41.121  35.976  35.444  1.00  0.00    -0.206 F 
ATOM     84  C   UNL A   1      39.653  36.304  38.741  1.00  0.00     0.006 A 
ENDBRANCH  60  77
ENDBRANCH  34  35
ENDBRANCH  26  29
ENDBRANCH   1  25
TORSDOF 10
ENDMDL
MODEL 2
REMARK VINA RESULT:     -12.9      5.639     10.227
REMARK SMILES Cc1cc2c(=O)c3ccccc3oc2c(C(=O)NCCCNC(=O)c2ccc(-c3c4nc(c(-c5c(F)cccc5F)c5ccc([nH]5)c(-c5c(F)cccc5F)c5nc(c(-c6c(F)cccc6F)c6ccc3[nH]6)C=C5)C=C4)cc2)c1C
REMARK SMILES IDX 21 1 20 2 19 3 18 4 16 5 17 6 15 8 1 9 2 10 3 11 79 12 4 13
REMARK SMILES IDX 80 14 5 15 14 16 6 17 7 18 13 19 8 20 12 21 9 22 11 23 10 24
REMARK SMILES IDX 22 25 23 26 24 28 25 29 26 30 78 31 27 32 77 33 28 34 29 35
REMARK SMILES IDX 30 36 71 37 31 38 76 39 70 40 72 41 32 42 75 43 69 44 68 45
REMARK SMILES IDX 33 47 59 48 42 49 58 50 43 51 46 52 57 53 73 54 44 55 45 56
REMARK SMILES IDX 56 58 74 59 47 60 34 61 35 62 40 63 36 64 37 65 39 66 41 67
REMARK SMILES IDX 38 68 60 69 61 70 66 71 62 72 63 73 65 74 67 75 64 76 48 77
REMARK SMILES IDX 49 78 54 79 50 80 51 81 53 82 55 83 52 84
REMARK H PARENT 18 7 22 27 72 46 46 57
REMARK Flexibility Score: inf
ROOT
ATOM      1  C   UNL A   1      34.721  28.956  27.399  1.00  0.00     0.118 C 
ENDROOT
BRANCH   1   2
ATOM      2  C   UNL A   1      33.337  28.892  26.777  1.00  0.00     0.042 C 
BRANCH   2   3
ATOM      3  C   UNL A   1      32.985  30.045  25.828  1.00  0.00     0.118 C 
BRANCH   3   4
ATOM      4  N   UNL A   1      33.239  29.644  24.456  1.00  0.00    -0.352 N 
ATOM      5  C   UNL A   1      32.853  28.622  23.625  1.00  0.00     0.255 C 
ATOM      6  O   UNL A   1      33.546  28.533  22.606  1.00  0.00    -0.269 OA
ATOM      7  H   UNL A   1      33.847  30.271  24.001  1.00  0.00     0.163 HD
BRANCH   5   8
ATOM      8  C   UNL A   1      31.696  27.659  23.792  1.00  0.00     0.086 A 
ATOM      9  C   UNL A   1      27.853  27.166  23.688  1.00  0.00     0.044 C 
ATOM     10  C   UNL A   1      29.330  26.949  23.917  1.00  0.00    -0.046 A 
ATOM     11  C   UNL A   1      29.718  25.744  24.498  1.00  0.00     0.019 A 
ATOM     12  C   UNL A   1      30.307  27.949  23.641  1.00  0.00    -0.032 A 
ATOM     13  C   UNL A   1      31.061  25.481  24.727  1.00  0.00     0.066 A 
ATOM     14  C   UNL A   1      29.777  29.304  23.280  1.00  0.00     0.045 C 
ATOM     15  C   UNL A   1      31.427  24.248  25.441  1.00  0.00     0.200 A 
ATOM     16  C   UNL A   1      32.051  26.387  24.336  1.00  0.00     0.151 A 
ATOM     17  O   UNL A   1      30.579  23.456  25.833  1.00  0.00    -0.288 OA
ATOM     18  C   UNL A   1      32.851  24.025  25.687  1.00  0.00     0.065 A 
ATOM     19  O   UNL A   1      33.391  26.066  24.468  1.00  0.00    -0.455 OA
ATOM     20  C   UNL A   1      33.285  22.910  26.411  1.00  0.00     0.016 A 
ATOM     21  C   UNL A   1      33.755  24.948  25.178  1.00  0.00     0.138 A 
ATOM     22  C   UNL A   1      34.650  22.713  26.615  1.00  0.00     0.001 A 
ATOM     23  C   UNL A   1      35.120  24.747  25.385  1.00  0.00     0.048 A 
ATOM     24  C   UNL A   1      35.566  23.631  26.100  1.00  0.00     0.004 A 
ENDBRANCH   5   8
ENDBRANCH   3   4
ENDBRANCH   2   3
ENDBRANCH   1   2
BRANCH   1  25
ATOM     25  N   UNL A   1      34.836  29.999  28.404  1.00  0.00    -0.352 N 
ATOM     26  C   UNL A   1      35.903  30.355  29.204  1.00  0.00     0.251 C 
ATOM     27  H   UNL A   1      34.023  30.538  28.537  1.00  0.00     0.163 HD
ATOM     28  O   UNL A   1      35.726  31.143  30.122  1.00  0.00    -0.269 OA
BRANCH  26  29
ATOM     29  C   UNL A   1      37.252  29.770  28.984  1.00  0.00     0.039 A 
ATOM     30  C   UNL A   1      37.942  29.125  30.009  1.00  0.00     0.014 A 
ATOM     31  C   UNL A   1      37.833  29.854  27.713  1.00  0.00     0.014 A 
ATOM     32  C   UNL A   1      39.269  28.752  29.827  1.00  0.00     0.010 A 
ATOM     33  C   UNL A   1      39.130  29.368  27.498  1.00  0.00     0.010 A 
ATOM     34  C   UNL A   1      39.882  28.858  28.568  1.00  0.00    -0.014 A 
BRANCH  34  35
ATOM     35  C   UNL A   1      41.296  28.422  28.410  1.00  0.00     0.031 A 
ATOM     36  C   UNL A   1      41.636  26.998  28.051  1.00  0.00     0.074 A 
ATOM     37  C   UNL A   1      42.280  29.338  28.516  1.00  0.00     0.049 A 
ATOM     38  N   UNL A   1      42.811  26.459  27.832  1.00  0.00    -0.248 NA
ATOM     39  C   UNL A   1      40.516  26.054  27.929  1.00  0.00     0.031 C 
ATOM     40  C   UNL A   1      42.084  30.750  28.854  1.00  0.00     0.029 A 
ATOM     41  N   UNL A   1      43.633  29.234  28.315  1.00  0.00    -0.354 N 
ATOM     42  C   UNL A   1      42.571  25.116  27.560  1.00  0.00     0.074 A 
ATOM     43  C   UNL A   1      41.144  24.913  27.682  1.00  0.00     0.031 C 
ATOM     44  C   UNL A   1      43.258  31.393  28.765  1.00  0.00     0.029 A 
ATOM     45  C   UNL A   1      44.301  30.428  28.440  1.00  0.00     0.049 A 
ATOM     46  H   UNL A   1      44.082  28.385  28.101  1.00  0.00     0.167 HD
ATOM     47  C   UNL A   1      43.456  24.145  27.222  1.00  0.00     0.037 A 
ATOM     48  C   UNL A   1      45.610  30.716  28.323  1.00  0.00     0.037 A 
ATOM     49  C   UNL A   1      44.876  24.349  27.092  1.00  0.00     0.049 A 
ATOM     50  C   UNL A   1      46.571  29.607  28.006  1.00  0.00     0.074 A 
ATOM     51  C   UNL A   1      45.855  23.431  26.755  1.00  0.00     0.029 A 
ATOM     52  N   UNL A   1      45.520  25.561  27.293  1.00  0.00    -0.354 N 
ATOM     53  N   UNL A   1      46.326  28.345  27.748  1.00  0.00    -0.248 NA
ATOM     54  C   UNL A   1      47.996  29.963  27.976  1.00  0.00     0.031 C 
ATOM     55  C   UNL A   1      47.097  24.077  26.794  1.00  0.00     0.029 A 
ATOM     56  C   UNL A   1      46.886  25.410  27.106  1.00  0.00     0.049 A 
ATOM     57  H   UNL A   1      45.074  26.405  27.533  1.00  0.00     0.167 HD
ATOM     58  C   UNL A   1      47.563  27.762  27.508  1.00  0.00     0.074 A 
ATOM     59  C   UNL A   1      48.551  28.814  27.622  1.00  0.00     0.031 C 
ATOM     60  C   UNL A   1      47.855  26.469  27.226  1.00  0.00     0.037 A 
BRANCH  47  61
ATOM     61  C   UNL A   1      42.908  22.765  26.987  1.00  0.00     0.057 A 
ATOM     62  C   UNL A   1      42.554  21.941  28.063  1.00  0.00     0.134 A 
ATOM     63  C   UNL A   1      42.745  22.242  25.696  1.00  0.00     0.134 A 
ATOM     64  F   UNL A   1      42.689  22.373  29.326  1.00  0.00    -0.206 F 
ATOM     65  C   UNL A   1      42.056  20.651  27.865  1.00  0.00     0.040 A 
ATOM     66  C   UNL A   1      42.223  20.964  25.485  1.00  0.00     0.040 A 
ATOM     67  F   UNL A   1      43.051  22.982  24.620  1.00  0.00    -0.206 F 
ATOM     68  C   UNL A   1      41.881  20.163  26.572  1.00  0.00     0.006 A 
ENDBRANCH  47  61
BRANCH  48  69
ATOM     69  C   UNL A   1      46.096  32.105  28.525  1.00  0.00     0.057 A 
ATOM     70  C   UNL A   1      46.537  32.549  29.777  1.00  0.00     0.134 A 
ATOM     71  C   UNL A   1      46.159  33.012  27.461  1.00  0.00     0.134 A 
ATOM     72  F   UNL A   1      46.499  31.731  30.838  1.00  0.00    -0.206 F 
ATOM     73  C   UNL A   1      47.019  33.845  29.966  1.00  0.00     0.040 A 
ATOM     74  C   UNL A   1      46.667  34.301  27.629  1.00  0.00     0.040 A 
ATOM     75  F   UNL A   1      45.770  32.641  26.232  1.00  0.00    -0.206 F 
ATOM     76  C   UNL A   1      47.096  34.722  28.886  1.00  0.00     0.006 A 
ENDBRANCH  48  69
BRANCH  60  77
ATOM     77  C   UNL A   1      49.302  26.143  26.993  1.00  0.00     0.057 A 
ATOM     78  C   UNL A   1      49.851  26.215  25.707  1.00  0.00     0.134 A 
ATOM     79  C   UNL A   1      50.155  25.772  28.041  1.00  0.00     0.134 A 
ATOM     80  F   UNL A   1      49.088  26.556  24.658  1.00  0.00    -0.206 F 
ATOM     81  C   UNL A   1      51.198  25.938  25.472  1.00  0.00     0.040 A 
ATOM     82  C   UNL A   1      51.511  25.522  27.824  1.00  0.00     0.040 A 
ATOM     83  F   UNL A   1      49.695  25.703  29.300  1.00  0.00    -0.206 F 
ATOM     84  C   UNL A   1      52.035  25.602  26.535  1.00  0.00     0.006 A 
ENDBRANCH  60  77
ENDBRANCH  34  35
ENDBRANCH  26  29
ENDBRANCH   1  25
TORSDOF 10
ENDMDL
MODEL 3
REMARK VINA RESULT:     -12.9      2.909      7.426
REMARK SMILES Cc1cc2c(=O)c3ccccc3oc2c(C(=O)NCCCNC(=O)c2ccc(-c3c4nc(c(-c5c(F)cccc5F)c5ccc([nH]5)c(-c5c(F)cccc5F)c5nc(c(-c6c(F)cccc6F)c6ccc3[nH]6)C=C5)C=C4)cc2)c1C
REMARK SMILES IDX 21 1 20 2 19 3 18 4 16 5 17 6 15 8 1 9 2 10 3 11 79 12 4 13
REMARK SMILES IDX 80 14 5 15 14 16 6 17 7 18 13 19 8 20 12 21 9 22 11 23 10 24
REMARK SMILES IDX 22 25 23 26 24 28 25 29 26 30 78 31 27 32 77 33 28 34 29 35
REMARK SMILES IDX 30 36 71 37 31 38 76 39 70 40 72 41 32 42 75 43 69 44 68 45
REMARK SMILES IDX 33 47 59 48 42 49 58 50 43 51 46 52 57 53 73 54 44 55 45 56
REMARK SMILES IDX 56 58 74 59 47 60 34 61 35 62 40 63 36 64 37 65 39 66 41 67
REMARK SMILES IDX 38 68 60 69 61 70 66 71 62 72 63 73 65 74 67 75 64 76 48 77
REMARK SMILES IDX 49 78 54 79 50 80 51 81 53 82 55 83 52 84
REMARK H PARENT 18 7 22 27 72 46 46 57
REMARK Flexibility Score: inf
ROOT
ATOM      1  C   UNL A   1      31.974  30.573  26.794  1.00  0.00     0.118 C 
ENDROOT
BRANCH   1   2
ATOM      2  C   UNL A   1      32.154  30.076  25.369  1.00  0.00     0.042 C 
BRANCH   2   3
ATOM      3  C   UNL A   1      33.468  29.335  25.089  1.00  0.00     0.118 C 
BRANCH   3   4
ATOM      4  N   UNL A   1      33.417  28.728  23.772  1.00  0.00    -0.352 N 
ATOM      5  C   UNL A   1      32.737  27.698  23.172  1.00  0.00     0.255 C 
ATOM      6  O   UNL A   1      33.223  27.358  22.087  1.00  0.00    -0.269 OA
ATOM      7  H   UNL A   1      34.031  29.172  23.143  1.00  0.00     0.163 HD
BRANCH   5   8
ATOM      8  C   UNL A   1      31.487  26.989  23.651  1.00  0.00     0.086 A 
ATOM      9  C   UNL A   1      27.618  27.047  23.876  1.00  0.00     0.044 C 
ATOM     10  C   UNL A   1      29.070  26.686  24.081  1.00  0.00    -0.046 A 
ATOM     11  C   UNL A   1      29.352  25.632  24.946  1.00  0.00     0.019 A 
ATOM     12  C   UNL A   1      30.138  27.428  23.497  1.00  0.00    -0.032 A 
ATOM     13  C   UNL A   1      30.666  25.247  25.171  1.00  0.00     0.066 A 
ATOM     14  C   UNL A   1      29.753  28.703  22.809  1.00  0.00     0.045 C 
ATOM     15  C   UNL A   1      30.935  24.204  26.173  1.00  0.00     0.200 A 
ATOM     16  C   UNL A   1      31.725  25.867  24.501  1.00  0.00     0.151 A 
ATOM     17  O   UNL A   1      30.031  23.673  26.807  1.00  0.00    -0.288 OA
ATOM     18  C   UNL A   1      32.335  23.849  26.399  1.00  0.00     0.065 A 
ATOM     19  O   UNL A   1      33.020  25.401  24.647  1.00  0.00    -0.455 OA
ATOM     20  C   UNL A   1      32.687  22.911  27.375  1.00  0.00     0.016 A 
ATOM     21  C   UNL A   1      33.301  24.467  25.614  1.00  0.00     0.138 A 
ATOM     22  C   UNL A   1      34.028  22.580  27.557  1.00  0.00     0.001 A 
ATOM     23  C   UNL A   1      34.642  24.131  25.799  1.00  0.00     0.048 A 
ATOM     24  C   UNL A   1      35.005  23.188  26.767  1.00  0.00     0.004 A 
ENDBRANCH   5   8
ENDBRANCH   3   4
ENDBRANCH   2   3
ENDBRANCH   1   2
BRANCH   1  25
ATOM     25  N   UNL A   1      31.994  32.023  26.889  1.00  0.00    -0.352 N 
ATOM     26  C   UNL A   1      32.897  32.864  27.506  1.00  0.00     0.251 C 
ATOM     27  H   UNL A   1      31.244  32.477  26.442  1.00  0.00     0.163 HD
ATOM     28  O   UNL A   1      32.623  34.049  27.628  1.00  0.00    -0.269 OA
BRANCH  26  29
ATOM     29  C   UNL A   1      34.179  32.345  28.049  1.00  0.00     0.039 A 
ATOM     30  C   UNL A   1      34.338  31.000  28.380  1.00  0.00     0.014 A 
ATOM     31  C   UNL A   1      35.257  33.224  28.214  1.00  0.00     0.014 A 
ATOM     32  C   UNL A   1      35.481  30.579  29.054  1.00  0.00     0.010 A 
ATOM     33  C   UNL A   1      36.455  32.770  28.784  1.00  0.00     0.010 A 
ATOM     34  C   UNL A   1      36.560  31.454  29.258  1.00  0.00    -0.014 A 
BRANCH  34  35
ATOM     35  C   UNL A   1      37.774  30.955  29.960  1.00  0.00     0.031 A 
ATOM     36  C   UNL A   1      38.035  31.301  31.403  1.00  0.00     0.074 A 
ATOM     37  C   UNL A   1      38.610  30.120  29.311  1.00  0.00     0.049 A 
ATOM     38  N   UNL A   1      39.019  30.916  32.181  1.00  0.00    -0.248 NA
ATOM     39  C   UNL A   1      37.074  32.199  32.060  1.00  0.00     0.031 C 
ATOM     40  C   UNL A   1      38.468  29.703  27.913  1.00  0.00     0.029 A 
ATOM     41  N   UNL A   1      39.721  29.441  29.744  1.00  0.00    -0.354 N 
ATOM     42  C   UNL A   1      38.800  31.534  33.408  1.00  0.00     0.074 A 
ATOM     43  C   UNL A   1      37.616  32.351  33.260  1.00  0.00     0.031 C 
ATOM     44  C   UNL A   1      39.406  28.788  27.628  1.00  0.00     0.029 A 
ATOM     45  C   UNL A   1      40.262  28.609  28.793  1.00  0.00     0.049 A 
ATOM     46  H   UNL A   1      40.094  29.540  30.650  1.00  0.00     0.167 HD
ATOM     47  C   UNL A   1      39.512  31.419  34.557  1.00  0.00     0.037 A 
ATOM     48  C   UNL A   1      41.337  27.802  28.846  1.00  0.00     0.037 A 
ATOM     49  C   UNL A   1      40.687  30.599  34.707  1.00  0.00     0.049 A 
ATOM     50  C   UNL A   1      42.138  27.742  30.114  1.00  0.00     0.074 A 
ATOM     51  C   UNL A   1      41.478  30.415  35.827  1.00  0.00     0.029 A 
ATOM     52  N   UNL A   1      41.241  29.823  33.699  1.00  0.00    -0.354 N 
ATOM     53  N   UNL A   1      41.915  28.329  31.265  1.00  0.00    -0.248 NA
ATOM     54  C   UNL A   1      43.350  26.912  30.086  1.00  0.00     0.031 C 
ATOM     55  C   UNL A   1      42.534  29.561  35.486  1.00  0.00     0.029 A 
ATOM     56  C   UNL A   1      42.373  29.174  34.167  1.00  0.00     0.049 A 
ATOM     57  H   UNL A   1      40.883  29.745  32.785  1.00  0.00     0.167 HD
ATOM     58  C   UNL A   1      42.947  27.927  32.101  1.00  0.00     0.074 A 
ATOM     59  C   UNL A   1      43.778  27.022  31.333  1.00  0.00     0.031 C 
ATOM     60  C   UNL A   1      43.190  28.279  33.387  1.00  0.00     0.037 A 
BRANCH  47  61
ATOM     61  C   UNL A   1      39.042  32.217  35.742  1.00  0.00     0.057 A 
ATOM     62  C   UNL A   1      39.441  33.549  35.912  1.00  0.00     0.134 A 
ATOM     63  C   UNL A   1      38.208  31.664  36.724  1.00  0.00     0.134 A 
ATOM     64  F   UNL A   1      40.244  34.140  35.015  1.00  0.00    -0.206 F 
ATOM     65  C   UNL A   1      39.027  34.302  37.013  1.00  0.00     0.040 A 
ATOM     66  C   UNL A   1      37.766  32.416  37.815  1.00  0.00     0.040 A 
ATOM     67  F   UNL A   1      37.778  30.399  36.616  1.00  0.00    -0.206 F 
ATOM     68  C   UNL A   1      38.179  33.738  37.964  1.00  0.00     0.006 A 
ENDBRANCH  47  61
BRANCH  48  69
ATOM     69  C   UNL A   1      41.736  27.002  27.660  1.00  0.00     0.057 A 
ATOM     70  C   UNL A   1      41.349  25.664  27.518  1.00  0.00     0.134 A 
ATOM     71  C   UNL A   1      42.488  27.569  26.624  1.00  0.00     0.134 A 
ATOM     72  F   UNL A   1      40.631  25.061  28.476  1.00  0.00    -0.206 F 
ATOM     73  C   UNL A   1      41.699  24.916  26.393  1.00  0.00     0.040 A 
ATOM     74  C   UNL A   1      42.819  26.841  25.479  1.00  0.00     0.040 A 
ATOM     75  F   UNL A   1      42.872  28.852  26.691  1.00  0.00    -0.206 F 
ATOM     76  C   UNL A   1      42.427  25.510  25.364  1.00  0.00     0.006 A 
ENDBRANCH  48  69
BRANCH  60  77
ATOM     77  C   UNL A   1      44.389  27.653  34.040  1.00  0.00     0.057 A 
ATOM     78  C   UNL A   1      44.285  26.414  34.683  1.00  0.00     0.134 A 
ATOM     79  C   UNL A   1      45.647  28.270  34.022  1.00  0.00     0.134 A 
ATOM     80  F   UNL A   1      43.107  25.774  34.743  1.00  0.00    -0.206 F 
ATOM     81  C   UNL A   1      45.391  25.805  35.276  1.00  0.00     0.040 A 
ATOM     82  C   UNL A   1      46.767  27.657  34.585  1.00  0.00     0.040 A 
ATOM     83  F   UNL A   1      45.818  29.449  33.406  1.00  0.00    -0.206 F 
ATOM     84  C   UNL A   1      46.639  26.421  35.218  1.00  0.00     0.006 A 
ENDBRANCH  60  77
ENDBRANCH  34  35
ENDBRANCH  26  29
ENDBRANCH   1  25
TORSDOF 10
ENDMDL
