MODEL 1
REMARK VINA RESULT:     -12.6      0.000      0.000
REMARK SMILES COc1c[nH]c(C[N@H+]2CCC[C@@H](c3ccc(C(=O)NCCCNC(=O)c4ccc(-c5c6nc(c(-c7c(F)cccc7F)c7ccc([nH]7)c(-c7c(F)cccc7F)c7nc(c(-c8c(F)cccc8F)c8ccc5[nH]8)C=C7)C=C6)cc4)cc3)C2)cc1=O
REMARK SMILES IDX 20 1 19 2 17 3 18 4 16 6 13 7 14 8 81 9 15 10 80 11 12 12
REMARK SMILES IDX 8 13 9 14 82 15 10 17 11 18 7 19 6 20 3 21 4 22 84 23 5 24
REMARK SMILES IDX 83 25 85 26 2 28 1 29 21 30 22 31 23 32 24 33 25 35 26 36
REMARK SMILES IDX 27 37 79 38 28 39 78 40 29 41 30 42 31 43 72 44 32 45 77 46
REMARK SMILES IDX 71 47 73 48 33 49 76 50 70 51 69 52 34 54 60 55 43 56 59 57
REMARK SMILES IDX 44 58 47 59 58 60 74 61 45 62 46 63 57 65 75 66 48 67 35 68
REMARK SMILES IDX 36 69 41 70 37 71 38 72 40 73 42 74 39 75 61 76 62 77 67 78
REMARK SMILES IDX 63 79 64 80 66 81 68 82 65 83 49 84 50 85 55 86 51 87 52 88
REMARK SMILES IDX 54 89 56 90 53 91
REMARK H PARENT 19 5 8 16 5 27 23 34 73 53 47 64
REMARK Flexibility Score: inf
ROOT
ATOM      1  C   UNL A   1      41.394  19.591  27.583  1.00  0.00     0.118 C 
ENDROOT
BRANCH   1   2
ATOM      2  N   UNL A   1      41.722  20.935  28.024  1.00  0.00    -0.352 N 
ATOM      3  C   UNL A   1      41.097  22.138  27.811  1.00  0.00     0.251 C 
ATOM      4  O   UNL A   1      41.546  23.132  28.379  1.00  0.00    -0.269 OA
ATOM      5  H   UNL A   1      42.537  20.993  28.572  1.00  0.00     0.163 HD
BRANCH   3   6
ATOM      6  C   UNL A   1      39.870  22.267  26.981  1.00  0.00     0.039 A 
ATOM      7  C   UNL A   1      37.460  22.621  25.557  1.00  0.00    -0.039 A 
ATOM      8  C   UNL A   1      38.021  23.678  26.290  1.00  0.00     0.005 A 
ATOM      9  C   UNL A   1      38.167  21.417  25.477  1.00  0.00     0.005 A 
ATOM     10  C   UNL A   1      39.208  23.498  27.004  1.00  0.00     0.014 A 
ATOM     11  C   UNL A   1      39.371  21.251  26.165  1.00  0.00     0.014 A 
BRANCH   7  12
ATOM     12  C   UNL A   1      36.108  22.738  24.874  1.00  0.00     0.074 C 
ATOM     13  N   UNL A   1      33.745  21.894  24.897  1.00  0.00    -0.329 N 
ATOM     14  C   UNL A   1      33.239  23.274  24.891  1.00  0.00     0.262 C 
ATOM     15  C   UNL A   1      35.065  21.811  25.534  1.00  0.00     0.270 C 
ATOM     16  H   UNL A   1      33.870  21.611  23.924  1.00  0.00     0.348 HD
ATOM     17  C   UNL A   1      34.216  24.234  24.207  1.00  0.00     0.062 C 
ATOM     18  C   UNL A   1      35.598  24.183  24.853  1.00  0.00     0.020 C 
BRANCH  13  19
ATOM     19  C   UNL A   1      32.772  20.941  25.472  1.00  0.00     0.317 C 
BRANCH  19  20
ATOM     20  C   UNL A   1      33.001  19.467  25.156  1.00  0.00     0.074 A 
ATOM     21  C   UNL A   1      33.080  16.638  24.746  1.00  0.00     0.182 A 
ATOM     22  C   UNL A   1      32.888  17.196  25.949  1.00  0.00     0.133 A 
ATOM     23  C   UNL A   1      33.358  17.595  23.612  1.00  0.00     0.223 A 
ATOM     24  N   UNL A   1      32.909  18.544  26.181  1.00  0.00    -0.357 N 
ATOM     25  C   UNL A   1      33.262  19.055  23.901  1.00  0.00     0.083 A 
ATOM     26  O   UNL A   1      33.627  17.230  22.472  1.00  0.00    -0.286 OA
ATOM     27  H   UNL A   1      32.856  18.867  27.109  1.00  0.00     0.166 HD
BRANCH  21  28
ATOM     28  O   UNL A   1      32.951  15.271  24.592  1.00  0.00    -0.491 OA
ATOM     29  C   UNL A   1      32.535  14.580  25.762  1.00  0.00     0.278 C 
ENDBRANCH  21  28
ENDBRANCH  19  20
ENDBRANCH  13  19
ENDBRANCH   7  12
ENDBRANCH   3   6
ENDBRANCH   1   2
BRANCH   1  30
ATOM     30  C   UNL A   1      42.555  18.962  26.815  1.00  0.00     0.042 C 
BRANCH  30  31
ATOM     31  C   UNL A   1      42.599  19.363  25.347  1.00  0.00     0.118 C 
BRANCH  31  32
ATOM     32  N   UNL A   1      43.825  18.926  24.698  1.00  0.00    -0.352 N 
ATOM     33  C   UNL A   1      44.924  19.654  24.316  1.00  0.00     0.251 C 
ATOM     34  H   UNL A   1      43.873  17.963  24.501  1.00  0.00     0.163 HD
ATOM     35  O   UNL A   1      45.767  19.140  23.587  1.00  0.00    -0.269 OA
BRANCH  33  36
ATOM     36  C   UNL A   1      45.096  21.054  24.765  1.00  0.00     0.039 A 
ATOM     37  C   UNL A   1      44.872  22.085  23.846  1.00  0.00     0.014 A 
ATOM     38  C   UNL A   1      45.524  21.356  26.061  1.00  0.00     0.014 A 
ATOM     39  C   UNL A   1      45.032  23.416  24.240  1.00  0.00     0.010 A 
ATOM     40  C   UNL A   1      45.614  22.684  26.472  1.00  0.00     0.010 A 
ATOM     41  C   UNL A   1      45.381  23.725  25.563  1.00  0.00    -0.014 A 
BRANCH  41  42
ATOM     42  C   UNL A   1      45.525  25.133  26.010  1.00  0.00     0.031 A 
ATOM     43  C   UNL A   1      46.870  25.803  25.980  1.00  0.00     0.074 A 
ATOM     44  C   UNL A   1      44.455  25.789  26.497  1.00  0.00     0.049 A 
ATOM     45  N   UNL A   1      47.206  27.003  26.381  1.00  0.00    -0.248 NA
ATOM     46  C   UNL A   1      47.991  25.008  25.457  1.00  0.00     0.031 C 
ATOM     47  C   UNL A   1      43.105  25.236  26.615  1.00  0.00     0.029 A 
ATOM     48  N   UNL A   1      44.338  27.062  26.994  1.00  0.00    -0.354 N 
ATOM     49  C   UNL A   1      48.578  27.098  26.179  1.00  0.00     0.074 A 
ATOM     50  C   UNL A   1      49.018  25.819  25.664  1.00  0.00     0.031 C 
ATOM     51  C   UNL A   1      42.290  26.174  27.120  1.00  0.00     0.029 A 
ATOM     52  C   UNL A   1      43.064  27.380  27.395  1.00  0.00     0.049 A 
ATOM     53  H   UNL A   1      45.095  27.689  27.055  1.00  0.00     0.167 HD
ATOM     54  C   UNL A   1      49.393  28.160  26.386  1.00  0.00     0.037 A 
ATOM     55  C   UNL A   1      42.577  28.517  27.925  1.00  0.00     0.037 A 
ATOM     56  C   UNL A   1      48.947  29.440  26.870  1.00  0.00     0.049 A 
ATOM     57  C   UNL A   1      43.500  29.680  28.149  1.00  0.00     0.074 A 
ATOM     58  C   UNL A   1      49.679  30.601  27.040  1.00  0.00     0.029 A 
ATOM     59  N   UNL A   1      47.648  29.723  27.266  1.00  0.00    -0.354 N 
ATOM     60  N   UNL A   1      44.781  29.780  27.891  1.00  0.00    -0.248 NA
ATOM     61  C   UNL A   1      42.908  30.890  28.737  1.00  0.00     0.031 C 
ATOM     62  C   UNL A   1      48.831  31.577  27.579  1.00  0.00     0.029 A 
ATOM     63  C   UNL A   1      47.562  31.034  27.704  1.00  0.00     0.049 A 
ATOM     64  H   UNL A   1      46.898  29.086  27.239  1.00  0.00     0.167 HD
ATOM     65  C   UNL A   1      45.144  31.069  28.259  1.00  0.00     0.074 A 
ATOM     66  C   UNL A   1      43.945  31.716  28.751  1.00  0.00     0.031 C 
ATOM     67  C   UNL A   1      46.361  31.662  28.192  1.00  0.00     0.037 A 
BRANCH  54  68
ATOM     68  C   UNL A   1      50.853  27.970  26.092  1.00  0.00     0.057 A 
ATOM     69  C   UNL A   1      51.365  28.057  24.790  1.00  0.00     0.134 A 
ATOM     70  C   UNL A   1      51.760  27.700  27.125  1.00  0.00     0.134 A 
ATOM     71  F   UNL A   1      50.549  28.300  23.754  1.00  0.00    -0.206 F 
ATOM     72  C   UNL A   1      52.718  27.844  24.522  1.00  0.00     0.040 A 
ATOM     73  C   UNL A   1      53.120  27.513  26.872  1.00  0.00     0.040 A 
ATOM     74  F   UNL A   1      51.339  27.611  28.395  1.00  0.00    -0.206 F 
ATOM     75  C   UNL A   1      53.601  27.575  25.565  1.00  0.00     0.006 A 
ENDBRANCH  54  68
BRANCH  55  76
ATOM     76  C   UNL A   1      41.131  28.621  28.239  1.00  0.00     0.057 A 
ATOM     77  C   UNL A   1      40.216  29.024  27.260  1.00  0.00     0.134 A 
ATOM     78  C   UNL A   1      40.626  28.299  29.504  1.00  0.00     0.134 A 
ATOM     79  F   UNL A   1      40.643  29.359  26.034  1.00  0.00    -0.206 F 
ATOM     80  C   UNL A   1      38.850  29.113  27.530  1.00  0.00     0.040 A 
ATOM     81  C   UNL A   1      39.261  28.364  29.782  1.00  0.00     0.040 A 
ATOM     82  F   UNL A   1      41.453  27.898  30.481  1.00  0.00    -0.206 F 
ATOM     83  C   UNL A   1      38.368  28.775  28.793  1.00  0.00     0.006 A 
ENDBRANCH  55  76
BRANCH  67  84
ATOM     84  C   UNL A   1      46.448  33.092  28.637  1.00  0.00     0.057 A 
ATOM     85  C   UNL A   1      46.216  34.155  27.756  1.00  0.00     0.134 A 
ATOM     86  C   UNL A   1      46.735  33.406  29.972  1.00  0.00     0.134 A 
ATOM     87  F   UNL A   1      45.952  33.921  26.462  1.00  0.00    -0.206 F 
ATOM     88  C   UNL A   1      46.286  35.483  28.183  1.00  0.00     0.040 A 
ATOM     89  C   UNL A   1      46.784  34.728  30.415  1.00  0.00     0.040 A 
ATOM     90  F   UNL A   1      46.961  32.433  30.867  1.00  0.00    -0.206 F 
ATOM     91  C   UNL A   1      46.564  35.771  29.518  1.00  0.00     0.006 A 
ENDBRANCH  67  84
ENDBRANCH  41  42
ENDBRANCH  33  36
ENDBRANCH  31  32
ENDBRANCH  30  31
ENDBRANCH   1  30
TORSDOF 14
ENDMDL
MODEL 2
REMARK VINA RESULT:     -12.4      0.511      6.037
REMARK SMILES COc1c[nH]c(C[N@H+]2CCC[C@@H](c3ccc(C(=O)NCCCNC(=O)c4ccc(-c5c6nc(c(-c7c(F)cccc7F)c7ccc([nH]7)c(-c7c(F)cccc7F)c7nc(c(-c8c(F)cccc8F)c8ccc5[nH]8)C=C7)C=C6)cc4)cc3)C2)cc1=O
REMARK SMILES IDX 20 1 19 2 17 3 18 4 16 6 13 7 14 8 81 9 15 10 80 11 12 12
REMARK SMILES IDX 8 13 9 14 82 15 10 17 11 18 7 19 6 20 3 21 4 22 84 23 5 24
REMARK SMILES IDX 83 25 85 26 2 28 1 29 21 30 22 31 23 32 24 33 25 35 26 36
REMARK SMILES IDX 27 37 79 38 28 39 78 40 29 41 30 42 31 43 72 44 32 45 77 46
REMARK SMILES IDX 71 47 73 48 33 49 76 50 70 51 69 52 34 54 60 55 43 56 59 57
REMARK SMILES IDX 44 58 47 59 58 60 74 61 45 62 46 63 57 65 75 66 48 67 35 68
REMARK SMILES IDX 36 69 41 70 37 71 38 72 40 73 42 74 39 75 61 76 62 77 67 78
REMARK SMILES IDX 63 79 64 80 66 81 68 82 65 83 49 84 50 85 55 86 51 87 52 88
REMARK SMILES IDX 54 89 56 90 53 91
REMARK H PARENT 19 5 8 16 5 27 23 34 73 53 47 64
REMARK Flexibility Score: inf
ROOT
ATOM      1  C   UNL A   1      41.617  19.764  25.970  1.00  0.00     0.118 C 
ENDROOT
BRANCH   1   2
ATOM      2  N   UNL A   1      41.757  20.822  26.954  1.00  0.00    -0.352 N 
ATOM      3  C   UNL A   1      40.935  21.872  27.281  1.00  0.00     0.251 C 
ATOM      4  O   UNL A   1      41.259  22.587  28.228  1.00  0.00    -0.269 OA
ATOM      5  H   UNL A   1      42.588  20.780  27.478  1.00  0.00     0.163 HD
BRANCH   3   6
ATOM      6  C   UNL A   1      39.649  22.130  26.582  1.00  0.00     0.039 A 
ATOM      7  C   UNL A   1      37.152  22.732  25.414  1.00  0.00    -0.039 A 
ATOM      8  C   UNL A   1      37.875  23.716  26.105  1.00  0.00     0.005 A 
ATOM      9  C   UNL A   1      37.736  21.473  25.241  1.00  0.00     0.005 A 
ATOM     10  C   UNL A   1      39.106  23.413  26.693  1.00  0.00     0.014 A 
ATOM     11  C   UNL A   1      38.982  21.184  25.801  1.00  0.00     0.014 A 
BRANCH   7  12
ATOM     12  C   UNL A   1      35.755  22.985  24.873  1.00  0.00     0.074 C 
ATOM     13  N   UNL A   1      33.375  22.193  24.952  1.00  0.00    -0.329 N 
ATOM     14  C   UNL A   1      32.914  23.565  25.212  1.00  0.00     0.262 C 
ATOM     15  C   UNL A   1      34.738  21.982  25.456  1.00  0.00     0.270 C 
ATOM     16  H   UNL A   1      33.414  22.072  23.939  1.00  0.00     0.348 HD
ATOM     17  C   UNL A   1      33.865  24.606  24.616  1.00  0.00     0.062 C 
ATOM     18  C   UNL A   1      35.292  24.423  25.129  1.00  0.00     0.020 C 
BRANCH  13  19
ATOM     19  C   UNL A   1      32.420  21.178  25.442  1.00  0.00     0.317 C 
BRANCH  19  20
ATOM     20  C   UNL A   1      32.722  19.730  25.070  1.00  0.00     0.074 A 
ATOM     21  C   UNL A   1      32.988  16.918  24.619  1.00  0.00     0.182 A 
ATOM     22  C   UNL A   1      32.983  17.464  25.843  1.00  0.00     0.133 A 
ATOM     23  C   UNL A   1      32.947  17.890  23.464  1.00  0.00     0.223 A 
ATOM     24  N   UNL A   1      32.920  18.809  26.082  1.00  0.00    -0.357 N 
ATOM     25  C   UNL A   1      32.771  19.336  23.784  1.00  0.00     0.083 A 
ATOM     26  O   UNL A   1      33.022  17.545  22.289  1.00  0.00    -0.286 OA
ATOM     27  H   UNL A   1      33.019  19.132  27.007  1.00  0.00     0.166 HD
BRANCH  21  28
ATOM     28  O   UNL A   1      32.961  15.544  24.476  1.00  0.00    -0.491 OA
ATOM     29  C   UNL A   1      32.530  14.838  25.632  1.00  0.00     0.278 C 
ENDBRANCH  21  28
ENDBRANCH  19  20
ENDBRANCH  13  19
ENDBRANCH   7  12
ENDBRANCH   3   6
ENDBRANCH   1   2
BRANCH   1  30
ATOM     30  C   UNL A   1      42.414  18.525  26.372  1.00  0.00     0.042 C 
BRANCH  30  31
ATOM     31  C   UNL A   1      43.915  18.677  26.166  1.00  0.00     0.118 C 
BRANCH  31  32
ATOM     32  N   UNL A   1      44.279  18.651  24.759  1.00  0.00    -0.352 N 
ATOM     33  C   UNL A   1      44.608  19.685  23.918  1.00  0.00     0.251 C 
ATOM     34  H   UNL A   1      44.290  17.758  24.346  1.00  0.00     0.163 HD
ATOM     35  O   UNL A   1      44.674  19.484  22.709  1.00  0.00    -0.269 OA
BRANCH  33  36
ATOM     36  C   UNL A   1      44.872  21.040  24.453  1.00  0.00     0.039 A 
ATOM     37  C   UNL A   1      44.548  22.147  23.662  1.00  0.00     0.014 A 
ATOM     38  C   UNL A   1      45.480  21.225  25.698  1.00  0.00     0.014 A 
ATOM     39  C   UNL A   1      44.790  23.438  24.139  1.00  0.00     0.010 A 
ATOM     40  C   UNL A   1      45.656  22.513  26.201  1.00  0.00     0.010 A 
ATOM     41  C   UNL A   1      45.324  23.630  25.422  1.00  0.00    -0.014 A 
BRANCH  41  42
ATOM     42  C   UNL A   1      45.560  24.993  25.960  1.00  0.00     0.031 A 
ATOM     43  C   UNL A   1      44.423  25.780  26.550  1.00  0.00     0.074 A 
ATOM     44  C   UNL A   1      46.783  25.545  25.863  1.00  0.00     0.049 A 
ATOM     45  N   UNL A   1      44.417  27.003  27.017  1.00  0.00    -0.248 NA
ATOM     46  C   UNL A   1      43.113  25.113  26.595  1.00  0.00     0.031 C 
ATOM     47  C   UNL A   1      47.958  24.899  25.275  1.00  0.00     0.029 A 
ATOM     48  N   UNL A   1      47.239  26.780  26.249  1.00  0.00    -0.354 N 
ATOM     49  C   UNL A   1      43.103  27.259  27.390  1.00  0.00     0.074 A 
ATOM     50  C   UNL A   1      42.332  26.082  27.051  1.00  0.00     0.031 C 
ATOM     51  C   UNL A   1      49.007  25.731  25.368  1.00  0.00     0.029 A 
ATOM     52  C   UNL A   1      48.573  26.979  25.987  1.00  0.00     0.049 A 
ATOM     53  H   UNL A   1      46.666  27.458  26.675  1.00  0.00     0.167 HD
ATOM     54  C   UNL A   1      42.590  28.366  27.978  1.00  0.00     0.037 A 
ATOM     55  C   UNL A   1      49.355  28.049  26.220  1.00  0.00     0.037 A 
ATOM     56  C   UNL A   1      43.365  29.523  28.340  1.00  0.00     0.049 A 
ATOM     57  C   UNL A   1      48.763  29.267  26.870  1.00  0.00     0.074 A 
ATOM     58  C   UNL A   1      42.955  30.663  29.008  1.00  0.00     0.029 A 
ATOM     59  N   UNL A   1      44.714  29.687  28.058  1.00  0.00    -0.354 N 
ATOM     60  N   UNL A   1      47.535  29.471  27.278  1.00  0.00    -0.248 NA
ATOM     61  C   UNL A   1      49.669  30.403  27.091  1.00  0.00     0.031 C 
ATOM     62  C   UNL A   1      44.046  31.536  29.093  1.00  0.00     0.029 A 
ATOM     63  C   UNL A   1      45.146  30.921  28.516  1.00  0.00     0.049 A 
ATOM     64  H   UNL A   1      45.280  29.025  27.600  1.00  0.00     0.167 HD
ATOM     65  C   UNL A   1      47.523  30.745  27.829  1.00  0.00     0.074 A 
ATOM     66  C   UNL A   1      48.871  31.264  27.708  1.00  0.00     0.031 C 
ATOM     67  C   UNL A   1      46.490  31.422  28.387  1.00  0.00     0.037 A 
BRANCH  54  68
ATOM     68  C   UNL A   1      41.115  28.372  28.256  1.00  0.00     0.057 A 
ATOM     69  C   UNL A   1      40.184  28.832  27.314  1.00  0.00     0.134 A 
ATOM     70  C   UNL A   1      40.617  27.909  29.481  1.00  0.00     0.134 A 
ATOM     71  F   UNL A   1      40.594  29.300  26.126  1.00  0.00    -0.206 F 
ATOM     72  C   UNL A   1      38.817  28.867  27.594  1.00  0.00     0.040 A 
ATOM     73  C   UNL A   1      39.249  27.914  29.762  1.00  0.00     0.040 A 
ATOM     74  F   UNL A   1      41.451  27.449  30.425  1.00  0.00    -0.206 F 
ATOM     75  C   UNL A   1      38.346  28.403  28.821  1.00  0.00     0.006 A 
ENDBRANCH  54  68
BRANCH  55  76
ATOM     76  C   UNL A   1      50.796  27.994  25.875  1.00  0.00     0.057 A 
ATOM     77  C   UNL A   1      51.221  28.188  24.555  1.00  0.00     0.134 A 
ATOM     78  C   UNL A   1      51.779  27.773  26.846  1.00  0.00     0.134 A 
ATOM     79  F   UNL A   1      50.324  28.388  23.580  1.00  0.00    -0.206 F 
ATOM     80  C   UNL A   1      52.573  28.155  24.212  1.00  0.00     0.040 A 
ATOM     81  C   UNL A   1      53.136  27.758  26.520  1.00  0.00     0.040 A 
ATOM     82  F   UNL A   1      51.434  27.589  28.129  1.00  0.00    -0.206 F 
ATOM     83  C   UNL A   1      53.536  27.947  25.198  1.00  0.00     0.006 A 
ENDBRANCH  55  76
BRANCH  67  84
ATOM     84  C   UNL A   1      46.785  32.788  28.933  1.00  0.00     0.057 A 
ATOM     85  C   UNL A   1      47.225  32.978  30.248  1.00  0.00     0.134 A 
ATOM     86  C   UNL A   1      46.658  33.922  28.121  1.00  0.00     0.134 A 
ATOM     87  F   UNL A   1      47.353  31.934  31.081  1.00  0.00    -0.206 F 
ATOM     88  C   UNL A   1      47.511  34.252  30.744  1.00  0.00     0.040 A 
ATOM     89  C   UNL A   1      46.963  35.198  28.598  1.00  0.00     0.040 A 
ATOM     90  F   UNL A   1      46.247  33.807  26.849  1.00  0.00    -0.206 F 
ATOM     91  C   UNL A   1      47.387  35.366  29.914  1.00  0.00     0.006 A 
ENDBRANCH  67  84
ENDBRANCH  41  42
ENDBRANCH  33  36
ENDBRANCH  31  32
ENDBRANCH  30  31
ENDBRANCH   1  30
TORSDOF 14
ENDMDL
MODEL 3
REMARK VINA RESULT:     -12.4      7.772     12.827
REMARK SMILES COc1c[nH]c(C[N@H+]2CCC[C@@H](c3ccc(C(=O)NCCCNC(=O)c4ccc(-c5c6nc(c(-c7c(F)cccc7F)c7ccc([nH]7)c(-c7c(F)cccc7F)c7nc(c(-c8c(F)cccc8F)c8ccc5[nH]8)C=C7)C=C6)cc4)cc3)C2)cc1=O
REMARK SMILES IDX 20 1 19 2 17 3 18 4 16 6 13 7 14 8 81 9 15 10 80 11 12 12
REMARK SMILES IDX 8 13 9 14 82 15 10 17 11 18 7 19 6 20 3 21 4 22 84 23 5 24
REMARK SMILES IDX 83 25 85 26 2 28 1 29 21 30 22 31 23 32 24 33 25 35 26 36
REMARK SMILES IDX 27 37 79 38 28 39 78 40 29 41 30 42 31 43 72 44 32 45 77 46
REMARK SMILES IDX 71 47 73 48 33 49 76 50 70 51 69 52 34 54 60 55 43 56 59 57
REMARK SMILES IDX 44 58 47 59 58 60 74 61 45 62 46 63 57 65 75 66 48 67 35 68
REMARK SMILES IDX 36 69 41 70 37 71 38 72 40 73 42 74 39 75 61 76 62 77 67 78
REMARK SMILES IDX 63 79 64 80 66 81 68 82 65 83 49 84 50 85 55 86 51 87 52 88
REMARK SMILES IDX 54 89 56 90 53 91
REMARK H PARENT 19 5 8 16 5 27 23 34 73 53 47 64
REMARK Flexibility Score: inf
ROOT
ATOM      1  C   UNL A   1      34.324  35.027  27.794  1.00  0.00     0.118 C 
ENDROOT
BRANCH   1   2
ATOM      2  N   UNL A   1      35.580  34.463  28.254  1.00  0.00    -0.352 N 
ATOM      3  C   UNL A   1      36.026  33.166  28.311  1.00  0.00     0.251 C 
ATOM      4  O   UNL A   1      37.184  32.968  28.673  1.00  0.00    -0.269 OA
ATOM      5  H   UNL A   1      36.226  35.128  28.584  1.00  0.00     0.163 HD
BRANCH   3   6
ATOM      6  C   UNL A   1      35.187  32.013  27.891  1.00  0.00     0.039 A 
ATOM      7  C   UNL A   1      33.749  29.766  26.972  1.00  0.00    -0.039 A 
ATOM      8  C   UNL A   1      35.121  29.674  27.248  1.00  0.00     0.005 A 
ATOM      9  C   UNL A   1      33.093  30.971  27.246  1.00  0.00     0.005 A 
ATOM     10  C   UNL A   1      35.835  30.790  27.692  1.00  0.00     0.014 A 
ATOM     11  C   UNL A   1      33.803  32.075  27.723  1.00  0.00     0.014 A 
BRANCH   7  12
ATOM     12  C   UNL A   1      32.966  28.613  26.367  1.00  0.00     0.074 C 
ATOM     13  N   UNL A   1      31.968  27.736  24.239  1.00  0.00    -0.329 N 
ATOM     14  C   UNL A   1      32.629  26.439  24.448  1.00  0.00     0.262 C 
ATOM     15  C   UNL A   1      32.727  28.830  24.858  1.00  0.00     0.270 C 
ATOM     16  H   UNL A   1      31.066  27.698  24.713  1.00  0.00     0.348 HD
ATOM     17  C   UNL A   1      32.853  26.150  25.935  1.00  0.00     0.062 C 
ATOM     18  C   UNL A   1      33.650  27.264  26.610  1.00  0.00     0.020 C 
BRANCH  13  19
ATOM     19  C   UNL A   1      31.663  27.986  22.814  1.00  0.00     0.317 C 
BRANCH  19  20
ATOM     20  C   UNL A   1      30.494  28.922  22.527  1.00  0.00     0.074 A 
ATOM     21  C   UNL A   1      28.382  30.614  21.602  1.00  0.00     0.182 A 
ATOM     22  C   UNL A   1      29.653  30.744  21.196  1.00  0.00     0.133 A 
ATOM     23  C   UNL A   1      28.134  29.575  22.668  1.00  0.00     0.223 A 
ATOM     24  N   UNL A   1      30.690  29.989  21.670  1.00  0.00    -0.357 N 
ATOM     25  C   UNL A   1      29.281  28.709  23.070  1.00  0.00     0.083 A 
ATOM     26  O   UNL A   1      27.039  29.392  23.191  1.00  0.00    -0.286 OA
ATOM     27  H   UNL A   1      31.607  30.215  21.392  1.00  0.00     0.166 HD
BRANCH  21  28
ATOM     28  O   UNL A   1      27.386  31.358  20.999  1.00  0.00    -0.491 OA
ATOM     29  C   UNL A   1      27.753  32.696  20.689  1.00  0.00     0.278 C 
ENDBRANCH  21  28
ENDBRANCH  19  20
ENDBRANCH  13  19
ENDBRANCH   7  12
ENDBRANCH   3   6
ENDBRANCH   1   2
BRANCH   1  30
ATOM     30  C   UNL A   1      33.683  35.902  28.870  1.00  0.00     0.042 C 
BRANCH  30  31
ATOM     31  C   UNL A   1      32.829  35.117  29.858  1.00  0.00     0.118 C 
BRANCH  31  32
ATOM     32  N   UNL A   1      32.444  35.923  31.006  1.00  0.00    -0.352 N 
ATOM     33  C   UNL A   1      32.912  35.893  32.296  1.00  0.00     0.251 C 
ATOM     34  H   UNL A   1      31.741  36.589  30.832  1.00  0.00     0.163 HD
ATOM     35  O   UNL A   1      32.310  36.504  33.173  1.00  0.00    -0.269 OA
BRANCH  33  36
ATOM     36  C   UNL A   1      34.129  35.122  32.641  1.00  0.00     0.039 A 
ATOM     37  C   UNL A   1      33.979  33.848  33.199  1.00  0.00     0.014 A 
ATOM     38  C   UNL A   1      35.406  35.662  32.467  1.00  0.00     0.014 A 
ATOM     39  C   UNL A   1      35.109  33.100  33.540  1.00  0.00     0.010 A 
ATOM     40  C   UNL A   1      36.532  34.888  32.741  1.00  0.00     0.010 A 
ATOM     41  C   UNL A   1      36.393  33.606  33.291  1.00  0.00    -0.014 A 
BRANCH  41  42
ATOM     42  C   UNL A   1      37.606  32.814  33.615  1.00  0.00     0.031 A 
ATOM     43  C   UNL A   1      38.396  33.115  34.858  1.00  0.00     0.074 A 
ATOM     44  C   UNL A   1      38.029  31.864  32.761  1.00  0.00     0.049 A 
ATOM     45  N   UNL A   1      39.510  32.574  35.282  1.00  0.00    -0.248 NA
ATOM     46  C   UNL A   1      37.880  34.186  35.724  1.00  0.00     0.031 C 
ATOM     47  C   UNL A   1      37.372  31.504  31.504  1.00  0.00     0.029 A 
ATOM     48  N   UNL A   1      39.118  31.032  32.818  1.00  0.00    -0.354 N 
ATOM     49  C   UNL A   1      39.839  33.252  36.450  1.00  0.00     0.074 A 
ATOM     50  C   UNL A   1      38.832  34.275  36.642  1.00  0.00     0.031 C 
ATOM     51  C   UNL A   1      38.054  30.505  30.923  1.00  0.00     0.029 A 
ATOM     52  C   UNL A   1      39.213  30.177  31.747  1.00  0.00     0.049 A 
ATOM     53  H   UNL A   1      39.769  31.045  33.557  1.00  0.00     0.167 HD
ATOM     54  C   UNL A   1      40.874  33.032  37.295  1.00  0.00     0.037 A 
ATOM     55  C   UNL A   1      40.133  29.237  31.464  1.00  0.00     0.037 A 
ATOM     56  C   UNL A   1      41.857  31.996  37.117  1.00  0.00     0.049 A 
ATOM     57  C   UNL A   1      41.274  29.012  32.414  1.00  0.00     0.074 A 
ATOM     58  C   UNL A   1      42.899  31.641  37.955  1.00  0.00     0.029 A 
ATOM     59  N   UNL A   1      41.920  31.149  36.019  1.00  0.00    -0.354 N 
ATOM     60  N   UNL A   1      41.536  29.614  33.547  1.00  0.00    -0.248 NA
ATOM     61  C   UNL A   1      42.247  27.975  32.043  1.00  0.00     0.031 C 
ATOM     62  C   UNL A   1      43.618  30.606  37.344  1.00  0.00     0.029 A 
ATOM     63  C   UNL A   1      42.998  30.290  36.145  1.00  0.00     0.049 A 
ATOM     64  H   UNL A   1      41.290  31.160  35.262  1.00  0.00     0.167 HD
ATOM     65  C   UNL A   1      42.687  29.013  34.041  1.00  0.00     0.074 A 
ATOM     66  C   UNL A   1      43.067  27.993  33.084  1.00  0.00     0.031 C 
ATOM     67  C   UNL A   1      43.364  29.281  35.184  1.00  0.00     0.037 A 
BRANCH  54  68
ATOM     68  C   UNL A   1      40.993  33.940  38.485  1.00  0.00     0.057 A 
ATOM     69  C   UNL A   1      41.716  35.139  38.433  1.00  0.00     0.134 A 
ATOM     70  C   UNL A   1      40.373  33.612  39.698  1.00  0.00     0.134 A 
ATOM     71  F   UNL A   1      42.344  35.506  37.307  1.00  0.00    -0.206 F 
ATOM     72  C   UNL A   1      41.851  35.960  39.554  1.00  0.00     0.040 A 
ATOM     73  C   UNL A   1      40.478  34.439  40.818  1.00  0.00     0.040 A 
ATOM     74  F   UNL A   1      39.659  32.483  39.815  1.00  0.00    -0.206 F 
ATOM     75  C   UNL A   1      41.227  35.612  40.750  1.00  0.00     0.006 A 
ENDBRANCH  54  68
BRANCH  55  76
ATOM     76  C   UNL A   1      39.982  28.407  30.244  1.00  0.00     0.057 A 
ATOM     77  C   UNL A   1      40.616  28.771  29.050  1.00  0.00     0.134 A 
ATOM     78  C   UNL A   1      39.228  27.228  30.243  1.00  0.00     0.134 A 
ATOM     79  F   UNL A   1      41.339  29.898  28.988  1.00  0.00    -0.206 F 
ATOM     80  C   UNL A   1      40.500  27.996  27.896  1.00  0.00     0.040 A 
ATOM     81  C   UNL A   1      39.120  26.433  29.101  1.00  0.00     0.040 A 
ATOM     82  F   UNL A   1      38.604  26.822  31.358  1.00  0.00    -0.206 F 
ATOM     83  C   UNL A   1      39.755  26.819  27.921  1.00  0.00     0.006 A 
ENDBRANCH  55  76
BRANCH  67  84
ATOM     84  C   UNL A   1      44.571  28.439  35.475  1.00  0.00     0.057 A 
ATOM     85  C   UNL A   1      44.479  27.237  36.187  1.00  0.00     0.134 A 
ATOM     86  C   UNL A   1      45.835  28.821  35.008  1.00  0.00     0.134 A 
ATOM     87  F   UNL A   1      43.299  26.824  36.673  1.00  0.00    -0.206 F 
ATOM     88  C   UNL A   1      45.605  26.453  36.441  1.00  0.00     0.040 A 
ATOM     89  C   UNL A   1      46.964  28.034  35.235  1.00  0.00     0.040 A 
ATOM     90  F   UNL A   1      45.990  29.959  34.314  1.00  0.00    -0.206 F 
ATOM     91  C   UNL A   1      46.852  26.848  35.958  1.00  0.00     0.006 A 
ENDBRANCH  67  84
ENDBRANCH  41  42
ENDBRANCH  33  36
ENDBRANCH  31  32
ENDBRANCH  30  31
ENDBRANCH   1  30
TORSDOF 14
ENDMDL
