MODEL 1
REMARK VINA RESULT:     -12.3      0.000      0.000
REMARK SMILES O=C(NCCCNC(=O)c1cccc(Nc2ccc([N+](=O)[O-])cc2)c1)c1ccc(-c2c3nc(c(-c4c(F)cccc4F)c4ccc([nH]4)c(-c4c(F)cccc4F)c4nc(c(-c5c(F)cccc5F)c5ccc2[nH]5)C=C4)C=C3)cc1
REMARK SMILES IDX 5 1 4 2 3 3 1 4 2 5 26 7 27 8 79 9 28 10 78 11 29 12 30 13
REMARK SMILES IDX 31 14 72 15 32 16 77 17 71 18 73 19 33 20 76 21 70 22 69 23
REMARK SMILES IDX 34 25 60 26 43 27 59 28 44 29 47 30 58 31 74 32 45 33 46 34
REMARK SMILES IDX 57 36 75 37 48 38 35 39 36 40 41 41 37 42 38 43 40 44 42 45
REMARK SMILES IDX 39 46 61 47 62 48 67 49 63 50 64 51 66 52 68 53 65 54 49 55
REMARK SMILES IDX 50 56 55 57 51 58 52 59 54 60 56 61 53 62 6 63 7 64 8 65
REMARK SMILES IDX 9 67 10 68 11 69 25 70 12 71 14 72 13 73 15 74 16 76 17 77
REMARK SMILES IDX 24 78 18 79 23 80 19 81 20 82 21 83 22 84
REMARK H PARENT 3 6 73 24 47 35 7 66 15 75
REMARK Flexibility Score: inf
ROOT
ATOM      1  C   UNL A   1      37.897  19.726  24.845  1.00  0.00     0.042 C 
ENDROOT
BRANCH   1   2
ATOM      2  C   UNL A   1      38.917  20.000  25.942  1.00  0.00     0.118 C 
BRANCH   2   3
ATOM      3  N   UNL A   1      40.048  19.084  25.901  1.00  0.00    -0.352 N 
ATOM      4  O   UNL A   1      42.190  18.422  25.754  1.00  0.00    -0.269 OA
ATOM      5  C   UNL A   1      41.394  19.322  26.012  1.00  0.00     0.251 C 
ATOM      6  H   UNL A   1      39.807  18.138  25.770  1.00  0.00     0.163 HD
BRANCH   5   7
ATOM      7  C   UNL A   1      41.900  20.650  26.419  1.00  0.00     0.039 A 
ATOM      8  C   UNL A   1      42.128  20.964  27.762  1.00  0.00     0.014 A 
ATOM      9  C   UNL A   1      42.203  21.585  25.425  1.00  0.00     0.014 A 
ATOM     10  C   UNL A   1      42.528  22.249  28.119  1.00  0.00     0.010 A 
ATOM     11  C   UNL A   1      42.678  22.850  25.779  1.00  0.00     0.010 A 
ATOM     12  C   UNL A   1      42.815  23.201  27.131  1.00  0.00    -0.014 A 
BRANCH  12  13
ATOM     13  C   UNL A   1      43.303  24.550  27.509  1.00  0.00     0.031 A 
ATOM     14  C   UNL A   1      42.342  25.613  27.955  1.00  0.00     0.074 A 
ATOM     15  C   UNL A   1      44.618  24.822  27.420  1.00  0.00     0.049 A 
ATOM     16  N   UNL A   1      42.572  26.870  28.234  1.00  0.00    -0.248 NA
ATOM     17  C   UNL A   1      40.933  25.214  28.094  1.00  0.00     0.031 C 
ATOM     18  C   UNL A   1      45.648  23.874  26.996  1.00  0.00     0.029 A 
ATOM     19  N   UNL A   1      45.310  25.980  27.668  1.00  0.00    -0.354 N 
ATOM     20  C   UNL A   1      41.338  27.420  28.554  1.00  0.00     0.074 A 
ATOM     21  C   UNL A   1      40.358  26.364  28.420  1.00  0.00     0.031 C 
ATOM     22  C   UNL A   1      46.842  24.484  27.020  1.00  0.00     0.029 A 
ATOM     23  C   UNL A   1      46.654  25.879  27.407  1.00  0.00     0.049 A 
ATOM     24  H   UNL A   1      44.885  26.803  28.000  1.00  0.00     0.167 HD
ATOM     25  C   UNL A   1      41.052  28.690  28.930  1.00  0.00     0.037 A 
ATOM     26  C   UNL A   1      47.624  26.810  27.442  1.00  0.00     0.037 A 
ATOM     27  C   UNL A   1      42.034  29.732  29.081  1.00  0.00     0.049 A 
ATOM     28  C   UNL A   1      47.281  28.215  27.838  1.00  0.00     0.074 A 
ATOM     29  C   UNL A   1      41.848  31.039  29.501  1.00  0.00     0.029 A 
ATOM     30  N   UNL A   1      43.387  29.588  28.810  1.00  0.00    -0.354 N 
ATOM     31  N   UNL A   1      46.115  28.715  28.167  1.00  0.00    -0.248 NA
ATOM     32  C   UNL A   1      48.384  29.185  27.866  1.00  0.00     0.031 C 
ATOM     33  C   UNL A   1      43.083  31.695  29.447  1.00  0.00     0.029 A 
ATOM     34  C   UNL A   1      44.045  30.786  29.034  1.00  0.00     0.049 A 
ATOM     35  H   UNL A   1      43.816  28.756  28.505  1.00  0.00     0.167 HD
ATOM     36  C   UNL A   1      46.344  30.051  28.460  1.00  0.00     0.074 A 
ATOM     37  C   UNL A   1      47.763  30.284  28.275  1.00  0.00     0.031 C 
ATOM     38  C   UNL A   1      45.458  30.999  28.851  1.00  0.00     0.037 A 
BRANCH  25  39
ATOM     39  C   UNL A   1      39.611  29.028  29.179  1.00  0.00     0.057 A 
ATOM     40  C   UNL A   1      39.043  28.960  30.458  1.00  0.00     0.134 A 
ATOM     41  C   UNL A   1      38.786  29.445  28.126  1.00  0.00     0.134 A 
ATOM     42  F   UNL A   1      39.775  28.555  31.507  1.00  0.00    -0.206 F 
ATOM     43  C   UNL A   1      37.699  29.271  30.676  1.00  0.00     0.040 A 
ATOM     44  C   UNL A   1      37.448  29.780  28.336  1.00  0.00     0.040 A 
ATOM     45  F   UNL A   1      39.270  29.536  26.878  1.00  0.00    -0.206 F 
ATOM     46  C   UNL A   1      36.899  29.687  29.613  1.00  0.00     0.006 A 
ENDBRANCH  25  39
BRANCH  26  47
ATOM     47  C   UNL A   1      49.007  26.426  27.075  1.00  0.00     0.057 A 
ATOM     48  C   UNL A   1      49.919  25.998  28.045  1.00  0.00     0.134 A 
ATOM     49  C   UNL A   1      49.431  26.423  25.740  1.00  0.00     0.134 A 
ATOM     50  F   UNL A   1      49.574  25.992  29.341  1.00  0.00    -0.206 F 
ATOM     51  C   UNL A   1      51.205  25.579  27.701  1.00  0.00     0.040 A 
ATOM     52  C   UNL A   1      50.705  25.987  25.380  1.00  0.00     0.040 A 
ATOM     53  F   UNL A   1      48.596  26.812  24.766  1.00  0.00    -0.206 F 
ATOM     54  C   UNL A   1      51.597  25.565  26.363  1.00  0.00     0.006 A 
ENDBRANCH  26  47
BRANCH  38  55
ATOM     55  C   UNL A   1      45.998  32.367  29.139  1.00  0.00     0.057 A 
ATOM     56  C   UNL A   1      46.500  32.711  30.399  1.00  0.00     0.134 A 
ATOM     57  C   UNL A   1      46.068  33.330  28.125  1.00  0.00     0.134 A 
ATOM     58  F   UNL A   1      46.447  31.835  31.414  1.00  0.00    -0.206 F 
ATOM     59  C   UNL A   1      47.046  33.970  30.644  1.00  0.00     0.040 A 
ATOM     60  C   UNL A   1      46.631  34.587  28.353  1.00  0.00     0.040 A 
ATOM     61  F   UNL A   1      45.609  33.059  26.895  1.00  0.00    -0.206 F 
ATOM     62  C   UNL A   1      47.120  34.910  29.617  1.00  0.00     0.006 A 
ENDBRANCH  38  55
ENDBRANCH  12  13
ENDBRANCH   5   7
ENDBRANCH   2   3
ENDBRANCH   1   2
BRANCH   1  63
ATOM     63  C   UNL A   1      37.268  20.977  24.242  1.00  0.00     0.118 C 
BRANCH  63  64
ATOM     64  N   UNL A   1      36.941  21.972  25.251  1.00  0.00    -0.352 N 
ATOM     65  C   UNL A   1      35.896  22.856  25.316  1.00  0.00     0.251 C 
ATOM     66  H   UNL A   1      37.570  22.018  26.007  1.00  0.00     0.163 HD
ATOM     67  O   UNL A   1      35.923  23.767  26.141  1.00  0.00    -0.269 OA
BRANCH  65  68
ATOM     68  C   UNL A   1      34.739  22.726  24.409  1.00  0.00     0.041 A 
ATOM     69  C   UNL A   1      34.357  23.831  23.647  1.00  0.00     0.014 A 
ATOM     70  C   UNL A   1      33.982  21.548  24.370  1.00  0.00     0.039 A 
ATOM     71  C   UNL A   1      33.251  23.735  22.808  1.00  0.00     0.003 A 
ATOM     72  C   UNL A   1      32.875  21.431  23.522  1.00  0.00     0.039 A 
ATOM     73  C   UNL A   1      32.527  22.540  22.740  1.00  0.00     0.026 A 
BRANCH  72  74
ATOM     74  N   UNL A   1      32.185  20.206  23.480  1.00  0.00    -0.356 N 
ATOM     75  H   UNL A   1      31.295  20.255  23.061  1.00  0.00     0.167 HD
BRANCH  74  76
ATOM     76  C   UNL A   1      32.544  18.928  23.932  1.00  0.00     0.039 A 
ATOM     77  C   UNL A   1      33.039  18.001  23.001  1.00  0.00     0.033 A 
ATOM     78  C   UNL A   1      32.519  18.569  25.286  1.00  0.00     0.033 A 
ATOM     79  C   UNL A   1      33.529  16.758  23.411  1.00  0.00     0.088 A 
ATOM     80  C   UNL A   1      32.999  17.326  25.712  1.00  0.00     0.088 A 
ATOM     81  C   UNL A   1      33.518  16.431  24.771  1.00  0.00     0.269 A 
BRANCH  81  82
ATOM     82  N   UNL A   1      34.076  15.148  25.214  1.00  0.00     0.062 N 
ATOM     83  O   UNL A   1      35.303  15.078  25.374  1.00  0.00    -0.258 OA
ATOM     84  O   UNL A   1      33.287  14.212  25.407  1.00  0.00    -0.258 OA
ENDBRANCH  81  82
ENDBRANCH  74  76
ENDBRANCH  72  74
ENDBRANCH  65  68
ENDBRANCH  63  64
ENDBRANCH   1  63
TORSDOF 13
ENDMDL
MODEL 2
REMARK VINA RESULT:     -12.1      6.436     11.368
REMARK SMILES O=C(NCCCNC(=O)c1cccc(Nc2ccc([N+](=O)[O-])cc2)c1)c1ccc(-c2c3nc(c(-c4c(F)cccc4F)c4ccc([nH]4)c(-c4c(F)cccc4F)c4nc(c(-c5c(F)cccc5F)c5ccc2[nH]5)C=C4)C=C3)cc1
REMARK SMILES IDX 5 1 4 2 3 3 1 4 2 5 26 7 27 8 79 9 28 10 78 11 29 12 30 13
REMARK SMILES IDX 31 14 72 15 32 16 77 17 71 18 73 19 33 20 76 21 70 22 69 23
REMARK SMILES IDX 34 25 60 26 43 27 59 28 44 29 47 30 58 31 74 32 45 33 46 34
REMARK SMILES IDX 57 36 75 37 48 38 35 39 36 40 41 41 37 42 38 43 40 44 42 45
REMARK SMILES IDX 39 46 61 47 62 48 67 49 63 50 64 51 66 52 68 53 65 54 49 55
REMARK SMILES IDX 50 56 55 57 51 58 52 59 54 60 56 61 53 62 6 63 7 64 8 65
REMARK SMILES IDX 9 67 10 68 11 69 25 70 12 71 14 72 13 73 15 74 16 76 17 77
REMARK SMILES IDX 24 78 18 79 23 80 19 81 20 82 21 83 22 84
REMARK H PARENT 3 6 73 24 47 35 7 66 15 75
REMARK Flexibility Score: inf
ROOT
ATOM      1  C   UNL A   1      31.411  32.129  26.641  1.00  0.00     0.042 C 
ENDROOT
BRANCH   1   2
ATOM      2  C   UNL A   1      32.722  32.815  27.004  1.00  0.00     0.118 C 
BRANCH   2   3
ATOM      3  N   UNL A   1      32.523  34.106  27.648  1.00  0.00    -0.352 N 
ATOM      4  O   UNL A   1      32.690  35.695  29.227  1.00  0.00    -0.269 OA
ATOM      5  C   UNL A   1      33.150  34.669  28.729  1.00  0.00     0.251 C 
ATOM      6  H   UNL A   1      31.823  34.665  27.240  1.00  0.00     0.163 HD
BRANCH   5   7
ATOM      7  C   UNL A   1      34.356  34.049  29.317  1.00  0.00     0.039 A 
ATOM      8  C   UNL A   1      35.641  34.448  28.936  1.00  0.00     0.014 A 
ATOM      9  C   UNL A   1      34.195  33.082  30.314  1.00  0.00     0.014 A 
ATOM     10  C   UNL A   1      36.756  33.790  29.449  1.00  0.00     0.010 A 
ATOM     11  C   UNL A   1      35.317  32.475  30.884  1.00  0.00     0.010 A 
ATOM     12  C   UNL A   1      36.605  32.804  30.434  1.00  0.00    -0.014 A 
BRANCH  12  13
ATOM     13  C   UNL A   1      37.795  32.148  31.026  1.00  0.00     0.031 A 
ATOM     14  C   UNL A   1      38.526  31.070  30.279  1.00  0.00     0.074 A 
ATOM     15  C   UNL A   1      38.200  32.509  32.258  1.00  0.00     0.049 A 
ATOM     16  N   UNL A   1      39.525  30.324  30.673  1.00  0.00    -0.248 NA
ATOM     17  C   UNL A   1      38.065  30.786  28.911  1.00  0.00     0.031 C 
ATOM     18  C   UNL A   1      37.569  33.539  33.084  1.00  0.00     0.029 A 
ATOM     19  N   UNL A   1      39.228  32.039  33.035  1.00  0.00    -0.354 N 
ATOM     20  C   UNL A   1      39.795  29.463  29.617  1.00  0.00     0.074 A 
ATOM     21  C   UNL A   1      38.844  29.769  28.570  1.00  0.00     0.031 C 
ATOM     22  C   UNL A   1      38.228  33.630  34.249  1.00  0.00     0.029 A 
ATOM     23  C   UNL A   1      39.289  32.629  34.273  1.00  0.00     0.049 A 
ATOM     24  H   UNL A   1      39.860  31.347  32.734  1.00  0.00     0.167 HD
ATOM     25  C   UNL A   1      40.753  28.508  29.531  1.00  0.00     0.037 A 
ATOM     26  C   UNL A   1      40.088  32.372  35.325  1.00  0.00     0.037 A 
ATOM     27  C   UNL A   1      41.709  28.221  30.568  1.00  0.00     0.049 A 
ATOM     28  C   UNL A   1      41.126  31.295  35.216  1.00  0.00     0.074 A 
ATOM     29  C   UNL A   1      42.746  27.304  30.557  1.00  0.00     0.029 A 
ATOM     30  N   UNL A   1      41.740  28.844  31.808  1.00  0.00    -0.354 N 
ATOM     31  N   UNL A   1      41.390  30.509  34.201  1.00  0.00    -0.248 NA
ATOM     32  C   UNL A   1      41.973  31.068  36.394  1.00  0.00     0.031 C 
ATOM     33  C   UNL A   1      43.380  27.346  31.804  1.00  0.00     0.029 A 
ATOM     34  C   UNL A   1      42.764  28.317  32.577  1.00  0.00     0.049 A 
ATOM     35  H   UNL A   1      41.124  29.556  32.097  1.00  0.00     0.167 HD
ATOM     36  C   UNL A   1      42.446  29.706  34.608  1.00  0.00     0.074 A 
ATOM     37  C   UNL A   1      42.777  30.104  35.962  1.00  0.00     0.031 C 
ATOM     38  C   UNL A   1      43.085  28.729  33.920  1.00  0.00     0.037 A 
BRANCH  25  39
ATOM     39  C   UNL A   1      40.795  27.686  28.277  1.00  0.00     0.057 A 
ATOM     40  C   UNL A   1      41.542  28.076  27.157  1.00  0.00     0.134 A 
ATOM     41  C   UNL A   1      40.093  26.475  28.196  1.00  0.00     0.134 A 
ATOM     42  F   UNL A   1      42.226  29.231  27.165  1.00  0.00    -0.206 F 
ATOM     43  C   UNL A   1      41.568  27.306  25.994  1.00  0.00     0.040 A 
ATOM     44  C   UNL A   1      40.131  25.686  27.046  1.00  0.00     0.040 A 
ATOM     45  F   UNL A   1      39.364  26.042  29.234  1.00  0.00    -0.206 F 
ATOM     46  C   UNL A   1      40.865  26.103  25.938  1.00  0.00     0.006 A 
ENDBRANCH  25  39
BRANCH  26  47
ATOM     47  C   UNL A   1      39.913  33.154  36.572  1.00  0.00     0.057 A 
ATOM     48  C   UNL A   1      40.644  34.324  36.798  1.00  0.00     0.134 A 
ATOM     49  C   UNL A   1      38.971  32.779  37.537  1.00  0.00     0.134 A 
ATOM     50  F   UNL A   1      41.569  34.726  35.915  1.00  0.00    -0.206 F 
ATOM     51  C   UNL A   1      40.442  35.097  37.943  1.00  0.00     0.040 A 
ATOM     52  C   UNL A   1      38.745  33.553  38.675  1.00  0.00     0.040 A 
ATOM     53  F   UNL A   1      38.233  31.672  37.368  1.00  0.00    -0.206 F 
ATOM     54  C   UNL A   1      39.484  34.716  38.881  1.00  0.00     0.006 A 
ENDBRANCH  26  47
BRANCH  38  55
ATOM     55  C   UNL A   1      44.229  28.044  34.603  1.00  0.00     0.057 A 
ATOM     56  C   UNL A   1      45.530  28.557  34.555  1.00  0.00     0.134 A 
ATOM     57  C   UNL A   1      44.012  26.889  35.364  1.00  0.00     0.134 A 
ATOM     58  F   UNL A   1      45.802  29.653  33.831  1.00  0.00    -0.206 F 
ATOM     59  C   UNL A   1      46.580  27.941  35.235  1.00  0.00     0.040 A 
ATOM     60  C   UNL A   1      45.051  26.274  36.065  1.00  0.00     0.040 A 
ATOM     61  F   UNL A   1      42.787  26.351  35.453  1.00  0.00    -0.206 F 
ATOM     62  C   UNL A   1      46.340  26.799  36.000  1.00  0.00     0.006 A 
ENDBRANCH  38  55
ENDBRANCH  12  13
ENDBRANCH   5   7
ENDBRANCH   2   3
ENDBRANCH   1   2
BRANCH   1  63
ATOM     63  C   UNL A   1      31.426  30.613  26.802  1.00  0.00     0.118 C 
BRANCH  63  64
ATOM     64  N   UNL A   1      32.747  30.047  26.575  1.00  0.00    -0.352 N 
ATOM     65  C   UNL A   1      33.116  28.776  26.221  1.00  0.00     0.251 C 
ATOM     66  H   UNL A   1      33.494  30.677  26.695  1.00  0.00     0.163 HD
ATOM     67  O   UNL A   1      34.297  28.444  26.298  1.00  0.00    -0.269 OA
BRANCH  65  68
ATOM     68  C   UNL A   1      32.113  27.803  25.746  1.00  0.00     0.041 A 
ATOM     69  C   UNL A   1      32.135  26.509  26.268  1.00  0.00     0.014 A 
ATOM     70  C   UNL A   1      31.207  28.138  24.732  1.00  0.00     0.039 A 
ATOM     71  C   UNL A   1      31.216  25.570  25.811  1.00  0.00     0.003 A 
ATOM     72  C   UNL A   1      30.267  27.209  24.271  1.00  0.00     0.039 A 
ATOM     73  C   UNL A   1      30.283  25.925  24.830  1.00  0.00     0.026 A 
BRANCH  72  74
ATOM     74  N   UNL A   1      29.343  27.615  23.291  1.00  0.00    -0.356 N 
ATOM     75  H   UNL A   1      28.857  26.876  22.859  1.00  0.00     0.167 HD
BRANCH  74  76
ATOM     76  C   UNL A   1      28.994  28.891  22.823  1.00  0.00     0.039 A 
ATOM     77  C   UNL A   1      27.905  29.549  23.415  1.00  0.00     0.033 A 
ATOM     78  C   UNL A   1      29.744  29.573  21.856  1.00  0.00     0.033 A 
ATOM     79  C   UNL A   1      27.588  30.867  23.078  1.00  0.00     0.088 A 
ATOM     80  C   UNL A   1      29.436  30.891  21.503  1.00  0.00     0.088 A 
ATOM     81  C   UNL A   1      28.366  31.539  22.129  1.00  0.00     0.269 A 
BRANCH  81  82
ATOM     82  N   UNL A   1      28.070  32.940  21.807  1.00  0.00     0.062 N 
ATOM     83  O   UNL A   1      27.535  33.179  20.715  1.00  0.00    -0.258 OA
ATOM     84  O   UNL A   1      28.368  33.800  22.648  1.00  0.00    -0.258 OA
ENDBRANCH  81  82
ENDBRANCH  74  76
ENDBRANCH  72  74
ENDBRANCH  65  68
ENDBRANCH  63  64
ENDBRANCH   1  63
TORSDOF 13
ENDMDL
MODEL 3
REMARK VINA RESULT:     -12.0      5.035      7.318
REMARK SMILES O=C(NCCCNC(=O)c1cccc(Nc2ccc([N+](=O)[O-])cc2)c1)c1ccc(-c2c3nc(c(-c4c(F)cccc4F)c4ccc([nH]4)c(-c4c(F)cccc4F)c4nc(c(-c5c(F)cccc5F)c5ccc2[nH]5)C=C4)C=C3)cc1
REMARK SMILES IDX 5 1 4 2 3 3 1 4 2 5 26 7 27 8 79 9 28 10 78 11 29 12 30 13
REMARK SMILES IDX 31 14 72 15 32 16 77 17 71 18 73 19 33 20 76 21 70 22 69 23
REMARK SMILES IDX 34 25 60 26 43 27 59 28 44 29 47 30 58 31 74 32 45 33 46 34
REMARK SMILES IDX 57 36 75 37 48 38 35 39 36 40 41 41 37 42 38 43 40 44 42 45
REMARK SMILES IDX 39 46 61 47 62 48 67 49 63 50 64 51 66 52 68 53 65 54 49 55
REMARK SMILES IDX 50 56 55 57 51 58 52 59 54 60 56 61 53 62 6 63 7 64 8 65
REMARK SMILES IDX 9 67 10 68 11 69 25 70 12 71 14 72 13 73 15 74 16 76 17 77
REMARK SMILES IDX 24 78 18 79 23 80 19 81 20 82 21 83 22 84
REMARK H PARENT 3 6 73 24 47 35 7 66 15 75
REMARK Flexibility Score: inf
ROOT
ATOM      1  C   UNL A   1      38.830  22.341  26.366  1.00  0.00     0.042 C 
ENDROOT
BRANCH   1   2
ATOM      2  C   UNL A   1      39.828  23.278  27.032  1.00  0.00     0.118 C 
BRANCH   2   3
ATOM      3  N   UNL A   1      40.648  24.004  26.072  1.00  0.00    -0.352 N 
ATOM      4  O   UNL A   1      41.578  25.770  25.041  1.00  0.00    -0.269 OA
ATOM      5  C   UNL A   1      41.047  25.316  26.053  1.00  0.00     0.251 C 
ATOM      6  H   UNL A   1      40.966  23.466  25.313  1.00  0.00     0.163 HD
BRANCH   5   7
ATOM      7  C   UNL A   1      40.829  26.195  27.221  1.00  0.00     0.039 A 
ATOM      8  C   UNL A   1      39.854  25.906  28.180  1.00  0.00     0.014 A 
ATOM      9  C   UNL A   1      41.659  27.308  27.386  1.00  0.00     0.014 A 
ATOM     10  C   UNL A   1      39.620  26.795  29.226  1.00  0.00     0.010 A 
ATOM     11  C   UNL A   1      41.473  28.160  28.477  1.00  0.00     0.010 A 
ATOM     12  C   UNL A   1      40.432  27.925  29.389  1.00  0.00    -0.014 A 
BRANCH  12  13
ATOM     13  C   UNL A   1      40.224  28.839  30.538  1.00  0.00     0.031 A 
ATOM     14  C   UNL A   1      39.175  29.911  30.482  1.00  0.00     0.074 A 
ATOM     15  C   UNL A   1      41.006  28.716  31.626  1.00  0.00     0.049 A 
ATOM     16  N   UNL A   1      38.912  30.856  31.348  1.00  0.00    -0.248 NA
ATOM     17  C   UNL A   1      38.314  29.932  29.289  1.00  0.00     0.031 C 
ATOM     18  C   UNL A   1      42.062  27.717  31.797  1.00  0.00     0.029 A 
ATOM     19  N   UNL A   1      41.045  29.446  32.787  1.00  0.00    -0.354 N 
ATOM     20  C   UNL A   1      37.878  31.601  30.796  1.00  0.00     0.074 A 
ATOM     21  C   UNL A   1      37.571  31.008  29.511  1.00  0.00     0.031 C 
ATOM     22  C   UNL A   1      42.639  27.890  32.994  1.00  0.00     0.029 A 
ATOM     23  C   UNL A   1      42.033  29.044  33.651  1.00  0.00     0.049 A 
ATOM     24  H   UNL A   1      40.424  30.185  32.982  1.00  0.00     0.167 HD
ATOM     25  C   UNL A   1      37.242  32.678  31.316  1.00  0.00     0.037 A 
ATOM     26  C   UNL A   1      42.432  29.565  34.826  1.00  0.00     0.037 A 
ATOM     27  C   UNL A   1      37.538  33.252  32.603  1.00  0.00     0.049 A 
ATOM     28  C   UNL A   1      41.730  30.771  35.372  1.00  0.00     0.074 A 
ATOM     29  C   UNL A   1      36.919  34.315  33.238  1.00  0.00     0.029 A 
ATOM     30  N   UNL A   1      38.546  32.813  33.450  1.00  0.00    -0.354 N 
ATOM     31  N   UNL A   1      40.734  31.448  34.854  1.00  0.00    -0.248 NA
ATOM     32  C   UNL A   1      42.205  31.288  36.662  1.00  0.00     0.031 C 
ATOM     33  C   UNL A   1      37.577  34.543  34.451  1.00  0.00     0.029 A 
ATOM     34  C   UNL A   1      38.579  33.597  34.592  1.00  0.00     0.049 A 
ATOM     35  H   UNL A   1      39.148  32.056  33.267  1.00  0.00     0.167 HD
ATOM     36  C   UNL A   1      40.449  32.458  35.761  1.00  0.00     0.074 A 
ATOM     37  C   UNL A   1      41.374  32.303  36.866  1.00  0.00     0.031 C 
ATOM     38  C   UNL A   1      39.502  33.425  35.685  1.00  0.00     0.037 A 
BRANCH  25  39
ATOM     39  C   UNL A   1      36.177  33.322  30.478  1.00  0.00     0.057 A 
ATOM     40  C   UNL A   1      36.486  34.136  29.381  1.00  0.00     0.134 A 
ATOM     41  C   UNL A   1      34.822  33.108  30.764  1.00  0.00     0.134 A 
ATOM     42  F   UNL A   1      37.764  34.391  29.062  1.00  0.00    -0.206 F 
ATOM     43  C   UNL A   1      35.486  34.735  28.613  1.00  0.00     0.040 A 
ATOM     44  C   UNL A   1      33.813  33.683  29.989  1.00  0.00     0.040 A 
ATOM     45  F   UNL A   1      34.458  32.335  31.798  1.00  0.00    -0.206 F 
ATOM     46  C   UNL A   1      34.144  34.504  28.914  1.00  0.00     0.006 A 
ENDBRANCH  25  39
BRANCH  26  47
ATOM     47  C   UNL A   1      43.567  28.939  35.544  1.00  0.00     0.057 A 
ATOM     48  C   UNL A   1      44.874  29.405  35.376  1.00  0.00     0.134 A 
ATOM     49  C   UNL A   1      43.362  27.897  36.458  1.00  0.00     0.134 A 
ATOM     50  F   UNL A   1      45.132  30.392  34.505  1.00  0.00    -0.206 F 
ATOM     51  C   UNL A   1      45.940  28.859  36.093  1.00  0.00     0.040 A 
ATOM     52  C   UNL A   1      44.414  27.357  37.196  1.00  0.00     0.040 A 
ATOM     53  F   UNL A   1      42.128  27.416  36.669  1.00  0.00    -0.206 F 
ATOM     54  C   UNL A   1      45.709  27.838  37.013  1.00  0.00     0.006 A 
ENDBRANCH  26  47
BRANCH  38  55
ATOM     55  C   UNL A   1      39.394  34.372  36.841  1.00  0.00     0.057 A 
ATOM     56  C   UNL A   1      38.710  34.028  38.013  1.00  0.00     0.134 A 
ATOM     57  C   UNL A   1      40.031  35.618  36.801  1.00  0.00     0.134 A 
ATOM     58  F   UNL A   1      38.068  32.854  38.106  1.00  0.00    -0.206 F 
ATOM     59  C   UNL A   1      38.657  34.896  39.104  1.00  0.00     0.040 A 
ATOM     60  C   UNL A   1      40.001  36.486  37.893  1.00  0.00     0.040 A 
ATOM     61  F   UNL A   1      40.707  36.003  35.708  1.00  0.00    -0.206 F 
ATOM     62  C   UNL A   1      39.311  36.126  39.049  1.00  0.00     0.006 A 
ENDBRANCH  38  55
ENDBRANCH  12  13
ENDBRANCH   5   7
ENDBRANCH   2   3
ENDBRANCH   1   2
BRANCH   1  63
ATOM     63  C   UNL A   1      37.545  23.016  25.900  1.00  0.00     0.118 C 
BRANCH  63  64
ATOM     64  N   UNL A   1      37.512  23.207  24.458  1.00  0.00    -0.352 N 
ATOM     65  C   UNL A   1      36.471  23.097  23.575  1.00  0.00     0.251 C 
ATOM     66  H   UNL A   1      38.375  23.455  24.053  1.00  0.00     0.163 HD
ATOM     67  O   UNL A   1      36.700  23.079  22.367  1.00  0.00    -0.269 OA
BRANCH  65  68
ATOM     68  C   UNL A   1      35.079  23.001  24.055  1.00  0.00     0.041 A 
ATOM     69  C   UNL A   1      34.531  24.084  24.743  1.00  0.00     0.014 A 
ATOM     70  C   UNL A   1      34.343  21.819  23.902  1.00  0.00     0.039 A 
ATOM     71  C   UNL A   1      33.230  24.000  25.229  1.00  0.00     0.003 A 
ATOM     72  C   UNL A   1      33.029  21.723  24.373  1.00  0.00     0.039 A 
ATOM     73  C   UNL A   1      32.484  22.833  25.032  1.00  0.00     0.026 A 
BRANCH  72  74
ATOM     74  N   UNL A   1      32.316  20.532  24.143  1.00  0.00    -0.356 N 
ATOM     75  H   UNL A   1      31.439  20.660  23.713  1.00  0.00     0.167 HD
BRANCH  74  76
ATOM     76  C   UNL A   1      32.637  19.195  24.420  1.00  0.00     0.039 A 
ATOM     77  C   UNL A   1      33.068  18.376  23.365  1.00  0.00     0.033 A 
ATOM     78  C   UNL A   1      32.637  18.670  25.719  1.00  0.00     0.033 A 
ATOM     79  C   UNL A   1      33.520  17.075  23.600  1.00  0.00     0.088 A 
ATOM     80  C   UNL A   1      33.080  17.367  25.970  1.00  0.00     0.088 A 
ATOM     81  C   UNL A   1      33.535  16.579  24.908  1.00  0.00     0.269 A 
BRANCH  81  82
ATOM     82  N   UNL A   1      34.055  15.232  25.169  1.00  0.00     0.062 N 
ATOM     83  O   UNL A   1      35.285  15.082  25.184  1.00  0.00    -0.258 OA
ATOM     84  O   UNL A   1      33.233  14.325  25.365  1.00  0.00    -0.258 OA
ENDBRANCH  81  82
ENDBRANCH  74  76
ENDBRANCH  72  74
ENDBRANCH  65  68
ENDBRANCH  63  64
ENDBRANCH   1  63
TORSDOF 13
ENDMDL
