MODEL 1
REMARK VINA RESULT:     -13.1      0.000      0.000
REMARK SMILES C[NH+]1CCN(c2nc3c(cc2F)c(=O)c(C(=O)NCCCNC(=O)c2ccc(-c4c5nc(c(-c6c(F)cccc6F)c6ccc([nH]6)c(-c6c(F)cccc6F)c6nc(c(-c7c(F)cccc7F)c7ccc4[nH]7)C=C6)C=C5)cc2)cn3-c2ccc(F)cc2F)CC1
REMARK SMILES IDX 20 1 19 2 18 3 16 4 17 5 15 7 6 8 7 9 11 10 8 11 10 12 12 13
REMARK SMILES IDX 9 14 80 15 13 16 79 17 14 18 5 19 1 20 2 21 3 22 90 23 4 25
REMARK SMILES IDX 89 26 81 27 82 28 87 29 83 30 86 31 88 32 84 33 85 34 21 35
REMARK SMILES IDX 22 36 23 37 24 39 25 40 26 41 78 42 27 43 77 44 28 45 29 46
REMARK SMILES IDX 30 47 71 48 31 49 76 50 70 51 72 52 32 53 75 54 69 55 68 56
REMARK SMILES IDX 33 58 59 59 42 60 58 61 43 62 46 63 57 64 73 65 44 66 45 67
REMARK SMILES IDX 56 69 74 70 47 71 34 72 35 73 40 74 36 75 37 76 39 77 41 78
REMARK SMILES IDX 38 79 60 80 61 81 66 82 62 83 63 84 65 85 67 86 64 87 48 88
REMARK SMILES IDX 49 89 54 90 50 91 51 92 53 93 55 94 52 95
REMARK H PARENT 18 6 2 24 22 38 72 57 46 68
REMARK Flexibility Score: inf
ROOT
ATOM      1  C   UNL A   1      33.916  28.471  24.566  1.00  0.00     0.042 C 
ENDROOT
BRANCH   1   2
ATOM      2  C   UNL A   1      32.895  27.427  24.125  1.00  0.00     0.118 C 
BRANCH   2   3
ATOM      3  N   UNL A   1      33.022  27.129  22.708  1.00  0.00    -0.352 N 
ATOM      4  C   UNL A   1      33.232  25.967  22.033  1.00  0.00     0.256 C 
ATOM      5  O   UNL A   1      33.278  26.047  20.803  1.00  0.00    -0.269 OA
ATOM      6  H   UNL A   1      32.941  27.918  22.126  1.00  0.00     0.163 HD
BRANCH   4   7
ATOM      7  C   UNL A   1      33.323  24.640  22.699  1.00  0.00     0.104 A 
ATOM      8  C   UNL A   1      33.411  19.805  24.248  1.00  0.00     0.167 A 
ATOM      9  N   UNL A   1      34.217  20.875  24.468  1.00  0.00    -0.209 NA
ATOM     10  C   UNL A   1      32.258  19.917  23.468  1.00  0.00     0.166 A 
ATOM     11  C   UNL A   1      33.906  22.076  23.915  1.00  0.00     0.151 A 
ATOM     12  C   UNL A   1      31.886  21.146  22.961  1.00  0.00     0.059 A 
ATOM     13  F   UNL A   1      31.456  18.863  23.256  1.00  0.00    -0.203 F 
ATOM     14  C   UNL A   1      32.717  22.237  23.204  1.00  0.00     0.069 A 
ATOM     15  N   UNL A   1      34.782  23.202  24.051  1.00  0.00    -0.297 N 
ATOM     16  C   UNL A   1      32.302  23.576  22.769  1.00  0.00     0.203 A 
ATOM     17  C   UNL A   1      34.453  24.381  23.383  1.00  0.00     0.111 A 
ATOM     18  O   UNL A   1      31.114  23.750  22.533  1.00  0.00    -0.288 OA
BRANCH   8  19
ATOM     19  N   UNL A   1      33.747  18.623  24.852  1.00  0.00    -0.343 N 
ATOM     20  C   UNL A   1      32.877  14.508  25.376  1.00  0.00     0.332 C 
ATOM     21  N   UNL A   1      33.498  15.823  25.499  1.00  0.00    -0.334 N 
ATOM     22  C   UNL A   1      32.527  16.825  26.001  1.00  0.00     0.283 C 
ATOM     23  C   UNL A   1      34.029  16.267  24.188  1.00  0.00     0.283 C 
ATOM     24  H   UNL A   1      34.266  15.746  26.167  1.00  0.00     0.347 HD
ATOM     25  C   UNL A   1      33.131  18.250  26.120  1.00  0.00     0.179 C 
ATOM     26  C   UNL A   1      34.669  17.669  24.252  1.00  0.00     0.179 C 
ENDBRANCH   8  19
BRANCH  15  27
ATOM     27  C   UNL A   1      36.009  23.129  24.778  1.00  0.00     0.083 A 
ATOM     28  C   UNL A   1      36.944  22.113  24.515  1.00  0.00     0.033 A 
ATOM     29  C   UNL A   1      36.322  24.074  25.772  1.00  0.00     0.150 A 
ATOM     30  C   UNL A   1      38.147  22.053  25.221  1.00  0.00     0.041 A 
ATOM     31  C   UNL A   1      37.511  24.013  26.489  1.00  0.00     0.080 A 
ATOM     32  F   UNL A   1      35.451  25.052  26.064  1.00  0.00    -0.205 F 
ATOM     33  C   UNL A   1      38.416  23.000  26.204  1.00  0.00     0.126 A 
ATOM     34  F   UNL A   1      39.566  22.933  26.886  1.00  0.00    -0.207 F 
ENDBRANCH  15  27
ENDBRANCH   4   7
ENDBRANCH   2   3
ENDBRANCH   1   2
BRANCH   1  35
ATOM     35  C   UNL A   1      34.034  28.595  26.077  1.00  0.00     0.118 C 
BRANCH  35  36
ATOM     36  N   UNL A   1      33.811  29.960  26.530  1.00  0.00    -0.352 N 
ATOM     37  C   UNL A   1      34.501  30.681  27.473  1.00  0.00     0.251 C 
ATOM     38  H   UNL A   1      33.062  30.432  26.100  1.00  0.00     0.163 HD
ATOM     39  O   UNL A   1      34.043  31.739  27.898  1.00  0.00    -0.269 OA
BRANCH  37  40
ATOM     40  C   UNL A   1      35.791  30.177  27.987  1.00  0.00     0.039 A 
ATOM     41  C   UNL A   1      35.827  29.542  29.231  1.00  0.00     0.014 A 
ATOM     42  C   UNL A   1      36.967  30.353  27.251  1.00  0.00     0.014 A 
ATOM     43  C   UNL A   1      37.037  29.044  29.717  1.00  0.00     0.010 A 
ATOM     44  C   UNL A   1      38.158  29.792  27.701  1.00  0.00     0.010 A 
ATOM     45  C   UNL A   1      38.207  29.152  28.949  1.00  0.00    -0.014 A 
BRANCH  45  46
ATOM     46  C   UNL A   1      39.505  28.662  29.472  1.00  0.00     0.031 A 
ATOM     47  C   UNL A   1      40.118  29.320  30.675  1.00  0.00     0.074 A 
ATOM     48  C   UNL A   1      40.136  27.646  28.856  1.00  0.00     0.049 A 
ATOM     49  N   UNL A   1      41.223  29.024  31.309  1.00  0.00    -0.248 NA
ATOM     50  C   UNL A   1      39.401  30.482  31.228  1.00  0.00     0.031 C 
ATOM     51  C   UNL A   1      39.668  26.959  27.651  1.00  0.00     0.029 A 
ATOM     52  N   UNL A   1      41.314  27.014  29.164  1.00  0.00    -0.354 N 
ATOM     53  C   UNL A   1      41.329  29.953  32.335  1.00  0.00     0.074 A 
ATOM     54  C   UNL A   1      40.218  30.869  32.195  1.00  0.00     0.031 C 
ATOM     55  C   UNL A   1      40.536  25.982  27.338  1.00  0.00     0.029 A 
ATOM     56  C   UNL A   1      41.627  25.986  28.308  1.00  0.00     0.049 A 
ATOM     57  H   UNL A   1      41.881  27.272  29.926  1.00  0.00     0.167 HD
ATOM     58  C   UNL A   1      42.246  30.020  33.330  1.00  0.00     0.037 A 
ATOM     59  C   UNL A   1      42.671  25.137  28.320  1.00  0.00     0.037 A 
ATOM     60  C   UNL A   1      43.353  29.111  33.468  1.00  0.00     0.049 A 
ATOM     61  C   UNL A   1      43.691  25.247  29.421  1.00  0.00     0.074 A 
ATOM     62  C   UNL A   1      44.324  29.070  34.452  1.00  0.00     0.029 A 
ATOM     63  N   UNL A   1      43.636  28.081  32.583  1.00  0.00    -0.354 N 
ATOM     64  N   UNL A   1      43.736  26.079  30.433  1.00  0.00    -0.248 NA
ATOM     65  C   UNL A   1      44.798  24.280  29.387  1.00  0.00     0.031 C 
ATOM     66  C   UNL A   1      45.217  28.037  34.142  1.00  0.00     0.029 A 
ATOM     67  C   UNL A   1      44.776  27.408  32.989  1.00  0.00     0.049 A 
ATOM     68  H   UNL A   1      43.105  27.861  31.783  1.00  0.00     0.167 HD
ATOM     69  C   UNL A   1      44.854  25.717  31.174  1.00  0.00     0.074 A 
ATOM     70  C   UNL A   1      45.447  24.578  30.504  1.00  0.00     0.031 C 
ATOM     71  C   UNL A   1      45.347  26.274  32.308  1.00  0.00     0.037 A 
BRANCH  58  72
ATOM     72  C   UNL A   1      42.072  31.116  34.340  1.00  0.00     0.057 A 
ATOM     73  C   UNL A   1      41.279  30.929  35.478  1.00  0.00     0.134 A 
ATOM     74  C   UNL A   1      42.708  32.357  34.193  1.00  0.00     0.134 A 
ATOM     75  F   UNL A   1      40.640  29.767  35.681  1.00  0.00    -0.206 F 
ATOM     76  C   UNL A   1      41.133  31.933  36.438  1.00  0.00     0.040 A 
ATOM     77  C   UNL A   1      42.593  33.358  35.159  1.00  0.00     0.040 A 
ATOM     78  F   UNL A   1      43.497  32.595  33.134  1.00  0.00    -0.206 F 
ATOM     79  C   UNL A   1      41.800  33.147  36.285  1.00  0.00     0.006 A 
ENDBRANCH  58  72
BRANCH  59  80
ATOM     80  C   UNL A   1      42.792  24.078  27.287  1.00  0.00     0.057 A 
ATOM     81  C   UNL A   1      43.310  24.348  26.017  1.00  0.00     0.134 A 
ATOM     82  C   UNL A   1      42.428  22.755  27.568  1.00  0.00     0.134 A 
ATOM     83  F   UNL A   1      43.672  25.597  25.683  1.00  0.00    -0.206 F 
ATOM     84  C   UNL A   1      43.470  23.341  25.064  1.00  0.00     0.040 A 
ATOM     85  C   UNL A   1      42.605  21.734  26.634  1.00  0.00     0.040 A 
ATOM     86  F   UNL A   1      41.943  22.431  28.776  1.00  0.00    -0.206 F 
ATOM     87  C   UNL A   1      43.127  22.026  25.375  1.00  0.00     0.006 A 
ENDBRANCH  59  80
BRANCH  71  88
ATOM     88  C   UNL A   1      46.564  25.627  32.903  1.00  0.00     0.057 A 
ATOM     89  C   UNL A   1      46.435  24.657  33.906  1.00  0.00     0.134 A 
ATOM     90  C   UNL A   1      47.860  25.956  32.483  1.00  0.00     0.134 A 
ATOM     91  F   UNL A   1      45.224  24.304  34.361  1.00  0.00    -0.206 F 
ATOM     92  C   UNL A   1      47.551  24.031  34.461  1.00  0.00     0.040 A 
ATOM     93  C   UNL A   1      48.981  25.314  33.009  1.00  0.00     0.040 A 
ATOM     94  F   UNL A   1      48.051  26.865  31.515  1.00  0.00    -0.206 F 
ATOM     95  C   UNL A   1      48.828  24.350  34.005  1.00  0.00     0.006 A 
ENDBRANCH  71  88
ENDBRANCH  45  46
ENDBRANCH  37  40
ENDBRANCH  35  36
ENDBRANCH   1  35
TORSDOF 12
ENDMDL
MODEL 2
REMARK VINA RESULT:     -12.9      4.316      9.215
REMARK SMILES C[NH+]1CCN(c2nc3c(cc2F)c(=O)c(C(=O)NCCCNC(=O)c2ccc(-c4c5nc(c(-c6c(F)cccc6F)c6ccc([nH]6)c(-c6c(F)cccc6F)c6nc(c(-c7c(F)cccc7F)c7ccc4[nH]7)C=C6)C=C5)cc2)cn3-c2ccc(F)cc2F)CC1
REMARK SMILES IDX 20 1 19 2 18 3 16 4 17 5 15 7 6 8 7 9 11 10 8 11 10 12 12 13
REMARK SMILES IDX 9 14 80 15 13 16 79 17 14 18 5 19 1 20 2 21 3 22 90 23 4 25
REMARK SMILES IDX 89 26 81 27 82 28 87 29 83 30 86 31 88 32 84 33 85 34 21 35
REMARK SMILES IDX 22 36 23 37 24 39 25 40 26 41 78 42 27 43 77 44 28 45 29 46
REMARK SMILES IDX 30 47 71 48 31 49 76 50 70 51 72 52 32 53 75 54 69 55 68 56
REMARK SMILES IDX 33 58 59 59 42 60 58 61 43 62 46 63 57 64 73 65 44 66 45 67
REMARK SMILES IDX 56 69 74 70 47 71 34 72 35 73 40 74 36 75 37 76 39 77 41 78
REMARK SMILES IDX 38 79 60 80 61 81 66 82 62 83 63 84 65 85 67 86 64 87 48 88
REMARK SMILES IDX 49 89 54 90 50 91 51 92 53 93 55 94 52 95
REMARK H PARENT 18 6 2 24 22 38 72 57 46 68
REMARK Flexibility Score: inf
ROOT
ATOM      1  C   UNL A   1      35.349  23.352  26.668  1.00  0.00     0.042 C 
ENDROOT
BRANCH   1   2
ATOM      2  C   UNL A   1      34.139  22.905  25.852  1.00  0.00     0.118 C 
BRANCH   2   3
ATOM      3  N   UNL A   1      32.963  22.748  26.692  1.00  0.00    -0.352 N 
ATOM      4  C   UNL A   1      31.854  23.515  26.865  1.00  0.00     0.256 C 
ATOM      5  O   UNL A   1      31.011  23.089  27.659  1.00  0.00    -0.269 OA
ATOM      6  H   UNL A   1      32.972  21.931  27.241  1.00  0.00     0.163 HD
BRANCH   4   7
ATOM      7  C   UNL A   1      31.595  24.762  26.097  1.00  0.00     0.104 A 
ATOM      8  C   UNL A   1      29.919  28.857  23.604  1.00  0.00     0.167 A 
ATOM      9  N   UNL A   1      30.949  28.636  24.460  1.00  0.00    -0.209 NA
ATOM     10  C   UNL A   1      29.069  27.819  23.215  1.00  0.00     0.166 A 
ATOM     11  C   UNL A   1      31.156  27.388  24.956  1.00  0.00     0.151 A 
ATOM     12  C   UNL A   1      29.311  26.531  23.648  1.00  0.00     0.059 A 
ATOM     13  F   UNL A   1      28.056  28.032  22.362  1.00  0.00    -0.203 F 
ATOM     14  C   UNL A   1      30.377  26.319  24.518  1.00  0.00     0.069 A 
ATOM     15  N   UNL A   1      32.176  27.140  25.933  1.00  0.00    -0.297 N 
ATOM     16  C   UNL A   1      30.725  24.950  24.918  1.00  0.00     0.203 A 
ATOM     17  C   UNL A   1      32.279  25.859  26.471  1.00  0.00     0.111 A 
ATOM     18  O   UNL A   1      30.312  24.035  24.219  1.00  0.00    -0.288 OA
BRANCH   8  19
ATOM     19  N   UNL A   1      29.769  30.123  23.105  1.00  0.00    -0.343 N 
ATOM     20  C   UNL A   1      27.430  32.792  20.787  1.00  0.00     0.332 C 
ATOM     21  N   UNL A   1      28.502  32.239  21.611  1.00  0.00    -0.334 N 
ATOM     22  C   UNL A   1      29.159  31.096  20.932  1.00  0.00     0.283 C 
ATOM     23  C   UNL A   1      27.967  31.793  22.919  1.00  0.00     0.283 C 
ATOM     24  H   UNL A   1      29.194  32.975  21.761  1.00  0.00     0.347 HD
ATOM     25  C   UNL A   1      30.287  30.452  21.782  1.00  0.00     0.179 C 
ATOM     26  C   UNL A   1      29.052  31.169  23.821  1.00  0.00     0.179 C 
ENDBRANCH   8  19
BRANCH  15  27
ATOM     27  C   UNL A   1      33.030  28.176  26.422  1.00  0.00     0.083 A 
ATOM     28  C   UNL A   1      34.404  28.179  26.122  1.00  0.00     0.033 A 
ATOM     29  C   UNL A   1      32.522  29.225  27.209  1.00  0.00     0.150 A 
ATOM     30  C   UNL A   1      35.231  29.201  26.594  1.00  0.00     0.041 A 
ATOM     31  C   UNL A   1      33.342  30.237  27.694  1.00  0.00     0.080 A 
ATOM     32  F   UNL A   1      31.219  29.251  27.530  1.00  0.00    -0.205 F 
ATOM     33  C   UNL A   1      34.693  30.215  27.378  1.00  0.00     0.126 A 
ATOM     34  F   UNL A   1      35.492  31.187  27.837  1.00  0.00    -0.207 F 
ENDBRANCH  15  27
ENDBRANCH   4   7
ENDBRANCH   2   3
ENDBRANCH   1   2
BRANCH   1  35
ATOM     35  C   UNL A   1      36.579  23.626  25.818  1.00  0.00     0.118 C 
BRANCH  35  36
ATOM     36  N   UNL A   1      37.609  22.616  26.009  1.00  0.00    -0.352 N 
ATOM     37  C   UNL A   1      38.922  22.780  26.378  1.00  0.00     0.251 C 
ATOM     38  H   UNL A   1      37.326  21.686  25.853  1.00  0.00     0.163 HD
ATOM     39  O   UNL A   1      39.713  21.846  26.274  1.00  0.00    -0.269 OA
BRANCH  37  40
ATOM     40  C   UNL A   1      39.385  24.086  26.891  1.00  0.00     0.039 A 
ATOM     41  C   UNL A   1      39.973  24.993  26.006  1.00  0.00     0.014 A 
ATOM     42  C   UNL A   1      39.261  24.403  28.247  1.00  0.00     0.014 A 
ATOM     43  C   UNL A   1      40.397  26.238  26.476  1.00  0.00     0.010 A 
ATOM     44  C   UNL A   1      39.614  25.670  28.699  1.00  0.00     0.010 A 
ATOM     45  C   UNL A   1      40.206  26.590  27.821  1.00  0.00    -0.014 A 
BRANCH  45  46
ATOM     46  C   UNL A   1      40.687  27.894  28.339  1.00  0.00     0.031 A 
ATOM     47  C   UNL A   1      42.156  28.206  28.317  1.00  0.00     0.074 A 
ATOM     48  C   UNL A   1      39.810  28.781  28.843  1.00  0.00     0.049 A 
ATOM     49  N   UNL A   1      42.777  29.295  28.688  1.00  0.00    -0.248 NA
ATOM     50  C   UNL A   1      43.050  27.141  27.832  1.00  0.00     0.031 C 
ATOM     51  C   UNL A   1      38.366  28.573  28.965  1.00  0.00     0.029 A 
ATOM     52  N   UNL A   1      40.010  30.040  29.349  1.00  0.00    -0.354 N 
ATOM     53  C   UNL A   1      44.127  29.050  28.474  1.00  0.00     0.074 A 
ATOM     54  C   UNL A   1      44.243  27.684  28.012  1.00  0.00     0.031 C 
ATOM     55  C   UNL A   1      37.807  29.679  29.486  1.00  0.00     0.029 A 
ATOM     56  C   UNL A   1      38.853  30.663  29.748  1.00  0.00     0.049 A 
ATOM     57  H   UNL A   1      40.899  30.457  29.419  1.00  0.00     0.167 HD
ATOM     58  C   UNL A   1      45.177  29.896  28.612  1.00  0.00     0.037 A 
ATOM     59  C   UNL A   1      38.664  31.895  30.255  1.00  0.00     0.037 A 
ATOM     60  C   UNL A   1      45.063  31.254  29.073  1.00  0.00     0.049 A 
ATOM     61  C   UNL A   1      39.848  32.807  30.423  1.00  0.00     0.074 A 
ATOM     62  C   UNL A   1      46.055  32.204  29.224  1.00  0.00     0.029 A 
ATOM     63  N   UNL A   1      43.874  31.850  29.467  1.00  0.00    -0.354 N 
ATOM     64  N   UNL A   1      41.110  32.592  30.140  1.00  0.00    -0.248 NA
ATOM     65  C   UNL A   1      39.573  34.145  30.966  1.00  0.00     0.031 C 
ATOM     66  C   UNL A   1      45.472  33.366  29.743  1.00  0.00     0.029 A 
ATOM     67  C   UNL A   1      44.110  33.152  29.875  1.00  0.00     0.049 A 
ATOM     68  H   UNL A   1      42.992  31.412  29.458  1.00  0.00     0.167 HD
ATOM     69  C   UNL A   1      41.775  33.775  30.438  1.00  0.00     0.074 A 
ATOM     70  C   UNL A   1      40.771  34.710  30.905  1.00  0.00     0.031 C 
ATOM     71  C   UNL A   1      43.095  34.066  30.334  1.00  0.00     0.037 A 
BRANCH  58  72
ATOM     72  C   UNL A   1      46.531  29.360  28.250  1.00  0.00     0.057 A 
ATOM     73  C   UNL A   1      47.333  28.723  29.204  1.00  0.00     0.134 A 
ATOM     74  C   UNL A   1      47.035  29.460  26.945  1.00  0.00     0.134 A 
ATOM     75  F   UNL A   1      46.915  28.594  30.471  1.00  0.00    -0.206 F 
ATOM     76  C   UNL A   1      48.584  28.197  28.871  1.00  0.00     0.040 A 
ATOM     77  C   UNL A   1      48.271  28.915  26.593  1.00  0.00     0.040 A 
ATOM     78  F   UNL A   1      46.309  30.043  25.979  1.00  0.00    -0.206 F 
ATOM     79  C   UNL A   1      49.051  28.283  27.560  1.00  0.00     0.006 A 
ENDBRANCH  58  72
BRANCH  59  80
ATOM     80  C   UNL A   1      37.299  32.365  30.602  1.00  0.00     0.057 A 
ATOM     81  C   UNL A   1      36.568  33.191  29.742  1.00  0.00     0.134 A 
ATOM     82  C   UNL A   1      36.678  31.958  31.789  1.00  0.00     0.134 A 
ATOM     83  F   UNL A   1      37.109  33.620  28.591  1.00  0.00    -0.206 F 
ATOM     84  C   UNL A   1      35.265  33.591  30.046  1.00  0.00     0.040 A 
ATOM     85  C   UNL A   1      35.369  32.330  32.095  1.00  0.00     0.040 A 
ATOM     86  F   UNL A   1      37.322  31.150  32.644  1.00  0.00    -0.206 F 
ATOM     87  C   UNL A   1      34.658  33.151  31.221  1.00  0.00     0.006 A 
ENDBRANCH  59  80
BRANCH  71  88
ATOM     88  C   UNL A   1      43.509  35.462  30.699  1.00  0.00     0.057 A 
ATOM     89  C   UNL A   1      43.522  36.476  29.732  1.00  0.00     0.134 A 
ATOM     90  C   UNL A   1      43.889  35.807  32.003  1.00  0.00     0.134 A 
ATOM     91  F   UNL A   1      43.180  36.211  28.462  1.00  0.00    -0.206 F 
ATOM     92  C   UNL A   1      43.886  37.783  30.052  1.00  0.00     0.040 A 
ATOM     93  C   UNL A   1      44.225  37.118  32.342  1.00  0.00     0.040 A 
ATOM     94  F   UNL A   1      43.882  34.885  32.979  1.00  0.00    -0.206 F 
ATOM     95  C   UNL A   1      44.228  38.110  31.363  1.00  0.00     0.006 A 
ENDBRANCH  71  88
ENDBRANCH  45  46
ENDBRANCH  37  40
ENDBRANCH  35  36
ENDBRANCH   1  35
TORSDOF 12
ENDMDL
MODEL 3
REMARK VINA RESULT:     -12.6      1.795      2.761
REMARK SMILES C[NH+]1CCN(c2nc3c(cc2F)c(=O)c(C(=O)NCCCNC(=O)c2ccc(-c4c5nc(c(-c6c(F)cccc6F)c6ccc([nH]6)c(-c6c(F)cccc6F)c6nc(c(-c7c(F)cccc7F)c7ccc4[nH]7)C=C6)C=C5)cc2)cn3-c2ccc(F)cc2F)CC1
REMARK SMILES IDX 20 1 19 2 18 3 16 4 17 5 15 7 6 8 7 9 11 10 8 11 10 12 12 13
REMARK SMILES IDX 9 14 80 15 13 16 79 17 14 18 5 19 1 20 2 21 3 22 90 23 4 25
REMARK SMILES IDX 89 26 81 27 82 28 87 29 83 30 86 31 88 32 84 33 85 34 21 35
REMARK SMILES IDX 22 36 23 37 24 39 25 40 26 41 78 42 27 43 77 44 28 45 29 46
REMARK SMILES IDX 30 47 71 48 31 49 76 50 70 51 72 52 32 53 75 54 69 55 68 56
REMARK SMILES IDX 33 58 59 59 42 60 58 61 43 62 46 63 57 64 73 65 44 66 45 67
REMARK SMILES IDX 56 69 74 70 47 71 34 72 35 73 40 74 36 75 37 76 39 77 41 78
REMARK SMILES IDX 38 79 60 80 61 81 66 82 62 83 63 84 65 85 67 86 64 87 48 88
REMARK SMILES IDX 49 89 54 90 50 91 51 92 53 93 55 94 52 95
REMARK H PARENT 18 6 2 24 22 38 72 57 46 68
REMARK Flexibility Score: inf
ROOT
ATOM      1  C   UNL A   1      33.248  29.122  24.686  1.00  0.00     0.042 C 
ENDROOT
BRANCH   1   2
ATOM      2  C   UNL A   1      33.422  27.633  24.401  1.00  0.00     0.118 C 
BRANCH   2   3
ATOM      3  N   UNL A   1      33.457  27.368  22.972  1.00  0.00    -0.352 N 
ATOM      4  C   UNL A   1      33.560  26.216  22.258  1.00  0.00     0.256 C 
ATOM      5  O   UNL A   1      33.546  26.329  21.029  1.00  0.00    -0.269 OA
ATOM      6  H   UNL A   1      33.394  28.178  22.416  1.00  0.00     0.163 HD
BRANCH   4   7
ATOM      7  C   UNL A   1      33.605  24.867  22.883  1.00  0.00     0.104 A 
ATOM      8  C   UNL A   1      33.535  19.987  24.284  1.00  0.00     0.167 A 
ATOM      9  N   UNL A   1      34.368  21.026  24.546  1.00  0.00    -0.209 NA
ATOM     10  C   UNL A   1      32.396  20.157  23.495  1.00  0.00     0.166 A 
ATOM     11  C   UNL A   1      34.098  22.252  24.026  1.00  0.00     0.151 A 
ATOM     12  C   UNL A   1      32.065  21.410  23.022  1.00  0.00     0.059 A 
ATOM     13  F   UNL A   1      31.566  19.133  23.241  1.00  0.00    -0.203 F 
ATOM     14  C   UNL A   1      32.924  22.468  23.308  1.00  0.00     0.069 A 
ATOM     15  N   UNL A   1      35.005  23.348  24.207  1.00  0.00    -0.297 N 
ATOM     16  C   UNL A   1      32.553  23.832  22.909  1.00  0.00     0.203 A 
ATOM     17  C   UNL A   1      34.718  24.555  23.572  1.00  0.00     0.111 A 
ATOM     18  O   UNL A   1      31.373  24.047  22.665  1.00  0.00    -0.288 OA
BRANCH   8  19
ATOM     19  N   UNL A   1      33.830  18.778  24.855  1.00  0.00    -0.343 N 
ATOM     20  C   UNL A   1      32.783  14.696  25.313  1.00  0.00     0.332 C 
ATOM     21  N   UNL A   1      33.467  15.979  25.450  1.00  0.00    -0.334 N 
ATOM     22  C   UNL A   1      32.554  17.013  25.995  1.00  0.00     0.283 C 
ATOM     23  C   UNL A   1      33.988  16.427  24.137  1.00  0.00     0.283 C 
ATOM     24  H   UNL A   1      34.245  15.853  26.098  1.00  0.00     0.347 HD
ATOM     25  C   UNL A   1      33.225  18.406  26.130  1.00  0.00     0.179 C 
ATOM     26  C   UNL A   1      34.694  17.796  24.215  1.00  0.00     0.179 C 
ENDBRANCH   8  19
BRANCH  15  27
ATOM     27  C   UNL A   1      36.221  23.217  24.946  1.00  0.00     0.083 A 
ATOM     28  C   UNL A   1      36.471  24.020  26.072  1.00  0.00     0.033 A 
ATOM     29  C   UNL A   1      37.199  22.276  24.574  1.00  0.00     0.150 A 
ATOM     30  C   UNL A   1      37.656  23.879  26.796  1.00  0.00     0.041 A 
ATOM     31  C   UNL A   1      38.387  22.139  25.281  1.00  0.00     0.080 A 
ATOM     32  F   UNL A   1      37.006  21.499  23.496  1.00  0.00    -0.205 F 
ATOM     33  C   UNL A   1      38.604  22.944  26.391  1.00  0.00     0.126 A 
ATOM     34  F   UNL A   1      39.744  22.820  27.082  1.00  0.00    -0.207 F 
ENDBRANCH  15  27
ENDBRANCH   4   7
ENDBRANCH   2   3
ENDBRANCH   1   2
BRANCH   1  35
ATOM     35  C   UNL A   1      32.641  29.406  26.050  1.00  0.00     0.118 C 
BRANCH  35  36
ATOM     36  N   UNL A   1      32.354  30.821  26.234  1.00  0.00    -0.352 N 
ATOM     37  C   UNL A   1      32.958  31.723  27.074  1.00  0.00     0.251 C 
ATOM     38  H   UNL A   1      31.624  31.180  25.679  1.00  0.00     0.163 HD
ATOM     39  O   UNL A   1      32.447  32.822  27.270  1.00  0.00    -0.269 OA
BRANCH  37  40
ATOM     40  C   UNL A   1      34.223  31.367  27.751  1.00  0.00     0.039 A 
ATOM     41  C   UNL A   1      35.173  32.364  27.984  1.00  0.00     0.014 A 
ATOM     42  C   UNL A   1      34.478  30.046  28.134  1.00  0.00     0.014 A 
ATOM     43  C   UNL A   1      36.362  32.043  28.640  1.00  0.00     0.010 A 
ATOM     44  C   UNL A   1      35.629  29.742  28.854  1.00  0.00     0.010 A 
ATOM     45  C   UNL A   1      36.591  30.734  29.093  1.00  0.00    -0.014 A 
BRANCH  45  46
ATOM     46  C   UNL A   1      37.866  30.374  29.758  1.00  0.00     0.031 A 
ATOM     47  C   UNL A   1      38.149  30.875  31.145  1.00  0.00     0.074 A 
ATOM     48  C   UNL A   1      38.772  29.620  29.109  1.00  0.00     0.049 A 
ATOM     49  N   UNL A   1      39.183  30.648  31.914  1.00  0.00    -0.248 NA
ATOM     50  C   UNL A   1      37.142  31.769  31.742  1.00  0.00     0.031 C 
ATOM     51  C   UNL A   1      38.635  29.115  27.741  1.00  0.00     0.029 A 
ATOM     52  N   UNL A   1      39.991  29.145  29.519  1.00  0.00    -0.354 N 
ATOM     53  C   UNL A   1      38.947  31.361  33.082  1.00  0.00     0.074 A 
ATOM     54  C   UNL A   1      37.711  32.088  32.894  1.00  0.00     0.031 C 
ATOM     55  C   UNL A   1      39.717  28.379  27.436  1.00  0.00     0.029 A 
ATOM     56  C   UNL A   1      40.626  28.373  28.577  1.00  0.00     0.049 A 
ATOM     57  H   UNL A   1      40.375  29.339  30.405  1.00  0.00     0.167 HD
ATOM     58  C   UNL A   1      39.673  31.383  34.226  1.00  0.00     0.037 A 
ATOM     59  C   UNL A   1      41.804  27.725  28.640  1.00  0.00     0.037 A 
ATOM     60  C   UNL A   1      40.904  30.662  34.412  1.00  0.00     0.049 A 
ATOM     61  C   UNL A   1      42.605  27.784  29.913  1.00  0.00     0.074 A 
ATOM     62  C   UNL A   1      41.705  30.591  35.538  1.00  0.00     0.029 A 
ATOM     63  N   UNL A   1      41.516  29.889  33.436  1.00  0.00    -0.354 N 
ATOM     64  N   UNL A   1      42.332  28.395  31.040  1.00  0.00    -0.248 NA
ATOM     65  C   UNL A   1      43.874  27.042  29.924  1.00  0.00     0.031 C 
ATOM     66  C   UNL A   1      42.821  29.803  35.231  1.00  0.00     0.029 A 
ATOM     67  C   UNL A   1      42.692  29.349  33.928  1.00  0.00     0.049 A 
ATOM     68  H   UNL A   1      41.165  29.746  32.527  1.00  0.00     0.167 HD
ATOM     69  C   UNL A   1      43.375  28.087  31.903  1.00  0.00     0.074 A 
ATOM     70  C   UNL A   1      44.275  27.217  31.175  1.00  0.00     0.031 C 
ATOM     71  C   UNL A   1      43.572  28.484  33.185  1.00  0.00     0.037 A 
BRANCH  58  72
ATOM     72  C   UNL A   1      39.136  32.213  35.354  1.00  0.00     0.057 A 
ATOM     73  C   UNL A   1      38.324  31.647  36.344  1.00  0.00     0.134 A 
ATOM     74  C   UNL A   1      39.439  33.577  35.471  1.00  0.00     0.134 A 
ATOM     75  F   UNL A   1      37.992  30.348  36.293  1.00  0.00    -0.206 F 
ATOM     76  C   UNL A   1      37.841  32.405  37.413  1.00  0.00     0.040 A 
ATOM     77  C   UNL A   1      38.986  34.339  36.549  1.00  0.00     0.040 A 
ATOM     78  F   UNL A   1      40.228  34.177  34.566  1.00  0.00    -0.206 F 
ATOM     79  C   UNL A   1      38.181  33.752  37.523  1.00  0.00     0.006 A 
ENDBRANCH  58  72
BRANCH  59  80
ATOM     80  C   UNL A   1      42.286  26.925  27.486  1.00  0.00     0.057 A 
ATOM     81  C   UNL A   1      42.000  25.561  27.370  1.00  0.00     0.134 A 
ATOM     82  C   UNL A   1      43.011  27.524  26.448  1.00  0.00     0.134 A 
ATOM     83  F   UNL A   1      41.315  24.927  28.333  1.00  0.00    -0.206 F 
ATOM     84  C   UNL A   1      42.410  24.821  26.259  1.00  0.00     0.040 A 
ATOM     85  C   UNL A   1      43.406  26.803  25.322  1.00  0.00     0.040 A 
ATOM     86  F   UNL A   1      43.298  28.833  26.495  1.00  0.00    -0.206 F 
ATOM     87  C   UNL A   1      43.106  25.445  25.225  1.00  0.00     0.006 A 
ENDBRANCH  59  80
BRANCH  71  88
ATOM     88  C   UNL A   1      44.789  27.944  33.878  1.00  0.00     0.057 A 
ATOM     89  C   UNL A   1      46.003  28.644  33.833  1.00  0.00     0.134 A 
ATOM     90  C   UNL A   1      44.764  26.740  34.594  1.00  0.00     0.134 A 
ATOM     91  F   UNL A   1      46.099  29.799  33.157  1.00  0.00    -0.206 F 
ATOM     92  C   UNL A   1      47.141  28.170  34.484  1.00  0.00     0.040 A 
ATOM     93  C   UNL A   1      45.888  26.272  35.275  1.00  0.00     0.040 A 
ATOM     94  F   UNL A   1      43.629  26.030  34.689  1.00  0.00    -0.206 F 
ATOM     95  C   UNL A   1      47.083  26.987  35.217  1.00  0.00     0.006 A 
ENDBRANCH  71  88
ENDBRANCH  45  46
ENDBRANCH  37  40
ENDBRANCH  35  36
ENDBRANCH   1  35
TORSDOF 12
ENDMDL
