MODEL 1
REMARK VINA RESULT:     -11.4      0.000      0.000
REMARK SMILES COc1cc(OC(F)(F)F)cc2c1O[C@@H](C(F)(F)F)C(C(=O)NCCCNC(=O)c1ccc(-c3c4nc(c(-c5c(F)cccc5F)c5ccc([nH]5)c(-c5c(F)cccc5F)c5nc(c(-c6c(F)cccc6F)c6ccc3[nH]6)C=C5)C=C4)cc1)=C2
REMARK SMILES IDX 25 1 24 2 23 3 21 4 22 5 20 7 3 8 4 9 13 10 5 11 12 12 14 13
REMARK SMILES IDX 11 14 84 15 15 16 2 17 1 18 6 19 7 20 8 21 9 22 10 23 16 24
REMARK SMILES IDX 17 25 18 26 19 27 26 28 27 29 28 30 29 32 30 33 31 34 83 35
REMARK SMILES IDX 32 36 82 37 33 38 34 39 35 40 76 41 36 42 81 43 75 44 77 45
REMARK SMILES IDX 37 46 80 47 74 48 73 49 38 51 64 52 47 53 63 54 48 55 51 56
REMARK SMILES IDX 62 57 78 58 49 59 50 60 61 62 79 63 52 64 39 65 40 66 45 67
REMARK SMILES IDX 41 68 42 69 44 70 46 71 43 72 65 73 66 74 71 75 67 76 68 77
REMARK SMILES IDX 70 78 72 79 69 80 53 81 54 82 59 83 55 84 56 85 58 86 60 87
REMARK SMILES IDX 57 88
REMARK H PARENT 23 6 27 31 77 50 51 61
REMARK Flexibility Score: inf
ROOT
ATOM      1  C   UNL A   1      38.314  21.193  26.168  1.00  0.00     0.042 C 
ENDROOT
BRANCH   1   2
ATOM      2  C   UNL A   1      38.061  22.646  25.752  1.00  0.00     0.118 C 
BRANCH   2   3
ATOM      3  N   UNL A   1      37.626  22.716  24.367  1.00  0.00    -0.352 N 
ATOM      4  C   UNL A   1      36.431  22.994  23.785  1.00  0.00     0.251 C 
ATOM      5  O   UNL A   1      36.327  22.843  22.571  1.00  0.00    -0.270 OA
ATOM      6  H   UNL A   1      38.343  22.523  23.719  1.00  0.00     0.163 HD
BRANCH   4   7
ATOM      7  C   UNL A   1      35.273  23.533  24.542  1.00  0.00     0.067 C 
ATOM      8  C   UNL A   1      31.849  24.788  26.640  1.00  0.00     0.165 A 
ATOM      9  C   UNL A   1      31.484  26.140  26.611  1.00  0.00     0.097 A 
ATOM     10  C   UNL A   1      32.995  24.351  25.962  1.00  0.00     0.170 A 
ATOM     11  C   UNL A   1      32.278  27.072  25.946  1.00  0.00     0.134 A 
ATOM     12  C   UNL A   1      33.795  25.281  25.301  1.00  0.00     0.025 A 
ATOM     13  O   UNL A   1      33.238  23.011  25.879  1.00  0.00    -0.471 OA
ATOM     14  C   UNL A   1      33.441  26.636  25.304  1.00  0.00     0.059 A 
ATOM     15  C   UNL A   1      34.950  24.835  24.536  1.00  0.00     0.026 C 
ATOM     16  C   UNL A   1      34.564  22.564  25.478  1.00  0.00     0.314 C 
BRANCH   8  17
ATOM     17  O   UNL A   1      30.968  23.971  27.301  1.00  0.00    -0.493 OA
ATOM     18  C   UNL A   1      29.771  23.694  26.576  1.00  0.00     0.278 C 
ENDBRANCH   8  17
BRANCH  11  19
ATOM     19  O   UNL A   1      32.041  28.411  25.828  1.00  0.00    -0.406 OA
BRANCH  19  20
ATOM     20  C   UNL A   1      32.569  29.269  26.827  1.00  0.00     0.573 C 
ATOM     21  F   UNL A   1      31.611  30.064  27.345  1.00  0.00    -0.132 F 
ATOM     22  F   UNL A   1      33.155  28.558  27.813  1.00  0.00    -0.132 F 
ATOM     23  F   UNL A   1      33.510  30.058  26.261  1.00  0.00    -0.132 F 
ENDBRANCH  19  20
ENDBRANCH  11  19
BRANCH  16  24
ATOM     24  C   UNL A   1      34.413  21.109  24.974  1.00  0.00     0.429 C 
ATOM     25  F   UNL A   1      35.591  20.451  24.912  1.00  0.00    -0.167 F 
ATOM     26  F   UNL A   1      33.636  20.382  25.822  1.00  0.00    -0.167 F 
ATOM     27  F   UNL A   1      33.829  21.045  23.755  1.00  0.00    -0.167 F 
ENDBRANCH  16  24
ENDBRANCH   4   7
ENDBRANCH   2   3
ENDBRANCH   1   2
BRANCH   1  28
ATOM     28  C   UNL A   1      38.861  20.319  25.038  1.00  0.00     0.118 C 
BRANCH  28  29
ATOM     29  N   UNL A   1      39.809  19.332  25.528  1.00  0.00    -0.352 N 
ATOM     30  C   UNL A   1      41.034  19.503  26.124  1.00  0.00     0.251 C 
ATOM     31  H   UNL A   1      39.529  18.396  25.414  1.00  0.00     0.163 HD
ATOM     32  O   UNL A   1      41.773  18.532  26.256  1.00  0.00    -0.269 OA
BRANCH  30  33
ATOM     33  C   UNL A   1      41.478  20.830  26.606  1.00  0.00     0.039 A 
ATOM     34  C   UNL A   1      41.338  21.124  27.967  1.00  0.00     0.014 A 
ATOM     35  C   UNL A   1      41.950  21.813  25.730  1.00  0.00     0.014 A 
ATOM     36  C   UNL A   1      41.700  22.382  28.452  1.00  0.00     0.010 A 
ATOM     37  C   UNL A   1      42.367  23.050  26.224  1.00  0.00     0.010 A 
ATOM     38  C   UNL A   1      42.234  23.351  27.587  1.00  0.00    -0.014 A 
BRANCH  38  39
ATOM     39  C   UNL A   1      42.642  24.685  28.100  1.00  0.00     0.031 A 
ATOM     40  C   UNL A   1      41.615  25.763  28.320  1.00  0.00     0.074 A 
ATOM     41  C   UNL A   1      43.943  24.939  28.331  1.00  0.00     0.049 A 
ATOM     42  N   UNL A   1      41.786  26.995  28.726  1.00  0.00    -0.248 NA
ATOM     43  C   UNL A   1      40.217  25.417  28.021  1.00  0.00     0.031 C 
ATOM     44  C   UNL A   1      45.040  23.992  28.119  1.00  0.00     0.029 A 
ATOM     45  N   UNL A   1      44.565  26.072  28.791  1.00  0.00    -0.354 N 
ATOM     46  C   UNL A   1      40.523  27.575  28.719  1.00  0.00     0.074 A 
ATOM     47  C   UNL A   1      39.603  26.573  28.225  1.00  0.00     0.031 C 
ATOM     48  C   UNL A   1      46.198  24.578  28.467  1.00  0.00     0.029 A 
ATOM     49  C   UNL A   1      45.929  25.946  28.899  1.00  0.00     0.049 A 
ATOM     50  H   UNL A   1      44.081  26.897  29.022  1.00  0.00     0.167 HD
ATOM     51  C   UNL A   1      40.159  28.821  29.107  1.00  0.00     0.037 A 
ATOM     52  C   UNL A   1      46.859  26.834  29.298  1.00  0.00     0.037 A 
ATOM     53  C   UNL A   1      41.070  29.809  29.626  1.00  0.00     0.049 A 
ATOM     54  C   UNL A   1      46.429  28.206  29.733  1.00  0.00     0.074 A 
ATOM     55  C   UNL A   1      40.788  31.076  30.105  1.00  0.00     0.029 A 
ATOM     56  N   UNL A   1      42.442  29.637  29.733  1.00  0.00    -0.354 N 
ATOM     57  N   UNL A   1      45.223  28.718  29.780  1.00  0.00    -0.248 NA
ATOM     58  C   UNL A   1      47.490  29.122  30.177  1.00  0.00     0.031 C 
ATOM     59  C   UNL A   1      41.993  31.685  30.469  1.00  0.00     0.029 A 
ATOM     60  C   UNL A   1      43.022  30.783  30.253  1.00  0.00     0.049 A 
ATOM     61  H   UNL A   1      42.931  28.822  29.477  1.00  0.00     0.167 HD
ATOM     62  C   UNL A   1      45.376  30.006  30.276  1.00  0.00     0.074 A 
ATOM     63  C   UNL A   1      46.790  30.191  30.532  1.00  0.00     0.031 C 
ATOM     64  C   UNL A   1      44.431  30.951  30.499  1.00  0.00     0.037 A 
BRANCH  51  65
ATOM     65  C   UNL A   1      38.709  29.186  28.988  1.00  0.00     0.057 A 
ATOM     66  C   UNL A   1      38.147  29.590  27.770  1.00  0.00     0.134 A 
ATOM     67  C   UNL A   1      37.855  29.100  30.096  1.00  0.00     0.134 A 
ATOM     68  F   UNL A   1      38.912  29.703  26.673  1.00  0.00    -0.206 F 
ATOM     69  C   UNL A   1      36.796  29.920  27.662  1.00  0.00     0.040 A 
ATOM     70  C   UNL A   1      36.496  29.404  29.995  1.00  0.00     0.040 A 
ATOM     71  F   UNL A   1      38.327  28.713  31.290  1.00  0.00    -0.206 F 
ATOM     72  C   UNL A   1      35.965  29.823  28.777  1.00  0.00     0.006 A 
ENDBRANCH  51  65
BRANCH  52  73
ATOM     73  C   UNL A   1      48.289  26.441  29.333  1.00  0.00     0.057 A 
ATOM     74  C   UNL A   1      48.843  25.838  30.468  1.00  0.00     0.134 A 
ATOM     75  C   UNL A   1      49.133  26.660  28.240  1.00  0.00     0.134 A 
ATOM     76  F   UNL A   1      48.085  25.620  31.553  1.00  0.00    -0.206 F 
ATOM     77  C   UNL A   1      50.189  25.479  30.520  1.00  0.00     0.040 A 
ATOM     78  C   UNL A   1      50.478  26.287  28.269  1.00  0.00     0.040 A 
ATOM     79  F   UNL A   1      48.660  27.229  27.121  1.00  0.00    -0.206 F 
ATOM     80  C   UNL A   1      51.010  25.699  29.416  1.00  0.00     0.006 A 
ENDBRANCH  52  73
BRANCH  64  81
ATOM     81  C   UNL A   1      44.895  32.260  31.064  1.00  0.00     0.057 A 
ATOM     82  C   UNL A   1      44.995  32.471  32.445  1.00  0.00     0.134 A 
ATOM     83  C   UNL A   1      45.270  33.312  30.219  1.00  0.00     0.134 A 
ATOM     84  F   UNL A   1      44.636  31.507  33.308  1.00  0.00    -0.206 F 
ATOM     85  C   UNL A   1      45.432  33.690  32.966  1.00  0.00     0.040 A 
ATOM     86  C   UNL A   1      45.731  34.527  30.727  1.00  0.00     0.040 A 
ATOM     87  F   UNL A   1      45.203  33.172  28.886  1.00  0.00    -0.206 F 
ATOM     88  C   UNL A   1      45.807  34.719  32.106  1.00  0.00     0.006 A 
ENDBRANCH  64  81
ENDBRANCH  38  39
ENDBRANCH  30  33
ENDBRANCH  28  29
ENDBRANCH   1  28
TORSDOF 14
ENDMDL
MODEL 2
REMARK VINA RESULT:     -11.3      2.760      8.103
REMARK SMILES COc1cc(OC(F)(F)F)cc2c1O[C@@H](C(F)(F)F)C(C(=O)NCCCNC(=O)c1ccc(-c3c4nc(c(-c5c(F)cccc5F)c5ccc([nH]5)c(-c5c(F)cccc5F)c5nc(c(-c6c(F)cccc6F)c6ccc3[nH]6)C=C5)C=C4)cc1)=C2
REMARK SMILES IDX 25 1 24 2 23 3 21 4 22 5 20 7 3 8 4 9 13 10 5 11 12 12 14 13
REMARK SMILES IDX 11 14 84 15 15 16 2 17 1 18 6 19 7 20 8 21 9 22 10 23 16 24
REMARK SMILES IDX 17 25 18 26 19 27 26 28 27 29 28 30 29 32 30 33 31 34 83 35
REMARK SMILES IDX 32 36 82 37 33 38 34 39 35 40 76 41 36 42 81 43 75 44 77 45
REMARK SMILES IDX 37 46 80 47 74 48 73 49 38 51 64 52 47 53 63 54 48 55 51 56
REMARK SMILES IDX 62 57 78 58 49 59 50 60 61 62 79 63 52 64 39 65 40 66 45 67
REMARK SMILES IDX 41 68 42 69 44 70 46 71 43 72 65 73 66 74 71 75 67 76 68 77
REMARK SMILES IDX 70 78 72 79 69 80 53 81 54 82 59 83 55 84 56 85 58 86 60 87
REMARK SMILES IDX 57 88
REMARK H PARENT 23 6 27 31 77 50 51 61
REMARK Flexibility Score: inf
ROOT
ATOM      1  C   UNL A   1      34.397  30.888  27.567  1.00  0.00     0.042 C 
ENDROOT
BRANCH   1   2
ATOM      2  C   UNL A   1      34.401  29.356  27.556  1.00  0.00     0.118 C 
BRANCH   2   3
ATOM      3  N   UNL A   1      33.085  28.835  27.890  1.00  0.00    -0.352 N 
ATOM      4  C   UNL A   1      32.254  27.956  27.272  1.00  0.00     0.251 C 
ATOM      5  O   UNL A   1      31.123  27.809  27.727  1.00  0.00    -0.270 OA
ATOM      6  H   UNL A   1      32.722  29.192  28.733  1.00  0.00     0.163 HD
BRANCH   4   7
ATOM      7  C   UNL A   1      32.677  27.124  26.117  1.00  0.00     0.067 C 
ATOM      8  C   UNL A   1      33.689  24.940  22.667  1.00  0.00     0.165 A 
ATOM      9  C   UNL A   1      33.991  23.577  22.782  1.00  0.00     0.097 A 
ATOM     10  C   UNL A   1      33.365  25.690  23.805  1.00  0.00     0.170 A 
ATOM     11  C   UNL A   1      34.016  22.962  24.032  1.00  0.00     0.134 A 
ATOM     12  C   UNL A   1      33.396  25.080  25.059  1.00  0.00     0.025 A 
ATOM     13  O   UNL A   1      32.926  26.972  23.644  1.00  0.00    -0.471 OA
ATOM     14  C   UNL A   1      33.731  23.724  25.168  1.00  0.00     0.059 A 
ATOM     15  C   UNL A   1      32.996  25.827  26.242  1.00  0.00     0.026 C 
ATOM     16  C   UNL A   1      32.904  27.855  24.801  1.00  0.00     0.314 C 
BRANCH   8  17
ATOM     17  O   UNL A   1      33.667  25.415  21.380  1.00  0.00    -0.493 OA
ATOM     18  C   UNL A   1      32.362  25.512  20.815  1.00  0.00     0.278 C 
ENDBRANCH   8  17
BRANCH  11  19
ATOM     19  O   UNL A   1      34.283  21.649  24.291  1.00  0.00    -0.406 OA
BRANCH  19  20
ATOM     20  C   UNL A   1      35.563  21.320  24.807  1.00  0.00     0.573 C 
ATOM     21  F   UNL A   1      36.546  21.834  24.040  1.00  0.00    -0.132 F 
ATOM     22  F   UNL A   1      35.698  21.759  26.076  1.00  0.00    -0.132 F 
ATOM     23  F   UNL A   1      35.692  19.974  24.811  1.00  0.00    -0.132 F 
ENDBRANCH  19  20
ENDBRANCH  11  19
BRANCH  16  24
ATOM     24  C   UNL A   1      31.918  29.000  24.473  1.00  0.00     0.429 C 
ATOM     25  F   UNL A   1      32.211  30.147  25.125  1.00  0.00    -0.167 F 
ATOM     26  F   UNL A   1      31.965  29.314  23.150  1.00  0.00    -0.167 F 
ATOM     27  F   UNL A   1      30.636  28.670  24.752  1.00  0.00    -0.167 F 
ENDBRANCH  16  24
ENDBRANCH   4   7
ENDBRANCH   2   3
ENDBRANCH   1   2
BRANCH   1  28
ATOM     28  C   UNL A   1      35.559  31.498  28.352  1.00  0.00     0.118 C 
BRANCH  28  29
ATOM     29  N   UNL A   1      35.466  31.206  29.772  1.00  0.00    -0.352 N 
ATOM     30  C   UNL A   1      36.286  30.452  30.575  1.00  0.00     0.251 C 
ATOM     31  H   UNL A   1      34.696  31.612  30.230  1.00  0.00     0.163 HD
ATOM     32  O   UNL A   1      35.902  30.147  31.701  1.00  0.00    -0.269 OA
BRANCH  30  33
ATOM     33  C   UNL A   1      37.616  29.999  30.109  1.00  0.00     0.039 A 
ATOM     34  C   UNL A   1      38.557  29.606  31.067  1.00  0.00     0.014 A 
ATOM     35  C   UNL A   1      37.976  30.033  28.758  1.00  0.00     0.014 A 
ATOM     36  C   UNL A   1      39.839  29.219  30.672  1.00  0.00     0.010 A 
ATOM     37  C   UNL A   1      39.237  29.590  28.358  1.00  0.00     0.010 A 
ATOM     38  C   UNL A   1      40.185  29.191  29.312  1.00  0.00    -0.014 A 
BRANCH  38  39
ATOM     39  C   UNL A   1      41.540  28.759  28.882  1.00  0.00     0.031 A 
ATOM     40  C   UNL A   1      42.675  29.746  28.834  1.00  0.00     0.074 A 
ATOM     41  C   UNL A   1      41.741  27.485  28.496  1.00  0.00     0.049 A 
ATOM     42  N   UNL A   1      43.913  29.563  28.453  1.00  0.00    -0.248 NA
ATOM     43  C   UNL A   1      42.371  31.125  29.247  1.00  0.00     0.031 C 
ATOM     44  C   UNL A   1      40.714  26.442  28.458  1.00  0.00     0.029 A 
ATOM     45  N   UNL A   1      42.876  26.852  28.058  1.00  0.00    -0.354 N 
ATOM     46  C   UNL A   1      44.532  30.802  28.566  1.00  0.00     0.074 A 
ATOM     47  C   UNL A   1      43.521  31.739  29.009  1.00  0.00     0.031 C 
ATOM     48  C   UNL A   1      41.272  25.294  28.038  1.00  0.00     0.029 A 
ATOM     49  C   UNL A   1      42.684  25.526  27.753  1.00  0.00     0.049 A 
ATOM     50  H   UNL A   1      43.746  27.304  27.970  1.00  0.00     0.167 HD
ATOM     51  C   UNL A   1      45.828  31.127  28.341  1.00  0.00     0.037 A 
ATOM     52  C   UNL A   1      43.548  24.602  27.293  1.00  0.00     0.037 A 
ATOM     53  C   UNL A   1      46.841  30.190  27.928  1.00  0.00     0.049 A 
ATOM     54  C   UNL A   1      44.983  24.985  27.060  1.00  0.00     0.074 A 
ATOM     55  C   UNL A   1      48.194  30.410  27.736  1.00  0.00     0.029 A 
ATOM     56  N   UNL A   1      46.609  28.853  27.645  1.00  0.00    -0.354 N 
ATOM     57  N   UNL A   1      45.566  26.146  27.233  1.00  0.00    -0.248 NA
ATOM     58  C   UNL A   1      45.879  23.926  26.577  1.00  0.00     0.031 C 
ATOM     59  C   UNL A   1      48.775  29.213  27.303  1.00  0.00     0.029 A 
ATOM     60  C   UNL A   1      47.791  28.239  27.261  1.00  0.00     0.049 A 
ATOM     61  H   UNL A   1      45.734  28.405  27.706  1.00  0.00     0.167 HD
ATOM     62  C   UNL A   1      46.900  25.954  26.899  1.00  0.00     0.074 A 
ATOM     63  C   UNL A   1      47.043  24.561  26.530  1.00  0.00     0.031 C 
ATOM     64  C   UNL A   1      47.915  26.851  26.896  1.00  0.00     0.037 A 
BRANCH  51  65
ATOM     65  C   UNL A   1      46.226  32.560  28.542  1.00  0.00     0.057 A 
ATOM     66  C   UNL A   1      46.189  33.489  27.494  1.00  0.00     0.134 A 
ATOM     67  C   UNL A   1      46.618  33.024  29.803  1.00  0.00     0.134 A 
ATOM     68  F   UNL A   1      45.831  33.106  26.258  1.00  0.00    -0.206 F 
ATOM     69  C   UNL A   1      46.551  34.823  27.687  1.00  0.00     0.040 A 
ATOM     70  C   UNL A   1      46.961  34.361  30.015  1.00  0.00     0.040 A 
ATOM     71  F   UNL A   1      46.670  32.188  30.851  1.00  0.00    -0.206 F 
ATOM     72  C   UNL A   1      46.934  35.263  28.953  1.00  0.00     0.006 A 
ENDBRANCH  51  65
BRANCH  52  73
ATOM     73  C   UNL A   1      43.085  23.214  27.048  1.00  0.00     0.057 A 
ATOM     74  C   UNL A   1      42.876  22.744  25.747  1.00  0.00     0.134 A 
ATOM     75  C   UNL A   1      42.841  22.329  28.103  1.00  0.00     0.134 A 
ATOM     76  F   UNL A   1      43.076  23.554  24.696  1.00  0.00    -0.206 F 
ATOM     77  C   UNL A   1      42.425  21.447  25.503  1.00  0.00     0.040 A 
ATOM     78  C   UNL A   1      42.410  21.022  27.874  1.00  0.00     0.040 A 
ATOM     79  F   UNL A   1      43.029  22.719  29.372  1.00  0.00    -0.206 F 
ATOM     80  C   UNL A   1      42.195  20.580  26.569  1.00  0.00     0.006 A 
ENDBRANCH  52  73
BRANCH  64  81
ATOM     81  C   UNL A   1      49.271  26.347  26.501  1.00  0.00     0.057 A 
ATOM     82  C   UNL A   1      49.757  26.490  25.195  1.00  0.00     0.134 A 
ATOM     83  C   UNL A   1      50.109  25.737  27.441  1.00  0.00     0.134 A 
ATOM     84  F   UNL A   1      48.996  27.053  24.244  1.00  0.00    -0.206 F 
ATOM     85  C   UNL A   1      51.022  26.023  24.834  1.00  0.00     0.040 A 
ATOM     86  C   UNL A   1      51.385  25.287  27.099  1.00  0.00     0.040 A 
ATOM     87  F   UNL A   1      49.705  25.575  28.711  1.00  0.00    -0.206 F 
ATOM     88  C   UNL A   1      51.841  25.425  25.789  1.00  0.00     0.006 A 
ENDBRANCH  64  81
ENDBRANCH  38  39
ENDBRANCH  30  33
ENDBRANCH  28  29
ENDBRANCH   1  28
TORSDOF 14
ENDMDL
MODEL 3
REMARK VINA RESULT:     -11.3      2.825      7.903
REMARK SMILES COc1cc(OC(F)(F)F)cc2c1O[C@@H](C(F)(F)F)C(C(=O)NCCCNC(=O)c1ccc(-c3c4nc(c(-c5c(F)cccc5F)c5ccc([nH]5)c(-c5c(F)cccc5F)c5nc(c(-c6c(F)cccc6F)c6ccc3[nH]6)C=C5)C=C4)cc1)=C2
REMARK SMILES IDX 25 1 24 2 23 3 21 4 22 5 20 7 3 8 4 9 13 10 5 11 12 12 14 13
REMARK SMILES IDX 11 14 84 15 15 16 2 17 1 18 6 19 7 20 8 21 9 22 10 23 16 24
REMARK SMILES IDX 17 25 18 26 19 27 26 28 27 29 28 30 29 32 30 33 31 34 83 35
REMARK SMILES IDX 32 36 82 37 33 38 34 39 35 40 76 41 36 42 81 43 75 44 77 45
REMARK SMILES IDX 37 46 80 47 74 48 73 49 38 51 64 52 47 53 63 54 48 55 51 56
REMARK SMILES IDX 62 57 78 58 49 59 50 60 61 62 79 63 52 64 39 65 40 66 45 67
REMARK SMILES IDX 41 68 42 69 44 70 46 71 43 72 65 73 66 74 71 75 67 76 68 77
REMARK SMILES IDX 70 78 72 79 69 80 53 81 54 82 59 83 55 84 56 85 58 86 60 87
REMARK SMILES IDX 57 88
REMARK H PARENT 23 6 27 31 77 50 51 61
REMARK Flexibility Score: inf
ROOT
ATOM      1  C   UNL A   1      34.950  30.029  27.663  1.00  0.00     0.042 C 
ENDROOT
BRANCH   1   2
ATOM      2  C   UNL A   1      33.574  30.416  27.113  1.00  0.00     0.118 C 
BRANCH   2   3
ATOM      3  N   UNL A   1      32.541  29.546  27.651  1.00  0.00    -0.352 N 
ATOM      4  C   UNL A   1      31.967  28.401  27.198  1.00  0.00     0.251 C 
ATOM      5  O   UNL A   1      31.004  27.952  27.814  1.00  0.00    -0.270 OA
ATOM      6  H   UNL A   1      32.185  29.847  28.518  1.00  0.00     0.163 HD
BRANCH   4   7
ATOM      7  C   UNL A   1      32.495  27.640  26.037  1.00  0.00     0.067 C 
ATOM      8  C   UNL A   1      33.749  25.592  22.584  1.00  0.00     0.165 A 
ATOM      9  C   UNL A   1      34.420  24.368  22.717  1.00  0.00     0.097 A 
ATOM     10  C   UNL A   1      33.337  26.298  23.721  1.00  0.00     0.170 A 
ATOM     11  C   UNL A   1      34.722  23.863  23.980  1.00  0.00     0.134 A 
ATOM     12  C   UNL A   1      33.644  25.799  24.986  1.00  0.00     0.025 A 
ATOM     13  O   UNL A   1      32.554  27.404  23.559  1.00  0.00    -0.471 OA
ATOM     14  C   UNL A   1      34.343  24.592  25.110  1.00  0.00     0.059 A 
ATOM     15  C   UNL A   1      33.164  26.486  26.176  1.00  0.00     0.026 C 
ATOM     16  C   UNL A   1      32.396  28.321  24.679  1.00  0.00     0.314 C 
BRANCH   8  17
ATOM     17  O   UNL A   1      33.485  25.962  21.289  1.00  0.00    -0.493 OA
ATOM     18  C   UNL A   1      32.322  25.352  20.734  1.00  0.00     0.278 C 
ENDBRANCH   8  17
BRANCH  11  19
ATOM     19  O   UNL A   1      35.358  22.688  24.257  1.00  0.00    -0.406 OA
BRANCH  19  20
ATOM     20  C   UNL A   1      36.735  22.584  23.931  1.00  0.00     0.573 C 
ATOM     21  F   UNL A   1      37.246  21.403  24.336  1.00  0.00    -0.132 F 
ATOM     22  F   UNL A   1      36.928  22.734  22.604  1.00  0.00    -0.132 F 
ATOM     23  F   UNL A   1      37.402  23.573  24.568  1.00  0.00    -0.132 F 
ENDBRANCH  19  20
ENDBRANCH  11  19
BRANCH  16  24
ATOM     24  C   UNL A   1      31.111  29.138  24.412  1.00  0.00     0.429 C 
ATOM     25  F   UNL A   1      31.088  30.311  25.083  1.00  0.00    -0.167 F 
ATOM     26  F   UNL A   1      31.015  29.471  23.097  1.00  0.00    -0.167 F 
ATOM     27  F   UNL A   1      29.989  28.450  24.726  1.00  0.00    -0.167 F 
ENDBRANCH  16  24
ENDBRANCH   4   7
ENDBRANCH   2   3
ENDBRANCH   1   2
BRANCH   1  28
ATOM     28  C   UNL A   1      35.648  31.160  28.418  1.00  0.00     0.118 C 
BRANCH  28  29
ATOM     29  N   UNL A   1      35.612  30.954  29.857  1.00  0.00    -0.352 N 
ATOM     30  C   UNL A   1      36.490  30.290  30.677  1.00  0.00     0.251 C 
ATOM     31  H   UNL A   1      34.837  31.352  30.314  1.00  0.00     0.163 HD
ATOM     32  O   UNL A   1      36.155  30.039  31.831  1.00  0.00    -0.269 OA
BRANCH  30  33
ATOM     33  C   UNL A   1      37.826  29.871  30.196  1.00  0.00     0.039 A 
ATOM     34  C   UNL A   1      38.701  29.268  31.107  1.00  0.00     0.014 A 
ATOM     35  C   UNL A   1      38.257  30.134  28.892  1.00  0.00     0.014 A 
ATOM     36  C   UNL A   1      39.987  28.902  30.706  1.00  0.00     0.010 A 
ATOM     37  C   UNL A   1      39.521  29.715  28.475  1.00  0.00     0.010 A 
ATOM     38  C   UNL A   1      40.403  29.107  29.380  1.00  0.00    -0.014 A 
BRANCH  38  39
ATOM     39  C   UNL A   1      41.763  28.701  28.940  1.00  0.00     0.031 A 
ATOM     40  C   UNL A   1      42.022  27.296  28.468  1.00  0.00     0.074 A 
ATOM     41  C   UNL A   1      42.774  29.587  29.002  1.00  0.00     0.049 A 
ATOM     42  N   UNL A   1      43.146  26.750  28.079  1.00  0.00    -0.248 NA
ATOM     43  C   UNL A   1      40.872  26.379  28.452  1.00  0.00     0.031 C 
ATOM     44  C   UNL A   1      42.662  30.966  29.479  1.00  0.00     0.029 A 
ATOM     45  N   UNL A   1      44.098  29.457  28.666  1.00  0.00    -0.354 N 
ATOM     46  C   UNL A   1      42.843  25.425  27.787  1.00  0.00     0.074 A 
ATOM     47  C   UNL A   1      41.440  25.239  28.086  1.00  0.00     0.031 C 
ATOM     48  C   UNL A   1      43.862  31.561  29.387  1.00  0.00     0.029 A 
ATOM     49  C   UNL A   1      44.832  30.600  28.872  1.00  0.00     0.049 A 
ATOM     50  H   UNL A   1      44.486  28.625  28.311  1.00  0.00     0.167 HD
ATOM     51  C   UNL A   1      43.655  24.457  27.297  1.00  0.00     0.037 A 
ATOM     52  C   UNL A   1      46.140  30.845  28.670  1.00  0.00     0.037 A 
ATOM     53  C   UNL A   1      45.045  24.650  26.972  1.00  0.00     0.049 A 
ATOM     54  C   UNL A   1      47.017  29.758  28.115  1.00  0.00     0.074 A 
ATOM     55  C   UNL A   1      45.933  23.749  26.411  1.00  0.00     0.029 A 
ATOM     56  N   UNL A   1      45.747  25.826  27.181  1.00  0.00    -0.354 N 
ATOM     57  N   UNL A   1      46.702  28.530  27.785  1.00  0.00    -0.248 NA
ATOM     58  C   UNL A   1      48.431  30.096  27.900  1.00  0.00     0.031 C 
ATOM     59  C   UNL A   1      47.182  24.370  26.312  1.00  0.00     0.029 A 
ATOM     60  C   UNL A   1      47.064  25.669  26.776  1.00  0.00     0.049 A 
ATOM     61  H   UNL A   1      45.368  26.652  27.561  1.00  0.00     0.167 HD
ATOM     62  C   UNL A   1      47.870  27.954  27.304  1.00  0.00     0.074 A 
ATOM     63  C   UNL A   1      48.897  28.972  27.369  1.00  0.00     0.031 C 
ATOM     64  C   UNL A   1      48.074  26.693  26.850  1.00  0.00     0.037 A 
BRANCH  51  65
ATOM     65  C   UNL A   1      43.056  23.100  27.076  1.00  0.00     0.057 A 
ATOM     66  C   UNL A   1      42.820  22.216  28.138  1.00  0.00     0.134 A 
ATOM     67  C   UNL A   1      42.678  22.683  25.793  1.00  0.00     0.134 A 
ATOM     68  F   UNL A   1      43.168  22.551  29.390  1.00  0.00    -0.206 F 
ATOM     69  C   UNL A   1      42.255  20.958  27.929  1.00  0.00     0.040 A 
ATOM     70  C   UNL A   1      42.090  21.435  25.575  1.00  0.00     0.040 A 
ATOM     71  F   UNL A   1      42.870  23.482  24.733  1.00  0.00    -0.206 F 
ATOM     72  C   UNL A   1      41.883  20.566  26.644  1.00  0.00     0.006 A 
ENDBRANCH  51  65
BRANCH  52  73
ATOM     73  C   UNL A   1      46.695  32.188  28.968  1.00  0.00     0.057 A 
ATOM     74  C   UNL A   1      47.233  32.483  30.225  1.00  0.00     0.134 A 
ATOM     75  C   UNL A   1      46.700  33.206  28.008  1.00  0.00     0.134 A 
ATOM     76  F   UNL A   1      47.238  31.552  31.191  1.00  0.00    -0.206 F 
ATOM     77  C   UNL A   1      47.743  33.746  30.524  1.00  0.00     0.040 A 
ATOM     78  C   UNL A   1      47.227  34.468  28.285  1.00  0.00     0.040 A 
ATOM     79  F   UNL A   1      46.205  32.984  26.781  1.00  0.00    -0.206 F 
ATOM     80  C   UNL A   1      47.745  34.742  29.550  1.00  0.00     0.006 A 
ENDBRANCH  52  73
BRANCH  64  81
ATOM     81  C   UNL A   1      49.454  26.355  26.372  1.00  0.00     0.057 A 
ATOM     82  C   UNL A   1      50.362  25.661  27.180  1.00  0.00     0.134 A 
ATOM     83  C   UNL A   1      49.869  26.704  25.081  1.00  0.00     0.134 A 
ATOM     84  F   UNL A   1      50.030  25.311  28.432  1.00  0.00    -0.206 F 
ATOM     85  C   UNL A   1      51.645  25.344  26.728  1.00  0.00     0.040 A 
ATOM     86  C   UNL A   1      51.140  26.372  24.609  1.00  0.00     0.040 A 
ATOM     87  F   UNL A   1      49.044  27.365  24.255  1.00  0.00    -0.206 F 
ATOM     88  C   UNL A   1      52.033  25.695  25.437  1.00  0.00     0.006 A 
ENDBRANCH  64  81
ENDBRANCH  38  39
ENDBRANCH  30  33
ENDBRANCH  28  29
ENDBRANCH   1  28
TORSDOF 14
ENDMDL
