MODEL 1
REMARK VINA RESULT:     -11.5      0.000      0.000
REMARK SMILES CC[C@H]1CC[C@](C(=O)NCCCNC(=O)c2ccc(-c3c4nc(c(-c5c(F)cccc5F)c5ccc([nH]5)c(-c5c(F)cccc5F)c5nc(c(-c6c(F)cccc6F)c6ccc3[nH]6)C=C5)C=C4)cc2)([C@H]2CCC[C@@H](S(C)(=O)=O)C2)CC1
REMARK SMILES IDX 11 1 10 2 9 3 7 4 8 5 6 7 3 8 81 9 4 10 80 11 5 12 2 13 1 14
REMARK SMILES IDX 70 15 71 16 79 17 72 18 74 19 73 20 75 21 76 22 77 23 78 24
REMARK SMILES IDX 12 25 13 26 14 27 15 29 16 30 17 31 69 32 18 33 68 34 19 35
REMARK SMILES IDX 20 36 21 37 62 38 22 39 67 40 61 41 63 42 23 43 66 44 60 45
REMARK SMILES IDX 59 46 24 48 50 49 33 50 49 51 34 52 37 53 48 54 64 55 35 56
REMARK SMILES IDX 36 57 47 59 65 60 38 61 25 62 26 63 31 64 27 65 28 66 30 67
REMARK SMILES IDX 32 68 29 69 51 70 52 71 57 72 53 73 54 74 56 75 58 76 55 77
REMARK SMILES IDX 39 78 40 79 45 80 41 81 42 82 44 83 46 84 43 85
REMARK H PARENT 9 6 13 28 63 47 37 58
REMARK Flexibility Score: inf
ROOT
ATOM      1  C   UNL A   1      34.115  28.123  26.160  1.00  0.00     0.042 C 
ENDROOT
BRANCH   1   2
ATOM      2  C   UNL A   1      33.164  27.130  25.514  1.00  0.00     0.117 C 
BRANCH   2   3
ATOM      3  N   UNL A   1      33.486  25.721  25.652  1.00  0.00    -0.356 N 
ATOM      4  C   UNL A   1      32.541  24.767  25.940  1.00  0.00     0.226 C 
ATOM      5  O   UNL A   1      31.672  24.957  26.787  1.00  0.00    -0.274 OA
ATOM      6  H   UNL A   1      34.420  25.438  25.534  1.00  0.00     0.163 HD
BRANCH   4   7
ATOM      7  C   UNL A   1      32.626  23.432  25.183  1.00  0.00     0.052 C 
ATOM      8  C   UNL A   1      31.619  24.845  22.686  1.00  0.00    -0.011 C 
ATOM      9  C   UNL A   1      33.135  24.584  22.898  1.00  0.00     0.005 C 
ATOM     10  C   UNL A   1      30.693  24.336  23.795  1.00  0.00     0.005 C 
ATOM     11  C   UNL A   1      33.549  23.509  23.931  1.00  0.00     0.017 C 
ATOM     12  C   UNL A   1      31.241  23.132  24.552  1.00  0.00     0.017 C 
BRANCH   8  13
ATOM     13  C   UNL A   1      31.360  26.325  22.257  1.00  0.00    -0.000 C 
ATOM     14  C   UNL A   1      30.370  27.148  23.081  1.00  0.00     0.004 C 
ENDBRANCH   8  13
BRANCH   7  15
ATOM     15  C   UNL A   1      33.081  22.294  26.182  1.00  0.00     0.006 C 
ATOM     16  C   UNL A   1      32.804  20.851  25.722  1.00  0.00     0.005 C 
ATOM     17  C   UNL A   1      34.527  22.339  26.740  1.00  0.00     0.024 C 
ATOM     18  C   UNL A   1      33.810  20.268  24.732  1.00  0.00     0.002 C 
ATOM     19  C   UNL A   1      35.662  21.719  25.909  1.00  0.00     0.108 C 
ATOM     20  C   UNL A   1      35.292  20.561  24.979  1.00  0.00     0.020 C 
BRANCH  19  21
ATOM     21  S   UNL A   1      36.907  22.922  25.308  1.00  0.00     0.150 S 
ATOM     22  C   UNL A   1      38.478  22.619  26.094  1.00  0.00     0.158 C 
ATOM     23  O   UNL A   1      37.112  22.764  23.884  1.00  0.00    -0.229 OA
ATOM     24  O   UNL A   1      36.482  24.228  25.795  1.00  0.00    -0.229 OA
ENDBRANCH  19  21
ENDBRANCH   7  15
ENDBRANCH   4   7
ENDBRANCH   2   3
ENDBRANCH   1   2
BRANCH   1  25
ATOM     25  C   UNL A   1      33.590  28.561  27.516  1.00  0.00     0.118 C 
BRANCH  25  26
ATOM     26  N   UNL A   1      33.661  30.013  27.642  1.00  0.00    -0.352 N 
ATOM     27  C   UNL A   1      34.614  30.754  28.300  1.00  0.00     0.251 C 
ATOM     28  H   UNL A   1      32.940  30.521  27.205  1.00  0.00     0.163 HD
ATOM     29  O   UNL A   1      34.323  31.856  28.751  1.00  0.00    -0.269 OA
BRANCH  27  30
ATOM     30  C   UNL A   1      35.981  30.212  28.477  1.00  0.00     0.039 A 
ATOM     31  C   UNL A   1      36.353  29.666  29.709  1.00  0.00     0.014 A 
ATOM     32  C   UNL A   1      36.921  30.307  27.450  1.00  0.00     0.014 A 
ATOM     33  C   UNL A   1      37.664  29.219  29.902  1.00  0.00     0.010 A 
ATOM     34  C   UNL A   1      38.188  29.760  27.603  1.00  0.00     0.010 A 
ATOM     35  C   UNL A   1      38.591  29.256  28.845  1.00  0.00    -0.014 A 
BRANCH  35  36
ATOM     36  C   UNL A   1      40.004  28.842  29.037  1.00  0.00     0.031 A 
ATOM     37  C   UNL A   1      40.991  29.795  29.664  1.00  0.00     0.074 A 
ATOM     38  C   UNL A   1      40.411  27.636  28.599  1.00  0.00     0.049 A 
ATOM     39  N   UNL A   1      42.273  29.638  29.878  1.00  0.00    -0.248 NA
ATOM     40  C   UNL A   1      40.478  31.113  30.071  1.00  0.00     0.031 C 
ATOM     41  C   UNL A   1      39.570  26.656  27.913  1.00  0.00     0.029 A 
ATOM     42  N   UNL A   1      41.642  27.034  28.664  1.00  0.00    -0.354 N 
ATOM     43  C   UNL A   1      42.717  30.841  30.414  1.00  0.00     0.074 A 
ATOM     44  C   UNL A   1      41.585  31.739  30.437  1.00  0.00     0.031 C 
ATOM     45  C   UNL A   1      40.299  25.559  27.652  1.00  0.00     0.029 A 
ATOM     46  C   UNL A   1      41.664  25.773  28.121  1.00  0.00     0.049 A 
ATOM     47  H   UNL A   1      42.433  27.465  29.061  1.00  0.00     0.167 HD
ATOM     48  C   UNL A   1      43.951  31.161  30.874  1.00  0.00     0.037 A 
ATOM     49  C   UNL A   1      42.672  24.888  28.019  1.00  0.00     0.037 A 
ATOM     50  C   UNL A   1      45.064  30.249  30.890  1.00  0.00     0.049 A 
ATOM     51  C   UNL A   1      44.020  25.248  28.578  1.00  0.00     0.074 A 
ATOM     52  C   UNL A   1      46.333  30.443  31.407  1.00  0.00     0.029 A 
ATOM     53  N   UNL A   1      45.036  28.965  30.366  1.00  0.00    -0.354 N 
ATOM     54  N   UNL A   1      44.406  26.360  29.155  1.00  0.00    -0.248 NA
ATOM     55  C   UNL A   1      45.067  24.222  28.484  1.00  0.00     0.031 C 
ATOM     56  C   UNL A   1      47.086  29.290  31.157  1.00  0.00     0.029 A 
ATOM     57  C   UNL A   1      46.272  28.361  30.530  1.00  0.00     0.049 A 
ATOM     58  H   UNL A   1      44.255  28.545  29.941  1.00  0.00     0.167 HD
ATOM     59  C   UNL A   1      45.734  26.163  29.510  1.00  0.00     0.074 A 
ATOM     60  C   UNL A   1      46.078  24.815  29.105  1.00  0.00     0.031 C 
ATOM     61  C   UNL A   1      46.595  27.019  30.115  1.00  0.00     0.037 A 
BRANCH  48  62
ATOM     62  C   UNL A   1      44.154  32.552  31.406  1.00  0.00     0.057 A 
ATOM     63  C   UNL A   1      44.570  33.608  30.584  1.00  0.00     0.134 A 
ATOM     64  C   UNL A   1      43.914  32.843  32.754  1.00  0.00     0.134 A 
ATOM     65  F   UNL A   1      44.832  33.396  29.284  1.00  0.00    -0.206 F 
ATOM     66  C   UNL A   1      44.769  34.894  31.088  1.00  0.00     0.040 A 
ATOM     67  C   UNL A   1      44.081  34.134  33.264  1.00  0.00     0.040 A 
ATOM     68  F   UNL A   1      43.509  31.883  33.598  1.00  0.00    -0.206 F 
ATOM     69  C   UNL A   1      44.518  35.162  32.432  1.00  0.00     0.006 A 
ENDBRANCH  48  62
BRANCH  49  70
ATOM     70  C   UNL A   1      42.430  23.562  27.399  1.00  0.00     0.057 A 
ATOM     71  C   UNL A   1      42.552  23.380  26.015  1.00  0.00     0.134 A 
ATOM     72  C   UNL A   1      42.088  22.445  28.170  1.00  0.00     0.134 A 
ATOM     73  F   UNL A   1      42.863  24.417  25.224  1.00  0.00    -0.206 F 
ATOM     74  C   UNL A   1      42.327  22.139  25.419  1.00  0.00     0.040 A 
ATOM     75  C   UNL A   1      41.884  21.193  27.589  1.00  0.00     0.040 A 
ATOM     76  F   UNL A   1      41.967  22.552  29.501  1.00  0.00    -0.206 F 
ATOM     77  C   UNL A   1      41.998  21.039  26.208  1.00  0.00     0.006 A 
ENDBRANCH  49  70
BRANCH  61  78
ATOM     78  C   UNL A   1      47.979  26.510  30.389  1.00  0.00     0.057 A 
ATOM     79  C   UNL A   1      49.023  26.674  29.470  1.00  0.00     0.134 A 
ATOM     80  C   UNL A   1      48.272  25.859  31.594  1.00  0.00     0.134 A 
ATOM     81  F   UNL A   1      48.804  27.279  28.293  1.00  0.00    -0.206 F 
ATOM     82  C   UNL A   1      50.302  26.178  29.725  1.00  0.00     0.040 A 
ATOM     83  C   UNL A   1      49.554  25.383  31.872  1.00  0.00     0.040 A 
ATOM     84  F   UNL A   1      47.320  25.678  32.522  1.00  0.00    -0.206 F 
ATOM     85  C   UNL A   1      50.571  25.534  30.931  1.00  0.00     0.006 A 
ENDBRANCH  61  78
ENDBRANCH  35  36
ENDBRANCH  27  30
ENDBRANCH  25  26
ENDBRANCH   1  25
TORSDOF 13
ENDMDL
MODEL 2
REMARK VINA RESULT:     -11.3      3.709      5.624
REMARK SMILES CC[C@H]1CC[C@](C(=O)NCCCNC(=O)c2ccc(-c3c4nc(c(-c5c(F)cccc5F)c5ccc([nH]5)c(-c5c(F)cccc5F)c5nc(c(-c6c(F)cccc6F)c6ccc3[nH]6)C=C5)C=C4)cc2)([C@H]2CCC[C@@H](S(C)(=O)=O)C2)CC1
REMARK SMILES IDX 11 1 10 2 9 3 7 4 8 5 6 7 3 8 81 9 4 10 80 11 5 12 2 13 1 14
REMARK SMILES IDX 70 15 71 16 79 17 72 18 74 19 73 20 75 21 76 22 77 23 78 24
REMARK SMILES IDX 12 25 13 26 14 27 15 29 16 30 17 31 69 32 18 33 68 34 19 35
REMARK SMILES IDX 20 36 21 37 62 38 22 39 67 40 61 41 63 42 23 43 66 44 60 45
REMARK SMILES IDX 59 46 24 48 50 49 33 50 49 51 34 52 37 53 48 54 64 55 35 56
REMARK SMILES IDX 36 57 47 59 65 60 38 61 25 62 26 63 31 64 27 65 28 66 30 67
REMARK SMILES IDX 32 68 29 69 51 70 52 71 57 72 53 73 54 74 56 75 58 76 55 77
REMARK SMILES IDX 39 78 40 79 45 80 41 81 42 82 44 83 46 84 43 85
REMARK H PARENT 9 6 13 28 63 47 37 58
REMARK Flexibility Score: inf
ROOT
ATOM      1  C   UNL A   1      31.120  31.773  26.719  1.00  0.00     0.042 C 
ENDROOT
BRANCH   1   2
ATOM      2  C   UNL A   1      30.826  31.564  25.244  1.00  0.00     0.117 C 
BRANCH   2   3
ATOM      3  N   UNL A   1      30.690  30.194  24.784  1.00  0.00    -0.356 N 
ATOM      4  C   UNL A   1      31.757  29.334  24.682  1.00  0.00     0.226 C 
ATOM      5  O   UNL A   1      32.833  29.698  24.217  1.00  0.00    -0.274 OA
ATOM      6  H   UNL A   1      29.797  29.866  24.536  1.00  0.00     0.163 HD
BRANCH   4   7
ATOM      7  C   UNL A   1      31.547  27.884  25.144  1.00  0.00     0.052 C 
ATOM      8  C   UNL A   1      33.657  28.319  27.291  1.00  0.00    -0.011 C 
ATOM      9  C   UNL A   1      32.144  28.426  27.626  1.00  0.00     0.005 C 
ATOM     10  C   UNL A   1      33.996  27.972  25.838  1.00  0.00     0.005 C 
ATOM     11  C   UNL A   1      31.136  27.784  26.643  1.00  0.00     0.017 C 
ATOM     12  C   UNL A   1      32.918  27.157  25.131  1.00  0.00     0.017 C 
BRANCH   8  13
ATOM     13  C   UNL A   1      34.445  29.541  27.863  1.00  0.00    -0.000 C 
ATOM     14  C   UNL A   1      35.429  30.257  26.939  1.00  0.00     0.004 C 
ENDBRANCH   8  13
BRANCH   7  15
ATOM     15  C   UNL A   1      30.495  27.181  24.197  1.00  0.00     0.006 C 
ATOM     16  C   UNL A   1      30.916  27.036  22.723  1.00  0.00     0.005 C 
ATOM     17  C   UNL A   1      29.887  25.828  24.647  1.00  0.00     0.024 C 
ATOM     18  C   UNL A   1      31.848  25.866  22.414  1.00  0.00     0.002 C 
ATOM     19  C   UNL A   1      30.654  24.531  24.341  1.00  0.00     0.108 C 
ATOM     20  C   UNL A   1      31.558  24.532  23.106  1.00  0.00     0.020 C 
BRANCH  19  21
ATOM     21  S   UNL A   1      31.250  23.635  25.824  1.00  0.00     0.150 S 
ATOM     22  C   UNL A   1      33.014  23.402  25.728  1.00  0.00     0.158 C 
ATOM     23  O   UNL A   1      30.993  24.412  27.018  1.00  0.00    -0.229 OA
ATOM     24  O   UNL A   1      30.683  22.295  25.748  1.00  0.00    -0.229 OA
ENDBRANCH  19  21
ENDBRANCH   7  15
ENDBRANCH   4   7
ENDBRANCH   2   3
ENDBRANCH   1   2
BRANCH   1  25
ATOM     25  C   UNL A   1      32.526  32.313  26.913  1.00  0.00     0.118 C 
BRANCH  25  26
ATOM     26  N   UNL A   1      32.481  33.731  27.251  1.00  0.00    -0.352 N 
ATOM     27  C   UNL A   1      33.029  34.352  28.349  1.00  0.00     0.251 C 
ATOM     28  H   UNL A   1      32.000  34.312  26.619  1.00  0.00     0.163 HD
ATOM     29  O   UNL A   1      32.531  35.388  28.774  1.00  0.00    -0.269 OA
BRANCH  27  30
ATOM     30  C   UNL A   1      34.206  33.757  29.024  1.00  0.00     0.039 A 
ATOM     31  C   UNL A   1      35.489  34.209  28.701  1.00  0.00     0.014 A 
ATOM     32  C   UNL A   1      34.050  32.703  29.925  1.00  0.00     0.014 A 
ATOM     33  C   UNL A   1      36.605  33.601  29.284  1.00  0.00     0.010 A 
ATOM     34  C   UNL A   1      35.150  32.177  30.589  1.00  0.00     0.010 A 
ATOM     35  C   UNL A   1      36.443  32.583  30.240  1.00  0.00    -0.014 A 
BRANCH  35  36
ATOM     36  C   UNL A   1      37.609  31.880  30.832  1.00  0.00     0.031 A 
ATOM     37  C   UNL A   1      38.054  32.207  32.236  1.00  0.00     0.074 A 
ATOM     38  C   UNL A   1      38.299  30.991  30.093  1.00  0.00     0.049 A 
ATOM     39  N   UNL A   1      39.070  31.737  32.914  1.00  0.00    -0.248 NA
ATOM     40  C   UNL A   1      37.277  33.226  32.960  1.00  0.00     0.031 C 
ATOM     41  C   UNL A   1      38.012  30.643  28.702  1.00  0.00     0.029 A 
ATOM     42  N   UNL A   1      39.389  30.223  30.412  1.00  0.00    -0.354 N 
ATOM     43  C   UNL A   1      39.067  32.421  34.124  1.00  0.00     0.074 A 
ATOM     44  C   UNL A   1      37.988  33.381  34.065  1.00  0.00     0.031 C 
ATOM     45  C   UNL A   1      38.881  29.703  28.297  1.00  0.00     0.029 A 
ATOM     46  C   UNL A   1      39.805  29.409  29.388  1.00  0.00     0.049 A 
ATOM     47  H   UNL A   1      39.832  30.254  31.291  1.00  0.00     0.167 HD
ATOM     48  C   UNL A   1      39.871  32.246  35.200  1.00  0.00     0.037 A 
ATOM     49  C   UNL A   1      40.815  28.521  29.337  1.00  0.00     0.037 A 
ATOM     50  C   UNL A   1      40.916  31.258  35.271  1.00  0.00     0.049 A 
ATOM     51  C   UNL A   1      41.664  28.310  30.559  1.00  0.00     0.074 A 
ATOM     52  C   UNL A   1      41.735  30.942  36.339  1.00  0.00     0.029 A 
ATOM     53  N   UNL A   1      41.281  30.424  34.224  1.00  0.00    -0.354 N 
ATOM     54  N   UNL A   1      41.600  28.908  31.724  1.00  0.00    -0.248 NA
ATOM     55  C   UNL A   1      42.718  27.292  30.461  1.00  0.00     0.031 C 
ATOM     56  C   UNL A   1      42.625  29.944  35.926  1.00  0.00     0.029 A 
ATOM     57  C   UNL A   1      42.327  29.605  34.615  1.00  0.00     0.049 A 
ATOM     58  H   UNL A   1      40.859  30.415  33.335  1.00  0.00     0.167 HD
ATOM     59  C   UNL A   1      42.590  28.326  32.505  1.00  0.00     0.074 A 
ATOM     60  C   UNL A   1      43.223  27.311  31.686  1.00  0.00     0.031 C 
ATOM     61  C   UNL A   1      42.946  28.605  33.784  1.00  0.00     0.037 A 
BRANCH  48  62
ATOM     62  C   UNL A   1      39.643  33.136  36.389  1.00  0.00     0.057 A 
ATOM     63  C   UNL A   1      38.743  32.797  37.409  1.00  0.00     0.134 A 
ATOM     64  C   UNL A   1      40.346  34.339  36.527  1.00  0.00     0.134 A 
ATOM     65  F   UNL A   1      38.026  31.665  37.335  1.00  0.00    -0.206 F 
ATOM     66  C   UNL A   1      38.527  33.634  38.505  1.00  0.00     0.040 A 
ATOM     67  C   UNL A   1      40.161  35.172  37.634  1.00  0.00     0.040 A 
ATOM     68  F   UNL A   1      41.227  34.726  35.592  1.00  0.00    -0.206 F 
ATOM     69  C   UNL A   1      39.243  34.824  38.623  1.00  0.00     0.006 A 
ENDBRANCH  48  62
BRANCH  49  70
ATOM     70  C   UNL A   1      41.046  27.737  28.100  1.00  0.00     0.057 A 
ATOM     71  C   UNL A   1      41.870  28.228  27.079  1.00  0.00     0.134 A 
ATOM     72  C   UNL A   1      40.467  26.476  27.912  1.00  0.00     0.134 A 
ATOM     73  F   UNL A   1      42.441  29.436  27.195  1.00  0.00    -0.206 F 
ATOM     74  C   UNL A   1      42.096  27.501  25.909  1.00  0.00     0.040 A 
ATOM     75  C   UNL A   1      40.705  25.728  26.758  1.00  0.00     0.040 A 
ATOM     76  F   UNL A   1      39.678  25.946  28.859  1.00  0.00    -0.206 F 
ATOM     77  C   UNL A   1      41.517  26.244  25.750  1.00  0.00     0.006 A 
ENDBRANCH  49  70
BRANCH  61  78
ATOM     78  C   UNL A   1      44.056  27.786  34.373  1.00  0.00     0.057 A 
ATOM     79  C   UNL A   1      45.387  28.219  34.351  1.00  0.00     0.134 A 
ATOM     80  C   UNL A   1      43.786  26.553  34.982  1.00  0.00     0.134 A 
ATOM     81  F   UNL A   1      45.714  29.386  33.774  1.00  0.00    -0.206 F 
ATOM     82  C   UNL A   1      46.416  27.441  34.884  1.00  0.00     0.040 A 
ATOM     83  C   UNL A   1      44.802  25.779  35.542  1.00  0.00     0.040 A 
ATOM     84  F   UNL A   1      42.531  26.084  35.046  1.00  0.00    -0.206 F 
ATOM     85  C   UNL A   1      46.123  26.218  35.484  1.00  0.00     0.006 A 
ENDBRANCH  61  78
ENDBRANCH  35  36
ENDBRANCH  27  30
ENDBRANCH  25  26
ENDBRANCH   1  25
TORSDOF 13
ENDMDL
MODEL 3
REMARK VINA RESULT:     -11.3      2.829      7.955
REMARK SMILES CC[C@H]1CC[C@](C(=O)NCCCNC(=O)c2ccc(-c3c4nc(c(-c5c(F)cccc5F)c5ccc([nH]5)c(-c5c(F)cccc5F)c5nc(c(-c6c(F)cccc6F)c6ccc3[nH]6)C=C5)C=C4)cc2)([C@H]2CCC[C@@H](S(C)(=O)=O)C2)CC1
REMARK SMILES IDX 11 1 10 2 9 3 7 4 8 5 6 7 3 8 81 9 4 10 80 11 5 12 2 13 1 14
REMARK SMILES IDX 70 15 71 16 79 17 72 18 74 19 73 20 75 21 76 22 77 23 78 24
REMARK SMILES IDX 12 25 13 26 14 27 15 29 16 30 17 31 69 32 18 33 68 34 19 35
REMARK SMILES IDX 20 36 21 37 62 38 22 39 67 40 61 41 63 42 23 43 66 44 60 45
REMARK SMILES IDX 59 46 24 48 50 49 33 50 49 51 34 52 37 53 48 54 64 55 35 56
REMARK SMILES IDX 36 57 47 59 65 60 38 61 25 62 26 63 31 64 27 65 28 66 30 67
REMARK SMILES IDX 32 68 29 69 51 70 52 71 57 72 53 73 54 74 56 75 58 76 55 77
REMARK SMILES IDX 39 78 40 79 45 80 41 81 42 82 44 83 46 84 43 85
REMARK H PARENT 9 6 13 28 63 47 37 58
REMARK Flexibility Score: inf
ROOT
ATOM      1  C   UNL A   1      36.189  23.842  26.089  1.00  0.00     0.042 C 
ENDROOT
BRANCH   1   2
ATOM      2  C   UNL A   1      34.834  23.767  25.406  1.00  0.00     0.117 C 
BRANCH   2   3
ATOM      3  N   UNL A   1      34.211  25.025  25.034  1.00  0.00    -0.356 N 
ATOM      4  C   UNL A   1      33.611  25.227  23.815  1.00  0.00     0.226 C 
ATOM      5  O   UNL A   1      34.126  24.831  22.773  1.00  0.00    -0.274 OA
ATOM      6  H   UNL A   1      34.218  25.763  25.683  1.00  0.00     0.163 HD
BRANCH   4   7
ATOM      7  C   UNL A   1      32.282  25.997  23.797  1.00  0.00     0.052 C 
ATOM      8  C   UNL A   1      30.919  23.565  25.013  1.00  0.00    -0.011 C 
ATOM      9  C   UNL A   1      31.360  24.761  25.902  1.00  0.00     0.005 C 
ATOM     10  C   UNL A   1      31.202  23.708  23.515  1.00  0.00     0.005 C 
ATOM     11  C   UNL A   1      31.637  26.116  25.209  1.00  0.00     0.017 C 
ATOM     12  C   UNL A   1      31.232  25.152  23.027  1.00  0.00     0.017 C 
BRANCH   8  13
ATOM     13  C   UNL A   1      31.383  22.207  25.631  1.00  0.00    -0.000 C 
ATOM     14  C   UNL A   1      32.161  21.241  24.739  1.00  0.00     0.004 C 
ENDBRANCH   8  13
BRANCH   7  15
ATOM     15  C   UNL A   1      32.507  27.412  23.130  1.00  0.00     0.006 C 
ATOM     16  C   UNL A   1      31.237  28.129  22.637  1.00  0.00     0.005 C 
ATOM     17  C   UNL A   1      33.370  28.454  23.888  1.00  0.00     0.024 C 
ATOM     18  C   UNL A   1      30.430  28.857  23.710  1.00  0.00     0.002 C 
ATOM     19  C   UNL A   1      32.699  29.340  24.951  1.00  0.00     0.108 C 
ATOM     20  C   UNL A   1      31.211  29.644  24.765  1.00  0.00     0.020 C 
BRANCH  19  21
ATOM     21  S   UNL A   1      33.298  29.058  26.660  1.00  0.00     0.150 S 
ATOM     22  C   UNL A   1      34.166  30.499  27.247  1.00  0.00     0.158 C 
ATOM     23  O   UNL A   1      32.180  28.846  27.555  1.00  0.00    -0.229 OA
ATOM     24  O   UNL A   1      34.309  28.012  26.572  1.00  0.00    -0.229 OA
ENDBRANCH  19  21
ENDBRANCH   7  15
ENDBRANCH   4   7
ENDBRANCH   2   3
ENDBRANCH   1   2
BRANCH   1  25
ATOM     25  C   UNL A   1      37.309  23.704  25.073  1.00  0.00     0.118 C 
BRANCH  25  26
ATOM     26  N   UNL A   1      38.308  22.754  25.547  1.00  0.00    -0.352 N 
ATOM     27  C   UNL A   1      39.519  23.031  26.138  1.00  0.00     0.251 C 
ATOM     28  H   UNL A   1      38.091  21.801  25.428  1.00  0.00     0.163 HD
ATOM     29  O   UNL A   1      40.443  22.232  26.038  1.00  0.00    -0.269 OA
BRANCH  27  30
ATOM     30  C   UNL A   1      39.707  24.300  26.878  1.00  0.00     0.039 A 
ATOM     31  C   UNL A   1      40.443  25.336  26.296  1.00  0.00     0.014 A 
ATOM     32  C   UNL A   1      39.219  24.444  28.178  1.00  0.00     0.014 A 
ATOM     33  C   UNL A   1      40.683  26.508  27.019  1.00  0.00     0.010 A 
ATOM     34  C   UNL A   1      39.359  25.650  28.852  1.00  0.00     0.010 A 
ATOM     35  C   UNL A   1      40.136  26.676  28.303  1.00  0.00    -0.014 A 
BRANCH  35  36
ATOM     36  C   UNL A   1      40.421  27.885  29.117  1.00  0.00     0.031 A 
ATOM     37  C   UNL A   1      41.720  27.995  29.875  1.00  0.00     0.074 A 
ATOM     38  C   UNL A   1      39.494  28.856  29.220  1.00  0.00     0.049 A 
ATOM     39  N   UNL A   1      42.137  28.946  30.673  1.00  0.00    -0.248 NA
ATOM     40  C   UNL A   1      42.661  26.869  29.751  1.00  0.00     0.031 C 
ATOM     41  C   UNL A   1      38.172  28.833  28.594  1.00  0.00     0.029 A 
ATOM     42  N   UNL A   1      39.524  30.049  29.895  1.00  0.00    -0.354 N 
ATOM     43  C   UNL A   1      43.366  28.519  31.161  1.00  0.00     0.074 A 
ATOM     44  C   UNL A   1      43.602  27.199  30.622  1.00  0.00     0.031 C 
ATOM     45  C   UNL A   1      37.530  29.976  28.885  1.00  0.00     0.029 A 
ATOM     46  C   UNL A   1      38.381  30.794  29.743  1.00  0.00     0.049 A 
ATOM     47  H   UNL A   1      40.291  30.342  30.438  1.00  0.00     0.167 HD
ATOM     48  C   UNL A   1      44.236  29.178  31.964  1.00  0.00     0.037 A 
ATOM     49  C   UNL A   1      38.058  32.003  30.236  1.00  0.00     0.037 A 
ATOM     50  C   UNL A   1      44.018  30.510  32.463  1.00  0.00     0.049 A 
ATOM     51  C   UNL A   1      39.058  32.736  31.086  1.00  0.00     0.074 A 
ATOM     52  C   UNL A   1      44.867  31.301  33.216  1.00  0.00     0.029 A 
ATOM     53  N   UNL A   1      42.863  31.248  32.254  1.00  0.00    -0.354 N 
ATOM     54  N   UNL A   1      40.251  32.353  31.476  1.00  0.00    -0.248 NA
ATOM     55  C   UNL A   1      38.671  34.073  31.553  1.00  0.00     0.031 C 
ATOM     56  C   UNL A   1      44.208  32.503  33.497  1.00  0.00     0.029 A 
ATOM     57  C   UNL A   1      42.968  32.479  32.879  1.00  0.00     0.049 A 
ATOM     58  H   UNL A   1      42.082  30.943  31.738  1.00  0.00     0.167 HD
ATOM     59  C   UNL A   1      40.765  33.409  32.216  1.00  0.00     0.074 A 
ATOM     60  C   UNL A   1      39.763  34.456  32.200  1.00  0.00     0.031 C 
ATOM     61  C   UNL A   1      41.957  33.506  32.855  1.00  0.00     0.037 A 
BRANCH  48  62
ATOM     62  C   UNL A   1      45.507  28.469  32.341  1.00  0.00     0.057 A 
ATOM     63  C   UNL A   1      46.668  28.561  31.562  1.00  0.00     0.134 A 
ATOM     64  C   UNL A   1      45.576  27.699  33.509  1.00  0.00     0.134 A 
ATOM     65  F   UNL A   1      46.668  29.271  30.423  1.00  0.00    -0.206 F 
ATOM     66  C   UNL A   1      47.841  27.890  31.912  1.00  0.00     0.040 A 
ATOM     67  C   UNL A   1      46.753  27.047  33.886  1.00  0.00     0.040 A 
ATOM     68  F   UNL A   1      44.505  27.570  34.305  1.00  0.00    -0.206 F 
ATOM     69  C   UNL A   1      47.888  27.135  33.082  1.00  0.00     0.006 A 
ENDBRANCH  48  62
BRANCH  49  70
ATOM     70  C   UNL A   1      36.747  32.612  29.901  1.00  0.00     0.057 A 
ATOM     71  C   UNL A   1      35.620  32.381  30.700  1.00  0.00     0.134 A 
ATOM     72  C   UNL A   1      36.591  33.448  28.789  1.00  0.00     0.134 A 
ATOM     73  F   UNL A   1      35.706  31.577  31.770  1.00  0.00    -0.206 F 
ATOM     74  C   UNL A   1      34.381  32.946  30.396  1.00  0.00     0.040 A 
ATOM     75  C   UNL A   1      35.363  34.039  28.488  1.00  0.00     0.040 A 
ATOM     76  F   UNL A   1      37.635  33.716  27.992  1.00  0.00    -0.206 F 
ATOM     77  C   UNL A   1      34.252  33.784  29.290  1.00  0.00     0.006 A 
ENDBRANCH  49  70
BRANCH  61  78
ATOM     78  C   UNL A   1      42.244  34.794  33.567  1.00  0.00     0.057 A 
ATOM     79  C   UNL A   1      42.927  35.847  32.946  1.00  0.00     0.134 A 
ATOM     80  C   UNL A   1      41.818  34.988  34.888  1.00  0.00     0.134 A 
ATOM     81  F   UNL A   1      43.370  35.721  31.686  1.00  0.00    -0.206 F 
ATOM     82  C   UNL A   1      43.207  37.035  33.623  1.00  0.00     0.040 A 
ATOM     83  C   UNL A   1      42.069  36.182  35.566  1.00  0.00     0.040 A 
ATOM     84  F   UNL A   1      41.150  34.024  35.538  1.00  0.00    -0.206 F 
ATOM     85  C   UNL A   1      42.774  37.205  34.936  1.00  0.00     0.006 A 
ENDBRANCH  61  78
ENDBRANCH  35  36
ENDBRANCH  27  30
ENDBRANCH  25  26
ENDBRANCH   1  25
TORSDOF 13
ENDMDL
