MODEL 1
REMARK VINA RESULT:     -10.6      0.000      0.000
REMARK SMILES C[C@@H](C(=O)NCCCNC(=O)c1ccc(-c2c3nc(c(-c4c(F)cccc4F)c4ccc([nH]4)c(-c4c(F)cccc4F)c4nc(c(-c5c(F)cccc5F)c5ccc2[nH]5)C=C4)C=C3)cc1)[C@@H](C)C(=O)c1cccc(Cl)c1
REMARK SMILES IDX 6 1 5 2 3 3 4 4 2 6 1 7 66 8 67 9 68 10 69 11 70 12 71 13
REMARK SMILES IDX 76 14 72 15 74 16 73 17 75 18 7 19 8 20 9 21 10 22 11 24
REMARK SMILES IDX 12 25 13 26 65 27 14 28 64 29 15 30 16 31 17 32 58 33 18 34
REMARK SMILES IDX 63 35 57 36 59 37 19 38 62 39 56 40 55 41 20 43 46 44 29 45
REMARK SMILES IDX 45 46 30 47 33 48 44 49 60 50 31 51 32 52 43 54 61 55 34 56
REMARK SMILES IDX 21 57 22 58 27 59 23 60 24 61 26 62 28 63 25 64 47 65 48 66
REMARK SMILES IDX 53 67 49 68 50 69 52 70 54 71 51 72 35 73 36 74 41 75 37 76
REMARK SMILES IDX 38 77 40 78 42 79 39 80
REMARK H PARENT 5 5 9 23 59 42 33 53
REMARK Flexibility Score: inf
ROOT
ATOM      1  C   UNL A   1      33.199  34.433  28.741  1.00  0.00     0.117 C 
ENDROOT
BRANCH   1   2
ATOM      2  N   UNL A   1      33.203  35.825  29.156  1.00  0.00    -0.356 N 
ATOM      3  C   UNL A   1      32.979  36.394  30.373  1.00  0.00     0.223 C 
ATOM      4  O   UNL A   1      32.922  37.621  30.425  1.00  0.00    -0.275 OA
ATOM      5  H   UNL A   1      33.401  36.466  28.436  1.00  0.00     0.163 HD
BRANCH   3   6
ATOM      6  C   UNL A   1      32.792  35.515  31.606  1.00  0.00     0.086 C 
ATOM      7  C   UNL A   1      31.699  36.138  32.479  1.00  0.00     0.019 C 
BRANCH   6   8
ATOM      8  C   UNL A   1      34.119  35.354  32.386  1.00  0.00     0.070 C 
ATOM      9  C   UNL A   1      34.213  36.301  33.588  1.00  0.00     0.017 C 
BRANCH   8  10
ATOM     10  C   UNL A   1      34.468  33.932  32.852  1.00  0.00     0.166 C 
ATOM     11  O   UNL A   1      33.602  33.167  33.278  1.00  0.00    -0.294 OA
BRANCH  10  12
ATOM     12  C   UNL A   1      35.818  33.357  32.611  1.00  0.00     0.019 A 
ATOM     13  C   UNL A   1      36.012  32.008  32.944  1.00  0.00     0.012 A 
ATOM     14  C   UNL A   1      36.885  34.106  32.117  1.00  0.00     0.032 A 
ATOM     15  C   UNL A   1      37.254  31.402  32.745  1.00  0.00     0.002 A 
ATOM     16  C   UNL A   1      38.122  33.492  31.914  1.00  0.00     0.041 A 
ATOM     17  C   UNL A   1      38.310  32.145  32.221  1.00  0.00     0.020 A 
ATOM     18  Cl  UNL A   1      39.431  34.416  31.284  1.00  0.00    -0.084 Cl
ENDBRANCH  10  12
ENDBRANCH   8  10
ENDBRANCH   6   8
ENDBRANCH   3   6
ENDBRANCH   1   2
BRANCH   1  19
ATOM     19  C   UNL A   1      34.611  33.894  28.527  1.00  0.00     0.042 C 
BRANCH  19  20
ATOM     20  C   UNL A   1      34.918  32.597  29.270  1.00  0.00     0.118 C 
BRANCH  20  21
ATOM     21  N   UNL A   1      34.256  31.442  28.687  1.00  0.00    -0.352 N 
ATOM     22  C   UNL A   1      34.779  30.257  28.240  1.00  0.00     0.251 C 
ATOM     23  H   UNL A   1      33.279  31.525  28.598  1.00  0.00     0.163 HD
ATOM     24  O   UNL A   1      34.050  29.475  27.629  1.00  0.00    -0.269 OA
BRANCH  22  25
ATOM     25  C   UNL A   1      36.201  29.903  28.462  1.00  0.00     0.039 A 
ATOM     26  C   UNL A   1      37.103  30.088  27.409  1.00  0.00     0.014 A 
ATOM     27  C   UNL A   1      36.643  29.330  29.658  1.00  0.00     0.014 A 
ATOM     28  C   UNL A   1      38.445  29.730  27.563  1.00  0.00     0.010 A 
ATOM     29  C   UNL A   1      37.996  29.040  29.837  1.00  0.00     0.010 A 
ATOM     30  C   UNL A   1      38.907  29.216  28.784  1.00  0.00    -0.014 A 
BRANCH  30  31
ATOM     31  C   UNL A   1      40.325  28.811  28.951  1.00  0.00     0.031 A 
ATOM     32  C   UNL A   1      41.318  29.765  29.561  1.00  0.00     0.074 A 
ATOM     33  C   UNL A   1      40.735  27.600  28.529  1.00  0.00     0.049 A 
ATOM     34  N   UNL A   1      42.602  29.609  29.762  1.00  0.00    -0.248 NA
ATOM     35  C   UNL A   1      40.802  31.080  29.975  1.00  0.00     0.031 C 
ATOM     36  C   UNL A   1      39.888  26.600  27.878  1.00  0.00     0.029 A 
ATOM     37  N   UNL A   1      41.972  27.007  28.580  1.00  0.00    -0.354 N 
ATOM     38  C   UNL A   1      43.048  30.806  30.309  1.00  0.00     0.074 A 
ATOM     39  C   UNL A   1      41.908  31.697  30.361  1.00  0.00     0.031 C 
ATOM     40  C   UNL A   1      40.625  25.510  27.607  1.00  0.00     0.029 A 
ATOM     41  C   UNL A   1      41.999  25.743  28.046  1.00  0.00     0.049 A 
ATOM     42  H   UNL A   1      42.764  27.447  28.964  1.00  0.00     0.167 HD
ATOM     43  C   UNL A   1      44.287  31.130  30.751  1.00  0.00     0.037 A 
ATOM     44  C   UNL A   1      43.014  24.867  27.927  1.00  0.00     0.037 A 
ATOM     45  C   UNL A   1      45.415  30.237  30.730  1.00  0.00     0.049 A 
ATOM     46  C   UNL A   1      44.370  25.231  28.464  1.00  0.00     0.074 A 
ATOM     47  C   UNL A   1      46.701  30.458  31.191  1.00  0.00     0.029 A 
ATOM     48  N   UNL A   1      45.388  28.946  30.226  1.00  0.00    -0.354 N 
ATOM     49  N   UNL A   1      44.764  26.348  29.025  1.00  0.00    -0.248 NA
ATOM     50  C   UNL A   1      45.418  24.205  28.364  1.00  0.00     0.031 C 
ATOM     51  C   UNL A   1      47.459  29.306  30.945  1.00  0.00     0.029 A 
ATOM     52  C   UNL A   1      46.634  28.358  30.362  1.00  0.00     0.049 A 
ATOM     53  H   UNL A   1      44.598  28.511  29.829  1.00  0.00     0.167 HD
ATOM     54  C   UNL A   1      46.095  26.152  29.368  1.00  0.00     0.074 A 
ATOM     55  C   UNL A   1      46.438  24.804  28.964  1.00  0.00     0.031 C 
ATOM     56  C   UNL A   1      46.956  27.012  29.965  1.00  0.00     0.037 A 
BRANCH  43  57
ATOM     57  C   UNL A   1      44.477  32.511  31.306  1.00  0.00     0.057 A 
ATOM     58  C   UNL A   1      44.305  32.785  32.669  1.00  0.00     0.134 A 
ATOM     59  C   UNL A   1      44.845  33.575  30.474  1.00  0.00     0.134 A 
ATOM     60  F   UNL A   1      43.939  31.812  33.517  1.00  0.00    -0.206 F 
ATOM     61  C   UNL A   1      44.464  34.074  33.181  1.00  0.00     0.040 A 
ATOM     62  C   UNL A   1      45.031  34.863  30.977  1.00  0.00     0.040 A 
ATOM     63  F   UNL A   1      45.030  33.380  29.160  1.00  0.00    -0.206 F 
ATOM     64  C   UNL A   1      44.832  35.117  32.334  1.00  0.00     0.006 A 
ENDBRANCH  43  57
BRANCH  44  65
ATOM     65  C   UNL A   1      42.774  23.541  27.310  1.00  0.00     0.057 A 
ATOM     66  C   UNL A   1      42.367  22.448  28.084  1.00  0.00     0.134 A 
ATOM     67  C   UNL A   1      42.939  23.336  25.936  1.00  0.00     0.134 A 
ATOM     68  F   UNL A   1      42.210  22.581  29.408  1.00  0.00    -0.206 F 
ATOM     69  C   UNL A   1      42.150  21.192  27.516  1.00  0.00     0.040 A 
ATOM     70  C   UNL A   1      42.705  22.090  25.351  1.00  0.00     0.040 A 
ATOM     71  F   UNL A   1      43.320  24.346  25.141  1.00  0.00    -0.206 F 
ATOM     72  C   UNL A   1      42.314  21.012  26.144  1.00  0.00     0.006 A 
ENDBRANCH  44  65
BRANCH  56  73
ATOM     73  C   UNL A   1      48.339  26.508  30.249  1.00  0.00     0.057 A 
ATOM     74  C   UNL A   1      49.390  26.686  29.340  1.00  0.00     0.134 A 
ATOM     75  C   UNL A   1      48.628  25.865  31.458  1.00  0.00     0.134 A 
ATOM     76  F   UNL A   1      49.174  27.284  28.158  1.00  0.00    -0.206 F 
ATOM     77  C   UNL A   1      50.676  26.220  29.616  1.00  0.00     0.040 A 
ATOM     78  C   UNL A   1      49.915  25.414  31.754  1.00  0.00     0.040 A 
ATOM     79  F   UNL A   1      47.667  25.670  32.373  1.00  0.00    -0.206 F 
ATOM     80  C   UNL A   1      50.942  25.587  30.828  1.00  0.00     0.006 A 
ENDBRANCH  56  73
ENDBRANCH  30  31
ENDBRANCH  22  25
ENDBRANCH  20  21
ENDBRANCH  19  20
ENDBRANCH   1  19
TORSDOF 13
ENDMDL
MODEL 2
REMARK VINA RESULT:     -10.5      2.670      4.560
REMARK SMILES C[C@@H](C(=O)NCCCNC(=O)c1ccc(-c2c3nc(c(-c4c(F)cccc4F)c4ccc([nH]4)c(-c4c(F)cccc4F)c4nc(c(-c5c(F)cccc5F)c5ccc2[nH]5)C=C4)C=C3)cc1)[C@@H](C)C(=O)c1cccc(Cl)c1
REMARK SMILES IDX 6 1 5 2 3 3 4 4 2 6 1 7 66 8 67 9 68 10 69 11 70 12 71 13
REMARK SMILES IDX 76 14 72 15 74 16 73 17 75 18 7 19 8 20 9 21 10 22 11 24
REMARK SMILES IDX 12 25 13 26 65 27 14 28 64 29 15 30 16 31 17 32 58 33 18 34
REMARK SMILES IDX 63 35 57 36 59 37 19 38 62 39 56 40 55 41 20 43 46 44 29 45
REMARK SMILES IDX 45 46 30 47 33 48 44 49 60 50 31 51 32 52 43 54 61 55 34 56
REMARK SMILES IDX 21 57 22 58 27 59 23 60 24 61 26 62 28 63 25 64 47 65 48 66
REMARK SMILES IDX 53 67 49 68 50 69 52 70 54 71 51 72 35 73 36 74 41 75 37 76
REMARK SMILES IDX 38 77 40 78 42 79 39 80
REMARK H PARENT 5 5 9 23 59 42 33 53
REMARK Flexibility Score: inf
ROOT
ATOM      1  C   UNL A   1      34.974  35.501  32.615  1.00  0.00     0.117 C 
ENDROOT
BRANCH   1   2
ATOM      2  N   UNL A   1      35.010  35.060  33.998  1.00  0.00    -0.356 N 
ATOM      3  C   UNL A   1      35.748  34.091  34.606  1.00  0.00     0.223 C 
ATOM      4  O   UNL A   1      35.493  33.835  35.781  1.00  0.00    -0.275 OA
ATOM      5  H   UNL A   1      34.396  35.543  34.597  1.00  0.00     0.163 HD
BRANCH   3   6
ATOM      6  C   UNL A   1      36.833  33.353  33.828  1.00  0.00     0.086 C 
ATOM      7  C   UNL A   1      36.298  31.969  33.449  1.00  0.00     0.019 C 
BRANCH   6   8
ATOM      8  C   UNL A   1      38.141  33.252  34.649  1.00  0.00     0.070 C 
ATOM      9  C   UNL A   1      38.285  34.389  35.667  1.00  0.00     0.017 C 
BRANCH   8  10
ATOM     10  C   UNL A   1      38.396  31.916  35.366  1.00  0.00     0.166 C 
ATOM     11  O   UNL A   1      37.709  31.562  36.324  1.00  0.00    -0.294 OA
BRANCH  10  12
ATOM     12  C   UNL A   1      39.335  30.911  34.801  1.00  0.00     0.019 A 
ATOM     13  C   UNL A   1      40.665  30.953  35.246  1.00  0.00     0.012 A 
ATOM     14  C   UNL A   1      38.959  29.979  33.835  1.00  0.00     0.032 A 
ATOM     15  C   UNL A   1      41.602  30.041  34.757  1.00  0.00     0.002 A 
ATOM     16  C   UNL A   1      39.900  29.066  33.356  1.00  0.00     0.041 A 
ATOM     17  C   UNL A   1      41.216  29.089  33.815  1.00  0.00     0.020 A 
ATOM     18  Cl  UNL A   1      39.425  27.904  32.178  1.00  0.00    -0.084 Cl
ENDBRANCH  10  12
ENDBRANCH   8  10
ENDBRANCH   6   8
ENDBRANCH   3   6
ENDBRANCH   1   2
BRANCH   1  19
ATOM     19  C   UNL A   1      33.551  35.550  32.064  1.00  0.00     0.042 C 
BRANCH  19  20
ATOM     20  C   UNL A   1      33.397  36.336  30.765  1.00  0.00     0.118 C 
BRANCH  20  21
ATOM     21  N   UNL A   1      32.711  35.583  29.728  1.00  0.00    -0.352 N 
ATOM     22  C   UNL A   1      33.164  34.565  28.930  1.00  0.00     0.251 C 
ATOM     23  H   UNL A   1      31.775  35.847  29.574  1.00  0.00     0.163 HD
ATOM     24  O   UNL A   1      32.458  34.176  27.999  1.00  0.00    -0.269 OA
BRANCH  22  25
ATOM     25  C   UNL A   1      34.486  33.934  29.152  1.00  0.00     0.039 A 
ATOM     26  C   UNL A   1      34.566  32.853  30.037  1.00  0.00     0.014 A 
ATOM     27  C   UNL A   1      35.653  34.431  28.562  1.00  0.00     0.014 A 
ATOM     28  C   UNL A   1      35.800  32.255  30.305  1.00  0.00     0.010 A 
ATOM     29  C   UNL A   1      36.873  33.789  28.774  1.00  0.00     0.010 A 
ATOM     30  C   UNL A   1      36.963  32.709  29.665  1.00  0.00    -0.014 A 
BRANCH  30  31
ATOM     31  C   UNL A   1      38.283  32.095  29.960  1.00  0.00     0.031 A 
ATOM     32  C   UNL A   1      39.284  32.829  30.812  1.00  0.00     0.074 A 
ATOM     33  C   UNL A   1      38.598  30.894  29.441  1.00  0.00     0.049 A 
ATOM     34  N   UNL A   1      40.497  32.474  31.156  1.00  0.00    -0.248 NA
ATOM     35  C   UNL A   1      38.877  34.147  31.323  1.00  0.00     0.031 C 
ATOM     36  C   UNL A   1      37.740  30.100  28.561  1.00  0.00     0.029 A 
ATOM     37  N   UNL A   1      39.734  30.133  29.575  1.00  0.00    -0.354 N 
ATOM     38  C   UNL A   1      41.001  33.530  31.907  1.00  0.00     0.074 A 
ATOM     39  C   UNL A   1      39.983  34.558  31.926  1.00  0.00     0.031 C 
ATOM     40  C   UNL A   1      38.371  28.956  28.248  1.00  0.00     0.029 A 
ATOM     41  C   UNL A   1      39.684  28.945  28.888  1.00  0.00     0.049 A 
ATOM     42  H   UNL A   1      40.509  30.414  30.112  1.00  0.00     0.167 HD
ATOM     43  C   UNL A   1      42.192  33.627  32.544  1.00  0.00     0.037 A 
ATOM     44  C   UNL A   1      40.591  27.957  28.789  1.00  0.00     0.037 A 
ATOM     45  C   UNL A   1      43.195  32.594  32.554  1.00  0.00     0.049 A 
ATOM     46  C   UNL A   1      41.889  28.067  29.540  1.00  0.00     0.074 A 
ATOM     47  C   UNL A   1      44.417  32.583  33.202  1.00  0.00     0.029 A 
ATOM     48  N   UNL A   1      43.084  31.385  31.887  1.00  0.00    -0.354 N 
ATOM     49  N   UNL A   1      42.330  29.049  30.288  1.00  0.00    -0.248 NA
ATOM     50  C   UNL A   1      42.809  26.923  29.445  1.00  0.00     0.031 C 
ATOM     51  C   UNL A   1      45.056  31.372  32.909  1.00  0.00     0.029 A 
ATOM     52  C   UNL A   1      44.216  30.618  32.106  1.00  0.00     0.049 A 
ATOM     53  H   UNL A   1      42.313  31.110  31.338  1.00  0.00     0.167 HD
ATOM     54  C   UNL A   1      43.563  28.633  30.772  1.00  0.00     0.074 A 
ATOM     55  C   UNL A   1      43.795  27.304  30.244  1.00  0.00     0.031 C 
ATOM     56  C   UNL A   1      44.426  29.294  31.583  1.00  0.00     0.037 A 
BRANCH  43  57
ATOM     57  C   UNL A   1      42.466  34.897  33.294  1.00  0.00     0.057 A 
ATOM     58  C   UNL A   1      42.110  35.048  34.641  1.00  0.00     0.134 A 
ATOM     59  C   UNL A   1      43.100  35.978  32.669  1.00  0.00     0.134 A 
ATOM     60  F   UNL A   1      41.486  34.055  35.293  1.00  0.00    -0.206 F 
ATOM     61  C   UNL A   1      42.348  36.237  35.331  1.00  0.00     0.040 A 
ATOM     62  C   UNL A   1      43.366  37.163  33.356  1.00  0.00     0.040 A 
ATOM     63  F   UNL A   1      43.472  35.899  31.383  1.00  0.00    -0.206 F 
ATOM     64  C   UNL A   1      42.982  37.298  34.689  1.00  0.00     0.006 A 
ENDBRANCH  43  57
BRANCH  44  65
ATOM     65  C   UNL A   1      40.285  26.753  27.979  1.00  0.00     0.057 A 
ATOM     66  C   UNL A   1      40.809  26.599  26.691  1.00  0.00     0.134 A 
ATOM     67  C   UNL A   1      39.470  25.729  28.473  1.00  0.00     0.134 A 
ATOM     68  F   UNL A   1      41.583  27.556  26.158  1.00  0.00    -0.206 F 
ATOM     69  C   UNL A   1      40.520  25.477  25.914  1.00  0.00     0.040 A 
ATOM     70  C   UNL A   1      39.189  24.592  27.716  1.00  0.00     0.040 A 
ATOM     71  F   UNL A   1      38.944  25.816  29.704  1.00  0.00    -0.206 F 
ATOM     72  C   UNL A   1      39.710  24.466  26.429  1.00  0.00     0.006 A 
ENDBRANCH  44  65
BRANCH  56  73
ATOM     73  C   UNL A   1      45.682  28.575  31.975  1.00  0.00     0.057 A 
ATOM     74  C   UNL A   1      45.745  27.774  33.123  1.00  0.00     0.134 A 
ATOM     75  C   UNL A   1      46.831  28.662  31.180  1.00  0.00     0.134 A 
ATOM     76  F   UNL A   1      44.681  27.660  33.933  1.00  0.00    -0.206 F 
ATOM     77  C   UNL A   1      46.915  27.101  33.477  1.00  0.00     0.040 A 
ATOM     78  C   UNL A   1      48.000  27.976  31.512  1.00  0.00     0.040 A 
ATOM     79  F   UNL A   1      46.833  29.407  30.065  1.00  0.00    -0.206 F 
ATOM     80  C   UNL A   1      48.046  27.198  32.667  1.00  0.00     0.006 A 
ENDBRANCH  56  73
ENDBRANCH  30  31
ENDBRANCH  22  25
ENDBRANCH  20  21
ENDBRANCH  19  20
ENDBRANCH   1  19
TORSDOF 13
ENDMDL
MODEL 3
REMARK VINA RESULT:     -10.4      4.684      7.484
REMARK SMILES C[C@@H](C(=O)NCCCNC(=O)c1ccc(-c2c3nc(c(-c4c(F)cccc4F)c4ccc([nH]4)c(-c4c(F)cccc4F)c4nc(c(-c5c(F)cccc5F)c5ccc2[nH]5)C=C4)C=C3)cc1)[C@@H](C)C(=O)c1cccc(Cl)c1
REMARK SMILES IDX 6 1 5 2 3 3 4 4 2 6 1 7 66 8 67 9 68 10 69 11 70 12 71 13
REMARK SMILES IDX 76 14 72 15 74 16 73 17 75 18 7 19 8 20 9 21 10 22 11 24
REMARK SMILES IDX 12 25 13 26 65 27 14 28 64 29 15 30 16 31 17 32 58 33 18 34
REMARK SMILES IDX 63 35 57 36 59 37 19 38 62 39 56 40 55 41 20 43 46 44 29 45
REMARK SMILES IDX 45 46 30 47 33 48 44 49 60 50 31 51 32 52 43 54 61 55 34 56
REMARK SMILES IDX 21 57 22 58 27 59 23 60 24 61 26 62 28 63 25 64 47 65 48 66
REMARK SMILES IDX 53 67 49 68 50 69 52 70 54 71 51 72 35 73 36 74 41 75 37 76
REMARK SMILES IDX 38 77 40 78 42 79 39 80
REMARK H PARENT 5 5 9 23 59 42 33 53
REMARK Flexibility Score: inf
ROOT
ATOM      1  C   UNL A   1      31.065  31.131  25.766  1.00  0.00     0.117 C 
ENDROOT
BRANCH   1   2
ATOM      2  N   UNL A   1      32.249  30.405  25.342  1.00  0.00    -0.356 N 
ATOM      3  C   UNL A   1      32.477  29.069  25.210  1.00  0.00     0.223 C 
ATOM      4  O   UNL A   1      33.623  28.711  24.945  1.00  0.00    -0.275 OA
ATOM      5  H   UNL A   1      33.017  30.975  25.109  1.00  0.00     0.163 HD
BRANCH   3   6
ATOM      6  C   UNL A   1      31.336  28.075  25.408  1.00  0.00     0.086 C 
ATOM      7  C   UNL A   1      31.529  27.384  26.761  1.00  0.00     0.019 C 
BRANCH   6   8
ATOM      8  C   UNL A   1      31.279  27.051  24.250  1.00  0.00     0.070 C 
ATOM      9  C   UNL A   1      30.540  25.765  24.639  1.00  0.00     0.017 C 
BRANCH   8  10
ATOM     10  C   UNL A   1      30.711  27.559  22.916  1.00  0.00     0.166 C 
ATOM     11  O   UNL A   1      31.015  27.029  21.847  1.00  0.00    -0.294 OA
BRANCH  10  12
ATOM     12  C   UNL A   1      29.617  28.565  22.883  1.00  0.00     0.019 A 
ATOM     13  C   UNL A   1      28.319  28.113  23.165  1.00  0.00     0.012 A 
ATOM     14  C   UNL A   1      29.824  29.902  22.547  1.00  0.00     0.032 A 
ATOM     15  C   UNL A   1      27.242  29.002  23.151  1.00  0.00     0.002 A 
ATOM     16  C   UNL A   1      28.745  30.787  22.543  1.00  0.00     0.041 A 
ATOM     17  C   UNL A   1      27.458  30.345  22.847  1.00  0.00     0.020 A 
ATOM     18  Cl  UNL A   1      29.010  32.441  22.147  1.00  0.00    -0.084 Cl
ENDBRANCH  10  12
ENDBRANCH   8  10
ENDBRANCH   6   8
ENDBRANCH   3   6
ENDBRANCH   1   2
BRANCH   1  19
ATOM     19  C   UNL A   1      31.334  32.003  26.991  1.00  0.00     0.042 C 
BRANCH  19  20
ATOM     20  C   UNL A   1      32.614  32.831  26.916  1.00  0.00     0.118 C 
BRANCH  20  21
ATOM     21  N   UNL A   1      32.485  34.128  27.557  1.00  0.00    -0.352 N 
ATOM     22  C   UNL A   1      33.152  34.652  28.634  1.00  0.00     0.251 C 
ATOM     23  H   UNL A   1      31.811  34.724  27.156  1.00  0.00     0.163 HD
ATOM     24  O   UNL A   1      32.769  35.719  29.114  1.00  0.00    -0.269 OA
BRANCH  22  25
ATOM     25  C   UNL A   1      34.312  33.957  29.240  1.00  0.00     0.039 A 
ATOM     26  C   UNL A   1      35.598  34.334  28.835  1.00  0.00     0.014 A 
ATOM     27  C   UNL A   1      34.155  32.899  30.141  1.00  0.00     0.014 A 
ATOM     28  C   UNL A   1      36.717  33.677  29.353  1.00  0.00     0.010 A 
ATOM     29  C   UNL A   1      35.274  32.292  30.711  1.00  0.00     0.010 A 
ATOM     30  C   UNL A   1      36.566  32.659  30.306  1.00  0.00    -0.014 A 
BRANCH  30  31
ATOM     31  C   UNL A   1      37.748  31.939  30.845  1.00  0.00     0.031 A 
ATOM     32  C   UNL A   1      38.261  32.254  32.224  1.00  0.00     0.074 A 
ATOM     33  C   UNL A   1      38.381  31.024  30.087  1.00  0.00     0.049 A 
ATOM     34  N   UNL A   1      39.294  31.757  32.857  1.00  0.00    -0.248 NA
ATOM     35  C   UNL A   1      37.532  33.283  32.982  1.00  0.00     0.031 C 
ATOM     36  C   UNL A   1      38.017  30.660  28.717  1.00  0.00     0.029 A 
ATOM     37  N   UNL A   1      39.472  30.237  30.363  1.00  0.00    -0.354 N 
ATOM     38  C   UNL A   1      39.348  32.424  34.075  1.00  0.00     0.074 A 
ATOM     39  C   UNL A   1      38.275  33.394  34.073  1.00  0.00     0.031 C 
ATOM     40  C   UNL A   1      38.857  29.708  28.279  1.00  0.00     0.029 A 
ATOM     41  C   UNL A   1      39.830  29.410  29.327  1.00  0.00     0.049 A 
ATOM     42  H   UNL A   1      39.951  30.264  31.222  1.00  0.00     0.167 HD
ATOM     43  C   UNL A   1      40.196  32.230  35.114  1.00  0.00     0.037 A 
ATOM     44  C   UNL A   1      40.825  28.509  29.234  1.00  0.00     0.037 A 
ATOM     45  C   UNL A   1      41.244  31.244  35.133  1.00  0.00     0.049 A 
ATOM     46  C   UNL A   1      41.728  28.281  30.414  1.00  0.00     0.074 A 
ATOM     47  C   UNL A   1      42.130  30.944  36.153  1.00  0.00     0.029 A 
ATOM     48  N   UNL A   1      41.541  30.391  34.082  1.00  0.00    -0.354 N 
ATOM     49  N   UNL A   1      41.733  28.882  31.578  1.00  0.00    -0.248 NA
ATOM     50  C   UNL A   1      42.753  27.236  30.271  1.00  0.00     0.031 C 
ATOM     51  C   UNL A   1      42.979  29.923  35.710  1.00  0.00     0.029 A 
ATOM     52  C   UNL A   1      42.598  29.565  34.426  1.00  0.00     0.049 A 
ATOM     53  H   UNL A   1      41.070  30.375  33.217  1.00  0.00     0.167 HD
ATOM     54  C   UNL A   1      42.741  28.273  32.315  1.00  0.00     0.074 A 
ATOM     55  C   UNL A   1      43.317  27.247  31.471  1.00  0.00     0.031 C 
ATOM     56  C   UNL A   1      43.152  28.542  33.579  1.00  0.00     0.037 A 
BRANCH  43  57
ATOM     57  C   UNL A   1      40.011  33.101  36.321  1.00  0.00     0.057 A 
ATOM     58  C   UNL A   1      39.104  32.768  37.337  1.00  0.00     0.134 A 
ATOM     59  C   UNL A   1      40.751  34.279  36.477  1.00  0.00     0.134 A 
ATOM     60  F   UNL A   1      38.355  31.659  37.241  1.00  0.00    -0.206 F 
ATOM     61  C   UNL A   1      38.920  33.589  38.450  1.00  0.00     0.040 A 
ATOM     62  C   UNL A   1      40.593  35.097  37.597  1.00  0.00     0.040 A 
ATOM     63  F   UNL A   1      41.638  34.655  35.544  1.00  0.00    -0.206 F 
ATOM     64  C   UNL A   1      39.669  34.756  38.584  1.00  0.00     0.006 A 
ENDBRANCH  43  57
BRANCH  44  65
ATOM     65  C   UNL A   1      40.995  27.724  27.987  1.00  0.00     0.057 A 
ATOM     66  C   UNL A   1      40.372  26.482  27.828  1.00  0.00     0.134 A 
ATOM     67  C   UNL A   1      41.775  28.199  26.927  1.00  0.00     0.134 A 
ATOM     68  F   UNL A   1      39.626  25.969  28.817  1.00  0.00    -0.206 F 
ATOM     69  C   UNL A   1      40.532  25.728  26.664  1.00  0.00     0.040 A 
ATOM     70  C   UNL A   1      41.928  27.466  25.749  1.00  0.00     0.040 A 
ATOM     71  F   UNL A   1      42.391  29.387  27.018  1.00  0.00    -0.206 F 
ATOM     72  C   UNL A   1      41.309  26.224  25.618  1.00  0.00     0.006 A 
ENDBRANCH  44  65
BRANCH  56  73
ATOM     73  C   UNL A   1      44.252  27.689  34.136  1.00  0.00     0.057 A 
ATOM     74  C   UNL A   1      43.990  26.465  34.765  1.00  0.00     0.134 A 
ATOM     75  C   UNL A   1      45.590  28.084  34.014  1.00  0.00     0.134 A 
ATOM     76  F   UNL A   1      42.728  26.038  34.923  1.00  0.00    -0.206 F 
ATOM     77  C   UNL A   1      45.020  25.673  35.273  1.00  0.00     0.040 A 
ATOM     78  C   UNL A   1      46.630  27.290  34.499  1.00  0.00     0.040 A 
ATOM     79  F   UNL A   1      45.907  29.242  33.417  1.00  0.00    -0.206 F 
ATOM     80  C   UNL A   1      46.345  26.083  35.136  1.00  0.00     0.006 A 
ENDBRANCH  56  73
ENDBRANCH  30  31
ENDBRANCH  22  25
ENDBRANCH  20  21
ENDBRANCH  19  20
ENDBRANCH   1  19
TORSDOF 13
ENDMDL
