MODEL 1
REMARK VINA RESULT:     -11.7      0.000      0.000
REMARK SMILES C[C@H]1[C@@H](C(=O)NCCCNC(=O)c2ccc(-c3c4nc(c(-c5c(F)cccc5F)c5ccc([nH]5)c(-c5c(F)cccc5F)c5nc(c(-c6c(F)cccc6F)c6ccc3[nH]6)C=C5)C=C4)cc2)CCN1S(=O)(=O)Cc1cccc(C#N)c1
REMARK SMILES IDX 7 1 6 2 4 3 5 4 3 6 1 7 2 8 69 9 67 10 68 11 70 12 71 13
REMARK SMILES IDX 72 14 73 15 74 16 75 17 81 18 76 19 78 20 77 21 79 22 80 23
REMARK SMILES IDX 8 24 9 25 10 26 11 27 12 29 13 30 14 31 66 32 15 33 65 34
REMARK SMILES IDX 16 35 17 36 18 37 59 38 19 39 64 40 58 41 60 42 20 43 63 44
REMARK SMILES IDX 57 45 56 46 21 48 47 49 30 50 46 51 31 52 34 53 45 54 61 55
REMARK SMILES IDX 32 56 33 57 44 59 62 60 35 61 22 62 23 63 28 64 24 65 25 66
REMARK SMILES IDX 27 67 29 68 26 69 48 70 49 71 54 72 50 73 51 74 53 75 55 76
REMARK SMILES IDX 52 77 36 78 37 79 42 80 38 81 39 82 41 83 43 84 40 85
REMARK H PARENT 6 5 10 28 60 47 34 58
REMARK Flexibility Score: inf
ROOT
ATOM      1  C   UNL A   1      37.095  20.283  24.855  1.00  0.00     0.117 C 
ENDROOT
BRANCH   1   2
ATOM      2  N   UNL A   1      35.874  19.490  24.855  1.00  0.00    -0.356 N 
ATOM      3  C   UNL A   1      34.547  19.795  24.846  1.00  0.00     0.224 C 
ATOM      4  O   UNL A   1      33.791  18.821  24.924  1.00  0.00    -0.275 OA
ATOM      5  H   UNL A   1      36.045  18.520  24.863  1.00  0.00     0.163 HD
BRANCH   3   6
ATOM      6  C   UNL A   1      33.992  21.215  24.626  1.00  0.00     0.098 C 
ATOM      7  C   UNL A   1      34.294  21.707  27.155  1.00  0.00     0.026 C 
ATOM      8  C   UNL A   1      33.929  22.225  25.788  1.00  0.00     0.082 C 
ATOM      9  N   UNL A   1      32.523  22.624  25.985  1.00  0.00    -0.198 NA
ATOM     10  C   UNL A   1      32.539  21.196  24.103  1.00  0.00     0.032 C 
ATOM     11  C   UNL A   1      31.688  21.632  25.287  1.00  0.00     0.103 C 
BRANCH   9  12
ATOM     12  S   UNL A   1      32.073  24.237  25.986  1.00  0.00     0.218 S 
ATOM     13  O   UNL A   1      31.436  24.466  24.704  1.00  0.00    -0.212 OA
ATOM     14  O   UNL A   1      31.332  24.474  27.207  1.00  0.00    -0.212 OA
BRANCH  12  15
ATOM     15  C   UNL A   1      33.603  25.233  25.995  1.00  0.00     0.189 C 
BRANCH  15  16
ATOM     16  C   UNL A   1      33.492  26.611  25.377  1.00  0.00    -0.030 A 
ATOM     17  C   UNL A   1      33.452  26.792  23.990  1.00  0.00     0.005 A 
ATOM     18  C   UNL A   1      33.515  27.764  26.187  1.00  0.00     0.024 A 
ATOM     19  C   UNL A   1      33.362  28.073  23.434  1.00  0.00     0.002 A 
ATOM     20  C   UNL A   1      33.350  29.047  25.639  1.00  0.00     0.052 A 
ATOM     21  C   UNL A   1      33.284  29.198  24.255  1.00  0.00     0.019 A 
BRANCH  20  22
ATOM     22  C   UNL A   1      33.186  30.182  26.499  1.00  0.00     0.099 C 
ATOM     23  N   UNL A   1      33.033  31.076  27.228  1.00  0.00    -0.192 NA
ENDBRANCH  20  22
ENDBRANCH  15  16
ENDBRANCH  12  15
ENDBRANCH   9  12
ENDBRANCH   3   6
ENDBRANCH   1   2
BRANCH   1  24
ATOM     24  C   UNL A   1      38.349  19.403  24.968  1.00  0.00     0.042 C 
BRANCH  24  25
ATOM     25  C   UNL A   1      39.298  19.752  26.095  1.00  0.00     0.118 C 
BRANCH  25  26
ATOM     26  N   UNL A   1      40.566  19.079  25.935  1.00  0.00    -0.352 N 
ATOM     27  C   UNL A   1      41.831  19.613  25.900  1.00  0.00     0.251 C 
ATOM     28  H   UNL A   1      40.517  18.100  25.838  1.00  0.00     0.163 HD
ATOM     29  O   UNL A   1      42.738  18.945  25.407  1.00  0.00    -0.269 OA
BRANCH  27  30
ATOM     30  C   UNL A   1      42.119  20.967  26.439  1.00  0.00     0.039 A 
ATOM     31  C   UNL A   1      42.080  21.154  27.824  1.00  0.00     0.014 A 
ATOM     32  C   UNL A   1      42.353  22.068  25.609  1.00  0.00     0.014 A 
ATOM     33  C   UNL A   1      42.295  22.424  28.365  1.00  0.00     0.010 A 
ATOM     34  C   UNL A   1      42.687  23.307  26.154  1.00  0.00     0.010 A 
ATOM     35  C   UNL A   1      42.627  23.508  27.538  1.00  0.00    -0.014 A 
BRANCH  35  36
ATOM     36  C   UNL A   1      42.883  24.855  28.113  1.00  0.00     0.031 A 
ATOM     37  C   UNL A   1      44.274  25.264  28.521  1.00  0.00     0.074 A 
ATOM     38  C   UNL A   1      41.854  25.709  28.281  1.00  0.00     0.049 A 
ATOM     39  N   UNL A   1      44.687  26.398  29.031  1.00  0.00    -0.248 NA
ATOM     40  C   UNL A   1      45.339  24.261  28.361  1.00  0.00     0.031 C 
ATOM     41  C   UNL A   1      40.453  25.414  27.974  1.00  0.00     0.029 A 
ATOM     42  N   UNL A   1      41.828  27.000  28.744  1.00  0.00    -0.354 N 
ATOM     43  C   UNL A   1      46.052  26.242  29.250  1.00  0.00     0.074 A 
ATOM     44  C   UNL A   1      46.383  24.881  28.890  1.00  0.00     0.031 C 
ATOM     45  C   UNL A   1      39.712  26.506  28.216  1.00  0.00     0.029 A 
ATOM     46  C   UNL A   1      40.572  27.558  28.745  1.00  0.00     0.049 A 
ATOM     47  H   UNL A   1      42.632  27.481  29.048  1.00  0.00     0.167 HD
ATOM     48  C   UNL A   1      46.954  27.155  29.684  1.00  0.00     0.037 A 
ATOM     49  C   UNL A   1      40.159  28.777  29.137  1.00  0.00     0.037 A 
ATOM     50  C   UNL A   1      46.618  28.509  30.043  1.00  0.00     0.049 A 
ATOM     51  C   UNL A   1      41.173  29.764  29.644  1.00  0.00     0.074 A 
ATOM     52  C   UNL A   1      47.461  29.525  30.458  1.00  0.00     0.029 A 
ATOM     53  N   UNL A   1      45.333  29.033  30.039  1.00  0.00    -0.354 N 
ATOM     54  N   UNL A   1      42.469  29.625  29.781  1.00  0.00    -0.248 NA
ATOM     55  C   UNL A   1      40.666  31.084  30.045  1.00  0.00     0.031 C 
ATOM     56  C   UNL A   1      46.679  30.642  30.771  1.00  0.00     0.029 A 
ATOM     57  C   UNL A   1      45.357  30.348  30.477  1.00  0.00     0.049 A 
ATOM     58  H   UNL A   1      44.524  28.543  29.768  1.00  0.00     0.167 HD
ATOM     59  C   UNL A   1      42.937  30.843  30.257  1.00  0.00     0.074 A 
ATOM     60  C   UNL A   1      41.786  31.716  30.361  1.00  0.00     0.031 C 
ATOM     61  C   UNL A   1      44.203  31.207  30.582  1.00  0.00     0.037 A 
BRANCH  48  62
ATOM     62  C   UNL A   1      48.387  26.715  29.801  1.00  0.00     0.057 A 
ATOM     63  C   UNL A   1      49.315  26.923  28.770  1.00  0.00     0.134 A 
ATOM     64  C   UNL A   1      48.856  26.099  30.969  1.00  0.00     0.134 A 
ATOM     65  F   UNL A   1      48.935  27.499  27.618  1.00  0.00    -0.206 F 
ATOM     66  C   UNL A   1      50.642  26.505  28.882  1.00  0.00     0.040 A 
ATOM     67  C   UNL A   1      50.190  25.708  31.106  1.00  0.00     0.040 A 
ATOM     68  F   UNL A   1      48.029  25.875  32.001  1.00  0.00    -0.206 F 
ATOM     69  C   UNL A   1      51.085  25.901  30.058  1.00  0.00     0.006 A 
ENDBRANCH  48  62
BRANCH  49  70
ATOM     70  C   UNL A   1      38.717  29.131  29.060  1.00  0.00     0.057 A 
ATOM     71  C   UNL A   1      38.137  29.573  27.865  1.00  0.00     0.134 A 
ATOM     72  C   UNL A   1      37.885  29.043  30.184  1.00  0.00     0.134 A 
ATOM     73  F   UNL A   1      38.882  29.697  26.757  1.00  0.00    -0.206 F 
ATOM     74  C   UNL A   1      36.790  29.939  27.796  1.00  0.00     0.040 A 
ATOM     75  C   UNL A   1      36.531  29.372  30.121  1.00  0.00     0.040 A 
ATOM     76  F   UNL A   1      38.375  28.616  31.357  1.00  0.00    -0.206 F 
ATOM     77  C   UNL A   1      35.982  29.832  28.927  1.00  0.00     0.006 A 
ENDBRANCH  49  70
BRANCH  61  78
ATOM     78  C   UNL A   1      44.412  32.621  31.047  1.00  0.00     0.057 A 
ATOM     79  C   UNL A   1      44.668  33.670  30.154  1.00  0.00     0.134 A 
ATOM     80  C   UNL A   1      44.340  32.940  32.410  1.00  0.00     0.134 A 
ATOM     81  F   UNL A   1      44.760  33.435  28.836  1.00  0.00    -0.206 F 
ATOM     82  C   UNL A   1      44.888  34.974  30.603  1.00  0.00     0.040 A 
ATOM     83  C   UNL A   1      44.520  34.246  32.866  1.00  0.00     0.040 A 
ATOM     84  F   UNL A   1      44.084  31.989  33.321  1.00  0.00    -0.206 F 
ATOM     85  C   UNL A   1      44.809  35.265  31.963  1.00  0.00     0.006 A 
ENDBRANCH  61  78
ENDBRANCH  35  36
ENDBRANCH  27  30
ENDBRANCH  25  26
ENDBRANCH  24  25
ENDBRANCH   1  24
TORSDOF 14
ENDMDL
MODEL 2
REMARK VINA RESULT:     -11.5      1.347      1.848
REMARK SMILES C[C@H]1[C@@H](C(=O)NCCCNC(=O)c2ccc(-c3c4nc(c(-c5c(F)cccc5F)c5ccc([nH]5)c(-c5c(F)cccc5F)c5nc(c(-c6c(F)cccc6F)c6ccc3[nH]6)C=C5)C=C4)cc2)CCN1S(=O)(=O)Cc1cccc(C#N)c1
REMARK SMILES IDX 7 1 6 2 4 3 5 4 3 6 1 7 2 8 69 9 67 10 68 11 70 12 71 13
REMARK SMILES IDX 72 14 73 15 74 16 75 17 81 18 76 19 78 20 77 21 79 22 80 23
REMARK SMILES IDX 8 24 9 25 10 26 11 27 12 29 13 30 14 31 66 32 15 33 65 34
REMARK SMILES IDX 16 35 17 36 18 37 59 38 19 39 64 40 58 41 60 42 20 43 63 44
REMARK SMILES IDX 57 45 56 46 21 48 47 49 30 50 46 51 31 52 34 53 45 54 61 55
REMARK SMILES IDX 32 56 33 57 44 59 62 60 35 61 22 62 23 63 28 64 24 65 25 66
REMARK SMILES IDX 27 67 29 68 26 69 48 70 49 71 54 72 50 73 51 74 53 75 55 76
REMARK SMILES IDX 52 77 36 78 37 79 42 80 38 81 39 82 41 83 43 84 40 85
REMARK H PARENT 6 5 10 28 60 47 34 58
REMARK Flexibility Score: inf
ROOT
ATOM      1  C   UNL A   1      37.427  20.872  24.664  1.00  0.00     0.117 C 
ENDROOT
BRANCH   1   2
ATOM      2  N   UNL A   1      36.192  20.767  25.427  1.00  0.00    -0.356 N 
ATOM      3  C   UNL A   1      34.922  21.221  25.241  1.00  0.00     0.224 C 
ATOM      4  O   UNL A   1      34.145  20.983  26.171  1.00  0.00    -0.275 OA
ATOM      5  H   UNL A   1      36.298  20.255  26.262  1.00  0.00     0.163 HD
BRANCH   3   6
ATOM      6  C   UNL A   1      34.423  21.868  23.935  1.00  0.00     0.098 C 
ATOM      7  C   UNL A   1      35.385  24.147  24.715  1.00  0.00     0.026 C 
ATOM      8  C   UNL A   1      34.721  23.349  23.624  1.00  0.00     0.082 C 
ATOM      9  N   UNL A   1      33.439  24.061  23.469  1.00  0.00    -0.198 NA
ATOM     10  C   UNL A   1      32.887  21.788  23.797  1.00  0.00     0.032 C 
ATOM     11  C   UNL A   1      32.393  23.204  24.052  1.00  0.00     0.103 C 
BRANCH   9  12
ATOM     12  S   UNL A   1      33.110  24.960  22.096  1.00  0.00     0.218 S 
ATOM     13  O   UNL A   1      34.006  26.099  22.150  1.00  0.00    -0.212 OA
ATOM     14  O   UNL A   1      33.171  24.055  20.967  1.00  0.00    -0.212 OA
BRANCH  12  15
ATOM     15  C   UNL A   1      31.416  25.618  22.263  1.00  0.00     0.189 C 
BRANCH  15  16
ATOM     16  C   UNL A   1      31.281  26.882  23.086  1.00  0.00    -0.030 A 
ATOM     17  C   UNL A   1      30.993  28.116  22.493  1.00  0.00     0.005 A 
ATOM     18  C   UNL A   1      31.530  26.864  24.473  1.00  0.00     0.024 A 
ATOM     19  C   UNL A   1      30.884  29.278  23.266  1.00  0.00     0.002 A 
ATOM     20  C   UNL A   1      31.348  28.011  25.263  1.00  0.00     0.052 A 
ATOM     21  C   UNL A   1      31.034  29.224  24.652  1.00  0.00     0.019 A 
BRANCH  20  22
ATOM     22  C   UNL A   1      31.421  27.920  26.692  1.00  0.00     0.099 C 
ATOM     23  N   UNL A   1      31.500  27.887  27.852  1.00  0.00    -0.192 NA
ENDBRANCH  20  22
ENDBRANCH  15  16
ENDBRANCH  12  15
ENDBRANCH   9  12
ENDBRANCH   3   6
ENDBRANCH   1   2
BRANCH   1  24
ATOM     24  C   UNL A   1      38.356  19.673  24.909  1.00  0.00     0.042 C 
BRANCH  24  25
ATOM     25  C   UNL A   1      39.251  19.774  26.126  1.00  0.00     0.118 C 
BRANCH  25  26
ATOM     26  N   UNL A   1      40.520  19.123  25.894  1.00  0.00    -0.352 N 
ATOM     27  C   UNL A   1      41.776  19.676  25.821  1.00  0.00     0.251 C 
ATOM     28  H   UNL A   1      40.479  18.147  25.772  1.00  0.00     0.163 HD
ATOM     29  O   UNL A   1      42.669  19.034  25.272  1.00  0.00    -0.269 OA
BRANCH  27  30
ATOM     30  C   UNL A   1      42.069  21.018  26.386  1.00  0.00     0.039 A 
ATOM     31  C   UNL A   1      42.012  21.183  27.773  1.00  0.00     0.014 A 
ATOM     32  C   UNL A   1      42.326  22.129  25.577  1.00  0.00     0.014 A 
ATOM     33  C   UNL A   1      42.231  22.442  28.337  1.00  0.00     0.010 A 
ATOM     34  C   UNL A   1      42.663  23.356  26.146  1.00  0.00     0.010 A 
ATOM     35  C   UNL A   1      42.586  23.536  27.532  1.00  0.00    -0.014 A 
BRANCH  35  36
ATOM     36  C   UNL A   1      42.846  24.871  28.132  1.00  0.00     0.031 A 
ATOM     37  C   UNL A   1      44.236  25.260  28.566  1.00  0.00     0.074 A 
ATOM     38  C   UNL A   1      41.824  25.732  28.300  1.00  0.00     0.049 A 
ATOM     39  N   UNL A   1      44.653  26.381  29.100  1.00  0.00    -0.248 NA
ATOM     40  C   UNL A   1      45.293  24.249  28.403  1.00  0.00     0.031 C 
ATOM     41  C   UNL A   1      40.424  25.456  27.970  1.00  0.00     0.029 A 
ATOM     42  N   UNL A   1      41.804  27.016  28.784  1.00  0.00    -0.354 N 
ATOM     43  C   UNL A   1      46.013  26.208  29.335  1.00  0.00     0.074 A 
ATOM     44  C   UNL A   1      46.335  24.850  28.957  1.00  0.00     0.031 C 
ATOM     45  C   UNL A   1      39.690  26.550  28.219  1.00  0.00     0.029 A 
ATOM     46  C   UNL A   1      40.553  27.585  28.777  1.00  0.00     0.049 A 
ATOM     47  H   UNL A   1      42.608  27.484  29.106  1.00  0.00     0.167 HD
ATOM     48  C   UNL A   1      46.917  27.106  29.796  1.00  0.00     0.037 A 
ATOM     49  C   UNL A   1      40.146  28.802  29.183  1.00  0.00     0.037 A 
ATOM     50  C   UNL A   1      46.589  28.457  30.171  1.00  0.00     0.049 A 
ATOM     51  C   UNL A   1      41.162  29.771  29.720  1.00  0.00     0.074 A 
ATOM     52  C   UNL A   1      47.436  29.458  30.614  1.00  0.00     0.029 A 
ATOM     53  N   UNL A   1      45.310  28.994  30.159  1.00  0.00    -0.354 N 
ATOM     54  N   UNL A   1      42.455  29.617  29.871  1.00  0.00    -0.248 NA
ATOM     55  C   UNL A   1      40.662  31.089  30.135  1.00  0.00     0.031 C 
ATOM     56  C   UNL A   1      46.661  30.577  30.935  1.00  0.00     0.029 A 
ATOM     57  C   UNL A   1      45.340  30.301  30.618  1.00  0.00     0.049 A 
ATOM     58  H   UNL A   1      44.500  28.516  29.868  1.00  0.00     0.167 HD
ATOM     59  C   UNL A   1      42.928  30.823  30.374  1.00  0.00     0.074 A 
ATOM     60  C   UNL A   1      41.784  31.706  30.476  1.00  0.00     0.031 C 
ATOM     61  C   UNL A   1      44.192  31.169  30.721  1.00  0.00     0.037 A 
BRANCH  48  62
ATOM     62  C   UNL A   1      48.345  26.650  29.924  1.00  0.00     0.057 A 
ATOM     63  C   UNL A   1      49.290  26.871  28.912  1.00  0.00     0.134 A 
ATOM     64  C   UNL A   1      48.790  26.006  31.086  1.00  0.00     0.134 A 
ATOM     65  F   UNL A   1      48.933  27.475  27.768  1.00  0.00    -0.206 F 
ATOM     66  C   UNL A   1      50.612  26.438  29.035  1.00  0.00     0.040 A 
ATOM     67  C   UNL A   1      50.118  25.599  31.235  1.00  0.00     0.040 A 
ATOM     68  F   UNL A   1      47.946  25.768  32.101  1.00  0.00    -0.206 F 
ATOM     69  C   UNL A   1      51.031  25.806  30.204  1.00  0.00     0.006 A 
ENDBRANCH  48  62
BRANCH  49  70
ATOM     70  C   UNL A   1      38.709  29.171  29.092  1.00  0.00     0.057 A 
ATOM     71  C   UNL A   1      38.142  29.607  27.889  1.00  0.00     0.134 A 
ATOM     72  C   UNL A   1      37.868  29.104  30.211  1.00  0.00     0.134 A 
ATOM     73  F   UNL A   1      38.896  29.711  26.784  1.00  0.00    -0.206 F 
ATOM     74  C   UNL A   1      36.800  29.987  27.807  1.00  0.00     0.040 A 
ATOM     75  C   UNL A   1      36.518  29.447  30.135  1.00  0.00     0.040 A 
ATOM     76  F   UNL A   1      38.345  28.684  31.392  1.00  0.00    -0.206 F 
ATOM     77  C   UNL A   1      35.983  29.901  28.932  1.00  0.00     0.006 A 
ENDBRANCH  49  70
BRANCH  61  78
ATOM     78  C   UNL A   1      44.408  32.573  31.212  1.00  0.00     0.057 A 
ATOM     79  C   UNL A   1      44.362  32.905  32.572  1.00  0.00     0.134 A 
ATOM     80  C   UNL A   1      44.682  33.609  30.307  1.00  0.00     0.134 A 
ATOM     81  F   UNL A   1      44.096  31.965  33.493  1.00  0.00    -0.206 F 
ATOM     82  C   UNL A   1      44.537  34.219  33.011  1.00  0.00     0.040 A 
ATOM     83  C   UNL A   1      44.896  34.919  30.737  1.00  0.00     0.040 A 
ATOM     84  F   UNL A   1      44.755  33.363  28.990  1.00  0.00    -0.206 F 
ATOM     85  C   UNL A   1      44.810  35.229  32.091  1.00  0.00     0.006 A 
ENDBRANCH  61  78
ENDBRANCH  35  36
ENDBRANCH  27  30
ENDBRANCH  25  26
ENDBRANCH  24  25
ENDBRANCH   1  24
TORSDOF 14
ENDMDL
MODEL 3
REMARK VINA RESULT:     -11.5      1.543      2.486
REMARK SMILES C[C@H]1[C@@H](C(=O)NCCCNC(=O)c2ccc(-c3c4nc(c(-c5c(F)cccc5F)c5ccc([nH]5)c(-c5c(F)cccc5F)c5nc(c(-c6c(F)cccc6F)c6ccc3[nH]6)C=C5)C=C4)cc2)CCN1S(=O)(=O)Cc1cccc(C#N)c1
REMARK SMILES IDX 7 1 6 2 4 3 5 4 3 6 1 7 2 8 69 9 67 10 68 11 70 12 71 13
REMARK SMILES IDX 72 14 73 15 74 16 75 17 81 18 76 19 78 20 77 21 79 22 80 23
REMARK SMILES IDX 8 24 9 25 10 26 11 27 12 29 13 30 14 31 66 32 15 33 65 34
REMARK SMILES IDX 16 35 17 36 18 37 59 38 19 39 64 40 58 41 60 42 20 43 63 44
REMARK SMILES IDX 57 45 56 46 21 48 47 49 30 50 46 51 31 52 34 53 45 54 61 55
REMARK SMILES IDX 32 56 33 57 44 59 62 60 35 61 22 62 23 63 28 64 24 65 25 66
REMARK SMILES IDX 27 67 29 68 26 69 48 70 49 71 54 72 50 73 51 74 53 75 55 76
REMARK SMILES IDX 52 77 36 78 37 79 42 80 38 81 39 82 41 83 43 84 40 85
REMARK H PARENT 6 5 10 28 60 47 34 58
REMARK Flexibility Score: inf
ROOT
ATOM      1  C   UNL A   1      37.217  20.351  25.056  1.00  0.00     0.117 C 
ENDROOT
BRANCH   1   2
ATOM      2  N   UNL A   1      36.046  19.517  24.830  1.00  0.00    -0.356 N 
ATOM      3  C   UNL A   1      34.709  19.764  24.740  1.00  0.00     0.224 C 
ATOM      4  O   UNL A   1      34.004  18.759  24.609  1.00  0.00    -0.275 OA
ATOM      5  H   UNL A   1      36.268  18.564  24.716  1.00  0.00     0.163 HD
BRANCH   3   6
ATOM      6  C   UNL A   1      34.099  21.177  24.673  1.00  0.00     0.098 C 
ATOM      7  C   UNL A   1      34.176  21.317  27.262  1.00  0.00     0.026 C 
ATOM      8  C   UNL A   1      33.891  22.008  25.954  1.00  0.00     0.082 C 
ATOM      9  N   UNL A   1      32.455  22.316  26.084  1.00  0.00    -0.198 NA
ATOM     10  C   UNL A   1      32.694  21.172  24.032  1.00  0.00     0.032 C 
ATOM     11  C   UNL A   1      31.732  21.400  25.187  1.00  0.00     0.103 C 
BRANCH   9  12
ATOM     12  S   UNL A   1      31.922  23.893  26.270  1.00  0.00     0.218 S 
ATOM     13  O   UNL A   1      31.345  23.956  27.599  1.00  0.00    -0.212 OA
ATOM     14  O   UNL A   1      33.029  24.761  25.928  1.00  0.00    -0.212 OA
BRANCH  12  15
ATOM     15  C   UNL A   1      30.552  24.152  25.092  1.00  0.00     0.189 C 
BRANCH  15  16
ATOM     16  C   UNL A   1      30.763  25.250  24.072  1.00  0.00    -0.030 A 
ATOM     17  C   UNL A   1      30.306  26.554  24.292  1.00  0.00     0.005 A 
ATOM     18  C   UNL A   1      31.354  24.966  22.824  1.00  0.00     0.024 A 
ATOM     19  C   UNL A   1      30.497  27.556  23.334  1.00  0.00     0.002 A 
ATOM     20  C   UNL A   1      31.615  25.982  21.890  1.00  0.00     0.052 A 
ATOM     21  C   UNL A   1      31.174  27.279  22.146  1.00  0.00     0.019 A 
BRANCH  20  22
ATOM     22  C   UNL A   1      32.386  25.700  20.715  1.00  0.00     0.099 C 
ATOM     23  N   UNL A   1      32.974  25.476  19.737  1.00  0.00    -0.192 NA
ENDBRANCH  20  22
ENDBRANCH  15  16
ENDBRANCH  12  15
ENDBRANCH   9  12
ENDBRANCH   3   6
ENDBRANCH   1   2
BRANCH   1  24
ATOM     24  C   UNL A   1      38.519  19.538  25.001  1.00  0.00     0.042 C 
BRANCH  24  25
ATOM     25  C   UNL A   1      39.409  19.639  26.222  1.00  0.00     0.118 C 
BRANCH  25  26
ATOM     26  N   UNL A   1      40.696  19.028  25.980  1.00  0.00    -0.352 N 
ATOM     27  C   UNL A   1      41.933  19.619  25.897  1.00  0.00     0.251 C 
ATOM     28  H   UNL A   1      40.684  18.051  25.859  1.00  0.00     0.163 HD
ATOM     29  O   UNL A   1      42.841  19.005  25.341  1.00  0.00    -0.269 OA
BRANCH  27  30
ATOM     30  C   UNL A   1      42.189  20.970  26.458  1.00  0.00     0.039 A 
ATOM     31  C   UNL A   1      42.575  21.991  25.586  1.00  0.00     0.014 A 
ATOM     32  C   UNL A   1      42.128  21.233  27.831  1.00  0.00     0.014 A 
ATOM     33  C   UNL A   1      42.875  23.262  26.084  1.00  0.00     0.010 A 
ATOM     34  C   UNL A   1      42.309  22.528  28.312  1.00  0.00     0.010 A 
ATOM     35  C   UNL A   1      42.719  23.551  27.449  1.00  0.00    -0.014 A 
BRANCH  35  36
ATOM     36  C   UNL A   1      43.011  24.909  27.978  1.00  0.00     0.031 A 
ATOM     37  C   UNL A   1      44.429  25.338  28.252  1.00  0.00     0.074 A 
ATOM     38  C   UNL A   1      41.993  25.756  28.226  1.00  0.00     0.049 A 
ATOM     39  N   UNL A   1      44.875  26.483  28.706  1.00  0.00    -0.248 NA
ATOM     40  C   UNL A   1      45.486  24.342  28.010  1.00  0.00     0.031 C 
ATOM     41  C   UNL A   1      40.573  25.443  28.053  1.00  0.00     0.029 A 
ATOM     42  N   UNL A   1      41.995  27.054  28.671  1.00  0.00    -0.354 N 
ATOM     43  C   UNL A   1      46.256  26.343  28.802  1.00  0.00     0.074 A 
ATOM     44  C   UNL A   1      46.566  24.980  28.433  1.00  0.00     0.031 C 
ATOM     45  C   UNL A   1      39.845  26.532  28.345  1.00  0.00     0.029 A 
ATOM     46  C   UNL A   1      40.738  27.600  28.777  1.00  0.00     0.049 A 
ATOM     47  H   UNL A   1      42.818  27.547  28.893  1.00  0.00     0.167 HD
ATOM     48  C   UNL A   1      47.183  27.272  29.138  1.00  0.00     0.037 A 
ATOM     49  C   UNL A   1      40.349  28.822  29.187  1.00  0.00     0.037 A 
ATOM     50  C   UNL A   1      46.867  28.628  29.506  1.00  0.00     0.049 A 
ATOM     51  C   UNL A   1      41.395  29.826  29.586  1.00  0.00     0.074 A 
ATOM     52  C   UNL A   1      47.733  29.658  29.827  1.00  0.00     0.029 A 
ATOM     53  N   UNL A   1      45.581  29.140  29.611  1.00  0.00    -0.354 N 
ATOM     54  N   UNL A   1      42.700  29.700  29.606  1.00  0.00    -0.248 NA
ATOM     55  C   UNL A   1      40.912  31.147  30.012  1.00  0.00     0.031 C 
ATOM     56  C   UNL A   1      46.971  30.772  30.194  1.00  0.00     0.029 A 
ATOM     57  C   UNL A   1      45.631  30.461  30.026  1.00  0.00     0.049 A 
ATOM     58  H   UNL A   1      44.756  28.638  29.422  1.00  0.00     0.167 HD
ATOM     59  C   UNL A   1      43.195  30.930  30.020  1.00  0.00     0.074 A 
ATOM     60  C   UNL A   1      42.049  31.795  30.214  1.00  0.00     0.031 C 
ATOM     61  C   UNL A   1      44.482  31.311  30.222  1.00  0.00     0.037 A 
BRANCH  48  62
ATOM     62  C   UNL A   1      48.626  26.847  29.130  1.00  0.00     0.057 A 
ATOM     63  C   UNL A   1      49.244  26.291  30.260  1.00  0.00     0.134 A 
ATOM     64  C   UNL A   1      49.403  26.968  27.970  1.00  0.00     0.134 A 
ATOM     65  F   UNL A   1      48.564  26.152  31.408  1.00  0.00    -0.206 F 
ATOM     66  C   UNL A   1      50.586  25.906  30.246  1.00  0.00     0.040 A 
ATOM     67  C   UNL A   1      50.737  26.555  27.935  1.00  0.00     0.040 A 
ATOM     68  F   UNL A   1      48.878  27.483  26.848  1.00  0.00    -0.206 F 
ATOM     69  C   UNL A   1      51.335  26.031  29.078  1.00  0.00     0.006 A 
ENDBRANCH  48  62
BRANCH  49  70
ATOM     70  C   UNL A   1      38.903  29.161  29.237  1.00  0.00     0.057 A 
ATOM     71  C   UNL A   1      38.164  29.035  30.420  1.00  0.00     0.134 A 
ATOM     72  C   UNL A   1      38.222  29.611  28.099  1.00  0.00     0.134 A 
ATOM     73  F   UNL A   1      38.753  28.592  31.541  1.00  0.00    -0.206 F 
ATOM     74  C   UNL A   1      36.798  29.320  30.463  1.00  0.00     0.040 A 
ATOM     75  C   UNL A   1      36.864  29.933  28.136  1.00  0.00     0.040 A 
ATOM     76  F   UNL A   1      38.872  29.764  26.936  1.00  0.00    -0.206 F 
ATOM     77  C   UNL A   1      36.146  29.777  29.319  1.00  0.00     0.006 A 
ENDBRANCH  49  70
BRANCH  61  78
ATOM     78  C   UNL A   1      44.717  32.734  30.645  1.00  0.00     0.057 A 
ATOM     79  C   UNL A   1      44.810  33.107  31.993  1.00  0.00     0.134 A 
ATOM     80  C   UNL A   1      44.868  33.745  29.687  1.00  0.00     0.134 A 
ATOM     81  F   UNL A   1      44.665  32.192  32.964  1.00  0.00    -0.206 F 
ATOM     82  C   UNL A   1      45.000  34.438  32.371  1.00  0.00     0.040 A 
ATOM     83  C   UNL A   1      45.097  35.072  30.052  1.00  0.00     0.040 A 
ATOM     84  F   UNL A   1      44.805  33.460  28.377  1.00  0.00    -0.206 F 
ATOM     85  C   UNL A   1      45.150  35.424  31.398  1.00  0.00     0.006 A 
ENDBRANCH  61  78
ENDBRANCH  35  36
ENDBRANCH  27  30
ENDBRANCH  25  26
ENDBRANCH  24  25
ENDBRANCH   1  24
TORSDOF 14
ENDMDL
