MODEL 1
REMARK VINA RESULT:     -12.4      0.000      0.000
REMARK SMILES Cc1ccc2c(c1)OCCN2c1sc(C(=O)NCCCNC(=O)c2ccc(-c3c4nc(c(-c5c(F)cccc5F)c5ccc([nH]5)c(-c5c(F)cccc5F)c5nc(c(-c6c(F)cccc6F)c6ccc3[nH]6)C=C5)C=C4)cc2)cc1C
REMARK SMILES IDX 19 1 18 2 17 3 15 4 16 5 14 7 12 8 13 9 79 10 78 11 80 12
REMARK SMILES IDX 11 13 1 14 2 15 3 16 7 17 4 18 6 19 5 20 8 21 9 22 10 23
REMARK SMILES IDX 20 24 21 25 22 26 23 28 24 29 25 30 77 31 26 32 76 33 27 34
REMARK SMILES IDX 28 35 29 36 70 37 30 38 75 39 69 40 71 41 31 42 74 43 68 44
REMARK SMILES IDX 67 45 32 47 58 48 41 49 57 50 42 51 45 52 56 53 72 54 43 55
REMARK SMILES IDX 44 56 55 58 73 59 46 60 33 61 34 62 39 63 35 64 36 65 38 66
REMARK SMILES IDX 40 67 37 68 59 69 60 70 65 71 61 72 62 73 64 74 66 75 63 76
REMARK SMILES IDX 47 77 48 78 53 79 49 80 50 81 52 82 54 83 51 84
REMARK H PARENT 17 6 21 27 71 46 45 57
REMARK Flexibility Score: inf
ROOT
ATOM      1  C   UNL A   1      37.083  22.768  25.540  1.00  0.00     0.042 C 
ENDROOT
BRANCH   1   2
ATOM      2  C   UNL A   1      35.662  22.772  26.094  1.00  0.00     0.118 C 
BRANCH   2   3
ATOM      3  N   UNL A   1      34.817  21.836  25.377  1.00  0.00    -0.351 N 
ATOM      4  C   UNL A   1      33.743  21.990  24.537  1.00  0.00     0.261 C 
ATOM      5  O   UNL A   1      33.298  20.933  24.077  1.00  0.00    -0.268 OA
ATOM      6  H   UNL A   1      35.064  20.894  25.525  1.00  0.00     0.163 HD
BRANCH   4   7
ATOM      7  C   UNL A   1      33.195  23.278  24.137  1.00  0.00     0.094 A 
ATOM      8  C   UNL A   1      32.263  25.580  23.960  1.00  0.00     0.099 A 
ATOM      9  S   UNL A   1      32.177  24.270  25.073  1.00  0.00    -0.112 S 
ATOM     10  C   UNL A   1      32.819  25.156  22.759  1.00  0.00    -0.015 A 
ATOM     11  C   UNL A   1      33.350  23.832  22.878  1.00  0.00     0.031 A 
ATOM     12  C   UNL A   1      32.943  25.956  21.503  1.00  0.00     0.047 C 
BRANCH   8  13
ATOM     13  N   UNL A   1      31.771  26.820  24.244  1.00  0.00    -0.327 N 
ATOM     14  C   UNL A   1      34.214  30.925  27.482  1.00  0.00     0.044 C 
ATOM     15  C   UNL A   1      33.578  29.846  26.657  1.00  0.00    -0.047 A 
ATOM     16  C   UNL A   1      34.151  28.576  26.570  1.00  0.00     0.006 A 
ATOM     17  C   UNL A   1      32.429  30.115  25.909  1.00  0.00     0.052 A 
ATOM     18  C   UNL A   1      33.569  27.583  25.769  1.00  0.00     0.030 A 
ATOM     19  C   UNL A   1      31.850  29.121  25.112  1.00  0.00     0.143 A 
ATOM     20  C   UNL A   1      32.391  27.816  25.044  1.00  0.00     0.085 A 
ATOM     21  O   UNL A   1      30.731  29.519  24.413  1.00  0.00    -0.490 OA
ATOM     22  C   UNL A   1      30.420  28.628  23.337  1.00  0.00     0.251 C 
ATOM     23  C   UNL A   1      30.423  27.179  23.803  1.00  0.00     0.165 C 
ENDBRANCH   8  13
ENDBRANCH   4   7
ENDBRANCH   2   3
ENDBRANCH   1   2
BRANCH   1  24
ATOM     24  C   UNL A   1      37.952  23.885  26.114  1.00  0.00     0.118 C 
BRANCH  24  25
ATOM     25  N   UNL A   1      39.378  23.573  26.067  1.00  0.00    -0.352 N 
ATOM     26  C   UNL A   1      40.453  24.266  26.569  1.00  0.00     0.251 C 
ATOM     27  H   UNL A   1      39.604  22.736  25.602  1.00  0.00     0.163 HD
ATOM     28  O   UNL A   1      41.594  23.919  26.274  1.00  0.00    -0.269 OA
BRANCH  26  29
ATOM     29  C   UNL A   1      40.242  25.443  27.439  1.00  0.00     0.039 A 
ATOM     30  C   UNL A   1      40.882  26.653  27.170  1.00  0.00     0.014 A 
ATOM     31  C   UNL A   1      39.396  25.329  28.545  1.00  0.00     0.014 A 
ATOM     32  C   UNL A   1      40.828  27.681  28.105  1.00  0.00     0.010 A 
ATOM     33  C   UNL A   1      39.268  26.400  29.436  1.00  0.00     0.010 A 
ATOM     34  C   UNL A   1      40.032  27.563  29.257  1.00  0.00    -0.014 A 
BRANCH  34  35
ATOM     35  C   UNL A   1      40.055  28.654  30.267  1.00  0.00     0.031 A 
ATOM     36  C   UNL A   1      39.049  29.775  30.209  1.00  0.00     0.074 A 
ATOM     37  C   UNL A   1      40.930  28.592  31.289  1.00  0.00     0.049 A 
ATOM     38  N   UNL A   1      38.876  30.776  31.039  1.00  0.00    -0.248 NA
ATOM     39  C   UNL A   1      38.118  29.779  29.070  1.00  0.00     0.031 C 
ATOM     40  C   UNL A   1      41.951  27.556  31.464  1.00  0.00     0.029 A 
ATOM     41  N   UNL A   1      41.082  29.396  32.389  1.00  0.00    -0.354 N 
ATOM     42  C   UNL A   1      37.832  31.529  30.515  1.00  0.00     0.074 A 
ATOM     43  C   UNL A   1      37.437  30.897  29.276  1.00  0.00     0.031 C 
ATOM     44  C   UNL A   1      42.581  27.753  32.632  1.00  0.00     0.029 A 
ATOM     45  C   UNL A   1      42.052  28.959  33.259  1.00  0.00     0.049 A 
ATOM     46  H   UNL A   1      40.548  30.209  32.540  1.00  0.00     0.167 HD
ATOM     47  C   UNL A   1      37.243  32.638  31.027  1.00  0.00     0.037 A 
ATOM     48  C   UNL A   1      42.471  29.474  34.428  1.00  0.00     0.037 A 
ATOM     49  C   UNL A   1      37.625  33.263  32.267  1.00  0.00     0.049 A 
ATOM     50  C   UNL A   1      41.828  30.727  34.950  1.00  0.00     0.074 A 
ATOM     51  C   UNL A   1      37.084  34.384  32.874  1.00  0.00     0.029 A 
ATOM     52  N   UNL A   1      38.646  32.817  33.094  1.00  0.00    -0.354 N 
ATOM     53  N   UNL A   1      40.833  31.419  34.450  1.00  0.00    -0.248 NA
ATOM     54  C   UNL A   1      42.371  31.271  36.202  1.00  0.00     0.031 C 
ATOM     55  C   UNL A   1      37.804  34.639  34.047  1.00  0.00     0.029 A 
ATOM     56  C   UNL A   1      38.761  33.648  34.196  1.00  0.00     0.049 A 
ATOM     57  H   UNL A   1      39.207  32.026  32.922  1.00  0.00     0.167 HD
ATOM     58  C   UNL A   1      40.615  32.465  35.337  1.00  0.00     0.074 A 
ATOM     59  C   UNL A   1      41.567  32.301  36.417  1.00  0.00     0.031 C 
ATOM     60  C   UNL A   1      39.711  33.472  35.264  1.00  0.00     0.037 A 
BRANCH  47  61
ATOM     61  C   UNL A   1      36.129  33.255  30.229  1.00  0.00     0.057 A 
ATOM     62  C   UNL A   1      34.792  33.079  30.612  1.00  0.00     0.134 A 
ATOM     63  C   UNL A   1      36.374  34.008  29.073  1.00  0.00     0.134 A 
ATOM     64  F   UNL A   1      34.485  32.363  31.705  1.00  0.00    -0.206 F 
ATOM     65  C   UNL A   1      33.742  33.631  29.877  1.00  0.00     0.040 A 
ATOM     66  C   UNL A   1      35.334  34.589  28.344  1.00  0.00     0.040 A 
ATOM     67  F   UNL A   1      37.631  34.227  28.657  1.00  0.00    -0.206 F 
ATOM     68  C   UNL A   1      34.013  34.396  28.743  1.00  0.00     0.006 A 
ENDBRANCH  47  61
BRANCH  48  69
ATOM     69  C   UNL A   1      43.559  28.811  35.190  1.00  0.00     0.057 A 
ATOM     70  C   UNL A   1      44.905  29.092  34.932  1.00  0.00     0.134 A 
ATOM     71  C   UNL A   1      43.275  27.900  36.215  1.00  0.00     0.134 A 
ATOM     72  F   UNL A   1      45.244  29.952  33.959  1.00  0.00    -0.206 F 
ATOM     73  C   UNL A   1      45.931  28.492  35.662  1.00  0.00     0.040 A 
ATOM     74  C   UNL A   1      44.290  27.314  36.972  1.00  0.00     0.040 A 
ATOM     75  F   UNL A   1      42.004  27.604  36.522  1.00  0.00    -0.206 F 
ATOM     76  C   UNL A   1      45.623  27.607  36.694  1.00  0.00     0.006 A 
ENDBRANCH  48  69
BRANCH  60  77
ATOM     77  C   UNL A   1      39.687  34.445  36.407  1.00  0.00     0.057 A 
ATOM     78  C   UNL A   1      38.975  34.151  37.577  1.00  0.00     0.134 A 
ATOM     79  C   UNL A   1      40.371  35.666  36.355  1.00  0.00     0.134 A 
ATOM     80  F   UNL A   1      38.291  33.001  37.689  1.00  0.00    -0.206 F 
ATOM     81  C   UNL A   1      38.948  35.034  38.657  1.00  0.00     0.040 A 
ATOM     82  C   UNL A   1      40.377  36.545  37.440  1.00  0.00     0.040 A 
ATOM     83  F   UNL A   1      41.087  36.000  35.270  1.00  0.00    -0.206 F 
ATOM     84  C   UNL A   1      39.660  36.231  38.593  1.00  0.00     0.006 A 
ENDBRANCH  60  77
ENDBRANCH  34  35
ENDBRANCH  26  29
ENDBRANCH  24  25
ENDBRANCH   1  24
TORSDOF 11
ENDMDL
MODEL 2
REMARK VINA RESULT:     -12.4      2.418      7.861
REMARK SMILES Cc1ccc2c(c1)OCCN2c1sc(C(=O)NCCCNC(=O)c2ccc(-c3c4nc(c(-c5c(F)cccc5F)c5ccc([nH]5)c(-c5c(F)cccc5F)c5nc(c(-c6c(F)cccc6F)c6ccc3[nH]6)C=C5)C=C4)cc2)cc1C
REMARK SMILES IDX 19 1 18 2 17 3 15 4 16 5 14 7 12 8 13 9 79 10 78 11 80 12
REMARK SMILES IDX 11 13 1 14 2 15 3 16 7 17 4 18 6 19 5 20 8 21 9 22 10 23
REMARK SMILES IDX 20 24 21 25 22 26 23 28 24 29 25 30 77 31 26 32 76 33 27 34
REMARK SMILES IDX 28 35 29 36 70 37 30 38 75 39 69 40 71 41 31 42 74 43 68 44
REMARK SMILES IDX 67 45 32 47 58 48 41 49 57 50 42 51 45 52 56 53 72 54 43 55
REMARK SMILES IDX 44 56 55 58 73 59 46 60 33 61 34 62 39 63 35 64 36 65 38 66
REMARK SMILES IDX 40 67 37 68 59 69 60 70 65 71 61 72 62 73 64 74 66 75 63 76
REMARK SMILES IDX 47 77 48 78 53 79 49 80 50 81 52 82 54 83 51 84
REMARK H PARENT 17 6 21 27 71 46 45 57
REMARK Flexibility Score: inf
ROOT
ATOM      1  C   UNL A   1      31.417  30.418  25.364  1.00  0.00     0.042 C 
ENDROOT
BRANCH   1   2
ATOM      2  C   UNL A   1      32.117  29.186  24.798  1.00  0.00     0.118 C 
BRANCH   2   3
ATOM      3  N   UNL A   1      31.485  28.742  23.571  1.00  0.00    -0.351 N 
ATOM      4  C   UNL A   1      31.205  27.502  23.052  1.00  0.00     0.261 C 
ATOM      5  O   UNL A   1      30.606  27.524  21.972  1.00  0.00    -0.268 OA
ATOM      6  H   UNL A   1      31.197  29.482  22.989  1.00  0.00     0.163 HD
BRANCH   4   7
ATOM      7  C   UNL A   1      31.504  26.247  23.726  1.00  0.00     0.094 A 
ATOM      8  C   UNL A   1      32.504  24.214  24.759  1.00  0.00     0.099 A 
ATOM      9  S   UNL A   1      32.827  25.225  23.404  1.00  0.00    -0.112 S 
ATOM     10  C   UNL A   1      31.241  24.483  25.271  1.00  0.00    -0.015 A 
ATOM     11  C   UNL A   1      30.680  25.654  24.666  1.00  0.00     0.031 A 
ATOM     12  C   UNL A   1      30.542  23.734  26.357  1.00  0.00     0.047 C 
BRANCH   8  13
ATOM     13  N   UNL A   1      33.373  23.251  25.181  1.00  0.00    -0.327 N 
ATOM     14  C   UNL A   1      33.446  17.673  23.707  1.00  0.00     0.044 C 
ATOM     15  C   UNL A   1      33.409  19.120  24.099  1.00  0.00    -0.047 A 
ATOM     16  C   UNL A   1      32.369  19.951  23.680  1.00  0.00     0.006 A 
ATOM     17  C   UNL A   1      34.452  19.677  24.842  1.00  0.00     0.052 A 
ATOM     18  C   UNL A   1      32.358  21.311  24.021  1.00  0.00     0.030 A 
ATOM     19  C   UNL A   1      34.439  21.034  25.183  1.00  0.00     0.143 A 
ATOM     20  C   UNL A   1      33.373  21.883  24.804  1.00  0.00     0.085 A 
ATOM     21  O   UNL A   1      35.533  21.460  25.903  1.00  0.00    -0.490 OA
ATOM     22  C   UNL A   1      35.674  22.885  25.880  1.00  0.00     0.251 C 
ATOM     23  C   UNL A   1      34.359  23.574  26.214  1.00  0.00     0.165 C 
ENDBRANCH   8  13
ENDBRANCH   4   7
ENDBRANCH   2   3
ENDBRANCH   1   2
BRANCH   1  24
ATOM     24  C   UNL A   1      31.921  30.808  26.752  1.00  0.00     0.118 C 
BRANCH  24  25
ATOM     25  N   UNL A   1      31.927  32.252  26.967  1.00  0.00    -0.352 N 
ATOM     26  C   UNL A   1      32.855  33.051  27.589  1.00  0.00     0.251 C 
ATOM     27  H   UNL A   1      31.142  32.727  26.611  1.00  0.00     0.163 HD
ATOM     28  O   UNL A   1      32.592  34.229  27.818  1.00  0.00    -0.269 OA
BRANCH  26  29
ATOM     29  C   UNL A   1      34.158  32.493  28.011  1.00  0.00     0.039 A 
ATOM     30  C   UNL A   1      34.287  31.141  28.328  1.00  0.00     0.014 A 
ATOM     31  C   UNL A   1      35.267  33.340  28.096  1.00  0.00     0.014 A 
ATOM     32  C   UNL A   1      35.462  30.680  28.910  1.00  0.00     0.010 A 
ATOM     33  C   UNL A   1      36.479  32.851  28.593  1.00  0.00     0.010 A 
ATOM     34  C   UNL A   1      36.570  31.531  29.063  1.00  0.00    -0.014 A 
BRANCH  34  35
ATOM     35  C   UNL A   1      37.785  31.022  29.752  1.00  0.00     0.031 A 
ATOM     36  C   UNL A   1      38.044  31.357  31.198  1.00  0.00     0.074 A 
ATOM     37  C   UNL A   1      38.616  30.188  29.097  1.00  0.00     0.049 A 
ATOM     38  N   UNL A   1      39.017  30.952  31.980  1.00  0.00    -0.248 NA
ATOM     39  C   UNL A   1      37.095  32.269  31.853  1.00  0.00     0.031 C 
ATOM     40  C   UNL A   1      38.473  29.780  27.698  1.00  0.00     0.029 A 
ATOM     41  N   UNL A   1      39.725  29.507  29.530  1.00  0.00    -0.354 N 
ATOM     42  C   UNL A   1      38.801  31.569  33.207  1.00  0.00     0.074 A 
ATOM     43  C   UNL A   1      37.632  32.408  33.057  1.00  0.00     0.031 C 
ATOM     44  C   UNL A   1      39.419  28.875  27.406  1.00  0.00     0.029 A 
ATOM     45  C   UNL A   1      40.269  28.682  28.574  1.00  0.00     0.049 A 
ATOM     46  H   UNL A   1      40.095  29.601  30.437  1.00  0.00     0.167 HD
ATOM     47  C   UNL A   1      39.502  31.437  34.360  1.00  0.00     0.037 A 
ATOM     48  C   UNL A   1      41.337  27.867  28.633  1.00  0.00     0.037 A 
ATOM     49  C   UNL A   1      40.658  30.593  34.517  1.00  0.00     0.049 A 
ATOM     50  C   UNL A   1      42.119  27.772  29.911  1.00  0.00     0.074 A 
ATOM     51  C   UNL A   1      41.431  30.385  35.646  1.00  0.00     0.029 A 
ATOM     52  N   UNL A   1      41.207  29.811  33.510  1.00  0.00    -0.354 N 
ATOM     53  N   UNL A   1      41.894  28.351  31.066  1.00  0.00    -0.248 NA
ATOM     54  C   UNL A   1      43.308  26.909  29.891  1.00  0.00     0.031 C 
ATOM     55  C   UNL A   1      42.471  29.510  35.312  1.00  0.00     0.029 A 
ATOM     56  C   UNL A   1      42.317  29.134  33.988  1.00  0.00     0.049 A 
ATOM     57  H   UNL A   1      40.859  29.749  32.591  1.00  0.00     0.167 HD
ATOM     58  C   UNL A   1      42.897  27.904  31.916  1.00  0.00     0.074 A 
ATOM     59  C   UNL A   1      43.717  26.989  31.149  1.00  0.00     0.031 C 
ATOM     60  C   UNL A   1      43.121  28.223  33.214  1.00  0.00     0.037 A 
BRANCH  47  61
ATOM     61  C   UNL A   1      39.040  32.242  35.541  1.00  0.00     0.057 A 
ATOM     62  C   UNL A   1      39.417  33.585  35.683  1.00  0.00     0.134 A 
ATOM     63  C   UNL A   1      38.238  31.689  36.549  1.00  0.00     0.134 A 
ATOM     64  F   UNL A   1      40.190  34.176  34.759  1.00  0.00    -0.206 F 
ATOM     65  C   UNL A   1      39.010  34.347  36.779  1.00  0.00     0.040 A 
ATOM     66  C   UNL A   1      37.803  32.448  37.637  1.00  0.00     0.040 A 
ATOM     67  F   UNL A   1      37.830  30.413  36.469  1.00  0.00    -0.206 F 
ATOM     68  C   UNL A   1      38.193  33.780  37.756  1.00  0.00     0.006 A 
ENDBRANCH  47  61
BRANCH  48  69
ATOM     69  C   UNL A   1      41.736  27.073  27.444  1.00  0.00     0.057 A 
ATOM     70  C   UNL A   1      42.544  27.620  26.440  1.00  0.00     0.134 A 
ATOM     71  C   UNL A   1      41.342  25.737  27.298  1.00  0.00     0.134 A 
ATOM     72  F   UNL A   1      42.952  28.895  26.518  1.00  0.00    -0.206 F 
ATOM     73  C   UNL A   1      42.944  26.870  25.334  1.00  0.00     0.040 A 
ATOM     74  C   UNL A   1      41.758  24.967  26.211  1.00  0.00     0.040 A 
ATOM     75  F   UNL A   1      40.583  25.151  28.236  1.00  0.00    -0.206 F 
ATOM     76  C   UNL A   1      42.559  25.536  25.223  1.00  0.00     0.006 A 
ENDBRANCH  48  69
BRANCH  60  77
ATOM     77  C   UNL A   1      44.277  27.543  33.889  1.00  0.00     0.057 A 
ATOM     78  C   UNL A   1      44.102  26.304  34.519  1.00  0.00     0.134 A 
ATOM     79  C   UNL A   1      45.559  28.106  33.911  1.00  0.00     0.134 A 
ATOM     80  F   UNL A   1      42.897  25.713  34.541  1.00  0.00    -0.206 F 
ATOM     81  C   UNL A   1      45.164  25.646  35.142  1.00  0.00     0.040 A 
ATOM     82  C   UNL A   1      46.635  27.444  34.505  1.00  0.00     0.040 A 
ATOM     83  F   UNL A   1      45.796  29.282  33.311  1.00  0.00    -0.206 F 
ATOM     84  C   UNL A   1      46.437  26.212  35.127  1.00  0.00     0.006 A 
ENDBRANCH  60  77
ENDBRANCH  34  35
ENDBRANCH  26  29
ENDBRANCH  24  25
ENDBRANCH   1  24
TORSDOF 11
ENDMDL
MODEL 3
REMARK VINA RESULT:     -12.4      5.262     10.124
REMARK SMILES Cc1ccc2c(c1)OCCN2c1sc(C(=O)NCCCNC(=O)c2ccc(-c3c4nc(c(-c5c(F)cccc5F)c5ccc([nH]5)c(-c5c(F)cccc5F)c5nc(c(-c6c(F)cccc6F)c6ccc3[nH]6)C=C5)C=C4)cc2)cc1C
REMARK SMILES IDX 19 1 18 2 17 3 15 4 16 5 14 7 12 8 13 9 79 10 78 11 80 12
REMARK SMILES IDX 11 13 1 14 2 15 3 16 7 17 4 18 6 19 5 20 8 21 9 22 10 23
REMARK SMILES IDX 20 24 21 25 22 26 23 28 24 29 25 30 77 31 26 32 76 33 27 34
REMARK SMILES IDX 28 35 29 36 70 37 30 38 75 39 69 40 71 41 31 42 74 43 68 44
REMARK SMILES IDX 67 45 32 47 58 48 41 49 57 50 42 51 45 52 56 53 72 54 43 55
REMARK SMILES IDX 44 56 55 58 73 59 46 60 33 61 34 62 39 63 35 64 36 65 38 66
REMARK SMILES IDX 40 67 37 68 59 69 60 70 65 71 61 72 62 73 64 74 66 75 63 76
REMARK SMILES IDX 47 77 48 78 53 79 49 80 50 81 52 82 54 83 51 84
REMARK H PARENT 17 6 21 27 71 46 45 57
REMARK Flexibility Score: inf
ROOT
ATOM      1  C   UNL A   1      33.184  29.121  26.654  1.00  0.00     0.042 C 
ENDROOT
BRANCH   1   2
ATOM      2  C   UNL A   1      33.278  28.793  25.167  1.00  0.00     0.118 C 
BRANCH   2   3
ATOM      3  N   UNL A   1      31.961  28.690  24.568  1.00  0.00    -0.351 N 
ATOM      4  C   UNL A   1      31.144  27.628  24.269  1.00  0.00     0.261 C 
ATOM      5  O   UNL A   1      30.051  27.945  23.788  1.00  0.00    -0.268 OA
ATOM      6  H   UNL A   1      31.573  29.561  24.324  1.00  0.00     0.163 HD
BRANCH   4   7
ATOM      7  C   UNL A   1      31.471  26.239  24.552  1.00  0.00     0.094 A 
ATOM      8  C   UNL A   1      32.452  23.959  24.754  1.00  0.00     0.099 A 
ATOM      9  S   UNL A   1      32.400  25.205  23.569  1.00  0.00    -0.112 S 
ATOM     10  C   UNL A   1      31.530  24.213  25.762  1.00  0.00    -0.015 A 
ATOM     11  C   UNL A   1      30.976  25.528  25.632  1.00  0.00     0.031 A 
ATOM     12  C   UNL A   1      31.179  23.309  26.898  1.00  0.00     0.047 C 
BRANCH   8  13
ATOM     13  N   UNL A   1      33.253  22.862  24.633  1.00  0.00    -0.327 N 
ATOM     14  C   UNL A   1      38.809  22.368  26.113  1.00  0.00     0.044 C 
ATOM     15  C   UNL A   1      37.369  22.510  25.714  1.00  0.00    -0.047 A 
ATOM     16  C   UNL A   1      36.725  23.746  25.781  1.00  0.00     0.006 A 
ATOM     17  C   UNL A   1      36.631  21.390  25.326  1.00  0.00     0.052 A 
ATOM     18  C   UNL A   1      35.370  23.865  25.439  1.00  0.00     0.030 A 
ATOM     19  C   UNL A   1      35.279  21.512  24.984  1.00  0.00     0.143 A 
ATOM     20  C   UNL A   1      34.619  22.762  25.005  1.00  0.00     0.085 A 
ATOM     21  O   UNL A   1      34.663  20.330  24.636  1.00  0.00    -0.490 OA
ATOM     22  C   UNL A   1      33.235  20.430  24.687  1.00  0.00     0.251 C 
ATOM     23  C   UNL A   1      32.743  21.670  23.953  1.00  0.00     0.165 C 
ENDBRANCH   8  13
ENDBRANCH   4   7
ENDBRANCH   2   3
ENDBRANCH   1   2
BRANCH   1  24
ATOM     24  C   UNL A   1      34.535  29.077  27.364  1.00  0.00     0.118 C 
BRANCH  24  25
ATOM     25  N   UNL A   1      34.687  30.136  28.357  1.00  0.00    -0.352 N 
ATOM     26  C   UNL A   1      35.761  30.458  29.152  1.00  0.00     0.251 C 
ATOM     27  H   UNL A   1      33.895  30.707  28.478  1.00  0.00     0.163 HD
ATOM     28  O   UNL A   1      35.629  31.283  30.052  1.00  0.00    -0.269 OA
BRANCH  26  29
ATOM     29  C   UNL A   1      37.066  29.794  28.946  1.00  0.00     0.039 A 
ATOM     30  C   UNL A   1      37.686  29.100  29.985  1.00  0.00     0.014 A 
ATOM     31  C   UNL A   1      37.683  29.876  27.694  1.00  0.00     0.014 A 
ATOM     32  C   UNL A   1      38.995  28.657  29.831  1.00  0.00     0.010 A 
ATOM     33  C   UNL A   1      38.964  29.345  27.514  1.00  0.00     0.010 A 
ATOM     34  C   UNL A   1      39.656  28.785  28.599  1.00  0.00    -0.014 A 
BRANCH  34  35
ATOM     35  C   UNL A   1      41.078  28.364  28.492  1.00  0.00     0.031 A 
ATOM     36  C   UNL A   1      41.432  26.947  28.121  1.00  0.00     0.074 A 
ATOM     37  C   UNL A   1      42.053  29.280  28.648  1.00  0.00     0.049 A 
ATOM     38  N   UNL A   1      42.614  26.415  27.920  1.00  0.00    -0.248 NA
ATOM     39  C   UNL A   1      40.318  25.999  27.960  1.00  0.00     0.031 C 
ATOM     40  C   UNL A   1      41.843  30.685  29.001  1.00  0.00     0.029 A 
ATOM     41  N   UNL A   1      43.413  29.176  28.497  1.00  0.00    -0.354 N 
ATOM     42  C   UNL A   1      42.385  25.076  27.623  1.00  0.00     0.074 A 
ATOM     43  C   UNL A   1      40.956  24.864  27.713  1.00  0.00     0.031 C 
ATOM     44  C   UNL A   1      43.023  31.324  28.980  1.00  0.00     0.029 A 
ATOM     45  C   UNL A   1      44.077  30.366  28.671  1.00  0.00     0.049 A 
ATOM     46  H   UNL A   1      43.868  28.329  28.285  1.00  0.00     0.167 HD
ATOM     47  C   UNL A   1      43.279  24.112  27.291  1.00  0.00     0.037 A 
ATOM     48  C   UNL A   1      45.388  30.651  28.595  1.00  0.00     0.037 A 
ATOM     49  C   UNL A   1      44.700  24.322  27.189  1.00  0.00     0.049 A 
ATOM     50  C   UNL A   1      46.360  29.555  28.266  1.00  0.00     0.074 A 
ATOM     51  C   UNL A   1      45.687  23.412  26.851  1.00  0.00     0.029 A 
ATOM     52  N   UNL A   1      45.338  25.532  27.422  1.00  0.00    -0.354 N 
ATOM     53  N   UNL A   1      46.126  28.298  27.975  1.00  0.00    -0.248 NA
ATOM     54  C   UNL A   1      47.783  29.920  28.256  1.00  0.00     0.031 C 
ATOM     55  C   UNL A   1      46.925  24.061  26.920  1.00  0.00     0.029 A 
ATOM     56  C   UNL A   1      46.705  25.388  27.251  1.00  0.00     0.049 A 
ATOM     57  H   UNL A   1      44.885  26.370  27.673  1.00  0.00     0.167 HD
ATOM     58  C   UNL A   1      47.367  27.729  27.725  1.00  0.00     0.074 A 
ATOM     59  C   UNL A   1      48.348  28.784  27.876  1.00  0.00     0.031 C 
ATOM     60  C   UNL A   1      47.669  26.448  27.402  1.00  0.00     0.037 A 
BRANCH  47  61
ATOM     61  C   UNL A   1      42.739  22.734  27.030  1.00  0.00     0.057 A 
ATOM     62  C   UNL A   1      42.315  21.920  28.089  1.00  0.00     0.134 A 
ATOM     63  C   UNL A   1      42.655  22.204  25.736  1.00  0.00     0.134 A 
ATOM     64  F   UNL A   1      42.375  22.361  29.354  1.00  0.00    -0.206 F 
ATOM     65  C   UNL A   1      41.824  20.632  27.869  1.00  0.00     0.040 A 
ATOM     66  C   UNL A   1      42.141  20.927  25.500  1.00  0.00     0.040 A 
ATOM     67  F   UNL A   1      43.032  22.935  24.675  1.00  0.00    -0.206 F 
ATOM     68  C   UNL A   1      41.728  20.135  26.570  1.00  0.00     0.006 A 
ENDBRANCH  47  61
BRANCH  48  69
ATOM     69  C   UNL A   1      45.867  32.036  28.838  1.00  0.00     0.057 A 
ATOM     70  C   UNL A   1      46.187  32.481  30.125  1.00  0.00     0.134 A 
ATOM     71  C   UNL A   1      46.043  32.938  27.781  1.00  0.00     0.134 A 
ATOM     72  F   UNL A   1      46.036  31.667  31.181  1.00  0.00    -0.206 F 
ATOM     73  C   UNL A   1      46.662  33.772  30.356  1.00  0.00     0.040 A 
ATOM     74  C   UNL A   1      46.544  34.222  27.994  1.00  0.00     0.040 A 
ATOM     75  F   UNL A   1      45.771  32.563  26.522  1.00  0.00    -0.206 F 
ATOM     76  C   UNL A   1      46.852  34.644  29.285  1.00  0.00     0.006 A 
ENDBRANCH  48  69
BRANCH  60  77
ATOM     77  C   UNL A   1      49.116  26.136  27.151  1.00  0.00     0.057 A 
ATOM     78  C   UNL A   1      49.644  26.206  25.856  1.00  0.00     0.134 A 
ATOM     79  C   UNL A   1      49.986  25.772  28.186  1.00  0.00     0.134 A 
ATOM     80  F   UNL A   1      48.862  26.541  24.817  1.00  0.00    -0.206 F 
ATOM     81  C   UNL A   1      50.988  25.933  25.600  1.00  0.00     0.040 A 
ATOM     82  C   UNL A   1      51.340  25.525  27.948  1.00  0.00     0.040 A 
ATOM     83  F   UNL A   1      49.547  25.703  29.452  1.00  0.00    -0.206 F 
ATOM     84  C   UNL A   1      51.842  25.601  26.650  1.00  0.00     0.006 A 
ENDBRANCH  60  77
ENDBRANCH  34  35
ENDBRANCH  26  29
ENDBRANCH  24  25
ENDBRANCH   1  24
TORSDOF 11
ENDMDL
