MODEL 1
REMARK VINA RESULT:     -11.0      0.000      0.000
REMARK SMILES C[C@]12c3ccccc3[C@](C)(c3ccccc31)[C@@H]1C(=O)N(c3ccc(C(=O)NCCCNC(=O)c4ccc(-c5c6nc(c(-c7c(F)cccc7F)c7ccc([nH]7)c(-c7c(F)cccc7F)c7nc(c(-c8c(F)cccc8F)c8ccc5[nH]8)C=C7)C=C6)cc4)cc3)C(=O)[C@H]12
REMARK SMILES IDX 29 1 28 2 27 3 25 4 26 5 24 7 21 8 22 9 89 10 23 11 88 12
REMARK SMILES IDX 20 13 1 14 2 15 16 16 3 17 92 18 15 19 11 20 8 21 4 22 17 23
REMARK SMILES IDX 90 24 14 25 12 26 9 27 7 28 5 29 18 30 91 31 13 32 10 33
REMARK SMILES IDX 6 34 19 35 30 36 31 37 32 38 33 40 34 41 35 42 87 43 36 44
REMARK SMILES IDX 86 45 37 46 38 47 39 48 80 49 40 50 85 51 79 52 81 53 41 54
REMARK SMILES IDX 84 55 78 56 77 57 42 59 68 60 51 61 67 62 52 63 55 64 66 65
REMARK SMILES IDX 82 66 53 67 54 68 65 70 83 71 56 72 43 73 44 74 49 75 45 76
REMARK SMILES IDX 46 77 48 78 50 79 47 80 69 81 70 82 75 83 71 84 72 85 74 86
REMARK SMILES IDX 76 87 73 88 57 89 58 90 63 91 59 92 60 93 62 94 64 95 61 96
REMARK H PARENT 27 6 31 39 81 58 55 69
REMARK Flexibility Score: inf
ROOT
ATOM      1  C   UNL A   1      34.944  32.365  30.848  1.00  0.00     0.042 C 
ENDROOT
BRANCH   1   2
ATOM      2  C   UNL A   1      36.301  32.577  31.498  1.00  0.00     0.118 C 
BRANCH   2   3
ATOM      3  N   UNL A   1      36.224  32.843  32.927  1.00  0.00    -0.352 N 
ATOM      4  C   UNL A   1      36.957  32.386  33.992  1.00  0.00     0.251 C 
ATOM      5  O   UNL A   1      36.618  32.725  35.124  1.00  0.00    -0.269 OA
ATOM      6  H   UNL A   1      35.507  33.471  33.177  1.00  0.00     0.163 HD
BRANCH   4   7
ATOM      7  C   UNL A   1      38.096  31.453  33.825  1.00  0.00     0.039 A 
ATOM      8  C   UNL A   1      40.298  29.704  33.829  1.00  0.00     0.052 A 
ATOM      9  C   UNL A   1      40.463  31.055  34.152  1.00  0.00     0.027 A 
ATOM     10  C   UNL A   1      39.042  29.268  33.388  1.00  0.00     0.027 A 
ATOM     11  C   UNL A   1      39.373  31.928  34.139  1.00  0.00     0.016 A 
ATOM     12  C   UNL A   1      37.953  30.142  33.368  1.00  0.00     0.016 A 
BRANCH   8  13
ATOM     13  N   UNL A   1      41.356  28.786  34.005  1.00  0.00    -0.250 N 
ATOM     14  C   UNL A   1      44.584  26.714  31.623  1.00  0.00     0.022 C 
ATOM     15  C   UNL A   1      44.388  26.699  33.138  1.00  0.00     0.030 C 
ATOM     16  C   UNL A   1      45.552  27.316  33.958  1.00  0.00    -0.033 A 
ATOM     17  C   UNL A   1      44.200  25.280  33.762  1.00  0.00    -0.033 A 
ATOM     18  C   UNL A   1      43.024  27.298  33.555  1.00  0.00     0.108 C 
ATOM     19  C   UNL A   1      46.730  27.847  33.442  1.00  0.00     0.005 A 
ATOM     20  C   UNL A   1      45.375  27.244  35.384  1.00  0.00    -0.033 A 
ATOM     21  C   UNL A   1      43.884  25.313  35.166  1.00  0.00    -0.033 A 
ATOM     22  C   UNL A   1      44.239  24.072  33.072  1.00  0.00     0.005 A 
ATOM     23  C   UNL A   1      43.105  27.737  35.017  1.00  0.00     0.108 C 
ATOM     24  C   UNL A   1      42.265  28.453  32.989  1.00  0.00     0.238 C 
ATOM     25  C   UNL A   1      47.724  28.287  34.320  1.00  0.00     0.000 A 
ATOM     26  C   UNL A   1      46.380  27.673  36.248  1.00  0.00     0.005 A 
ATOM     27  C   UNL A   1      43.965  26.722  35.805  1.00  0.00     0.030 C 
ATOM     28  C   UNL A   1      43.602  24.126  35.833  1.00  0.00     0.005 A 
ATOM     29  C   UNL A   1      43.957  22.893  33.763  1.00  0.00     0.000 A 
ATOM     30  C   UNL A   1      41.700  28.193  35.226  1.00  0.00     0.238 C 
ATOM     31  O   UNL A   1      42.393  28.913  31.871  1.00  0.00    -0.274 OA
ATOM     32  C   UNL A   1      47.556  28.192  35.707  1.00  0.00     0.000 A 
ATOM     33  C   UNL A   1      43.684  26.780  37.304  1.00  0.00     0.022 C 
ATOM     34  C   UNL A   1      43.636  22.921  35.125  1.00  0.00     0.000 A 
ATOM     35  O   UNL A   1      41.084  28.156  36.278  1.00  0.00    -0.274 OA
ENDBRANCH   8  13
ENDBRANCH   4   7
ENDBRANCH   2   3
ENDBRANCH   1   2
BRANCH   1  36
ATOM     36  C   UNL A   1      34.969  32.377  29.329  1.00  0.00     0.118 C 
BRANCH  36  37
ATOM     37  N   UNL A   1      34.440  31.154  28.731  1.00  0.00    -0.352 N 
ATOM     38  C   UNL A   1      35.069  30.020  28.265  1.00  0.00     0.251 C 
ATOM     39  H   UNL A   1      33.459  31.137  28.645  1.00  0.00     0.163 HD
ATOM     40  O   UNL A   1      34.423  29.179  27.646  1.00  0.00    -0.269 OA
BRANCH  38  41
ATOM     41  C   UNL A   1      36.521  29.828  28.467  1.00  0.00     0.039 A 
ATOM     42  C   UNL A   1      37.421  30.114  27.448  1.00  0.00     0.014 A 
ATOM     43  C   UNL A   1      36.996  29.347  29.693  1.00  0.00     0.014 A 
ATOM     44  C   UNL A   1      38.733  29.677  27.548  1.00  0.00     0.010 A 
ATOM     45  C   UNL A   1      38.357  29.052  29.847  1.00  0.00     0.010 A 
ATOM     46  C   UNL A   1      39.228  29.153  28.753  1.00  0.00    -0.014 A 
BRANCH  46  47
ATOM     47  C   UNL A   1      40.660  28.754  28.816  1.00  0.00     0.031 A 
ATOM     48  C   UNL A   1      41.113  27.376  28.411  1.00  0.00     0.074 A 
ATOM     49  C   UNL A   1      41.574  29.684  29.163  1.00  0.00     0.049 A 
ATOM     50  N   UNL A   1      42.331  26.900  28.325  1.00  0.00    -0.248 NA
ATOM     51  C   UNL A   1      40.068  26.400  28.067  1.00  0.00     0.031 C 
ATOM     52  C   UNL A   1      41.263  31.053  29.585  1.00  0.00     0.029 A 
ATOM     53  N   UNL A   1      42.943  29.640  29.173  1.00  0.00    -0.354 N 
ATOM     54  C   UNL A   1      42.199  25.572  27.937  1.00  0.00     0.074 A 
ATOM     55  C   UNL A   1      40.780  25.305  27.843  1.00  0.00     0.031 C 
ATOM     56  C   UNL A   1      42.404  31.740  29.731  1.00  0.00     0.029 A 
ATOM     57  C   UNL A   1      43.526  30.839  29.501  1.00  0.00     0.049 A 
ATOM     58  H   UNL A   1      43.459  28.827  28.965  1.00  0.00     0.167 HD
ATOM     59  C   UNL A   1      43.169  24.661  27.676  1.00  0.00     0.037 A 
ATOM     60  C   UNL A   1      44.821  31.180  29.622  1.00  0.00     0.037 A 
ATOM     61  C   UNL A   1      44.583  24.932  27.768  1.00  0.00     0.049 A 
ATOM     62  C   UNL A   1      45.872  30.141  29.365  1.00  0.00     0.074 A 
ATOM     63  C   UNL A   1      45.645  24.085  27.499  1.00  0.00     0.029 A 
ATOM     64  N   UNL A   1      45.133  26.140  28.171  1.00  0.00    -0.354 N 
ATOM     65  N   UNL A   1      45.729  28.898  28.974  1.00  0.00    -0.248 NA
ATOM     66  C   UNL A   1      47.264  30.554  29.573  1.00  0.00     0.031 C 
ATOM     67  C   UNL A   1      46.834  24.761  27.797  1.00  0.00     0.029 A 
ATOM     68  C   UNL A   1      46.518  26.052  28.188  1.00  0.00     0.049 A 
ATOM     69  H   UNL A   1      44.617  26.944  28.409  1.00  0.00     0.167 HD
ATOM     70  C   UNL A   1      47.013  28.382  28.877  1.00  0.00     0.074 A 
ATOM     71  C   UNL A   1      47.920  29.461  29.214  1.00  0.00     0.031 C 
ATOM     72  C   UNL A   1      47.409  27.127  28.548  1.00  0.00     0.037 A 
BRANCH  59  73
ATOM     73  C   UNL A   1      42.728  23.273  27.297  1.00  0.00     0.057 A 
ATOM     74  C   UNL A   1      42.399  22.336  28.285  1.00  0.00     0.134 A 
ATOM     75  C   UNL A   1      42.639  22.854  25.962  1.00  0.00     0.134 A 
ATOM     76  F   UNL A   1      42.471  22.662  29.585  1.00  0.00    -0.206 F 
ATOM     77  C   UNL A   1      41.992  21.040  27.962  1.00  0.00     0.040 A 
ATOM     78  C   UNL A   1      42.202  21.570  25.624  1.00  0.00     0.040 A 
ATOM     79  F   UNL A   1      42.927  23.701  24.962  1.00  0.00    -0.206 F 
ATOM     80  C   UNL A   1      41.881  20.658  26.627  1.00  0.00     0.006 A 
ENDBRANCH  59  73
BRANCH  60  81
ATOM     81  C   UNL A   1      45.193  32.559  30.030  1.00  0.00     0.057 A 
ATOM     82  C   UNL A   1      45.422  32.881  31.374  1.00  0.00     0.134 A 
ATOM     83  C   UNL A   1      45.338  33.582  29.087  1.00  0.00     0.134 A 
ATOM     84  F   UNL A   1      45.289  31.948  32.327  1.00  0.00    -0.206 F 
ATOM     85  C   UNL A   1      45.771  34.173  31.767  1.00  0.00     0.040 A 
ATOM     86  C   UNL A   1      45.721  34.871  29.463  1.00  0.00     0.040 A 
ATOM     87  F   UNL A   1      45.150  33.332  27.783  1.00  0.00    -0.206 F 
ATOM     88  C   UNL A   1      45.932  35.170  30.807  1.00  0.00     0.006 A 
ENDBRANCH  60  81
BRANCH  72  89
ATOM     89  C   UNL A   1      48.890  26.879  28.519  1.00  0.00     0.057 A 
ATOM     90  C   UNL A   1      49.555  26.403  29.657  1.00  0.00     0.134 A 
ATOM     91  C   UNL A   1      49.653  27.073  27.360  1.00  0.00     0.134 A 
ATOM     92  F   UNL A   1      48.889  26.203  30.804  1.00  0.00    -0.206 F 
ATOM     93  C   UNL A   1      50.921  26.115  29.637  1.00  0.00     0.040 A 
ATOM     94  C   UNL A   1      51.012  26.755  27.317  1.00  0.00     0.040 A 
ATOM     95  F   UNL A   1      49.076  27.512  26.231  1.00  0.00    -0.206 F 
ATOM     96  C   UNL A   1      51.650  26.275  28.460  1.00  0.00     0.006 A 
ENDBRANCH  72  89
ENDBRANCH  46  47
ENDBRANCH  38  41
ENDBRANCH  36  37
ENDBRANCH   1  36
TORSDOF 11
ENDMDL
MODEL 2
REMARK VINA RESULT:     -11.0      0.338      2.564
REMARK SMILES C[C@]12c3ccccc3[C@](C)(c3ccccc31)[C@@H]1C(=O)N(c3ccc(C(=O)NCCCNC(=O)c4ccc(-c5c6nc(c(-c7c(F)cccc7F)c7ccc([nH]7)c(-c7c(F)cccc7F)c7nc(c(-c8c(F)cccc8F)c8ccc5[nH]8)C=C7)C=C6)cc4)cc3)C(=O)[C@H]12
REMARK SMILES IDX 29 1 28 2 27 3 25 4 26 5 24 7 21 8 22 9 89 10 23 11 88 12
REMARK SMILES IDX 20 13 1 14 2 15 16 16 3 17 92 18 15 19 11 20 8 21 4 22 17 23
REMARK SMILES IDX 90 24 14 25 12 26 9 27 7 28 5 29 18 30 91 31 13 32 10 33
REMARK SMILES IDX 6 34 19 35 30 36 31 37 32 38 33 40 34 41 35 42 87 43 36 44
REMARK SMILES IDX 86 45 37 46 38 47 39 48 80 49 40 50 85 51 79 52 81 53 41 54
REMARK SMILES IDX 84 55 78 56 77 57 42 59 68 60 51 61 67 62 52 63 55 64 66 65
REMARK SMILES IDX 82 66 53 67 54 68 65 70 83 71 56 72 43 73 44 74 49 75 45 76
REMARK SMILES IDX 46 77 48 78 50 79 47 80 69 81 70 82 75 83 71 84 72 85 74 86
REMARK SMILES IDX 76 87 73 88 57 89 58 90 63 91 59 92 60 93 62 94 64 95 61 96
REMARK H PARENT 27 6 31 39 81 58 55 69
REMARK Flexibility Score: inf
ROOT
ATOM      1  C   UNL A   1      34.881  32.573  30.785  1.00  0.00     0.042 C 
ENDROOT
BRANCH   1   2
ATOM      2  C   UNL A   1      36.186  32.347  31.531  1.00  0.00     0.118 C 
BRANCH   2   3
ATOM      3  N   UNL A   1      36.125  32.734  32.933  1.00  0.00    -0.352 N 
ATOM      4  C   UNL A   1      36.916  32.426  34.011  1.00  0.00     0.251 C 
ATOM      5  O   UNL A   1      36.582  32.841  35.119  1.00  0.00    -0.269 OA
ATOM      6  H   UNL A   1      35.372  33.331  33.150  1.00  0.00     0.163 HD
BRANCH   4   7
ATOM      7  C   UNL A   1      38.115  31.563  33.890  1.00  0.00     0.039 A 
ATOM      8  C   UNL A   1      40.416  29.949  33.984  1.00  0.00     0.052 A 
ATOM      9  C   UNL A   1      40.487  31.309  34.307  1.00  0.00     0.027 A 
ATOM     10  C   UNL A   1      39.206  29.438  33.498  1.00  0.00     0.027 A 
ATOM     11  C   UNL A   1      39.348  32.115  34.250  1.00  0.00     0.016 A 
ATOM     12  C   UNL A   1      38.067  30.245  33.433  1.00  0.00     0.016 A 
BRANCH   8  13
ATOM     13  N   UNL A   1      41.519  29.097  34.202  1.00  0.00    -0.250 N 
ATOM     14  C   UNL A   1      43.246  26.402  37.387  1.00  0.00     0.022 C 
ATOM     15  C   UNL A   1      43.726  26.568  35.946  1.00  0.00     0.030 C 
ATOM     16  C   UNL A   1      43.643  25.289  35.073  1.00  0.00    -0.033 A 
ATOM     17  C   UNL A   1      45.210  27.030  35.797  1.00  0.00    -0.033 A 
ATOM     18  C   UNL A   1      43.056  27.774  35.245  1.00  0.00     0.108 C 
ATOM     19  C   UNL A   1      43.200  24.037  35.489  1.00  0.00     0.005 A 
ATOM     20  C   UNL A   1      44.150  25.450  33.736  1.00  0.00    -0.033 A 
ATOM     21  C   UNL A   1      45.586  27.306  34.436  1.00  0.00    -0.033 A 
ATOM     22  C   UNL A   1      46.106  27.250  36.839  1.00  0.00     0.005 A 
ATOM     23  C   UNL A   1      43.150  27.578  33.733  1.00  0.00     0.108 C 
ATOM     24  C   UNL A   1      41.659  28.293  35.344  1.00  0.00     0.238 C 
ATOM     25  C   UNL A   1      43.268  22.958  34.603  1.00  0.00     0.000 A 
ATOM     26  C   UNL A   1      44.225  24.363  32.869  1.00  0.00     0.005 A 
ATOM     27  C   UNL A   1      44.510  26.929  33.388  1.00  0.00     0.030 C 
ATOM     28  C   UNL A   1      46.854  27.811  34.164  1.00  0.00     0.005 A 
ATOM     29  C   UNL A   1      47.373  27.752  36.542  1.00  0.00     0.000 A 
ATOM     30  C   UNL A   1      42.537  28.858  33.270  1.00  0.00     0.238 C 
ATOM     31  O   UNL A   1      40.887  28.095  36.262  1.00  0.00    -0.274 OA
ATOM     32  C   UNL A   1      43.785  23.117  33.312  1.00  0.00     0.000 A 
ATOM     33  C   UNL A   1      44.901  27.165  31.931  1.00  0.00     0.022 C 
ATOM     34  C   UNL A   1      47.739  28.036  35.221  1.00  0.00     0.000 A 
ATOM     35  O   UNL A   1      42.805  29.449  32.237  1.00  0.00    -0.274 OA
ENDBRANCH   8  13
ENDBRANCH   4   7
ENDBRANCH   2   3
ENDBRANCH   1   2
BRANCH   1  36
ATOM     36  C   UNL A   1      34.994  32.449  29.276  1.00  0.00     0.118 C 
BRANCH  36  37
ATOM     37  N   UNL A   1      34.418  31.213  28.751  1.00  0.00    -0.352 N 
ATOM     38  C   UNL A   1      35.005  30.041  28.326  1.00  0.00     0.251 C 
ATOM     39  H   UNL A   1      33.436  31.218  28.689  1.00  0.00     0.163 HD
ATOM     40  O   UNL A   1      34.322  29.189  27.765  1.00  0.00    -0.269 OA
BRANCH  38  41
ATOM     41  C   UNL A   1      36.457  29.819  28.504  1.00  0.00     0.039 A 
ATOM     42  C   UNL A   1      37.345  30.087  27.469  1.00  0.00     0.014 A 
ATOM     43  C   UNL A   1      36.943  29.328  29.721  1.00  0.00     0.014 A 
ATOM     44  C   UNL A   1      38.649  29.624  27.547  1.00  0.00     0.010 A 
ATOM     45  C   UNL A   1      38.300  29.005  29.851  1.00  0.00     0.010 A 
ATOM     46  C   UNL A   1      39.154  29.089  28.742  1.00  0.00    -0.014 A 
BRANCH  46  47
ATOM     47  C   UNL A   1      40.579  28.661  28.781  1.00  0.00     0.031 A 
ATOM     48  C   UNL A   1      40.994  27.268  28.386  1.00  0.00     0.074 A 
ATOM     49  C   UNL A   1      41.518  29.576  29.095  1.00  0.00     0.049 A 
ATOM     50  N   UNL A   1      42.200  26.765  28.281  1.00  0.00    -0.248 NA
ATOM     51  C   UNL A   1      39.922  26.309  28.079  1.00  0.00     0.031 C 
ATOM     52  C   UNL A   1      41.245  30.957  29.503  1.00  0.00     0.029 A 
ATOM     53  N   UNL A   1      42.886  29.503  29.076  1.00  0.00    -0.354 N 
ATOM     54  C   UNL A   1      42.032  25.435  27.915  1.00  0.00     0.074 A 
ATOM     55  C   UNL A   1      40.606  25.197  27.855  1.00  0.00     0.031 C 
ATOM     56  C   UNL A   1      42.403  31.621  29.616  1.00  0.00     0.029 A 
ATOM     57  C   UNL A   1      43.502  30.695  29.375  1.00  0.00     0.049 A 
ATOM     58  H   UNL A   1      43.381  28.676  28.870  1.00  0.00     0.167 HD
ATOM     59  C   UNL A   1      42.977  24.500  27.646  1.00  0.00     0.037 A 
ATOM     60  C   UNL A   1      44.806  31.010  29.463  1.00  0.00     0.037 A 
ATOM     61  C   UNL A   1      44.398  24.742  27.705  1.00  0.00     0.049 A 
ATOM     62  C   UNL A   1      45.828  29.945  29.199  1.00  0.00     0.074 A 
ATOM     63  C   UNL A   1      45.436  23.870  27.425  1.00  0.00     0.029 A 
ATOM     64  N   UNL A   1      44.982  25.944  28.078  1.00  0.00    -0.354 N 
ATOM     65  N   UNL A   1      45.651  28.700  28.829  1.00  0.00    -0.248 NA
ATOM     66  C   UNL A   1      47.233  30.331  29.371  1.00  0.00     0.031 C 
ATOM     67  C   UNL A   1      46.645  24.525  27.688  1.00  0.00     0.029 A 
ATOM     68  C   UNL A   1      46.364  25.828  28.068  1.00  0.00     0.049 A 
ATOM     69  H   UNL A   1      44.487  26.762  28.316  1.00  0.00     0.167 HD
ATOM     70  C   UNL A   1      46.922  28.156  28.713  1.00  0.00     0.074 A 
ATOM     71  C   UNL A   1      47.858  29.220  29.014  1.00  0.00     0.031 C 
ATOM     72  C   UNL A   1      47.285  26.888  28.392  1.00  0.00     0.037 A 
BRANCH  59  73
ATOM     73  C   UNL A   1      42.499  23.117  27.297  1.00  0.00     0.057 A 
ATOM     74  C   UNL A   1      42.167  22.202  28.305  1.00  0.00     0.134 A 
ATOM     75  C   UNL A   1      42.378  22.679  25.970  1.00  0.00     0.134 A 
ATOM     76  F   UNL A   1      42.268  22.547  29.598  1.00  0.00    -0.206 F 
ATOM     77  C   UNL A   1      41.726  20.911  28.009  1.00  0.00     0.040 A 
ATOM     78  C   UNL A   1      41.907  21.400  25.660  1.00  0.00     0.040 A 
ATOM     79  F   UNL A   1      42.667  23.504  24.952  1.00  0.00    -0.206 F 
ATOM     80  C   UNL A   1      41.584  20.511  26.683  1.00  0.00     0.006 A 
ENDBRANCH  59  73
BRANCH  60  81
ATOM     81  C   UNL A   1      45.214  32.385  29.843  1.00  0.00     0.057 A 
ATOM     82  C   UNL A   1      45.418  33.376  28.874  1.00  0.00     0.134 A 
ATOM     83  C   UNL A   1      45.400  32.745  31.182  1.00  0.00     0.134 A 
ATOM     84  F   UNL A   1      45.264  33.093  27.573  1.00  0.00    -0.206 F 
ATOM     85  C   UNL A   1      45.802  34.672  29.221  1.00  0.00     0.040 A 
ATOM     86  C   UNL A   1      45.751  34.047  31.546  1.00  0.00     0.040 A 
ATOM     87  F   UNL A   1      45.204  31.846  32.158  1.00  0.00    -0.206 F 
ATOM     88  C   UNL A   1      45.958  35.012  30.562  1.00  0.00     0.006 A 
ENDBRANCH  60  81
BRANCH  72  89
ATOM     89  C   UNL A   1      48.760  26.608  28.337  1.00  0.00     0.057 A 
ATOM     90  C   UNL A   1      49.489  26.856  27.166  1.00  0.00     0.134 A 
ATOM     91  C   UNL A   1      49.467  26.131  29.449  1.00  0.00     0.134 A 
ATOM     92  F   UNL A   1      48.875  27.305  26.061  1.00  0.00    -0.206 F 
ATOM     93  C   UNL A   1      50.868  26.655  27.109  1.00  0.00     0.040 A 
ATOM     94  C   UNL A   1      50.853  25.959  29.415  1.00  0.00     0.040 A 
ATOM     95  F   UNL A   1      48.833  25.888  30.606  1.00  0.00    -0.206 F 
ATOM     96  C   UNL A   1      51.557  26.220  28.240  1.00  0.00     0.006 A 
ENDBRANCH  72  89
ENDBRANCH  46  47
ENDBRANCH  38  41
ENDBRANCH  36  37
ENDBRANCH   1  36
TORSDOF 11
ENDMDL
MODEL 3
REMARK VINA RESULT:     -10.9      4.980     12.227
REMARK SMILES C[C@]12c3ccccc3[C@](C)(c3ccccc31)[C@@H]1C(=O)N(c3ccc(C(=O)NCCCNC(=O)c4ccc(-c5c6nc(c(-c7c(F)cccc7F)c7ccc([nH]7)c(-c7c(F)cccc7F)c7nc(c(-c8c(F)cccc8F)c8ccc5[nH]8)C=C7)C=C6)cc4)cc3)C(=O)[C@H]12
REMARK SMILES IDX 29 1 28 2 27 3 25 4 26 5 24 7 21 8 22 9 89 10 23 11 88 12
REMARK SMILES IDX 20 13 1 14 2 15 16 16 3 17 92 18 15 19 11 20 8 21 4 22 17 23
REMARK SMILES IDX 90 24 14 25 12 26 9 27 7 28 5 29 18 30 91 31 13 32 10 33
REMARK SMILES IDX 6 34 19 35 30 36 31 37 32 38 33 40 34 41 35 42 87 43 36 44
REMARK SMILES IDX 86 45 37 46 38 47 39 48 80 49 40 50 85 51 79 52 81 53 41 54
REMARK SMILES IDX 84 55 78 56 77 57 42 59 68 60 51 61 67 62 52 63 55 64 66 65
REMARK SMILES IDX 82 66 53 67 54 68 65 70 83 71 56 72 43 73 44 74 49 75 45 76
REMARK SMILES IDX 46 77 48 78 50 79 47 80 69 81 70 82 75 83 71 84 72 85 74 86
REMARK SMILES IDX 76 87 73 88 57 89 58 90 63 91 59 92 60 93 62 94 64 95 61 96
REMARK H PARENT 27 6 31 39 81 58 55 69
REMARK Flexibility Score: inf
ROOT
ATOM      1  C   UNL A   1      44.348  22.459  26.235  1.00  0.00     0.042 C 
ENDROOT
BRANCH   1   2
ATOM      2  C   UNL A   1      43.320  21.485  25.683  1.00  0.00     0.118 C 
BRANCH   2   3
ATOM      3  N   UNL A   1      42.821  20.546  26.676  1.00  0.00    -0.352 N 
ATOM      4  C   UNL A   1      41.556  20.263  27.126  1.00  0.00     0.251 C 
ATOM      5  O   UNL A   1      41.430  19.457  28.046  1.00  0.00    -0.269 OA
ATOM      6  H   UNL A   1      43.526  20.010  27.107  1.00  0.00     0.163 HD
BRANCH   4   7
ATOM      7  C   UNL A   1      40.355  20.942  26.585  1.00  0.00     0.039 A 
ATOM      8  C   UNL A   1      37.901  22.012  25.727  1.00  0.00     0.052 A 
ATOM      9  C   UNL A   1      38.302  20.736  25.317  1.00  0.00     0.027 A 
ATOM     10  C   UNL A   1      38.797  22.791  26.470  1.00  0.00     0.027 A 
ATOM     11  C   UNL A   1      39.526  20.207  25.734  1.00  0.00     0.016 A 
ATOM     12  C   UNL A   1      40.025  22.265  26.881  1.00  0.00     0.016 A 
BRANCH   8  13
ATOM     13  N   UNL A   1      36.599  22.482  25.451  1.00  0.00    -0.250 N 
ATOM     14  C   UNL A   1      34.068  26.187  25.953  1.00  0.00     0.022 C 
ATOM     15  C   UNL A   1      33.714  24.914  25.187  1.00  0.00     0.030 C 
ATOM     16  C   UNL A   1      33.484  25.104  23.664  1.00  0.00    -0.033 A 
ATOM     17  C   UNL A   1      32.419  24.191  25.675  1.00  0.00    -0.033 A 
ATOM     18  C   UNL A   1      34.716  23.769  25.467  1.00  0.00     0.108 C 
ATOM     19  C   UNL A   1      33.552  26.307  22.967  1.00  0.00     0.005 A 
ATOM     20  C   UNL A   1      33.099  23.905  22.969  1.00  0.00    -0.033 A 
ATOM     21  C   UNL A   1      32.192  22.928  25.023  1.00  0.00    -0.033 A 
ATOM     22  C   UNL A   1      31.572  24.627  26.689  1.00  0.00     0.005 A 
ATOM     23  C   UNL A   1      34.639  22.756  24.325  1.00  0.00     0.108 C 
ATOM     24  C   UNL A   1      36.196  23.809  25.665  1.00  0.00     0.238 C 
ATOM     25  C   UNL A   1      33.232  26.328  21.607  1.00  0.00     0.000 A 
ATOM     26  C   UNL A   1      32.769  23.943  21.616  1.00  0.00     0.005 A 
ATOM     27  C   UNL A   1      33.170  22.626  23.860  1.00  0.00     0.030 C 
ATOM     28  C   UNL A   1      31.123  22.133  25.422  1.00  0.00     0.005 A 
ATOM     29  C   UNL A   1      30.504  23.816  27.070  1.00  0.00     0.000 A 
ATOM     30  C   UNL A   1      35.596  21.728  24.828  1.00  0.00     0.238 C 
ATOM     31  O   UNL A   1      36.844  24.779  26.007  1.00  0.00    -0.274 OA
ATOM     32  C   UNL A   1      32.834  25.162  20.942  1.00  0.00     0.000 A 
ATOM     33  C   UNL A   1      32.922  21.315  23.117  1.00  0.00     0.022 C 
ATOM     34  C   UNL A   1      30.286  22.580  26.449  1.00  0.00     0.000 A 
ATOM     35  O   UNL A   1      35.544  20.530  24.605  1.00  0.00    -0.274 OA
ENDBRANCH   8  13
ENDBRANCH   4   7
ENDBRANCH   2   3
ENDBRANCH   1   2
BRANCH   1  36
ATOM     36  C   UNL A   1      43.766  23.775  26.720  1.00  0.00     0.118 C 
BRANCH  36  37
ATOM     37  N   UNL A   1      42.845  24.389  25.766  1.00  0.00    -0.352 N 
ATOM     38  C   UNL A   1      41.901  25.381  25.919  1.00  0.00     0.251 C 
ATOM     39  H   UNL A   1      42.909  24.029  24.852  1.00  0.00     0.163 HD
ATOM     40  O   UNL A   1      41.121  25.622  25.001  1.00  0.00    -0.269 OA
BRANCH  38  41
ATOM     41  C   UNL A   1      41.792  26.128  27.190  1.00  0.00     0.039 A 
ATOM     42  C   UNL A   1      40.894  25.728  28.172  1.00  0.00     0.014 A 
ATOM     43  C   UNL A   1      42.596  27.253  27.407  1.00  0.00     0.014 A 
ATOM     44  C   UNL A   1      40.606  26.579  29.227  1.00  0.00     0.010 A 
ATOM     45  C   UNL A   1      42.412  28.031  28.558  1.00  0.00     0.010 A 
ATOM     46  C   UNL A   1      41.368  27.737  29.448  1.00  0.00    -0.014 A 
BRANCH  46  47
ATOM     47  C   UNL A   1      41.048  28.581  30.631  1.00  0.00     0.031 A 
ATOM     48  C   UNL A   1      41.892  28.543  31.877  1.00  0.00     0.074 A 
ATOM     49  C   UNL A   1      40.030  29.460  30.538  1.00  0.00     0.049 A 
ATOM     50  N   UNL A   1      41.800  29.278  32.958  1.00  0.00    -0.248 NA
ATOM     51  C   UNL A   1      42.973  27.547  31.927  1.00  0.00     0.031 C 
ATOM     52  C   UNL A   1      39.131  29.590  29.387  1.00  0.00     0.029 A 
ATOM     53  N   UNL A   1      39.605  30.438  31.398  1.00  0.00    -0.354 N 
ATOM     54  C   UNL A   1      42.793  28.824  33.818  1.00  0.00     0.074 A 
ATOM     55  C   UNL A   1      43.451  27.723  33.150  1.00  0.00     0.031 C 
ATOM     56  C   UNL A   1      38.319  30.638  29.577  1.00  0.00     0.029 A 
ATOM     57  C   UNL A   1      38.578  31.200  30.896  1.00  0.00     0.049 A 
ATOM     58  H   UNL A   1      39.997  30.581  32.291  1.00  0.00     0.167 HD
ATOM     59  C   UNL A   1      43.131  29.287  35.048  1.00  0.00     0.037 A 
ATOM     60  C   UNL A   1      37.902  32.228  31.439  1.00  0.00     0.037 A 
ATOM     61  C   UNL A   1      42.474  30.387  35.710  1.00  0.00     0.049 A 
ATOM     62  C   UNL A   1      38.272  32.692  32.816  1.00  0.00     0.074 A 
ATOM     63  C   UNL A   1      42.758  30.948  36.944  1.00  0.00     0.029 A 
ATOM     64  N   UNL A   1      41.393  31.089  35.197  1.00  0.00    -0.354 N 
ATOM     65  N   UNL A   1      39.230  32.268  33.604  1.00  0.00    -0.248 NA
ATOM     66  C   UNL A   1      37.460  33.776  33.381  1.00  0.00     0.031 C 
ATOM     67  C   UNL A   1      41.812  31.946  37.202  1.00  0.00     0.029 A 
ATOM     68  C   UNL A   1      40.977  32.055  36.102  1.00  0.00     0.049 A 
ATOM     69  H   UNL A   1      40.979  30.925  34.318  1.00  0.00     0.167 HD
ATOM     70  C   UNL A   1      39.144  33.040  34.753  1.00  0.00     0.074 A 
ATOM     71  C   UNL A   1      38.065  33.983  34.540  1.00  0.00     0.031 C 
ATOM     72  C   UNL A   1      39.886  32.972  35.887  1.00  0.00     0.037 A 
BRANCH  59  73
ATOM     73  C   UNL A   1      44.244  28.576  35.770  1.00  0.00     0.057 A 
ATOM     74  C   UNL A   1      43.963  27.522  36.649  1.00  0.00     0.134 A 
ATOM     75  C   UNL A   1      45.589  28.936  35.612  1.00  0.00     0.134 A 
ATOM     76  F   UNL A   1      42.697  27.128  36.859  1.00  0.00    -0.206 F 
ATOM     77  C   UNL A   1      44.975  26.849  37.335  1.00  0.00     0.040 A 
ATOM     78  C   UNL A   1      46.614  28.250  36.268  1.00  0.00     0.040 A 
ATOM     79  F   UNL A   1      45.934  29.929  34.777  1.00  0.00    -0.206 F 
ATOM     80  C   UNL A   1      46.307  27.205  37.137  1.00  0.00     0.006 A 
ENDBRANCH  59  73
BRANCH  60  81
ATOM     81  C   UNL A   1      36.793  32.868  30.688  1.00  0.00     0.057 A 
ATOM     82  C   UNL A   1      37.044  33.822  29.693  1.00  0.00     0.134 A 
ATOM     83  C   UNL A   1      35.457  32.536  30.939  1.00  0.00     0.134 A 
ATOM     84  F   UNL A   1      38.302  34.191  29.411  1.00  0.00    -0.206 F 
ATOM     85  C   UNL A   1      36.009  34.429  28.983  1.00  0.00     0.040 A 
ATOM     86  C   UNL A   1      34.413  33.110  30.213  1.00  0.00     0.040 A 
ATOM     87  F   UNL A   1      35.152  31.617  31.868  1.00  0.00    -0.206 F 
ATOM     88  C   UNL A   1      34.689  34.063  29.234  1.00  0.00     0.006 A 
ENDBRANCH  60  81
BRANCH  72  89
ATOM     89  C   UNL A   1      39.554  33.966  36.964  1.00  0.00     0.057 A 
ATOM     90  C   UNL A   1      38.779  33.589  38.068  1.00  0.00     0.134 A 
ATOM     91  C   UNL A   1      40.030  35.284  36.929  1.00  0.00     0.134 A 
ATOM     92  F   UNL A   1      38.283  32.346  38.162  1.00  0.00    -0.206 F 
ATOM     93  C   UNL A   1      38.504  34.480  39.106  1.00  0.00     0.040 A 
ATOM     94  C   UNL A   1      39.791  36.175  37.978  1.00  0.00     0.040 A 
ATOM     95  F   UNL A   1      40.791  35.707  35.909  1.00  0.00    -0.206 F 
ATOM     96  C   UNL A   1      39.024  35.773  39.071  1.00  0.00     0.006 A 
ENDBRANCH  72  89
ENDBRANCH  46  47
ENDBRANCH  38  41
ENDBRANCH  36  37
ENDBRANCH   1  36
TORSDOF 11
ENDMDL
