MODEL 1
REMARK VINA RESULT:     -11.1      0.000      0.000
REMARK SMILES CC(C)n1cncc1[C@@H](NC(=O)OC(C)(C)C)C(=O)NCCCNC(=O)c1ccc(-c2c3nc(c(-c4c(F)cccc4F)c4ccc([nH]4)c(-c4c(F)cccc4F)c4nc(c(-c5c(F)cccc5F)c5ccc2[nH]5)C=C4)C=C3)cc1
REMARK SMILES IDX 21 1 20 2 18 3 19 4 9 6 8 7 4 8 5 9 6 10 7 11 2 12 1 13 3 14
REMARK SMILES IDX 10 15 11 16 12 18 13 19 14 20 15 21 16 22 17 23 22 24 23 25
REMARK SMILES IDX 24 26 25 27 26 29 27 30 28 31 80 32 29 33 79 34 30 35 31 36
REMARK SMILES IDX 32 37 73 38 33 39 78 40 72 41 74 42 34 43 77 44 71 45 70 46
REMARK SMILES IDX 35 48 61 49 44 50 60 51 45 52 48 53 59 54 75 55 46 56 47 57
REMARK SMILES IDX 58 59 76 60 49 61 36 62 37 63 42 64 38 65 39 66 41 67 43 68
REMARK SMILES IDX 40 69 62 70 63 71 68 72 64 73 65 74 67 75 69 76 66 77 50 78
REMARK SMILES IDX 51 79 56 80 52 81 53 82 55 83 57 84 54 85
REMARK H PARENT 20 5 10 17 24 28 74 47 48 58
REMARK Flexibility Score: inf
ROOT
ATOM      1  C   UNL A   1      33.000  29.086  25.987  1.00  0.00     0.117 C 
ENDROOT
BRANCH   1   2
ATOM      2  N   UNL A   1      33.835  29.252  24.811  1.00  0.00    -0.354 N 
ATOM      3  C   UNL A   1      33.760  28.611  23.605  1.00  0.00     0.248 C 
ATOM      4  O   UNL A   1      34.565  28.955  22.730  1.00  0.00    -0.272 OA
ATOM      5  H   UNL A   1      34.554  29.919  24.894  1.00  0.00     0.163 HD
BRANCH   3   6
ATOM      6  C   UNL A   1      32.824  27.381  23.366  1.00  0.00     0.223 C 
BRANCH   6   7
ATOM      7  C   UNL A   1      31.493  27.950  22.906  1.00  0.00     0.070 A 
ATOM      8  N   UNL A   1      30.244  27.656  23.425  1.00  0.00    -0.330 N 
ATOM      9  C   UNL A   1      29.401  28.669  23.041  1.00  0.00     0.199 A 
ATOM     10  N   UNL A   1      29.948  29.434  22.130  1.00  0.00    -0.245 NA
ATOM     11  C   UNL A   1      31.220  28.958  21.994  1.00  0.00     0.137 A 
BRANCH   8  12
ATOM     12  C   UNL A   1      29.799  26.438  24.097  1.00  0.00     0.082 C 
ATOM     13  C   UNL A   1      30.342  26.324  25.517  1.00  0.00     0.031 C 
ATOM     14  C   UNL A   1      28.265  26.331  24.096  1.00  0.00     0.031 C 
ENDBRANCH   8  12
ENDBRANCH   6   7
BRANCH   6  15
ATOM     15  N   UNL A   1      33.223  26.357  22.410  1.00  0.00    -0.304 N 
ATOM     16  C   UNL A   1      33.002  25.003  22.443  1.00  0.00     0.408 C 
ATOM     17  H   UNL A   1      33.722  26.683  21.626  1.00  0.00     0.168 HD
ATOM     18  O   UNL A   1      33.161  24.332  21.445  1.00  0.00    -0.225 OA
BRANCH  16  19
ATOM     19  O   UNL A   1      32.738  24.521  23.684  1.00  0.00    -0.444 OA
BRANCH  19  20
ATOM     20  C   UNL A   1      33.691  23.668  24.387  1.00  0.00     0.106 C 
ATOM     21  C   UNL A   1      33.543  22.205  23.970  1.00  0.00     0.056 C 
ATOM     22  C   UNL A   1      35.147  24.139  24.216  1.00  0.00     0.056 C 
ATOM     23  C   UNL A   1      33.323  23.790  25.877  1.00  0.00     0.056 C 
ENDBRANCH  19  20
ENDBRANCH  16  19
ENDBRANCH   6  15
ENDBRANCH   3   6
ENDBRANCH   1   2
BRANCH   1  24
ATOM     24  C   UNL A   1      33.754  28.598  27.218  1.00  0.00     0.042 C 
BRANCH  24  25
ATOM     25  C   UNL A   1      35.155  29.179  27.279  1.00  0.00     0.118 C 
BRANCH  25  26
ATOM     26  N   UNL A   1      35.389  29.943  28.516  1.00  0.00    -0.352 N 
ATOM     27  C   UNL A   1      36.445  29.842  29.402  1.00  0.00     0.251 C 
ATOM     28  H   UNL A   1      34.703  30.612  28.741  1.00  0.00     0.163 HD
ATOM     29  O   UNL A   1      36.373  30.276  30.544  1.00  0.00    -0.269 OA
BRANCH  27  30
ATOM     30  C   UNL A   1      37.677  29.208  28.920  1.00  0.00     0.039 A 
ATOM     31  C   UNL A   1      38.370  29.684  27.805  1.00  0.00     0.014 A 
ATOM     32  C   UNL A   1      38.190  28.188  29.714  1.00  0.00     0.014 A 
ATOM     33  C   UNL A   1      39.645  29.186  27.558  1.00  0.00     0.010 A 
ATOM     34  C   UNL A   1      39.512  27.871  29.597  1.00  0.00     0.010 A 
ATOM     35  C   UNL A   1      40.221  28.300  28.482  1.00  0.00    -0.014 A 
BRANCH  35  36
ATOM     36  C   UNL A   1      41.616  27.897  28.394  1.00  0.00     0.031 A 
ATOM     37  C   UNL A   1      41.836  26.647  27.623  1.00  0.00     0.074 A 
ATOM     38  C   UNL A   1      42.630  28.717  28.745  1.00  0.00     0.049 A 
ATOM     39  N   UNL A   1      42.121  25.478  28.090  1.00  0.00    -0.248 NA
ATOM     40  C   UNL A   1      41.522  26.649  26.184  1.00  0.00     0.031 C 
ATOM     41  C   UNL A   1      42.556  30.117  29.190  1.00  0.00     0.029 A 
ATOM     42  N   UNL A   1      43.972  28.506  28.674  1.00  0.00    -0.354 N 
ATOM     43  C   UNL A   1      42.293  24.662  26.975  1.00  0.00     0.074 A 
ATOM     44  C   UNL A   1      41.662  25.355  25.885  1.00  0.00     0.031 C 
ATOM     45  C   UNL A   1      43.778  30.686  29.117  1.00  0.00     0.029 A 
ATOM     46  C   UNL A   1      44.748  29.654  28.805  1.00  0.00     0.049 A 
ATOM     47  H   UNL A   1      44.362  27.612  28.540  1.00  0.00     0.167 HD
ATOM     48  C   UNL A   1      43.227  23.668  26.991  1.00  0.00     0.037 A 
ATOM     49  C   UNL A   1      46.092  29.746  28.653  1.00  0.00     0.037 A 
ATOM     50  C   UNL A   1      43.659  23.408  28.349  1.00  0.00     0.049 A 
ATOM     51  C   UNL A   1      46.639  28.374  28.785  1.00  0.00     0.074 A 
ATOM     52  C   UNL A   1      43.036  23.062  29.534  1.00  0.00     0.029 A 
ATOM     53  N   UNL A   1      44.896  23.886  28.710  1.00  0.00    -0.354 N 
ATOM     54  N   UNL A   1      46.635  27.695  29.897  1.00  0.00    -0.248 NA
ATOM     55  C   UNL A   1      46.770  27.582  27.572  1.00  0.00     0.031 C 
ATOM     56  C   UNL A   1      43.736  23.786  30.548  1.00  0.00     0.029 A 
ATOM     57  C   UNL A   1      44.792  24.468  29.943  1.00  0.00     0.049 A 
ATOM     58  H   UNL A   1      45.717  23.820  28.172  1.00  0.00     0.167 HD
ATOM     59  C   UNL A   1      46.300  26.404  29.518  1.00  0.00     0.074 A 
ATOM     60  C   UNL A   1      46.504  26.372  28.070  1.00  0.00     0.031 C 
ATOM     61  C   UNL A   1      45.604  25.587  30.364  1.00  0.00     0.037 A 
BRANCH  48  62
ATOM     62  C   UNL A   1      44.100  23.284  25.804  1.00  0.00     0.057 A 
ATOM     63  C   UNL A   1      44.290  21.912  25.539  1.00  0.00     0.134 A 
ATOM     64  C   UNL A   1      45.004  24.137  25.138  1.00  0.00     0.134 A 
ATOM     65  F   UNL A   1      43.475  20.988  26.073  1.00  0.00    -0.206 F 
ATOM     66  C   UNL A   1      45.384  21.425  24.816  1.00  0.00     0.040 A 
ATOM     67  C   UNL A   1      46.075  23.661  24.373  1.00  0.00     0.040 A 
ATOM     68  F   UNL A   1      44.973  25.467  25.244  1.00  0.00    -0.206 F 
ATOM     69  C   UNL A   1      46.297  22.301  24.249  1.00  0.00     0.006 A 
ENDBRANCH  48  62
BRANCH  49  70
ATOM     70  C   UNL A   1      46.907  30.873  28.146  1.00  0.00     0.057 A 
ATOM     71  C   UNL A   1      46.658  31.433  26.885  1.00  0.00     0.134 A 
ATOM     72  C   UNL A   1      47.748  31.614  28.995  1.00  0.00     0.134 A 
ATOM     73  F   UNL A   1      45.841  30.820  26.016  1.00  0.00    -0.206 F 
ATOM     74  C   UNL A   1      47.182  32.675  26.502  1.00  0.00     0.040 A 
ATOM     75  C   UNL A   1      48.284  32.853  28.622  1.00  0.00     0.040 A 
ATOM     76  F   UNL A   1      48.003  31.206  30.247  1.00  0.00    -0.206 F 
ATOM     77  C   UNL A   1      47.988  33.396  27.379  1.00  0.00     0.006 A 
ENDBRANCH  49  70
BRANCH  61  78
ATOM     78  C   UNL A   1      45.493  26.002  31.806  1.00  0.00     0.057 A 
ATOM     79  C   UNL A   1      44.385  26.655  32.367  1.00  0.00     0.134 A 
ATOM     80  C   UNL A   1      46.504  25.607  32.689  1.00  0.00     0.134 A 
ATOM     81  F   UNL A   1      43.324  26.988  31.623  1.00  0.00    -0.206 F 
ATOM     82  C   UNL A   1      44.311  26.944  33.734  1.00  0.00     0.040 A 
ATOM     83  C   UNL A   1      46.427  25.856  34.061  1.00  0.00     0.040 A 
ATOM     84  F   UNL A   1      47.571  24.930  32.235  1.00  0.00    -0.206 F 
ATOM     85  C   UNL A   1      45.332  26.538  34.586  1.00  0.00     0.006 A 
ENDBRANCH  61  78
ENDBRANCH  35  36
ENDBRANCH  27  30
ENDBRANCH  25  26
ENDBRANCH  24  25
ENDBRANCH   1  24
TORSDOF 15
ENDMDL
MODEL 2
REMARK VINA RESULT:     -11.0      3.141      7.611
REMARK SMILES CC(C)n1cncc1[C@@H](NC(=O)OC(C)(C)C)C(=O)NCCCNC(=O)c1ccc(-c2c3nc(c(-c4c(F)cccc4F)c4ccc([nH]4)c(-c4c(F)cccc4F)c4nc(c(-c5c(F)cccc5F)c5ccc2[nH]5)C=C4)C=C3)cc1
REMARK SMILES IDX 21 1 20 2 18 3 19 4 9 6 8 7 4 8 5 9 6 10 7 11 2 12 1 13 3 14
REMARK SMILES IDX 10 15 11 16 12 18 13 19 14 20 15 21 16 22 17 23 22 24 23 25
REMARK SMILES IDX 24 26 25 27 26 29 27 30 28 31 80 32 29 33 79 34 30 35 31 36
REMARK SMILES IDX 32 37 73 38 33 39 78 40 72 41 74 42 34 43 77 44 71 45 70 46
REMARK SMILES IDX 35 48 61 49 44 50 60 51 45 52 48 53 59 54 75 55 46 56 47 57
REMARK SMILES IDX 58 59 76 60 49 61 36 62 37 63 42 64 38 65 39 66 41 67 43 68
REMARK SMILES IDX 40 69 62 70 63 71 68 72 64 73 65 74 67 75 69 76 66 77 50 78
REMARK SMILES IDX 51 79 56 80 52 81 53 82 55 83 57 84 54 85
REMARK H PARENT 20 5 10 17 24 28 74 47 48 58
REMARK Flexibility Score: inf
ROOT
ATOM      1  C   UNL A   1      36.048  21.812  25.231  1.00  0.00     0.117 C 
ENDROOT
BRANCH   1   2
ATOM      2  N   UNL A   1      35.551  21.879  26.594  1.00  0.00    -0.354 N 
ATOM      3  C   UNL A   1      34.257  21.901  27.038  1.00  0.00     0.248 C 
ATOM      4  O   UNL A   1      34.079  21.919  28.263  1.00  0.00    -0.272 OA
ATOM      5  H   UNL A   1      36.242  21.914  27.295  1.00  0.00     0.163 HD
BRANCH   3   6
ATOM      6  C   UNL A   1      33.042  22.066  26.069  1.00  0.00     0.223 C 
BRANCH   6   7
ATOM      7  C   UNL A   1      32.903  20.741  25.340  1.00  0.00     0.070 A 
ATOM      8  N   UNL A   1      32.780  20.557  23.973  1.00  0.00    -0.330 N 
ATOM      9  C   UNL A   1      33.112  19.250  23.713  1.00  0.00     0.199 A 
ATOM     10  N   UNL A   1      33.191  18.543  24.812  1.00  0.00    -0.245 NA
ATOM     11  C   UNL A   1      33.000  19.443  25.819  1.00  0.00     0.137 A 
BRANCH   8  12
ATOM     12  C   UNL A   1      32.232  21.472  22.976  1.00  0.00     0.082 C 
ATOM     13  C   UNL A   1      33.187  22.613  22.645  1.00  0.00     0.031 C 
ATOM     14  C   UNL A   1      31.825  20.721  21.697  1.00  0.00     0.031 C 
ENDBRANCH   8  12
ENDBRANCH   6   7
BRANCH   6  15
ATOM     15  N   UNL A   1      31.735  22.411  26.616  1.00  0.00    -0.304 N 
ATOM     16  C   UNL A   1      31.187  23.647  26.847  1.00  0.00     0.408 C 
ATOM     17  H   UNL A   1      31.162  21.646  26.853  1.00  0.00     0.168 HD
ATOM     18  O   UNL A   1      29.997  23.762  27.050  1.00  0.00    -0.225 OA
BRANCH  16  19
ATOM     19  O   UNL A   1      32.105  24.642  26.951  1.00  0.00    -0.444 OA
BRANCH  19  20
ATOM     20  C   UNL A   1      32.167  25.724  25.973  1.00  0.00     0.106 C 
ATOM     21  C   UNL A   1      31.525  25.314  24.647  1.00  0.00     0.056 C 
ATOM     22  C   UNL A   1      31.550  27.033  26.495  1.00  0.00     0.056 C 
ATOM     23  C   UNL A   1      33.669  25.967  25.732  1.00  0.00     0.056 C 
ENDBRANCH  19  20
ENDBRANCH  16  19
ENDBRANCH   6  15
ENDBRANCH   3   6
ENDBRANCH   1   2
BRANCH   1  24
ATOM     24  C   UNL A   1      36.981  20.635  24.969  1.00  0.00     0.042 C 
BRANCH  24  25
ATOM     25  C   UNL A   1      38.399  20.941  25.413  1.00  0.00     0.118 C 
BRANCH  25  26
ATOM     26  N   UNL A   1      39.211  19.722  25.567  1.00  0.00    -0.352 N 
ATOM     27  C   UNL A   1      40.561  19.618  25.847  1.00  0.00     0.251 C 
ATOM     28  H   UNL A   1      38.730  18.871  25.454  1.00  0.00     0.163 HD
ATOM     29  O   UNL A   1      41.188  18.591  25.625  1.00  0.00    -0.269 OA
BRANCH  27  30
ATOM     30  C   UNL A   1      41.222  20.784  26.443  1.00  0.00     0.039 A 
ATOM     31  C   UNL A   1      41.794  21.792  25.664  1.00  0.00     0.014 A 
ATOM     32  C   UNL A   1      41.129  20.898  27.825  1.00  0.00     0.014 A 
ATOM     33  C   UNL A   1      42.182  22.972  26.291  1.00  0.00     0.010 A 
ATOM     34  C   UNL A   1      41.303  22.127  28.393  1.00  0.00     0.010 A 
ATOM     35  C   UNL A   1      41.901  23.140  27.656  1.00  0.00    -0.014 A 
BRANCH  35  36
ATOM     36  C   UNL A   1      42.096  24.417  28.329  1.00  0.00     0.031 A 
ATOM     37  C   UNL A   1      40.966  25.365  28.164  1.00  0.00     0.074 A 
ATOM     38  C   UNL A   1      43.082  24.616  29.231  1.00  0.00     0.049 A 
ATOM     39  N   UNL A   1      40.926  26.415  27.413  1.00  0.00    -0.248 NA
ATOM     40  C   UNL A   1      39.664  25.009  28.753  1.00  0.00     0.031 C 
ATOM     41  C   UNL A   1      44.053  23.641  29.747  1.00  0.00     0.029 A 
ATOM     42  N   UNL A   1      43.359  25.723  29.970  1.00  0.00    -0.354 N 
ATOM     43  C   UNL A   1      39.686  27.000  27.655  1.00  0.00     0.074 A 
ATOM     44  C   UNL A   1      38.882  25.972  28.258  1.00  0.00     0.031 C 
ATOM     45  C   UNL A   1      44.639  24.126  30.863  1.00  0.00     0.029 A 
ATOM     46  C   UNL A   1      44.230  25.507  31.034  1.00  0.00     0.049 A 
ATOM     47  H   UNL A   1      42.975  26.607  29.768  1.00  0.00     0.167 HD
ATOM     48  C   UNL A   1      39.557  28.358  27.649  1.00  0.00     0.037 A 
ATOM     49  C   UNL A   1      44.577  26.400  31.993  1.00  0.00     0.037 A 
ATOM     50  C   UNL A   1      40.714  28.969  27.027  1.00  0.00     0.049 A 
ATOM     51  C   UNL A   1      44.251  27.748  31.469  1.00  0.00     0.074 A 
ATOM     52  C   UNL A   1      41.350  28.861  25.803  1.00  0.00     0.029 A 
ATOM     53  N   UNL A   1      41.627  29.565  27.863  1.00  0.00    -0.354 N 
ATOM     54  N   UNL A   1      44.876  28.310  30.473  1.00  0.00    -0.248 NA
ATOM     55  C   UNL A   1      42.927  28.280  31.753  1.00  0.00     0.031 C 
ATOM     56  C   UNL A   1      42.744  28.959  26.098  1.00  0.00     0.029 A 
ATOM     57  C   UNL A   1      42.883  29.200  27.465  1.00  0.00     0.049 A 
ATOM     58  H   UNL A   1      41.412  30.155  28.621  1.00  0.00     0.167 HD
ATOM     59  C   UNL A   1      43.876  28.921  29.732  1.00  0.00     0.074 A 
ATOM     60  C   UNL A   1      42.718  28.962  30.624  1.00  0.00     0.031 C 
ATOM     61  C   UNL A   1      43.994  29.055  28.377  1.00  0.00     0.037 A 
BRANCH  48  62
ATOM     62  C   UNL A   1      38.674  29.146  28.607  1.00  0.00     0.057 A 
ATOM     63  C   UNL A   1      38.812  28.898  29.988  1.00  0.00     0.134 A 
ATOM     64  C   UNL A   1      37.508  29.856  28.255  1.00  0.00     0.134 A 
ATOM     65  F   UNL A   1      39.894  28.267  30.471  1.00  0.00    -0.206 F 
ATOM     66  C   UNL A   1      37.800  29.180  30.913  1.00  0.00     0.040 A 
ATOM     67  C   UNL A   1      36.511  30.185  29.180  1.00  0.00     0.040 A 
ATOM     68  F   UNL A   1      37.211  30.204  27.001  1.00  0.00    -0.206 F 
ATOM     69  C   UNL A   1      36.631  29.805  30.504  1.00  0.00     0.006 A 
ENDBRANCH  48  62
BRANCH  49  70
ATOM     70  C   UNL A   1      44.918  26.170  33.415  1.00  0.00     0.057 A 
ATOM     71  C   UNL A   1      43.915  25.969  34.374  1.00  0.00     0.134 A 
ATOM     72  C   UNL A   1      46.227  25.851  33.816  1.00  0.00     0.134 A 
ATOM     73  F   UNL A   1      42.630  26.212  34.077  1.00  0.00    -0.206 F 
ATOM     74  C   UNL A   1      44.190  25.446  35.645  1.00  0.00     0.040 A 
ATOM     75  C   UNL A   1      46.517  25.333  35.084  1.00  0.00     0.040 A 
ATOM     76  F   UNL A   1      47.256  25.941  32.960  1.00  0.00    -0.206 F 
ATOM     77  C   UNL A   1      45.495  25.112  35.998  1.00  0.00     0.006 A 
ENDBRANCH  49  70
BRANCH  61  78
ATOM     78  C   UNL A   1      45.348  28.818  27.765  1.00  0.00     0.057 A 
ATOM     79  C   UNL A   1      45.806  27.578  27.292  1.00  0.00     0.134 A 
ATOM     80  C   UNL A   1      46.173  29.924  27.531  1.00  0.00     0.134 A 
ATOM     81  F   UNL A   1      45.050  26.478  27.381  1.00  0.00    -0.206 F 
ATOM     82  C   UNL A   1      47.046  27.440  26.661  1.00  0.00     0.040 A 
ATOM     83  C   UNL A   1      47.398  29.807  26.871  1.00  0.00     0.040 A 
ATOM     84  F   UNL A   1      45.779  31.151  27.907  1.00  0.00    -0.206 F 
ATOM     85  C   UNL A   1      47.844  28.559  26.443  1.00  0.00     0.006 A 
ENDBRANCH  61  78
ENDBRANCH  35  36
ENDBRANCH  27  30
ENDBRANCH  25  26
ENDBRANCH  24  25
ENDBRANCH   1  24
TORSDOF 15
ENDMDL
MODEL 3
REMARK VINA RESULT:     -10.9      1.221      2.933
REMARK SMILES CC(C)n1cncc1[C@@H](NC(=O)OC(C)(C)C)C(=O)NCCCNC(=O)c1ccc(-c2c3nc(c(-c4c(F)cccc4F)c4ccc([nH]4)c(-c4c(F)cccc4F)c4nc(c(-c5c(F)cccc5F)c5ccc2[nH]5)C=C4)C=C3)cc1
REMARK SMILES IDX 21 1 20 2 18 3 19 4 9 6 8 7 4 8 5 9 6 10 7 11 2 12 1 13 3 14
REMARK SMILES IDX 10 15 11 16 12 18 13 19 14 20 15 21 16 22 17 23 22 24 23 25
REMARK SMILES IDX 24 26 25 27 26 29 27 30 28 31 80 32 29 33 79 34 30 35 31 36
REMARK SMILES IDX 32 37 73 38 33 39 78 40 72 41 74 42 34 43 77 44 71 45 70 46
REMARK SMILES IDX 35 48 61 49 44 50 60 51 45 52 48 53 59 54 75 55 46 56 47 57
REMARK SMILES IDX 58 59 76 60 49 61 36 62 37 63 42 64 38 65 39 66 41 67 43 68
REMARK SMILES IDX 40 69 62 70 63 71 68 72 64 73 65 74 67 75 69 76 66 77 50 78
REMARK SMILES IDX 51 79 56 80 52 81 53 82 55 83 57 84 54 85
REMARK H PARENT 20 5 10 17 24 28 74 47 48 58
REMARK Flexibility Score: inf
ROOT
ATOM      1  C   UNL A   1      33.468  27.437  26.227  1.00  0.00     0.117 C 
ENDROOT
BRANCH   1   2
ATOM      2  N   UNL A   1      32.186  26.760  26.303  1.00  0.00    -0.354 N 
ATOM      3  C   UNL A   1      31.692  25.760  25.510  1.00  0.00     0.248 C 
ATOM      4  O   UNL A   1      30.577  25.308  25.799  1.00  0.00    -0.272 OA
ATOM      5  H   UNL A   1      31.591  27.063  27.026  1.00  0.00     0.163 HD
BRANCH   3   6
ATOM      6  C   UNL A   1      32.404  25.305  24.195  1.00  0.00     0.223 C 
BRANCH   6   7
ATOM      7  C   UNL A   1      32.737  23.835  24.385  1.00  0.00     0.070 A 
ATOM      8  N   UNL A   1      33.977  23.300  24.690  1.00  0.00    -0.330 N 
ATOM      9  C   UNL A   1      33.759  22.039  25.187  1.00  0.00     0.199 A 
ATOM     10  N   UNL A   1      32.524  21.649  24.991  1.00  0.00    -0.245 NA
ATOM     11  C   UNL A   1      31.902  22.730  24.438  1.00  0.00     0.137 A 
BRANCH   8  12
ATOM     12  C   UNL A   1      35.301  23.841  24.394  1.00  0.00     0.082 C 
ATOM     13  C   UNL A   1      36.146  24.031  25.648  1.00  0.00     0.031 C 
ATOM     14  C   UNL A   1      36.043  22.965  23.370  1.00  0.00     0.031 C 
ENDBRANCH   8  12
ENDBRANCH   6   7
BRANCH   6  15
ATOM     15  N   UNL A   1      31.706  25.441  22.923  1.00  0.00    -0.304 N 
ATOM     16  C   UNL A   1      31.533  26.553  22.140  1.00  0.00     0.408 C 
ATOM     17  H   UNL A   1      31.300  24.614  22.574  1.00  0.00     0.168 HD
ATOM     18  O   UNL A   1      31.164  26.442  20.989  1.00  0.00    -0.225 OA
BRANCH  16  19
ATOM     19  O   UNL A   1      31.682  27.724  22.810  1.00  0.00    -0.444 OA
BRANCH  19  20
ATOM     20  C   UNL A   1      30.537  28.578  23.112  1.00  0.00     0.106 C 
ATOM     21  C   UNL A   1      30.285  29.589  21.993  1.00  0.00     0.056 C 
ATOM     22  C   UNL A   1      29.260  27.773  23.415  1.00  0.00     0.056 C 
ATOM     23  C   UNL A   1      30.929  29.348  24.386  1.00  0.00     0.056 C 
ENDBRANCH  19  20
ENDBRANCH  16  19
ENDBRANCH   6  15
ENDBRANCH   3   6
ENDBRANCH   1   2
BRANCH   1  24
ATOM     24  C   UNL A   1      33.640  28.556  27.247  1.00  0.00     0.042 C 
BRANCH  24  25
ATOM     25  C   UNL A   1      35.099  28.943  27.407  1.00  0.00     0.118 C 
BRANCH  25  26
ATOM     26  N   UNL A   1      35.328  29.773  28.601  1.00  0.00    -0.352 N 
ATOM     27  C   UNL A   1      36.404  29.753  29.469  1.00  0.00     0.251 C 
ATOM     28  H   UNL A   1      34.624  30.428  28.808  1.00  0.00     0.163 HD
ATOM     29  O   UNL A   1      36.337  30.238  30.590  1.00  0.00    -0.269 OA
BRANCH  27  30
ATOM     30  C   UNL A   1      37.649  29.139  28.993  1.00  0.00     0.039 A 
ATOM     31  C   UNL A   1      38.317  29.602  27.857  1.00  0.00     0.014 A 
ATOM     32  C   UNL A   1      38.198  28.158  29.811  1.00  0.00     0.014 A 
ATOM     33  C   UNL A   1      39.604  29.133  27.612  1.00  0.00     0.010 A 
ATOM     34  C   UNL A   1      39.528  27.875  29.690  1.00  0.00     0.010 A 
ATOM     35  C   UNL A   1      40.213  28.291  28.555  1.00  0.00    -0.014 A 
BRANCH  35  36
ATOM     36  C   UNL A   1      41.619  27.925  28.464  1.00  0.00     0.031 A 
ATOM     37  C   UNL A   1      41.871  26.688  27.683  1.00  0.00     0.074 A 
ATOM     38  C   UNL A   1      42.611  28.768  28.823  1.00  0.00     0.049 A 
ATOM     39  N   UNL A   1      42.186  25.522  28.140  1.00  0.00    -0.248 NA
ATOM     40  C   UNL A   1      41.557  26.694  26.243  1.00  0.00     0.031 C 
ATOM     41  C   UNL A   1      42.500  30.161  29.279  1.00  0.00     0.029 A 
ATOM     42  N   UNL A   1      43.957  28.592  28.750  1.00  0.00    -0.354 N 
ATOM     43  C   UNL A   1      42.379  24.721  27.018  1.00  0.00     0.074 A 
ATOM     44  C   UNL A   1      41.730  25.406  25.934  1.00  0.00     0.031 C 
ATOM     45  C   UNL A   1      43.707  30.762  29.212  1.00  0.00     0.029 A 
ATOM     46  C   UNL A   1      44.703  29.758  28.891  1.00  0.00     0.049 A 
ATOM     47  H   UNL A   1      44.371  27.709  28.609  1.00  0.00     0.167 HD
ATOM     48  C   UNL A   1      43.338  23.751  27.025  1.00  0.00     0.037 A 
ATOM     49  C   UNL A   1      46.045  29.887  28.741  1.00  0.00     0.037 A 
ATOM     50  C   UNL A   1      43.777  23.490  28.381  1.00  0.00     0.049 A 
ATOM     51  C   UNL A   1      46.627  28.528  28.861  1.00  0.00     0.074 A 
ATOM     52  C   UNL A   1      43.163  23.119  29.563  1.00  0.00     0.029 A 
ATOM     53  N   UNL A   1      45.001  23.997  28.747  1.00  0.00    -0.354 N 
ATOM     54  N   UNL A   1      46.640  27.840  29.968  1.00  0.00    -0.248 NA
ATOM     55  C   UNL A   1      46.779  27.750  27.642  1.00  0.00     0.031 C 
ATOM     56  C   UNL A   1      43.843  23.852  30.583  1.00  0.00     0.029 A 
ATOM     57  C   UNL A   1      44.882  24.566  29.985  1.00  0.00     0.049 A 
ATOM     58  H   UNL A   1      45.823  23.958  28.209  1.00  0.00     0.167 HD
ATOM     59  C   UNL A   1      46.339  26.544  29.578  1.00  0.00     0.074 A 
ATOM     60  C   UNL A   1      46.544  26.530  28.129  1.00  0.00     0.031 C 
ATOM     61  C   UNL A   1      45.664  25.702  30.416  1.00  0.00     0.037 A 
BRANCH  48  62
ATOM     62  C   UNL A   1      44.221  23.400  25.835  1.00  0.00     0.057 A 
ATOM     63  C   UNL A   1      44.428  22.036  25.545  1.00  0.00     0.134 A 
ATOM     64  C   UNL A   1      45.119  24.275  25.191  1.00  0.00     0.134 A 
ATOM     65  F   UNL A   1      43.621  21.093  26.057  1.00  0.00    -0.206 F 
ATOM     66  C   UNL A   1      45.531  21.575  24.818  1.00  0.00     0.040 A 
ATOM     67  C   UNL A   1      46.198  23.827  24.422  1.00  0.00     0.040 A 
ATOM     68  F   UNL A   1      45.072  25.603  25.323  1.00  0.00    -0.206 F 
ATOM     69  C   UNL A   1      46.437  22.473  24.273  1.00  0.00     0.006 A 
ENDBRANCH  48  62
BRANCH  49  70
ATOM     70  C   UNL A   1      46.830  31.039  28.244  1.00  0.00     0.057 A 
ATOM     71  C   UNL A   1      46.664  31.515  26.935  1.00  0.00     0.134 A 
ATOM     72  C   UNL A   1      47.541  31.878  29.120  1.00  0.00     0.134 A 
ATOM     73  F   UNL A   1      45.972  30.802  26.035  1.00  0.00    -0.206 F 
ATOM     74  C   UNL A   1      47.142  32.768  26.530  1.00  0.00     0.040 A 
ATOM     75  C   UNL A   1      48.030  33.130  28.726  1.00  0.00     0.040 A 
ATOM     76  F   UNL A   1      47.704  31.555  30.411  1.00  0.00    -0.206 F 
ATOM     77  C   UNL A   1      47.816  33.586  27.432  1.00  0.00     0.006 A 
ENDBRANCH  49  70
BRANCH  61  78
ATOM     78  C   UNL A   1      45.542  26.102  31.861  1.00  0.00     0.057 A 
ATOM     79  C   UNL A   1      44.426  26.741  32.423  1.00  0.00     0.134 A 
ATOM     80  C   UNL A   1      46.552  25.705  32.746  1.00  0.00     0.134 A 
ATOM     81  F   UNL A   1      43.366  27.073  31.676  1.00  0.00    -0.206 F 
ATOM     82  C   UNL A   1      44.343  27.014  33.792  1.00  0.00     0.040 A 
ATOM     83  C   UNL A   1      46.465  25.940  34.120  1.00  0.00     0.040 A 
ATOM     84  F   UNL A   1      47.626  25.041  32.291  1.00  0.00    -0.206 F 
ATOM     85  C   UNL A   1      45.362  26.608  34.645  1.00  0.00     0.006 A 
ENDBRANCH  61  78
ENDBRANCH  35  36
ENDBRANCH  27  30
ENDBRANCH  25  26
ENDBRANCH  24  25
ENDBRANCH   1  24
TORSDOF 15
ENDMDL
