MODEL 1
REMARK VINA RESULT:     -12.2      0.000      0.000
REMARK SMILES CCc1cc(/C=C/C(=O)NCCCNC(=O)c2ccc(-c3c4nc(c(-c5c(F)cccc5F)c5ccc([nH]5)c(-c5c(F)cccc5F)c5nc(c(-c6c(F)cccc6F)c6ccc3[nH]6)C=C5)C=C4)cc2)cc(C(=O)c2ccccc2)c1
REMARK SMILES IDX 11 1 10 2 8 3 9 4 7 6 6 7 5 8 3 9 4 10 81 11 72 12 71 13
REMARK SMILES IDX 2 14 1 15 73 16 74 17 75 18 76 19 80 20 77 21 79 22 78 23
REMARK SMILES IDX 12 24 13 25 14 26 15 27 16 29 17 30 18 31 70 32 19 33 69 34
REMARK SMILES IDX 20 35 21 36 22 37 63 38 23 39 68 40 62 41 64 42 24 43 67 44
REMARK SMILES IDX 61 45 60 46 25 48 51 49 34 50 50 51 35 52 38 53 49 54 65 55
REMARK SMILES IDX 36 56 37 57 48 59 66 60 39 61 26 62 27 63 32 64 28 65 29 66
REMARK SMILES IDX 31 67 33 68 30 69 52 70 53 71 58 72 54 73 55 74 57 75 59 76
REMARK SMILES IDX 56 77 40 78 41 79 46 80 42 81 43 82 45 83 47 84 44 85
REMARK H PARENT 10 5 14 28 64 47 38 58
REMARK Flexibility Score: inf
ROOT
ATOM      1  C   UNL A   1      32.693  27.794  24.901  1.00  0.00     0.118 C 
ENDROOT
BRANCH   1   2
ATOM      2  N   UNL A   1      32.976  27.650  23.483  1.00  0.00    -0.352 N 
ATOM      3  C   UNL A   1      33.494  26.606  22.787  1.00  0.00     0.244 C 
ATOM      4  O   UNL A   1      33.532  26.655  21.559  1.00  0.00    -0.270 OA
ATOM      5  H   UNL A   1      32.756  28.439  22.938  1.00  0.00     0.163 HD
BRANCH   3   6
ATOM      6  C   UNL A   1      33.951  25.377  23.471  1.00  0.00     0.072 C 
ATOM      7  C   UNL A   1      34.369  24.270  22.840  1.00  0.00     0.014 C 
BRANCH   7   8
ATOM      8  C   UNL A   1      34.724  23.019  23.518  1.00  0.00    -0.024 A 
ATOM      9  C   UNL A   1      36.344  21.624  24.694  1.00  0.00    -0.047 A 
ATOM     10  C   UNL A   1      36.032  22.774  23.955  1.00  0.00     0.011 A 
ATOM     11  C   UNL A   1      35.332  20.702  24.983  1.00  0.00     0.016 A 
ATOM     12  C   UNL A   1      34.014  20.946  24.577  1.00  0.00     0.023 A 
ATOM     13  C   UNL A   1      33.718  22.099  23.838  1.00  0.00     0.020 A 
BRANCH   9  14
ATOM     14  C   UNL A   1      37.741  21.430  25.227  1.00  0.00     0.032 C 
ATOM     15  C   UNL A   1      38.266  22.711  25.862  1.00  0.00     0.009 C 
ENDBRANCH   9  14
BRANCH  12  16
ATOM     16  C   UNL A   1      32.902  20.006  24.899  1.00  0.00     0.193 C 
ATOM     17  O   UNL A   1      31.817  20.446  25.267  1.00  0.00    -0.289 OA
BRANCH  16  18
ATOM     18  C   UNL A   1      33.074  18.540  24.771  1.00  0.00     0.022 A 
ATOM     19  C   UNL A   1      32.686  17.727  25.841  1.00  0.00     0.012 A 
ATOM     20  C   UNL A   1      33.624  17.970  23.617  1.00  0.00     0.012 A 
ATOM     21  C   UNL A   1      32.803  16.340  25.735  1.00  0.00     0.001 A 
ATOM     22  C   UNL A   1      33.739  16.582  23.518  1.00  0.00     0.001 A 
ATOM     23  C   UNL A   1      33.322  15.769  24.572  1.00  0.00     0.000 A 
ENDBRANCH  16  18
ENDBRANCH  12  16
ENDBRANCH   7   8
ENDBRANCH   3   6
ENDBRANCH   1   2
BRANCH   1  24
ATOM     24  C   UNL A   1      33.949  28.146  25.694  1.00  0.00     0.042 C 
BRANCH  24  25
ATOM     25  C   UNL A   1      33.700  28.345  27.186  1.00  0.00     0.118 C 
BRANCH  25  26
ATOM     26  N   UNL A   1      33.613  29.752  27.545  1.00  0.00    -0.352 N 
ATOM     27  C   UNL A   1      34.520  30.565  28.175  1.00  0.00     0.251 C 
ATOM     28  H   UNL A   1      32.767  30.191  27.296  1.00  0.00     0.163 HD
ATOM     29  O   UNL A   1      34.161  31.667  28.580  1.00  0.00    -0.269 OA
BRANCH  27  30
ATOM     30  C   UNL A   1      35.921  30.134  28.374  1.00  0.00     0.039 A 
ATOM     31  C   UNL A   1      36.312  29.704  29.647  1.00  0.00     0.014 A 
ATOM     32  C   UNL A   1      36.864  30.218  27.347  1.00  0.00     0.014 A 
ATOM     33  C   UNL A   1      37.635  29.322  29.877  1.00  0.00     0.010 A 
ATOM     34  C   UNL A   1      38.168  29.774  27.559  1.00  0.00     0.010 A 
ATOM     35  C   UNL A   1      38.569  29.334  28.829  1.00  0.00    -0.014 A 
BRANCH  35  36
ATOM     36  C   UNL A   1      39.969  28.893  29.049  1.00  0.00     0.031 A 
ATOM     37  C   UNL A   1      40.982  29.839  29.631  1.00  0.00     0.074 A 
ATOM     38  C   UNL A   1      40.342  27.659  28.663  1.00  0.00     0.049 A 
ATOM     39  N   UNL A   1      42.260  29.652  29.846  1.00  0.00    -0.248 NA
ATOM     40  C   UNL A   1      40.503  31.183  29.991  1.00  0.00     0.031 C 
ATOM     41  C   UNL A   1      39.466  26.671  28.030  1.00  0.00     0.029 A 
ATOM     42  N   UNL A   1      41.560  27.030  28.733  1.00  0.00    -0.354 N 
ATOM     43  C   UNL A   1      42.740  30.858  30.342  1.00  0.00     0.074 A 
ATOM     44  C   UNL A   1      41.627  31.782  30.357  1.00  0.00     0.031 C 
ATOM     45  C   UNL A   1      40.172  25.556  27.780  1.00  0.00     0.029 A 
ATOM     46  C   UNL A   1      41.553  25.761  28.210  1.00  0.00     0.049 A 
ATOM     47  H   UNL A   1      42.362  27.450  29.120  1.00  0.00     0.167 HD
ATOM     48  C   UNL A   1      43.992  31.161  30.762  1.00  0.00     0.037 A 
ATOM     49  C   UNL A   1      42.548  24.864  28.085  1.00  0.00     0.037 A 
ATOM     50  C   UNL A   1      45.088  30.229  30.779  1.00  0.00     0.049 A 
ATOM     51  C   UNL A   1      43.917  25.207  28.596  1.00  0.00     0.074 A 
ATOM     52  C   UNL A   1      46.370  30.411  31.269  1.00  0.00     0.029 A 
ATOM     53  N   UNL A   1      45.032  28.936  30.279  1.00  0.00    -0.354 N 
ATOM     54  N   UNL A   1      44.338  26.323  29.141  1.00  0.00    -0.248 NA
ATOM     55  C   UNL A   1      44.946  24.165  28.485  1.00  0.00     0.031 C 
ATOM     56  C   UNL A   1      47.101  29.243  31.031  1.00  0.00     0.029 A 
ATOM     57  C   UNL A   1      46.263  28.317  30.429  1.00  0.00     0.049 A 
ATOM     58  H   UNL A   1      44.236  28.519  29.879  1.00  0.00     0.167 HD
ATOM     59  C   UNL A   1      45.674  26.113  29.452  1.00  0.00     0.074 A 
ATOM     60  C   UNL A   1      45.989  24.757  29.052  1.00  0.00     0.031 C 
ATOM     61  C   UNL A   1      46.561  26.969  30.019  1.00  0.00     0.037 A 
BRANCH  48  62
ATOM     62  C   UNL A   1      44.240  32.564  31.236  1.00  0.00     0.057 A 
ATOM     63  C   UNL A   1      44.070  32.935  32.577  1.00  0.00     0.134 A 
ATOM     64  C   UNL A   1      44.676  33.552  30.344  1.00  0.00     0.134 A 
ATOM     65  F   UNL A   1      43.644  32.040  33.481  1.00  0.00    -0.206 F 
ATOM     66  C   UNL A   1      44.293  34.244  33.007  1.00  0.00     0.040 A 
ATOM     67  C   UNL A   1      44.928  34.859  30.766  1.00  0.00     0.040 A 
ATOM     68  F   UNL A   1      44.866  33.264  29.047  1.00  0.00    -0.206 F 
ATOM     69  C   UNL A   1      44.729  35.210  32.101  1.00  0.00     0.006 A 
ENDBRANCH  48  62
BRANCH  49  70
ATOM     70  C   UNL A   1      42.269  23.542  27.472  1.00  0.00     0.057 A 
ATOM     71  C   UNL A   1      41.894  22.447  28.258  1.00  0.00     0.134 A 
ATOM     72  C   UNL A   1      42.346  23.349  26.089  1.00  0.00     0.134 A 
ATOM     73  F   UNL A   1      41.818  22.567  29.592  1.00  0.00    -0.206 F 
ATOM     74  C   UNL A   1      41.614  21.203  27.691  1.00  0.00     0.040 A 
ATOM     75  C   UNL A   1      42.049  22.116  25.505  1.00  0.00     0.040 A 
ATOM     76  F   UNL A   1      42.692  24.363  25.281  1.00  0.00    -0.206 F 
ATOM     77  C   UNL A   1      41.686  21.037  26.308  1.00  0.00     0.006 A 
ENDBRANCH  49  70
BRANCH  61  78
ATOM     78  C   UNL A   1      47.951  26.454  30.250  1.00  0.00     0.057 A 
ATOM     79  C   UNL A   1      48.311  25.816  31.443  1.00  0.00     0.134 A 
ATOM     80  C   UNL A   1      48.930  26.570  29.255  1.00  0.00     0.134 A 
ATOM     81  F   UNL A   1      47.423  25.686  32.440  1.00  0.00    -0.206 F 
ATOM     82  C   UNL A   1      49.603  25.330  31.647  1.00  0.00     0.040 A 
ATOM     83  C   UNL A   1      50.218  26.068  29.438  1.00  0.00     0.040 A 
ATOM     84  F   UNL A   1      48.646  27.164  28.085  1.00  0.00    -0.206 F 
ATOM     85  C   UNL A   1      50.559  25.451  30.640  1.00  0.00     0.006 A 
ENDBRANCH  61  78
ENDBRANCH  35  36
ENDBRANCH  27  30
ENDBRANCH  25  26
ENDBRANCH  24  25
ENDBRANCH   1  24
TORSDOF 14
ENDMDL
MODEL 2
REMARK VINA RESULT:     -11.7      1.942      2.750
REMARK SMILES CCc1cc(/C=C/C(=O)NCCCNC(=O)c2ccc(-c3c4nc(c(-c5c(F)cccc5F)c5ccc([nH]5)c(-c5c(F)cccc5F)c5nc(c(-c6c(F)cccc6F)c6ccc3[nH]6)C=C5)C=C4)cc2)cc(C(=O)c2ccccc2)c1
REMARK SMILES IDX 11 1 10 2 8 3 9 4 7 6 6 7 5 8 3 9 4 10 81 11 72 12 71 13
REMARK SMILES IDX 2 14 1 15 73 16 74 17 75 18 76 19 80 20 77 21 79 22 78 23
REMARK SMILES IDX 12 24 13 25 14 26 15 27 16 29 17 30 18 31 70 32 19 33 69 34
REMARK SMILES IDX 20 35 21 36 22 37 63 38 23 39 68 40 62 41 64 42 24 43 67 44
REMARK SMILES IDX 61 45 60 46 25 48 51 49 34 50 50 51 35 52 38 53 49 54 65 55
REMARK SMILES IDX 36 56 37 57 48 59 66 60 39 61 26 62 27 63 32 64 28 65 29 66
REMARK SMILES IDX 31 67 33 68 30 69 52 70 53 71 58 72 54 73 55 74 57 75 59 76
REMARK SMILES IDX 56 77 40 78 41 79 46 80 42 81 43 82 45 83 47 84 44 85
REMARK H PARENT 10 5 14 28 64 47 38 58
REMARK Flexibility Score: inf
ROOT
ATOM      1  C   UNL A   1      32.079  27.050  25.754  1.00  0.00     0.118 C 
ENDROOT
BRANCH   1   2
ATOM      2  N   UNL A   1      32.587  27.366  24.430  1.00  0.00    -0.352 N 
ATOM      3  C   UNL A   1      33.154  26.571  23.487  1.00  0.00     0.244 C 
ATOM      4  O   UNL A   1      33.400  27.030  22.374  1.00  0.00    -0.270 OA
ATOM      5  H   UNL A   1      32.507  28.314  24.175  1.00  0.00     0.163 HD
BRANCH   3   6
ATOM      6  C   UNL A   1      33.417  25.139  23.748  1.00  0.00     0.072 C 
ATOM      7  C   UNL A   1      34.564  24.661  24.253  1.00  0.00     0.014 C 
BRANCH   7   8
ATOM      8  C   UNL A   1      34.861  23.234  24.416  1.00  0.00    -0.024 A 
ATOM      9  C   UNL A   1      36.442  21.427  24.847  1.00  0.00    -0.047 A 
ATOM     10  C   UNL A   1      36.174  22.778  24.587  1.00  0.00     0.011 A 
ATOM     11  C   UNL A   1      35.379  20.520  24.920  1.00  0.00     0.016 A 
ATOM     12  C   UNL A   1      34.059  20.964  24.779  1.00  0.00     0.023 A 
ATOM     13  C   UNL A   1      33.806  22.318  24.518  1.00  0.00     0.020 A 
BRANCH   9  14
ATOM     14  C   UNL A   1      37.858  20.981  25.115  1.00  0.00     0.032 C 
ATOM     15  C   UNL A   1      38.624  22.037  25.901  1.00  0.00     0.009 C 
ENDBRANCH   9  14
BRANCH  12  16
ATOM     16  C   UNL A   1      32.898  20.036  24.888  1.00  0.00     0.193 C 
ATOM     17  O   UNL A   1      31.769  20.485  25.068  1.00  0.00    -0.289 OA
BRANCH  16  18
ATOM     18  C   UNL A   1      33.073  18.569  24.769  1.00  0.00     0.022 A 
ATOM     19  C   UNL A   1      32.729  17.765  25.861  1.00  0.00     0.012 A 
ATOM     20  C   UNL A   1      33.585  17.990  23.602  1.00  0.00     0.012 A 
ATOM     21  C   UNL A   1      32.850  16.378  25.765  1.00  0.00     0.001 A 
ATOM     22  C   UNL A   1      33.704  16.602  23.513  1.00  0.00     0.001 A 
ATOM     23  C   UNL A   1      33.329  15.798  24.590  1.00  0.00     0.000 A 
ENDBRANCH  16  18
ENDBRANCH  12  16
ENDBRANCH   7   8
ENDBRANCH   3   6
ENDBRANCH   1   2
BRANCH   1  24
ATOM     24  C   UNL A   1      32.499  28.094  26.785  1.00  0.00     0.042 C 
BRANCH  24  25
ATOM     25  C   UNL A   1      33.828  28.774  26.468  1.00  0.00     0.118 C 
BRANCH  25  26
ATOM     26  N   UNL A   1      33.805  30.195  26.778  1.00  0.00    -0.352 N 
ATOM     27  C   UNL A   1      34.615  30.937  27.599  1.00  0.00     0.251 C 
ATOM     28  H   UNL A   1      33.094  30.706  26.328  1.00  0.00     0.163 HD
ATOM     29  O   UNL A   1      34.287  32.083  27.893  1.00  0.00    -0.269 OA
BRANCH  27  30
ATOM     30  C   UNL A   1      35.876  30.378  28.135  1.00  0.00     0.039 A 
ATOM     31  C   UNL A   1      35.841  29.712  29.365  1.00  0.00     0.014 A 
ATOM     32  C   UNL A   1      37.095  30.564  27.479  1.00  0.00     0.014 A 
ATOM     33  C   UNL A   1      37.018  29.202  29.915  1.00  0.00     0.010 A 
ATOM     34  C   UNL A   1      38.259  29.997  27.995  1.00  0.00     0.010 A 
ATOM     35  C   UNL A   1      38.234  29.322  29.224  1.00  0.00    -0.014 A 
BRANCH  35  36
ATOM     36  C   UNL A   1      39.486  28.749  29.777  1.00  0.00     0.031 A 
ATOM     37  C   UNL A   1      40.125  29.353  30.997  1.00  0.00     0.074 A 
ATOM     38  C   UNL A   1      40.083  27.724  29.141  1.00  0.00     0.049 A 
ATOM     39  N   UNL A   1      41.243  29.025  31.592  1.00  0.00    -0.248 NA
ATOM     40  C   UNL A   1      39.430  30.495  31.610  1.00  0.00     0.031 C 
ATOM     41  C   UNL A   1      39.593  27.092  27.914  1.00  0.00     0.029 A 
ATOM     42  N   UNL A   1      41.238  27.043  29.430  1.00  0.00    -0.354 N 
ATOM     43  C   UNL A   1      41.398  29.933  32.632  1.00  0.00     0.074 A 
ATOM     44  C   UNL A   1      40.281  30.850  32.562  1.00  0.00     0.031 C 
ATOM     45  C   UNL A   1      40.437  26.108  27.562  1.00  0.00     0.029 A 
ATOM     46  C   UNL A   1      41.537  26.059  28.520  1.00  0.00     0.049 A 
ATOM     47  H   UNL A   1      41.800  27.243  30.213  1.00  0.00     0.167 HD
ATOM     48  C   UNL A   1      42.374  29.986  33.571  1.00  0.00     0.037 A 
ATOM     49  C   UNL A   1      42.582  25.214  28.463  1.00  0.00     0.037 A 
ATOM     50  C   UNL A   1      43.464  29.050  33.659  1.00  0.00     0.049 A 
ATOM     51  C   UNL A   1      43.630  25.264  29.536  1.00  0.00     0.074 A 
ATOM     52  C   UNL A   1      44.453  28.964  34.624  1.00  0.00     0.029 A 
ATOM     53  N   UNL A   1      43.711  28.038  32.743  1.00  0.00    -0.354 N 
ATOM     54  N   UNL A   1      43.720  26.074  30.564  1.00  0.00    -0.248 NA
ATOM     55  C   UNL A   1      44.715  24.278  29.451  1.00  0.00     0.031 C 
ATOM     56  C   UNL A   1      45.320  27.924  34.271  1.00  0.00     0.029 A 
ATOM     57  C   UNL A   1      44.849  27.336  33.108  1.00  0.00     0.049 A 
ATOM     58  H   UNL A   1      43.159  27.846  31.951  1.00  0.00     0.167 HD
ATOM     59  C   UNL A   1      44.859  25.686  31.255  1.00  0.00     0.074 A 
ATOM     60  C   UNL A   1      45.417  24.556  30.541  1.00  0.00     0.031 C 
ATOM     61  C   UNL A   1      45.395  26.219  32.381  1.00  0.00     0.037 A 
BRANCH  48  62
ATOM     62  C   UNL A   1      42.305  31.099  34.576  1.00  0.00     0.057 A 
ATOM     63  C   UNL A   1      42.946  32.328  34.368  1.00  0.00     0.134 A 
ATOM     64  C   UNL A   1      41.571  30.947  35.760  1.00  0.00     0.134 A 
ATOM     65  F   UNL A   1      43.675  32.535  33.261  1.00  0.00    -0.206 F 
ATOM     66  C   UNL A   1      42.885  33.353  35.313  1.00  0.00     0.040 A 
ATOM     67  C   UNL A   1      41.480  31.975  36.700  1.00  0.00     0.040 A 
ATOM     68  F   UNL A   1      40.926  29.799  36.020  1.00  0.00    -0.206 F 
ATOM     69  C   UNL A   1      42.145  33.180  36.482  1.00  0.00     0.006 A 
ENDBRANCH  48  62
BRANCH  49  70
ATOM     70  C   UNL A   1      42.667  24.229  27.356  1.00  0.00     0.057 A 
ATOM     71  C   UNL A   1      43.257  24.568  26.133  1.00  0.00     0.134 A 
ATOM     72  C   UNL A   1      42.186  22.924  27.502  1.00  0.00     0.134 A 
ATOM     73  F   UNL A   1      43.722  25.810  25.929  1.00  0.00    -0.206 F 
ATOM     74  C   UNL A   1      43.357  23.646  25.090  1.00  0.00     0.040 A 
ATOM     75  C   UNL A   1      42.297  21.984  26.476  1.00  0.00     0.040 A 
ATOM     76  F   UNL A   1      41.618  22.536  28.655  1.00  0.00    -0.206 F 
ATOM     77  C   UNL A   1      42.881  22.347  25.264  1.00  0.00     0.006 A 
ENDBRANCH  49  70
BRANCH  61  78
ATOM     78  C   UNL A   1      46.640  25.574  32.913  1.00  0.00     0.057 A 
ATOM     79  C   UNL A   1      47.914  25.978  32.495  1.00  0.00     0.134 A 
ATOM     80  C   UNL A   1      46.565  24.562  33.878  1.00  0.00     0.134 A 
ATOM     81  F   UNL A   1      48.053  26.933  31.563  1.00  0.00    -0.206 F 
ATOM     82  C   UNL A   1      49.070  25.381  33.001  1.00  0.00     0.040 A 
ATOM     83  C   UNL A   1      47.713  23.974  34.409  1.00  0.00     0.040 A 
ATOM     84  F   UNL A   1      45.374  24.135  34.327  1.00  0.00    -0.206 F 
ATOM     85  C   UNL A   1      48.970  24.380  33.966  1.00  0.00     0.006 A 
ENDBRANCH  61  78
ENDBRANCH  35  36
ENDBRANCH  27  30
ENDBRANCH  25  26
ENDBRANCH  24  25
ENDBRANCH   1  24
TORSDOF 14
ENDMDL
MODEL 3
REMARK VINA RESULT:     -11.7      1.247      6.234
REMARK SMILES CCc1cc(/C=C/C(=O)NCCCNC(=O)c2ccc(-c3c4nc(c(-c5c(F)cccc5F)c5ccc([nH]5)c(-c5c(F)cccc5F)c5nc(c(-c6c(F)cccc6F)c6ccc3[nH]6)C=C5)C=C4)cc2)cc(C(=O)c2ccccc2)c1
REMARK SMILES IDX 11 1 10 2 8 3 9 4 7 6 6 7 5 8 3 9 4 10 81 11 72 12 71 13
REMARK SMILES IDX 2 14 1 15 73 16 74 17 75 18 76 19 80 20 77 21 79 22 78 23
REMARK SMILES IDX 12 24 13 25 14 26 15 27 16 29 17 30 18 31 70 32 19 33 69 34
REMARK SMILES IDX 20 35 21 36 22 37 63 38 23 39 68 40 62 41 64 42 24 43 67 44
REMARK SMILES IDX 61 45 60 46 25 48 51 49 34 50 50 51 35 52 38 53 49 54 65 55
REMARK SMILES IDX 36 56 37 57 48 59 66 60 39 61 26 62 27 63 32 64 28 65 29 66
REMARK SMILES IDX 31 67 33 68 30 69 52 70 53 71 58 72 54 73 55 74 57 75 59 76
REMARK SMILES IDX 56 77 40 78 41 79 46 80 42 81 43 82 45 83 47 84 44 85
REMARK H PARENT 10 5 14 28 64 47 38 58
REMARK Flexibility Score: inf
ROOT
ATOM      1  C   UNL A   1      32.989  27.915  25.282  1.00  0.00     0.118 C 
ENDROOT
BRANCH   1   2
ATOM      2  N   UNL A   1      33.123  27.778  23.842  1.00  0.00    -0.352 N 
ATOM      3  C   UNL A   1      33.531  26.726  23.087  1.00  0.00     0.244 C 
ATOM      4  O   UNL A   1      33.447  26.788  21.863  1.00  0.00    -0.270 OA
ATOM      5  H   UNL A   1      32.877  28.582  23.328  1.00  0.00     0.163 HD
BRANCH   3   6
ATOM      6  C   UNL A   1      34.010  25.474  23.712  1.00  0.00     0.072 C 
ATOM      7  C   UNL A   1      34.314  24.358  23.033  1.00  0.00     0.014 C 
BRANCH   7   8
ATOM      8  C   UNL A   1      34.691  23.088  23.661  1.00  0.00    -0.024 A 
ATOM      9  C   UNL A   1      36.334  21.677  24.784  1.00  0.00    -0.047 A 
ATOM     10  C   UNL A   1      36.002  22.849  24.090  1.00  0.00     0.011 A 
ATOM     11  C   UNL A   1      35.339  20.726  25.035  1.00  0.00     0.016 A 
ATOM     12  C   UNL A   1      34.017  20.962  24.637  1.00  0.00     0.023 A 
ATOM     13  C   UNL A   1      33.702  22.138  23.943  1.00  0.00     0.020 A 
BRANCH   9  14
ATOM     14  C   UNL A   1      37.735  21.487  25.311  1.00  0.00     0.032 C 
ATOM     15  C   UNL A   1      38.250  22.763  25.963  1.00  0.00     0.009 C 
ENDBRANCH   9  14
BRANCH  12  16
ATOM     16  C   UNL A   1      32.923  19.991  24.920  1.00  0.00     0.193 C 
ATOM     17  O   UNL A   1      31.814  20.399  25.256  1.00  0.00    -0.289 OA
BRANCH  16  18
ATOM     18  C   UNL A   1      33.138  18.530  24.792  1.00  0.00     0.022 A 
ATOM     19  C   UNL A   1      32.634  17.691  25.791  1.00  0.00     0.012 A 
ATOM     20  C   UNL A   1      33.843  17.991  23.709  1.00  0.00     0.012 A 
ATOM     21  C   UNL A   1      32.792  16.309  25.680  1.00  0.00     0.001 A 
ATOM     22  C   UNL A   1      33.997  16.608  23.604  1.00  0.00     0.001 A 
ATOM     23  C   UNL A   1      33.466  15.769  24.583  1.00  0.00     0.000 A 
ENDBRANCH  16  18
ENDBRANCH  12  16
ENDBRANCH   7   8
ENDBRANCH   3   6
ENDBRANCH   1   2
BRANCH   1  24
ATOM     24  C   UNL A   1      34.034  28.867  25.858  1.00  0.00     0.042 C 
BRANCH  24  25
ATOM     25  C   UNL A   1      34.331  28.634  27.337  1.00  0.00     0.118 C 
BRANCH  25  26
ATOM     26  N   UNL A   1      34.292  29.869  28.105  1.00  0.00    -0.352 N 
ATOM     27  C   UNL A   1      35.262  30.474  28.862  1.00  0.00     0.251 C 
ATOM     28  H   UNL A   1      33.431  30.347  28.078  1.00  0.00     0.163 HD
ATOM     29  O   UNL A   1      34.954  31.398  29.609  1.00  0.00    -0.269 OA
BRANCH  27  30
ATOM     30  C   UNL A   1      36.672  30.029  28.793  1.00  0.00     0.039 A 
ATOM     31  C   UNL A   1      37.344  30.128  27.570  1.00  0.00     0.014 A 
ATOM     32  C   UNL A   1      37.310  29.453  29.894  1.00  0.00     0.014 A 
ATOM     33  C   UNL A   1      38.664  29.687  27.464  1.00  0.00     0.010 A 
ATOM     34  C   UNL A   1      38.648  29.074  29.805  1.00  0.00     0.010 A 
ATOM     35  C   UNL A   1      39.334  29.176  28.586  1.00  0.00    -0.014 A 
BRANCH  35  36
ATOM     36  C   UNL A   1      40.750  28.740  28.497  1.00  0.00     0.031 A 
ATOM     37  C   UNL A   1      41.088  27.322  28.130  1.00  0.00     0.074 A 
ATOM     38  C   UNL A   1      41.730  29.608  28.811  1.00  0.00     0.049 A 
ATOM     39  N   UNL A   1      42.260  26.745  28.055  1.00  0.00    -0.248 NA
ATOM     40  C   UNL A   1      39.958  26.426  27.840  1.00  0.00     0.031 C 
ATOM     41  C   UNL A   1      41.527  30.993  29.241  1.00  0.00     0.029 A 
ATOM     42  N   UNL A   1      43.093  29.448  28.832  1.00  0.00    -0.354 N 
ATOM     43  C   UNL A   1      42.009  25.417  27.733  1.00  0.00     0.074 A 
ATOM     44  C   UNL A   1      40.571  25.264  27.668  1.00  0.00     0.031 C 
ATOM     45  C   UNL A   1      42.721  31.559  29.472  1.00  0.00     0.029 A 
ATOM     46  C   UNL A   1      43.771  30.573  29.233  1.00  0.00     0.049 A 
ATOM     47  H   UNL A   1      43.541  28.607  28.584  1.00  0.00     0.167 HD
ATOM     48  C   UNL A   1      42.895  24.421  27.496  1.00  0.00     0.037 A 
ATOM     49  C   UNL A   1      45.090  30.784  29.394  1.00  0.00     0.037 A 
ATOM     50  C   UNL A   1      44.325  24.585  27.527  1.00  0.00     0.049 A 
ATOM     51  C   UNL A   1      46.056  29.678  29.086  1.00  0.00     0.074 A 
ATOM     52  C   UNL A   1      45.308  23.662  27.213  1.00  0.00     0.029 A 
ATOM     53  N   UNL A   1      44.977  25.753  27.896  1.00  0.00    -0.354 N 
ATOM     54  N   UNL A   1      45.807  28.449  28.699  1.00  0.00    -0.248 NA
ATOM     55  C   UNL A   1      47.485  29.987  29.224  1.00  0.00     0.031 C 
ATOM     56  C   UNL A   1      46.555  24.258  27.431  1.00  0.00     0.029 A 
ATOM     57  C   UNL A   1      46.349  25.567  27.840  1.00  0.00     0.049 A 
ATOM     58  H   UNL A   1      44.531  26.590  28.158  1.00  0.00     0.167 HD
ATOM     59  C   UNL A   1      47.046  27.845  28.534  1.00  0.00     0.074 A 
ATOM     60  C   UNL A   1      48.045  28.847  28.844  1.00  0.00     0.031 C 
ATOM     61  C   UNL A   1      47.329  26.573  28.159  1.00  0.00     0.037 A 
BRANCH  48  62
ATOM     62  C   UNL A   1      42.340  23.061  27.185  1.00  0.00     0.057 A 
ATOM     63  C   UNL A   1      41.825  22.224  28.185  1.00  0.00     0.134 A 
ATOM     64  C   UNL A   1      42.299  22.591  25.867  1.00  0.00     0.134 A 
ATOM     65  F   UNL A   1      41.844  22.610  29.470  1.00  0.00    -0.206 F 
ATOM     66  C   UNL A   1      41.319  20.957  27.889  1.00  0.00     0.040 A 
ATOM     67  C   UNL A   1      41.771  21.336  25.554  1.00  0.00     0.040 A 
ATOM     68  F   UNL A   1      42.768  23.343  24.859  1.00  0.00    -0.206 F 
ATOM     69  C   UNL A   1      41.287  20.512  26.568  1.00  0.00     0.006 A 
ENDBRANCH  48  62
BRANCH  49  70
ATOM     70  C   UNL A   1      45.568  32.114  29.846  1.00  0.00     0.057 A 
ATOM     71  C   UNL A   1      45.799  32.375  31.201  1.00  0.00     0.134 A 
ATOM     72  C   UNL A   1      45.828  33.144  28.935  1.00  0.00     0.134 A 
ATOM     73  F   UNL A   1      45.551  31.432  32.122  1.00  0.00    -0.206 F 
ATOM     74  C   UNL A   1      46.264  33.617  31.636  1.00  0.00     0.040 A 
ATOM     75  C   UNL A   1      46.314  34.384  29.353  1.00  0.00     0.040 A 
ATOM     76  F   UNL A   1      45.635  32.951  27.621  1.00  0.00    -0.206 F 
ATOM     77  C   UNL A   1      46.528  34.624  30.709  1.00  0.00     0.006 A 
ENDBRANCH  49  70
BRANCH  61  78
ATOM     78  C   UNL A   1      48.779  26.202  28.051  1.00  0.00     0.057 A 
ATOM     79  C   UNL A   1      49.500  25.727  29.153  1.00  0.00     0.134 A 
ATOM     80  C   UNL A   1      49.450  26.291  26.826  1.00  0.00     0.134 A 
ATOM     81  F   UNL A   1      48.918  25.631  30.359  1.00  0.00    -0.206 F 
ATOM     82  C   UNL A   1      50.846  25.374  29.044  1.00  0.00     0.040 A 
ATOM     83  C   UNL A   1      50.789  25.919  26.699  1.00  0.00     0.040 A 
ATOM     84  F   UNL A   1      48.813  26.732  25.730  1.00  0.00    -0.206 F 
ATOM     85  C   UNL A   1      51.492  25.464  27.812  1.00  0.00     0.006 A 
ENDBRANCH  61  78
ENDBRANCH  35  36
ENDBRANCH  27  30
ENDBRANCH  25  26
ENDBRANCH  24  25
ENDBRANCH   1  24
TORSDOF 14
ENDMDL
