MODEL 1
REMARK VINA RESULT:     -12.0      0.000      0.000
REMARK SMILES Cc1cc(C)c(NC(=O)C2(C)CCCC2)c(C(=O)NCCCNC(=O)c2ccc(-c3c4nc(c(-c5c(F)cccc5F)c5ccc([nH]5)c(-c5c(F)cccc5F)c5nc(c(-c6c(F)cccc6F)c6ccc3[nH]6)C=C5)C=C4)cc2)c1
REMARK SMILES IDX 21 1 20 2 19 3 17 4 18 5 16 7 1 8 2 9 3 10 80 11 4 12 5 13
REMARK SMILES IDX 6 14 7 15 8 16 9 18 10 19 11 20 12 21 15 22 13 23 14 24
REMARK SMILES IDX 22 25 23 26 24 27 25 29 26 30 27 31 79 32 28 33 78 34 29 35
REMARK SMILES IDX 30 36 31 37 72 38 32 39 77 40 71 41 73 42 33 43 76 44 70 45
REMARK SMILES IDX 69 46 34 48 60 49 43 50 59 51 44 52 47 53 58 54 74 55 45 56
REMARK SMILES IDX 46 57 57 59 75 60 48 61 35 62 36 63 41 64 37 65 38 66 40 67
REMARK SMILES IDX 42 68 39 69 61 70 62 71 67 72 63 73 64 74 66 75 68 76 65 77
REMARK SMILES IDX 49 78 50 79 55 80 51 81 52 82 54 83 56 84 53 85
REMARK H PARENT 19 6 7 17 23 28 73 47 47 58
REMARK Flexibility Score: inf
ROOT
ATOM      1  C   UNL A   1      38.186  19.689  24.920  1.00  0.00     0.042 C 
ENDROOT
BRANCH   1   2
ATOM      2  C   UNL A   1      37.357  20.952  24.665  1.00  0.00     0.118 C 
BRANCH   2   3
ATOM      3  N   UNL A   1      36.509  21.306  25.791  1.00  0.00    -0.352 N 
ATOM      4  C   UNL A   1      35.157  21.404  26.015  1.00  0.00     0.253 C 
ATOM      5  O   UNL A   1      34.858  21.684  27.181  1.00  0.00    -0.269 OA
ATOM      6  H   UNL A   1      37.034  21.533  26.591  1.00  0.00     0.163 HD
BRANCH   4   7
ATOM      7  C   UNL A   1      34.055  21.270  24.989  1.00  0.00     0.063 A 
ATOM      8  C   UNL A   1      32.194  18.533  23.069  1.00  0.00     0.044 C 
ATOM      9  C   UNL A   1      32.691  19.884  23.494  1.00  0.00    -0.050 A 
ATOM     10  C   UNL A   1      32.306  21.025  22.800  1.00  0.00     0.009 A 
ATOM     11  C   UNL A   1      33.606  20.017  24.544  1.00  0.00     0.019 A 
ATOM     12  C   UNL A   1      32.784  22.292  23.174  1.00  0.00    -0.026 A 
ATOM     13  C   UNL A   1      32.805  23.334  22.080  1.00  0.00     0.046 C 
ATOM     14  C   UNL A   1      33.517  22.443  24.367  1.00  0.00     0.056 A 
BRANCH  14  15
ATOM     15  N   UNL A   1      33.885  23.720  24.847  1.00  0.00    -0.325 N 
ATOM     16  C   UNL A   1      33.238  24.898  25.096  1.00  0.00     0.230 C 
ATOM     17  H   UNL A   1      34.846  23.775  25.055  1.00  0.00     0.169 HD
ATOM     18  O   UNL A   1      33.908  25.923  24.905  1.00  0.00    -0.274 OA
BRANCH  16  19
ATOM     19  C   UNL A   1      31.862  24.996  25.840  1.00  0.00     0.047 C 
ATOM     20  C   UNL A   1      31.877  23.991  27.002  1.00  0.00     0.022 C 
ATOM     21  C   UNL A   1      31.703  26.434  26.413  1.00  0.00     0.016 C 
ATOM     22  C   UNL A   1      30.547  24.892  25.056  1.00  0.00     0.016 C 
ATOM     23  C   UNL A   1      31.184  27.243  25.231  1.00  0.00     0.001 C 
ATOM     24  C   UNL A   1      30.251  26.290  24.497  1.00  0.00     0.001 C 
ENDBRANCH  16  19
ENDBRANCH  14  15
ENDBRANCH   4   7
ENDBRANCH   2   3
ENDBRANCH   1   2
BRANCH   1  25
ATOM     25  C   UNL A   1      39.102  19.785  26.142  1.00  0.00     0.118 C 
BRANCH  25  26
ATOM     26  N   UNL A   1      40.379  19.118  25.917  1.00  0.00    -0.352 N 
ATOM     27  C   UNL A   1      41.661  19.600  25.926  1.00  0.00     0.251 C 
ATOM     28  H   UNL A   1      40.308  18.155  25.725  1.00  0.00     0.163 HD
ATOM     29  O   UNL A   1      42.565  18.887  25.480  1.00  0.00    -0.269 OA
BRANCH  27  30
ATOM     30  C   UNL A   1      41.995  20.941  26.454  1.00  0.00     0.039 A 
ATOM     31  C   UNL A   1      41.903  21.154  27.835  1.00  0.00     0.014 A 
ATOM     32  C   UNL A   1      42.299  22.012  25.609  1.00  0.00     0.014 A 
ATOM     33  C   UNL A   1      42.145  22.422  28.369  1.00  0.00     0.010 A 
ATOM     34  C   UNL A   1      42.595  23.266  26.147  1.00  0.00     0.010 A 
ATOM     35  C   UNL A   1      42.510  23.486  27.529  1.00  0.00    -0.014 A 
BRANCH  35  36
ATOM     36  C   UNL A   1      42.791  24.834  28.088  1.00  0.00     0.031 A 
ATOM     37  C   UNL A   1      44.186  25.211  28.506  1.00  0.00     0.074 A 
ATOM     38  C   UNL A   1      41.778  25.706  28.258  1.00  0.00     0.049 A 
ATOM     39  N   UNL A   1      44.614  26.322  29.052  1.00  0.00    -0.248 NA
ATOM     40  C   UNL A   1      45.233  24.199  28.303  1.00  0.00     0.031 C 
ATOM     41  C   UNL A   1      40.376  25.446  27.930  1.00  0.00     0.029 A 
ATOM     42  N   UNL A   1      41.773  26.985  28.755  1.00  0.00    -0.354 N 
ATOM     43  C   UNL A   1      45.974  26.136  29.272  1.00  0.00     0.074 A 
ATOM     44  C   UNL A   1      46.291  24.791  28.841  1.00  0.00     0.031 C 
ATOM     45  C   UNL A   1      39.649  26.538  28.214  1.00  0.00     0.029 A 
ATOM     46  C   UNL A   1      40.527  27.562  28.772  1.00  0.00     0.049 A 
ATOM     47  H   UNL A   1      42.584  27.444  29.071  1.00  0.00     0.167 HD
ATOM     48  C   UNL A   1      46.879  27.012  29.771  1.00  0.00     0.037 A 
ATOM     49  C   UNL A   1      40.136  28.781  29.190  1.00  0.00     0.037 A 
ATOM     50  C   UNL A   1      46.569  28.359  30.175  1.00  0.00     0.049 A 
ATOM     51  C   UNL A   1      41.162  29.739  29.727  1.00  0.00     0.074 A 
ATOM     52  C   UNL A   1      47.426  29.340  30.643  1.00  0.00     0.029 A 
ATOM     53  N   UNL A   1      45.298  28.914  30.156  1.00  0.00    -0.354 N 
ATOM     54  N   UNL A   1      42.452  29.567  29.877  1.00  0.00    -0.248 NA
ATOM     55  C   UNL A   1      40.676  31.062  30.142  1.00  0.00     0.031 C 
ATOM     56  C   UNL A   1      46.668  30.479  30.938  1.00  0.00     0.029 A 
ATOM     57  C   UNL A   1      45.345  30.219  30.616  1.00  0.00     0.049 A 
ATOM     58  H   UNL A   1      44.482  28.448  29.859  1.00  0.00     0.167 HD
ATOM     59  C   UNL A   1      42.938  30.767  30.382  1.00  0.00     0.074 A 
ATOM     60  C   UNL A   1      41.804  31.662  30.497  1.00  0.00     0.031 C 
ATOM     61  C   UNL A   1      44.208  31.098  30.720  1.00  0.00     0.037 A 
BRANCH  48  62
ATOM     62  C   UNL A   1      48.298  26.539  29.902  1.00  0.00     0.057 A 
ATOM     63  C   UNL A   1      49.244  26.755  28.891  1.00  0.00     0.134 A 
ATOM     64  C   UNL A   1      48.732  25.886  31.062  1.00  0.00     0.134 A 
ATOM     65  F   UNL A   1      48.892  27.364  27.750  1.00  0.00    -0.206 F 
ATOM     66  C   UNL A   1      50.563  26.314  29.018  1.00  0.00     0.040 A 
ATOM     67  C   UNL A   1      50.054  25.463  31.212  1.00  0.00     0.040 A 
ATOM     68  F   UNL A   1      47.880  25.653  32.072  1.00  0.00    -0.206 F 
ATOM     69  C   UNL A   1      50.972  25.671  30.185  1.00  0.00     0.006 A 
ENDBRANCH  48  62
BRANCH  49  70
ATOM     70  C   UNL A   1      38.710  29.176  29.085  1.00  0.00     0.057 A 
ATOM     71  C   UNL A   1      37.861  29.104  30.196  1.00  0.00     0.134 A 
ATOM     72  C   UNL A   1      38.163  29.637  27.883  1.00  0.00     0.134 A 
ATOM     73  F   UNL A   1      38.325  28.655  31.371  1.00  0.00    -0.206 F 
ATOM     74  C   UNL A   1      36.515  29.460  30.111  1.00  0.00     0.040 A 
ATOM     75  C   UNL A   1      36.823  30.017  27.789  1.00  0.00     0.040 A 
ATOM     76  F   UNL A   1      38.927  29.737  26.785  1.00  0.00    -0.206 F 
ATOM     77  C   UNL A   1      35.993  29.923  28.905  1.00  0.00     0.006 A 
ENDBRANCH  49  70
BRANCH  61  78
ATOM     78  C   UNL A   1      44.440  32.492  31.218  1.00  0.00     0.057 A 
ATOM     79  C   UNL A   1      44.390  32.806  32.581  1.00  0.00     0.134 A 
ATOM     80  C   UNL A   1      44.740  33.528  30.324  1.00  0.00     0.134 A 
ATOM     81  F   UNL A   1      44.093  31.862  33.486  1.00  0.00    -0.206 F 
ATOM     82  C   UNL A   1      44.609  34.108  33.036  1.00  0.00     0.040 A 
ATOM     83  C   UNL A   1      44.984  34.827  30.768  1.00  0.00     0.040 A 
ATOM     84  F   UNL A   1      44.809  33.290  29.005  1.00  0.00    -0.206 F 
ATOM     85  C   UNL A   1      44.913  35.121  32.129  1.00  0.00     0.006 A 
ENDBRANCH  61  78
ENDBRANCH  35  36
ENDBRANCH  27  30
ENDBRANCH  25  26
ENDBRANCH   1  25
TORSDOF 12
ENDMDL
MODEL 2
REMARK VINA RESULT:     -11.9      4.220      8.217
REMARK SMILES Cc1cc(C)c(NC(=O)C2(C)CCCC2)c(C(=O)NCCCNC(=O)c2ccc(-c3c4nc(c(-c5c(F)cccc5F)c5ccc([nH]5)c(-c5c(F)cccc5F)c5nc(c(-c6c(F)cccc6F)c6ccc3[nH]6)C=C5)C=C4)cc2)c1
REMARK SMILES IDX 21 1 20 2 19 3 17 4 18 5 16 7 1 8 2 9 3 10 80 11 4 12 5 13
REMARK SMILES IDX 6 14 7 15 8 16 9 18 10 19 11 20 12 21 15 22 13 23 14 24
REMARK SMILES IDX 22 25 23 26 24 27 25 29 26 30 27 31 79 32 28 33 78 34 29 35
REMARK SMILES IDX 30 36 31 37 72 38 32 39 77 40 71 41 73 42 33 43 76 44 70 45
REMARK SMILES IDX 69 46 34 48 60 49 43 50 59 51 44 52 47 53 58 54 74 55 45 56
REMARK SMILES IDX 46 57 57 59 75 60 48 61 35 62 36 63 41 64 37 65 38 66 40 67
REMARK SMILES IDX 42 68 39 69 61 70 62 71 67 72 63 73 64 74 66 75 68 76 65 77
REMARK SMILES IDX 49 78 50 79 55 80 51 81 52 82 54 83 56 84 53 85
REMARK H PARENT 19 6 7 17 23 28 73 47 47 58
REMARK Flexibility Score: inf
ROOT
ATOM      1  C   UNL A   1      38.572  22.543  26.460  1.00  0.00     0.042 C 
ENDROOT
BRANCH   1   2
ATOM      2  C   UNL A   1      37.567  23.559  25.906  1.00  0.00     0.118 C 
BRANCH   2   3
ATOM      3  N   UNL A   1      37.361  23.424  24.474  1.00  0.00    -0.352 N 
ATOM      4  C   UNL A   1      36.316  23.064  23.658  1.00  0.00     0.253 C 
ATOM      5  O   UNL A   1      36.565  23.153  22.451  1.00  0.00    -0.269 OA
ATOM      6  H   UNL A   1      38.172  23.644  23.962  1.00  0.00     0.163 HD
BRANCH   4   7
ATOM      7  C   UNL A   1      34.969  22.530  24.089  1.00  0.00     0.063 A 
ATOM      8  C   UNL A   1      33.415  19.285  25.392  1.00  0.00     0.044 C 
ATOM      9  C   UNL A   1      33.552  20.672  24.834  1.00  0.00    -0.050 A 
ATOM     10  C   UNL A   1      32.423  21.410  24.500  1.00  0.00     0.009 A 
ATOM     11  C   UNL A   1      34.812  21.221  24.570  1.00  0.00     0.019 A 
ATOM     12  C   UNL A   1      32.539  22.699  23.956  1.00  0.00    -0.026 A 
ATOM     13  C   UNL A   1      31.373  23.164  23.113  1.00  0.00     0.046 C 
ATOM     14  C   UNL A   1      33.796  23.332  23.908  1.00  0.00     0.056 A 
BRANCH  14  15
ATOM     15  N   UNL A   1      33.926  24.680  23.505  1.00  0.00    -0.325 N 
ATOM     16  C   UNL A   1      33.293  25.856  23.794  1.00  0.00     0.230 C 
ATOM     17  H   UNL A   1      34.656  24.803  22.855  1.00  0.00     0.169 HD
ATOM     18  O   UNL A   1      33.229  26.669  22.860  1.00  0.00    -0.274 OA
BRANCH  16  19
ATOM     19  C   UNL A   1      32.917  26.309  25.246  1.00  0.00     0.047 C 
ATOM     20  C   UNL A   1      34.115  27.072  25.832  1.00  0.00     0.022 C 
ATOM     21  C   UNL A   1      31.692  27.266  25.173  1.00  0.00     0.016 C 
ATOM     22  C   UNL A   1      32.379  25.292  26.261  1.00  0.00     0.016 C 
ATOM     23  C   UNL A   1      30.497  26.324  25.098  1.00  0.00     0.001 C 
ATOM     24  C   UNL A   1      30.873  25.158  26.002  1.00  0.00     0.001 C 
ENDBRANCH  16  19
ENDBRANCH  14  15
ENDBRANCH   4   7
ENDBRANCH   2   3
ENDBRANCH   1   2
BRANCH   1  25
ATOM     25  C   UNL A   1      39.805  23.180  27.106  1.00  0.00     0.118 C 
BRANCH  25  26
ATOM     26  N   UNL A   1      40.622  23.894  26.132  1.00  0.00    -0.352 N 
ATOM     27  C   UNL A   1      40.975  25.214  26.047  1.00  0.00     0.251 C 
ATOM     28  H   UNL A   1      40.981  23.330  25.409  1.00  0.00     0.163 HD
ATOM     29  O   UNL A   1      41.486  25.625  25.001  1.00  0.00    -0.269 OA
BRANCH  27  30
ATOM     30  C   UNL A   1      40.768  26.158  27.167  1.00  0.00     0.039 A 
ATOM     31  C   UNL A   1      41.586  27.292  27.242  1.00  0.00     0.014 A 
ATOM     32  C   UNL A   1      39.854  25.897  28.192  1.00  0.00     0.014 A 
ATOM     33  C   UNL A   1      41.469  28.174  28.319  1.00  0.00     0.010 A 
ATOM     34  C   UNL A   1      39.698  26.807  29.240  1.00  0.00     0.010 A 
ATOM     35  C   UNL A   1      40.511  27.948  29.319  1.00  0.00    -0.014 A 
BRANCH  35  36
ATOM     36  C   UNL A   1      40.363  28.891  30.458  1.00  0.00     0.031 A 
ATOM     37  C   UNL A   1      39.309  29.965  30.426  1.00  0.00     0.074 A 
ATOM     38  C   UNL A   1      41.206  28.805  31.504  1.00  0.00     0.049 A 
ATOM     39  N   UNL A   1      39.058  30.903  31.305  1.00  0.00    -0.248 NA
ATOM     40  C   UNL A   1      38.438  30.002  29.242  1.00  0.00     0.031 C 
ATOM     41  C   UNL A   1      42.294  27.835  31.635  1.00  0.00     0.029 A 
ATOM     42  N   UNL A   1      41.285  29.551  32.654  1.00  0.00    -0.354 N 
ATOM     43  C   UNL A   1      38.014  31.650  30.773  1.00  0.00     0.074 A 
ATOM     44  C   UNL A   1      37.707  31.083  29.477  1.00  0.00     0.031 C 
ATOM     45  C   UNL A   1      42.917  28.030  32.808  1.00  0.00     0.029 A 
ATOM     46  C   UNL A   1      42.294  29.156  33.497  1.00  0.00     0.049 A 
ATOM     47  H   UNL A   1      40.676  30.298  32.854  1.00  0.00     0.167 HD
ATOM     48  C   UNL A   1      37.358  32.701  31.322  1.00  0.00     0.037 A 
ATOM     49  C   UNL A   1      42.675  29.647  34.691  1.00  0.00     0.037 A 
ATOM     50  C   UNL A   1      37.646  33.248  32.623  1.00  0.00     0.049 A 
ATOM     51  C   UNL A   1      41.923  30.805  35.284  1.00  0.00     0.074 A 
ATOM     52  C   UNL A   1      37.004  34.277  33.289  1.00  0.00     0.029 A 
ATOM     53  N   UNL A   1      38.663  32.806  33.456  1.00  0.00    -0.354 N 
ATOM     54  N   UNL A   1      40.903  31.465  34.794  1.00  0.00    -0.248 NA
ATOM     55  C   UNL A   1      42.371  31.278  36.602  1.00  0.00     0.031 C 
ATOM     56  C   UNL A   1      37.653  34.480  34.512  1.00  0.00     0.029 A 
ATOM     57  C   UNL A   1      38.674  33.550  34.624  1.00  0.00     0.049 A 
ATOM     58  H   UNL A   1      39.285  32.071  33.247  1.00  0.00     0.167 HD
ATOM     59  C   UNL A   1      40.571  32.416  35.750  1.00  0.00     0.074 A 
ATOM     60  C   UNL A   1      41.489  32.235  36.856  1.00  0.00     0.031 C 
ATOM     61  C   UNL A   1      39.593  33.354  35.717  1.00  0.00     0.037 A 
BRANCH  48  62
ATOM     62  C   UNL A   1      36.257  33.326  30.515  1.00  0.00     0.057 A 
ATOM     63  C   UNL A   1      36.526  34.159  29.421  1.00  0.00     0.134 A 
ATOM     64  C   UNL A   1      34.914  33.070  30.815  1.00  0.00     0.134 A 
ATOM     65  F   UNL A   1      37.791  34.453  29.086  1.00  0.00    -0.206 F 
ATOM     66  C   UNL A   1      35.499  34.737  28.672  1.00  0.00     0.040 A 
ATOM     67  C   UNL A   1      33.878  33.621  30.059  1.00  0.00     0.040 A 
ATOM     68  F   UNL A   1      34.586  32.275  31.845  1.00  0.00    -0.206 F 
ATOM     69  C   UNL A   1      34.170  34.464  28.988  1.00  0.00     0.006 A 
ENDBRANCH  48  62
BRANCH  49  70
ATOM     70  C   UNL A   1      43.806  29.023  35.421  1.00  0.00     0.057 A 
ATOM     71  C   UNL A   1      45.123  29.445  35.203  1.00  0.00     0.134 A 
ATOM     72  C   UNL A   1      43.601  27.998  36.351  1.00  0.00     0.134 A 
ATOM     73  F   UNL A   1      45.382  30.411  34.310  1.00  0.00    -0.206 F 
ATOM     74  C   UNL A   1      46.197  28.859  35.871  1.00  0.00     0.040 A 
ATOM     75  C   UNL A   1      44.665  27.418  37.044  1.00  0.00     0.040 A 
ATOM     76  F   UNL A   1      42.362  27.556  36.611  1.00  0.00    -0.206 F 
ATOM     77  C   UNL A   1      45.970  27.845  36.800  1.00  0.00     0.006 A 
ENDBRANCH  49  70
BRANCH  61  78
ATOM     78  C   UNL A   1      39.451  34.234  36.922  1.00  0.00     0.057 A 
ATOM     79  C   UNL A   1      39.970  35.534  36.950  1.00  0.00     0.134 A 
ATOM     80  C   UNL A   1      38.765  33.784  38.057  1.00  0.00     0.134 A 
ATOM     81  F   UNL A   1      40.649  36.018  35.900  1.00  0.00    -0.206 F 
ATOM     82  C   UNL A   1      39.832  36.348  38.076  1.00  0.00     0.040 A 
ATOM     83  C   UNL A   1      38.600  34.597  39.178  1.00  0.00     0.040 A 
ATOM     84  F   UNL A   1      38.239  32.551  38.090  1.00  0.00    -0.206 F 
ATOM     85  C   UNL A   1      39.140  35.882  39.191  1.00  0.00     0.006 A 
ENDBRANCH  61  78
ENDBRANCH  35  36
ENDBRANCH  27  30
ENDBRANCH  25  26
ENDBRANCH   1  25
TORSDOF 12
ENDMDL
MODEL 3
REMARK VINA RESULT:     -11.9      3.071      8.276
REMARK SMILES Cc1cc(C)c(NC(=O)C2(C)CCCC2)c(C(=O)NCCCNC(=O)c2ccc(-c3c4nc(c(-c5c(F)cccc5F)c5ccc([nH]5)c(-c5c(F)cccc5F)c5nc(c(-c6c(F)cccc6F)c6ccc3[nH]6)C=C5)C=C4)cc2)c1
REMARK SMILES IDX 21 1 20 2 19 3 17 4 18 5 16 7 1 8 2 9 3 10 80 11 4 12 5 13
REMARK SMILES IDX 6 14 7 15 8 16 9 18 10 19 11 20 12 21 15 22 13 23 14 24
REMARK SMILES IDX 22 25 23 26 24 27 25 29 26 30 27 31 79 32 28 33 78 34 29 35
REMARK SMILES IDX 30 36 31 37 72 38 32 39 77 40 71 41 73 42 33 43 76 44 70 45
REMARK SMILES IDX 69 46 34 48 60 49 43 50 59 51 44 52 47 53 58 54 74 55 45 56
REMARK SMILES IDX 46 57 57 59 75 60 48 61 35 62 36 63 41 64 37 65 38 66 40 67
REMARK SMILES IDX 42 68 39 69 61 70 62 71 67 72 63 73 64 74 66 75 68 76 65 77
REMARK SMILES IDX 49 78 50 79 55 80 51 81 52 82 54 83 56 84 53 85
REMARK H PARENT 19 6 7 17 23 28 73 47 47 58
REMARK Flexibility Score: inf
ROOT
ATOM      1  C   UNL A   1      34.207  30.946  27.329  1.00  0.00     0.042 C 
ENDROOT
BRANCH   1   2
ATOM      2  C   UNL A   1      34.088  29.446  27.037  1.00  0.00     0.118 C 
BRANCH   2   3
ATOM      3  N   UNL A   1      32.890  28.854  27.607  1.00  0.00    -0.352 N 
ATOM      4  C   UNL A   1      31.813  28.150  27.126  1.00  0.00     0.253 C 
ATOM      5  O   UNL A   1      31.028  27.767  28.001  1.00  0.00    -0.269 OA
ATOM      6  H   UNL A   1      32.835  28.994  28.580  1.00  0.00     0.163 HD
BRANCH   4   7
ATOM      7  C   UNL A   1      31.485  27.870  25.677  1.00  0.00     0.063 A 
ATOM      8  C   UNL A   1      30.245  29.728  22.570  1.00  0.00     0.044 C 
ATOM      9  C   UNL A   1      30.633  28.617  23.502  1.00  0.00    -0.050 A 
ATOM     10  C   UNL A   1      30.487  27.290  23.112  1.00  0.00     0.009 A 
ATOM     11  C   UNL A   1      31.076  28.887  24.801  1.00  0.00     0.019 A 
ATOM     12  C   UNL A   1      30.824  26.242  23.984  1.00  0.00    -0.026 A 
ATOM     13  C   UNL A   1      30.118  24.929  23.736  1.00  0.00     0.046 C 
ATOM     14  C   UNL A   1      31.483  26.520  25.197  1.00  0.00     0.056 A 
BRANCH  14  15
ATOM     15  N   UNL A   1      31.968  25.483  26.026  1.00  0.00    -0.325 N 
ATOM     16  C   UNL A   1      32.676  24.329  25.840  1.00  0.00     0.230 C 
ATOM     17  H   UNL A   1      31.738  25.628  26.972  1.00  0.00     0.169 HD
ATOM     18  O   UNL A   1      32.392  23.401  26.611  1.00  0.00    -0.274 OA
BRANCH  16  19
ATOM     19  C   UNL A   1      33.953  24.227  24.938  1.00  0.00     0.047 C 
ATOM     20  C   UNL A   1      35.153  24.736  25.751  1.00  0.00     0.022 C 
ATOM     21  C   UNL A   1      34.187  22.734  24.566  1.00  0.00     0.016 C 
ATOM     22  C   UNL A   1      33.959  24.839  23.530  1.00  0.00     0.016 C 
ATOM     23  C   UNL A   1      33.261  22.504  23.378  1.00  0.00     0.001 C 
ATOM     24  C   UNL A   1      33.315  23.808  22.594  1.00  0.00     0.001 C 
ENDBRANCH  16  19
ENDBRANCH  14  15
ENDBRANCH   4   7
ENDBRANCH   2   3
ENDBRANCH   1   2
BRANCH   1  25
ATOM     25  C   UNL A   1      35.505  31.338  28.040  1.00  0.00     0.118 C 
BRANCH  25  26
ATOM     26  N   UNL A   1      35.450  31.048  29.468  1.00  0.00    -0.352 N 
ATOM     27  C   UNL A   1      36.282  30.314  30.270  1.00  0.00     0.251 C 
ATOM     28  H   UNL A   1      34.684  31.449  29.936  1.00  0.00     0.163 HD
ATOM     29  O   UNL A   1      35.903  30.023  31.408  1.00  0.00    -0.269 OA
BRANCH  27  30
ATOM     30  C   UNL A   1      37.618  29.865  29.818  1.00  0.00     0.039 A 
ATOM     31  C   UNL A   1      38.554  29.482  30.787  1.00  0.00     0.014 A 
ATOM     32  C   UNL A   1      37.994  29.908  28.473  1.00  0.00     0.014 A 
ATOM     33  C   UNL A   1      39.848  29.115  30.409  1.00  0.00     0.010 A 
ATOM     34  C   UNL A   1      39.270  29.488  28.089  1.00  0.00     0.010 A 
ATOM     35  C   UNL A   1      40.212  29.099  29.053  1.00  0.00    -0.014 A 
BRANCH  35  36
ATOM     36  C   UNL A   1      41.578  28.689  28.638  1.00  0.00     0.031 A 
ATOM     37  C   UNL A   1      41.859  27.267  28.235  1.00  0.00     0.074 A 
ATOM     38  C   UNL A   1      42.577  29.592  28.662  1.00  0.00     0.049 A 
ATOM     39  N   UNL A   1      42.993  26.715  27.885  1.00  0.00    -0.248 NA
ATOM     40  C   UNL A   1      40.719  26.338  28.249  1.00  0.00     0.031 C 
ATOM     41  C   UNL A   1      42.442  30.991  29.071  1.00  0.00     0.029 A 
ATOM     42  N   UNL A   1      43.906  29.465  28.343  1.00  0.00    -0.354 N 
ATOM     43  C   UNL A   1      42.708  25.375  27.653  1.00  0.00     0.074 A 
ATOM     44  C   UNL A   1      41.302  25.188  27.944  1.00  0.00     0.031 C 
ATOM     45  C   UNL A   1      43.634  31.598  28.957  1.00  0.00     0.029 A 
ATOM     46  C   UNL A   1      44.621  30.626  28.498  1.00  0.00     0.049 A 
ATOM     47  H   UNL A   1      44.307  28.621  28.033  1.00  0.00     0.167 HD
ATOM     48  C   UNL A   1      43.535  24.394  27.220  1.00  0.00     0.037 A 
ATOM     49  C   UNL A   1      45.928  30.880  28.292  1.00  0.00     0.037 A 
ATOM     50  C   UNL A   1      44.928  24.587  26.904  1.00  0.00     0.049 A 
ATOM     51  C   UNL A   1      46.823  29.778  27.799  1.00  0.00     0.074 A 
ATOM     52  C   UNL A   1      45.837  23.668  26.409  1.00  0.00     0.029 A 
ATOM     53  N   UNL A   1      45.611  25.784  27.054  1.00  0.00    -0.354 N 
ATOM     54  N   UNL A   1      46.525  28.530  27.533  1.00  0.00    -0.248 NA
ATOM     55  C   UNL A   1      48.233  30.125  27.570  1.00  0.00     0.031 C 
ATOM     56  C   UNL A   1      47.079  24.302  26.289  1.00  0.00     0.029 A 
ATOM     57  C   UNL A   1      46.933  25.626  26.673  1.00  0.00     0.049 A 
ATOM     58  H   UNL A   1      45.214  26.624  27.383  1.00  0.00     0.167 HD
ATOM     59  C   UNL A   1      47.703  27.948  27.082  1.00  0.00     0.074 A 
ATOM     60  C   UNL A   1      48.715  28.984  27.097  1.00  0.00     0.031 C 
ATOM     61  C   UNL A   1      47.926  26.669  26.690  1.00  0.00     0.037 A 
BRANCH  48  62
ATOM     62  C   UNL A   1      42.953  23.021  27.056  1.00  0.00     0.057 A 
ATOM     63  C   UNL A   1      42.670  22.203  28.158  1.00  0.00     0.134 A 
ATOM     64  C   UNL A   1      42.642  22.520  25.785  1.00  0.00     0.134 A 
ATOM     65  F   UNL A   1      42.953  22.617  29.402  1.00  0.00    -0.206 F 
ATOM     66  C   UNL A   1      42.127  20.926  28.001  1.00  0.00     0.040 A 
ATOM     67  C   UNL A   1      42.075  21.255  25.616  1.00  0.00     0.040 A 
ATOM     68  F   UNL A   1      42.880  23.254  24.687  1.00  0.00    -0.206 F 
ATOM     69  C   UNL A   1      41.823  20.451  26.726  1.00  0.00     0.006 A 
ENDBRANCH  48  62
BRANCH  49  70
ATOM     70  C   UNL A   1      46.461  32.246  28.522  1.00  0.00     0.057 A 
ATOM     71  C   UNL A   1      46.477  33.193  27.492  1.00  0.00     0.134 A 
ATOM     72  C   UNL A   1      46.960  32.637  29.769  1.00  0.00     0.134 A 
ATOM     73  F   UNL A   1      46.027  32.870  26.271  1.00  0.00    -0.206 F 
ATOM     74  C   UNL A   1      46.987  34.477  27.689  1.00  0.00     0.040 A 
ATOM     75  C   UNL A   1      47.453  33.925  29.986  1.00  0.00     0.040 A 
ATOM     76  F   UNL A   1      46.964  31.777  30.798  1.00  0.00    -0.206 F 
ATOM     77  C   UNL A   1      47.472  34.848  28.941  1.00  0.00     0.006 A 
ENDBRANCH  49  70
BRANCH  61  78
ATOM     78  C   UNL A   1      49.309  26.332  26.221  1.00  0.00     0.057 A 
ATOM     79  C   UNL A   1      49.745  26.644  24.928  1.00  0.00     0.134 A 
ATOM     80  C   UNL A   1      50.222  25.710  27.082  1.00  0.00     0.134 A 
ATOM     81  F   UNL A   1      48.914  27.227  24.052  1.00  0.00    -0.206 F 
ATOM     82  C   UNL A   1      51.036  26.328  24.500  1.00  0.00     0.040 A 
ATOM     83  C   UNL A   1      51.522  25.410  26.673  1.00  0.00     0.040 A 
ATOM     84  F   UNL A   1      49.867  25.391  28.336  1.00  0.00    -0.206 F 
ATOM     85  C   UNL A   1      51.929  25.714  25.376  1.00  0.00     0.006 A 
ENDBRANCH  61  78
ENDBRANCH  35  36
ENDBRANCH  27  30
ENDBRANCH  25  26
ENDBRANCH   1  25
TORSDOF 12
ENDMDL
