MODEL 1
REMARK VINA RESULT:     -11.8      0.000      0.000
REMARK SMILES Cc1ccc(S(=O)(=O)n2cc(C(=O)C(=O)NCC(=O)N[C@H](Cc3c[nH]c4ccccc34)C(=O)NCCCNC(=O)c3ccc(-c4c5nc(c(-c6c(F)cccc6F)c6ccc([nH]6)c(-c6c(F)cccc6F)c6nc(c(-c7c(F)cccc7F)c7ccc4[nH]7)C=C6)C=C5)cc3)c3ccccc32)cc1
REMARK SMILES IDX 32 1 33 2 34 3 21 5 20 6 18 7 19 8 17 10 16 11 14 12 15 13
REMARK SMILES IDX 12 15 13 16 11 17 9 18 10 19 100 20 95 21 99 22 96 23 98 24
REMARK SMILES IDX 97 25 6 26 7 27 8 28 5 29 1 30 2 31 3 32 102 33 4 34 101 35
REMARK SMILES IDX 22 36 23 37 24 38 31 39 25 40 26 41 30 42 27 44 29 45 28 46
REMARK SMILES IDX 35 47 36 48 37 49 38 50 39 51 40 53 41 54 42 55 94 56 43 57
REMARK SMILES IDX 93 58 44 59 45 60 46 61 87 62 47 63 92 64 86 65 88 66 48 67
REMARK SMILES IDX 91 68 85 69 84 70 49 72 75 73 58 74 74 75 59 76 62 77 73 78
REMARK SMILES IDX 89 79 60 80 61 81 72 83 90 84 63 85 50 86 51 87 56 88 52 89
REMARK SMILES IDX 53 90 55 91 57 92 54 93 76 94 77 95 82 96 78 97 79 98 81 99
REMARK SMILES IDX 83 100 80 101 64 102 65 103 70 104 66 105 67 106 69 107
REMARK SMILES IDX 71 108 68 109
REMARK H PARENT 34 4 20 9 16 14 25 43 38 52 88 71 62 82
REMARK Flexibility Score: inf
ROOT
ATOM      1  C   UNL A   1      35.088  33.196  28.269  1.00  0.00     0.242 C 
ATOM      2  O   UNL A   1      35.507  33.754  27.247  1.00  0.00    -0.273 OA
ATOM      3  N   UNL A   1      34.846  34.022  29.320  1.00  0.00    -0.354 N 
ATOM      4  H   UNL A   1      35.083  34.960  29.136  1.00  0.00     0.163 HD
ENDROOT
BRANCH   1   5
ATOM      5  C   UNL A   1      34.947  31.662  28.290  1.00  0.00     0.175 C 
BRANCH   5   6
ATOM      6  N   UNL A   1      33.537  31.334  28.052  1.00  0.00    -0.342 N 
ATOM      7  C   UNL A   1      32.983  30.607  27.039  1.00  0.00     0.240 C 
ATOM      8  O   UNL A   1      31.749  30.586  26.989  1.00  0.00    -0.273 OA
ATOM      9  H   UNL A   1      32.903  31.689  28.715  1.00  0.00     0.164 HD
BRANCH   7  10
ATOM     10  C   UNL A   1      33.828  29.690  26.126  1.00  0.00     0.216 C 
BRANCH  10  11
ATOM     11  N   UNL A   1      33.554  29.703  24.691  1.00  0.00    -0.340 N 
ATOM     12  C   UNL A   1      32.737  28.851  23.964  1.00  0.00     0.292 C 
ATOM     13  O   UNL A   1      32.532  29.008  22.767  1.00  0.00    -0.265 OA
ATOM     14  H   UNL A   1      34.009  30.407  24.174  1.00  0.00     0.164 HD
BRANCH  12  15
ATOM     15  C   UNL A   1      32.054  27.691  24.683  1.00  0.00     0.252 C 
ATOM     16  O   UNL A   1      30.938  27.924  25.149  1.00  0.00    -0.283 OA
BRANCH  15  17
ATOM     17  C   UNL A   1      32.776  26.447  24.976  1.00  0.00     0.054 A 
ATOM     18  N   UNL A   1      34.280  24.769  25.179  1.00  0.00    -0.240 N 
ATOM     19  C   UNL A   1      34.081  26.047  24.660  1.00  0.00     0.117 A 
ATOM     20  C   UNL A   1      33.185  24.478  26.014  1.00  0.00     0.065 A 
ATOM     21  C   UNL A   1      32.160  25.327  25.609  1.00  0.00     0.012 A 
ATOM     22  C   UNL A   1      32.936  23.376  26.856  1.00  0.00     0.028 A 
ATOM     23  C   UNL A   1      30.827  24.966  25.899  1.00  0.00     0.011 A 
ATOM     24  C   UNL A   1      31.611  23.000  27.066  1.00  0.00     0.002 A 
ATOM     25  C   UNL A   1      30.568  23.762  26.561  1.00  0.00     0.001 A 
BRANCH  18  26
ATOM     26  S   UNL A   1      34.776  23.360  24.273  1.00  0.00     0.268 S 
ATOM     27  O   UNL A   1      36.056  23.021  24.874  1.00  0.00    -0.201 OA
ATOM     28  O   UNL A   1      34.694  23.830  22.896  1.00  0.00    -0.201 OA
BRANCH  26  29
ATOM     29  C   UNL A   1      33.903  21.842  24.166  1.00  0.00     0.088 A 
ATOM     30  C   UNL A   1      32.748  17.680  24.043  1.00  0.00     0.044 C 
ATOM     31  C   UNL A   1      33.092  19.141  24.111  1.00  0.00    -0.051 A 
ATOM     32  C   UNL A   1      34.259  19.490  24.774  1.00  0.00     0.005 A 
ATOM     33  C   UNL A   1      32.327  20.157  23.493  1.00  0.00     0.005 A 
ATOM     34  C   UNL A   1      34.645  20.817  24.808  1.00  0.00     0.022 A 
ATOM     35  C   UNL A   1      32.728  21.518  23.511  1.00  0.00     0.022 A 
ENDBRANCH  26  29
ENDBRANCH  18  26
ENDBRANCH  15  17
ENDBRANCH  12  15
ENDBRANCH  10  11
ENDBRANCH   7  10
ENDBRANCH   5   6
BRANCH   5  36
ATOM     36  C   UNL A   1      35.524  30.889  29.500  1.00  0.00     0.072 C 
BRANCH  36  37
ATOM     37  C   UNL A   1      36.601  29.845  29.332  1.00  0.00    -0.020 A 
ATOM     38  C   UNL A   1      37.178  29.342  28.183  1.00  0.00     0.087 A 
ATOM     39  C   UNL A   1      37.267  29.159  30.421  1.00  0.00     0.003 A 
ATOM     40  N   UNL A   1      38.193  28.495  28.521  1.00  0.00    -0.361 N 
ATOM     41  C   UNL A   1      38.304  28.401  29.878  1.00  0.00     0.046 A 
ATOM     42  C   UNL A   1      37.096  29.122  31.822  1.00  0.00     0.010 A 
ATOM     43  H   UNL A   1      38.766  28.021  27.877  1.00  0.00     0.166 HD
ATOM     44  C   UNL A   1      39.225  27.680  30.646  1.00  0.00     0.026 A 
ATOM     45  C   UNL A   1      37.974  28.358  32.607  1.00  0.00     0.001 A 
ATOM     46  C   UNL A   1      39.037  27.668  32.027  1.00  0.00     0.002 A 
ENDBRANCH  36  37
ENDBRANCH   5  36
ENDBRANCH   1   5
BRANCH   3  47
ATOM     47  C   UNL A   1      34.314  33.824  30.659  1.00  0.00     0.117 C 
BRANCH  47  48
ATOM     48  C   UNL A   1      35.236  34.296  31.778  1.00  0.00     0.042 C 
BRANCH  48  49
ATOM     49  C   UNL A   1      36.701  34.445  31.363  1.00  0.00     0.118 C 
BRANCH  49  50
ATOM     50  N   UNL A   1      37.588  34.873  32.439  1.00  0.00    -0.352 N 
ATOM     51  C   UNL A   1      38.875  34.452  32.738  1.00  0.00     0.251 C 
ATOM     52  H   UNL A   1      37.221  35.560  33.040  1.00  0.00     0.163 HD
ATOM     53  O   UNL A   1      39.481  34.949  33.671  1.00  0.00    -0.269 OA
BRANCH  51  54
ATOM     54  C   UNL A   1      39.559  33.491  31.837  1.00  0.00     0.039 A 
ATOM     55  C   UNL A   1      39.235  32.135  31.965  1.00  0.00     0.014 A 
ATOM     56  C   UNL A   1      40.607  33.881  31.007  1.00  0.00     0.014 A 
ATOM     57  C   UNL A   1      40.124  31.170  31.497  1.00  0.00     0.010 A 
ATOM     58  C   UNL A   1      41.510  32.926  30.577  1.00  0.00     0.010 A 
ATOM     59  C   UNL A   1      41.319  31.584  30.911  1.00  0.00    -0.014 A 
BRANCH  59  60
ATOM     60  C   UNL A   1      42.479  30.707  30.791  1.00  0.00     0.031 A 
ATOM     61  C   UNL A   1      42.457  29.513  29.930  1.00  0.00     0.074 A 
ATOM     62  C   UNL A   1      43.601  31.000  31.488  1.00  0.00     0.049 A 
ATOM     63  N   UNL A   1      43.091  28.423  30.204  1.00  0.00    -0.248 NA
ATOM     64  C   UNL A   1      41.697  29.452  28.688  1.00  0.00     0.031 C 
ATOM     65  C   UNL A   1      44.905  30.350  31.382  1.00  0.00     0.029 A 
ATOM     66  N   UNL A   1      43.715  31.829  32.614  1.00  0.00    -0.354 N 
ATOM     67  C   UNL A   1      43.043  27.626  29.086  1.00  0.00     0.074 A 
ATOM     68  C   UNL A   1      42.109  28.279  28.193  1.00  0.00     0.031 C 
ATOM     69  C   UNL A   1      45.573  30.540  32.530  1.00  0.00     0.029 A 
ATOM     70  C   UNL A   1      44.672  31.215  33.449  1.00  0.00     0.049 A 
ATOM     71  H   UNL A   1      43.227  32.667  32.787  1.00  0.00     0.167 HD
ATOM     72  C   UNL A   1      43.900  26.574  28.958  1.00  0.00     0.037 A 
ATOM     73  C   UNL A   1      44.366  30.786  34.706  1.00  0.00     0.037 A 
ATOM     74  C   UNL A   1      44.804  26.467  30.094  1.00  0.00     0.049 A 
ATOM     75  C   UNL A   1      44.622  29.318  34.933  1.00  0.00     0.074 A 
ATOM     76  C   UNL A   1      46.097  26.927  30.292  1.00  0.00     0.029 A 
ATOM     77  N   UNL A   1      44.318  26.106  31.344  1.00  0.00    -0.354 N 
ATOM     78  N   UNL A   1      44.726  28.442  33.973  1.00  0.00    -0.248 NA
ATOM     79  C   UNL A   1      44.749  28.714  36.257  1.00  0.00     0.031 C 
ATOM     80  C   UNL A   1      46.378  26.875  31.676  1.00  0.00     0.029 A 
ATOM     81  C   UNL A   1      45.262  26.370  32.319  1.00  0.00     0.049 A 
ATOM     82  H   UNL A   1      43.429  25.718  31.513  1.00  0.00     0.167 HD
ATOM     83  C   UNL A   1      44.904  27.192  34.512  1.00  0.00     0.074 A 
ATOM     84  C   UNL A   1      44.933  27.419  35.943  1.00  0.00     0.031 C 
ATOM     85  C   UNL A   1      45.005  26.082  33.722  1.00  0.00     0.037 A 
BRANCH  72  86
ATOM     86  C   UNL A   1      44.101  25.864  27.644  1.00  0.00     0.057 A 
ATOM     87  C   UNL A   1      45.068  26.291  26.715  1.00  0.00     0.134 A 
ATOM     88  C   UNL A   1      43.321  24.772  27.226  1.00  0.00     0.134 A 
ATOM     89  F   UNL A   1      45.946  27.259  27.001  1.00  0.00    -0.206 F 
ATOM     90  C   UNL A   1      45.171  25.751  25.427  1.00  0.00     0.040 A 
ATOM     91  C   UNL A   1      43.382  24.253  25.926  1.00  0.00     0.040 A 
ATOM     92  F   UNL A   1      42.477  24.163  28.073  1.00  0.00    -0.206 F 
ATOM     93  C   UNL A   1      44.300  24.755  25.014  1.00  0.00     0.006 A 
ENDBRANCH  72  86
BRANCH  73  94
ATOM     94  C   UNL A   1      43.293  31.571  35.364  1.00  0.00     0.057 A 
ATOM     95  C   UNL A   1      41.967  31.115  35.280  1.00  0.00     0.134 A 
ATOM     96  C   UNL A   1      43.578  32.527  36.344  1.00  0.00     0.134 A 
ATOM     97  F   UNL A   1      41.628  30.195  34.363  1.00  0.00    -0.206 F 
ATOM     98  C   UNL A   1      40.988  31.514  36.193  1.00  0.00     0.040 A 
ATOM     99  C   UNL A   1      42.602  32.941  37.258  1.00  0.00     0.040 A 
ATOM    100  F   UNL A   1      44.825  32.991  36.503  1.00  0.00    -0.206 F 
ATOM    101  C   UNL A   1      41.315  32.406  37.208  1.00  0.00     0.006 A 
ENDBRANCH  73  94
BRANCH  85 102
ATOM    102  C   UNL A   1      44.989  24.639  34.176  1.00  0.00     0.057 A 
ATOM    103  C   UNL A   1      43.836  23.933  34.544  1.00  0.00     0.134 A 
ATOM    104  C   UNL A   1      46.168  23.858  34.119  1.00  0.00     0.134 A 
ATOM    105  F   UNL A   1      42.625  24.506  34.532  1.00  0.00    -0.206 F 
ATOM    106  C   UNL A   1      43.860  22.572  34.886  1.00  0.00     0.040 A 
ATOM    107  C   UNL A   1      46.196  22.490  34.405  1.00  0.00     0.040 A 
ATOM    108  F   UNL A   1      47.349  24.383  33.758  1.00  0.00    -0.206 F 
ATOM    109  C   UNL A   1      45.040  21.843  34.807  1.00  0.00     0.006 A 
ENDBRANCH  85 102
ENDBRANCH  59  60
ENDBRANCH  51  54
ENDBRANCH  49  50
ENDBRANCH  48  49
ENDBRANCH  47  48
ENDBRANCH   3  47
TORSDOF 19
ENDMDL
MODEL 2
REMARK VINA RESULT:     -11.5      3.481      8.568
REMARK SMILES Cc1ccc(S(=O)(=O)n2cc(C(=O)C(=O)NCC(=O)N[C@H](Cc3c[nH]c4ccccc34)C(=O)NCCCNC(=O)c3ccc(-c4c5nc(c(-c6c(F)cccc6F)c6ccc([nH]6)c(-c6c(F)cccc6F)c6nc(c(-c7c(F)cccc7F)c7ccc4[nH]7)C=C6)C=C5)cc3)c3ccccc32)cc1
REMARK SMILES IDX 32 1 33 2 34 3 21 5 20 6 18 7 19 8 17 10 16 11 14 12 15 13
REMARK SMILES IDX 12 15 13 16 11 17 9 18 10 19 100 20 95 21 99 22 96 23 98 24
REMARK SMILES IDX 97 25 6 26 7 27 8 28 5 29 1 30 2 31 3 32 102 33 4 34 101 35
REMARK SMILES IDX 22 36 23 37 24 38 31 39 25 40 26 41 30 42 27 44 29 45 28 46
REMARK SMILES IDX 35 47 36 48 37 49 38 50 39 51 40 53 41 54 42 55 94 56 43 57
REMARK SMILES IDX 93 58 44 59 45 60 46 61 87 62 47 63 92 64 86 65 88 66 48 67
REMARK SMILES IDX 91 68 85 69 84 70 49 72 75 73 58 74 74 75 59 76 62 77 73 78
REMARK SMILES IDX 89 79 60 80 61 81 72 83 90 84 63 85 50 86 51 87 56 88 52 89
REMARK SMILES IDX 53 90 55 91 57 92 54 93 76 94 77 95 82 96 78 97 79 98 81 99
REMARK SMILES IDX 83 100 80 101 64 102 65 103 70 104 66 105 67 106 69 107
REMARK SMILES IDX 71 108 68 109
REMARK H PARENT 34 4 20 9 16 14 25 43 38 52 88 71 62 82
REMARK Flexibility Score: inf
ROOT
ATOM      1  C   UNL A   1      36.777  29.464  30.271  1.00  0.00     0.242 C 
ATOM      2  O   UNL A   1      36.458  29.248  31.447  1.00  0.00    -0.273 OA
ATOM      3  N   UNL A   1      38.026  29.054  29.926  1.00  0.00    -0.354 N 
ATOM      4  H   UNL A   1      38.529  28.676  30.683  1.00  0.00     0.163 HD
ENDROOT
BRANCH   1   5
ATOM      5  C   UNL A   1      35.799  30.214  29.346  1.00  0.00     0.175 C 
BRANCH   5   6
ATOM      6  N   UNL A   1      35.875  29.601  28.016  1.00  0.00    -0.342 N 
ATOM      7  C   UNL A   1      34.869  29.341  27.130  1.00  0.00     0.240 C 
ATOM      8  O   UNL A   1      35.176  28.692  26.125  1.00  0.00    -0.273 OA
ATOM      9  H   UNL A   1      36.776  29.340  27.721  1.00  0.00     0.164 HD
BRANCH   7  10
ATOM     10  C   UNL A   1      33.472  29.989  27.258  1.00  0.00     0.216 C 
BRANCH  10  11
ATOM     11  N   UNL A   1      32.585  29.951  26.098  1.00  0.00    -0.340 N 
ATOM     12  C   UNL A   1      31.610  29.014  25.791  1.00  0.00     0.292 C 
ATOM     13  O   UNL A   1      30.877  29.130  24.817  1.00  0.00    -0.265 OA
ATOM     14  H   UNL A   1      32.694  30.686  25.451  1.00  0.00     0.164 HD
BRANCH  12  15
ATOM     15  C   UNL A   1      31.430  27.808  26.710  1.00  0.00     0.252 C 
ATOM     16  O   UNL A   1      31.454  28.040  27.919  1.00  0.00    -0.283 OA
BRANCH  15  17
ATOM     17  C   UNL A   1      31.438  26.440  26.178  1.00  0.00     0.054 A 
ATOM     18  N   UNL A   1      31.107  24.245  25.742  1.00  0.00    -0.240 N 
ATOM     19  C   UNL A   1      30.758  25.289  26.597  1.00  0.00     0.117 A 
ATOM     20  C   UNL A   1      31.814  24.804  24.661  1.00  0.00     0.065 A 
ATOM     21  C   UNL A   1      32.290  26.031  25.110  1.00  0.00     0.012 A 
ATOM     22  C   UNL A   1      32.300  24.216  23.477  1.00  0.00     0.028 A 
ATOM     23  C   UNL A   1      33.407  26.602  24.463  1.00  0.00     0.011 A 
ATOM     24  C   UNL A   1      33.448  24.759  22.901  1.00  0.00     0.002 A 
ATOM     25  C   UNL A   1      34.020  25.915  23.411  1.00  0.00     0.001 A 
BRANCH  18  26
ATOM     26  S   UNL A   1      31.796  22.713  26.223  1.00  0.00     0.268 S 
ATOM     27  O   UNL A   1      30.901  21.747  25.607  1.00  0.00    -0.201 OA
ATOM     28  O   UNL A   1      31.875  22.847  27.672  1.00  0.00    -0.201 OA
BRANCH  26  29
ATOM     29  C   UNL A   1      33.412  22.144  25.846  1.00  0.00     0.088 A 
ATOM     30  C   UNL A   1      37.642  21.800  25.031  1.00  0.00     0.044 C 
ATOM     31  C   UNL A   1      36.172  21.859  25.339  1.00  0.00    -0.051 A 
ATOM     32  C   UNL A   1      35.724  22.934  26.093  1.00  0.00     0.005 A 
ATOM     33  C   UNL A   1      35.230  20.922  24.857  1.00  0.00     0.005 A 
ATOM     34  C   UNL A   1      34.372  23.060  26.349  1.00  0.00     0.022 A 
ATOM     35  C   UNL A   1      33.839  21.058  25.102  1.00  0.00     0.022 A 
ENDBRANCH  26  29
ENDBRANCH  18  26
ENDBRANCH  15  17
ENDBRANCH  12  15
ENDBRANCH  10  11
ENDBRANCH   7  10
ENDBRANCH   5   6
BRANCH   5  36
ATOM     36  C   UNL A   1      35.891  31.757  29.278  1.00  0.00     0.072 C 
BRANCH  36  37
ATOM     37  C   UNL A   1      35.084  32.640  30.199  1.00  0.00    -0.020 A 
ATOM     38  C   UNL A   1      34.763  32.474  31.531  1.00  0.00     0.087 A 
ATOM     39  C   UNL A   1      34.484  33.903  29.819  1.00  0.00     0.003 A 
ATOM     40  N   UNL A   1      34.111  33.585  31.981  1.00  0.00    -0.361 N 
ATOM     41  C   UNL A   1      33.970  34.495  30.973  1.00  0.00     0.046 A 
ATOM     42  C   UNL A   1      34.341  34.608  28.605  1.00  0.00     0.010 A 
ATOM     43  H   UNL A   1      33.790  33.713  32.902  1.00  0.00     0.166 HD
ATOM     44  C   UNL A   1      33.400  35.772  31.003  1.00  0.00     0.026 A 
ATOM     45  C   UNL A   1      33.720  35.867  28.604  1.00  0.00     0.001 A 
ATOM     46  C   UNL A   1      33.280  36.449  29.791  1.00  0.00     0.002 A 
ENDBRANCH  36  37
ENDBRANCH   5  36
ENDBRANCH   1   5
BRANCH   3  47
ATOM     47  C   UNL A   1      38.782  29.051  28.684  1.00  0.00     0.117 C 
BRANCH  47  48
ATOM     48  C   UNL A   1      38.999  27.667  28.084  1.00  0.00     0.042 C 
BRANCH  48  49
ATOM     49  C   UNL A   1      39.583  26.645  29.061  1.00  0.00     0.118 C 
BRANCH  49  50
ATOM     50  N   UNL A   1      40.350  25.578  28.425  1.00  0.00    -0.352 N 
ATOM     51  C   UNL A   1      41.699  25.533  28.107  1.00  0.00     0.251 C 
ATOM     52  H   UNL A   1      39.835  24.773  28.188  1.00  0.00     0.163 HD
ATOM     53  O   UNL A   1      42.175  24.534  27.598  1.00  0.00    -0.269 OA
BRANCH  51  54
ATOM     54  C   UNL A   1      42.584  26.655  28.511  1.00  0.00     0.039 A 
ATOM     55  C   UNL A   1      43.161  26.602  29.785  1.00  0.00     0.014 A 
ATOM     56  C   UNL A   1      42.714  27.804  27.734  1.00  0.00     0.014 A 
ATOM     57  C   UNL A   1      43.611  27.777  30.383  1.00  0.00     0.010 A 
ATOM     58  C   UNL A   1      43.124  28.977  28.340  1.00  0.00     0.010 A 
ATOM     59  C   UNL A   1      43.473  28.980  29.691  1.00  0.00    -0.014 A 
BRANCH  59  60
ATOM     60  C   UNL A   1      43.497  30.276  30.359  1.00  0.00     0.031 A 
ATOM     61  C   UNL A   1      42.257  30.947  30.785  1.00  0.00     0.074 A 
ATOM     62  C   UNL A   1      44.688  30.874  30.594  1.00  0.00     0.049 A 
ATOM     63  N   UNL A   1      42.104  32.229  30.787  1.00  0.00    -0.248 NA
ATOM     64  C   UNL A   1      41.079  30.215  31.232  1.00  0.00     0.031 C 
ATOM     65  C   UNL A   1      44.934  32.079  31.382  1.00  0.00     0.029 A 
ATOM     66  N   UNL A   1      45.913  30.614  29.961  1.00  0.00    -0.354 N 
ATOM     67  C   UNL A   1      40.938  32.503  31.460  1.00  0.00     0.074 A 
ATOM     68  C   UNL A   1      40.302  31.218  31.659  1.00  0.00     0.031 C 
ATOM     69  C   UNL A   1      46.086  32.632  30.971  1.00  0.00     0.029 A 
ATOM     70  C   UNL A   1      46.550  31.866  29.827  1.00  0.00     0.049 A 
ATOM     71  H   UNL A   1      46.258  29.739  29.671  1.00  0.00     0.167 HD
ATOM     72  C   UNL A   1      40.689  33.765  31.913  1.00  0.00     0.037 A 
ATOM     73  C   UNL A   1      46.869  32.387  28.609  1.00  0.00     0.037 A 
ATOM     74  C   UNL A   1      41.782  34.678  31.607  1.00  0.00     0.049 A 
ATOM     75  C   UNL A   1      46.257  33.739  28.340  1.00  0.00     0.074 A 
ATOM     76  C   UNL A   1      42.871  35.099  32.355  1.00  0.00     0.029 A 
ATOM     77  N   UNL A   1      42.042  35.044  30.292  1.00  0.00    -0.354 N 
ATOM     78  N   UNL A   1      45.219  34.205  28.977  1.00  0.00    -0.248 NA
ATOM     79  C   UNL A   1      46.743  34.657  27.315  1.00  0.00     0.031 C 
ATOM     80  C   UNL A   1      43.807  35.691  31.478  1.00  0.00     0.029 A 
ATOM     81  C   UNL A   1      43.283  35.645  30.199  1.00  0.00     0.049 A 
ATOM     82  H   UNL A   1      41.429  34.898  29.535  1.00  0.00     0.167 HD
ATOM     83  C   UNL A   1      44.880  35.431  28.462  1.00  0.00     0.074 A 
ATOM     84  C   UNL A   1      45.877  35.679  27.440  1.00  0.00     0.031 C 
ATOM     85  C   UNL A   1      43.799  36.126  28.926  1.00  0.00     0.037 A 
BRANCH  72  86
ATOM     86  C   UNL A   1      39.595  34.054  32.906  1.00  0.00     0.057 A 
ATOM     87  C   UNL A   1      39.813  33.962  34.294  1.00  0.00     0.134 A 
ATOM     88  C   UNL A   1      38.280  34.384  32.536  1.00  0.00     0.134 A 
ATOM     89  F   UNL A   1      41.031  33.745  34.805  1.00  0.00    -0.206 F 
ATOM     90  C   UNL A   1      38.780  34.072  35.233  1.00  0.00     0.040 A 
ATOM     91  C   UNL A   1      37.228  34.451  33.461  1.00  0.00     0.040 A 
ATOM     92  F   UNL A   1      37.971  34.662  31.260  1.00  0.00    -0.206 F 
ATOM     93  C   UNL A   1      37.475  34.278  34.815  1.00  0.00     0.006 A 
ENDBRANCH  72  86
BRANCH  73  94
ATOM     94  C   UNL A   1      47.155  31.365  27.573  1.00  0.00     0.057 A 
ATOM     95  C   UNL A   1      48.400  30.714  27.586  1.00  0.00     0.134 A 
ATOM     96  C   UNL A   1      46.135  30.775  26.821  1.00  0.00     0.134 A 
ATOM     97  F   UNL A   1      49.421  31.227  28.292  1.00  0.00    -0.206 F 
ATOM     98  C   UNL A   1      48.596  29.480  26.962  1.00  0.00     0.040 A 
ATOM     99  C   UNL A   1      46.324  29.543  26.184  1.00  0.00     0.040 A 
ATOM    100  F   UNL A   1      44.913  31.323  26.781  1.00  0.00    -0.206 F 
ATOM    101  C   UNL A   1      47.543  28.875  26.285  1.00  0.00     0.006 A 
ENDBRANCH  73  94
BRANCH  85 102
ATOM    102  C   UNL A   1      43.190  37.370  28.319  1.00  0.00     0.057 A 
ATOM    103  C   UNL A   1      42.484  37.402  27.109  1.00  0.00     0.134 A 
ATOM    104  C   UNL A   1      43.183  38.588  29.041  1.00  0.00     0.134 A 
ATOM    105  F   UNL A   1      42.303  36.299  26.370  1.00  0.00    -0.206 F 
ATOM    106  C   UNL A   1      41.871  38.566  26.622  1.00  0.00     0.040 A 
ATOM    107  C   UNL A   1      42.530  39.741  28.592  1.00  0.00     0.040 A 
ATOM    108  F   UNL A   1      43.791  38.712  30.229  1.00  0.00    -0.206 F 
ATOM    109  C   UNL A   1      41.882  39.738  27.369  1.00  0.00     0.006 A 
ENDBRANCH  85 102
ENDBRANCH  59  60
ENDBRANCH  51  54
ENDBRANCH  49  50
ENDBRANCH  48  49
ENDBRANCH  47  48
ENDBRANCH   3  47
TORSDOF 19
ENDMDL
MODEL 3
REMARK VINA RESULT:     -10.8      4.744     10.177
REMARK SMILES Cc1ccc(S(=O)(=O)n2cc(C(=O)C(=O)NCC(=O)N[C@H](Cc3c[nH]c4ccccc34)C(=O)NCCCNC(=O)c3ccc(-c4c5nc(c(-c6c(F)cccc6F)c6ccc([nH]6)c(-c6c(F)cccc6F)c6nc(c(-c7c(F)cccc7F)c7ccc4[nH]7)C=C6)C=C5)cc3)c3ccccc32)cc1
REMARK SMILES IDX 32 1 33 2 34 3 21 5 20 6 18 7 19 8 17 10 16 11 14 12 15 13
REMARK SMILES IDX 12 15 13 16 11 17 9 18 10 19 100 20 95 21 99 22 96 23 98 24
REMARK SMILES IDX 97 25 6 26 7 27 8 28 5 29 1 30 2 31 3 32 102 33 4 34 101 35
REMARK SMILES IDX 22 36 23 37 24 38 31 39 25 40 26 41 30 42 27 44 29 45 28 46
REMARK SMILES IDX 35 47 36 48 37 49 38 50 39 51 40 53 41 54 42 55 94 56 43 57
REMARK SMILES IDX 93 58 44 59 45 60 46 61 87 62 47 63 92 64 86 65 88 66 48 67
REMARK SMILES IDX 91 68 85 69 84 70 49 72 75 73 58 74 74 75 59 76 62 77 73 78
REMARK SMILES IDX 89 79 60 80 61 81 72 83 90 84 63 85 50 86 51 87 56 88 52 89
REMARK SMILES IDX 53 90 55 91 57 92 54 93 76 94 77 95 82 96 78 97 79 98 81 99
REMARK SMILES IDX 83 100 80 101 64 102 65 103 70 104 66 105 67 106 69 107
REMARK SMILES IDX 71 108 68 109
REMARK H PARENT 34 4 20 9 16 14 25 43 38 52 88 71 62 82
REMARK Flexibility Score: inf
ROOT
ATOM      1  C   UNL A   1      42.621  27.233  28.459  1.00  0.00     0.242 C 
ATOM      2  O   UNL A   1      42.297  26.671  29.512  1.00  0.00    -0.273 OA
ATOM      3  N   UNL A   1      43.946  27.178  28.158  1.00  0.00    -0.354 N 
ATOM      4  H   UNL A   1      44.479  26.729  28.853  1.00  0.00     0.163 HD
ENDROOT
BRANCH   1   5
ATOM      5  C   UNL A   1      41.553  27.983  27.640  1.00  0.00     0.175 C 
BRANCH   5   6
ATOM      6  N   UNL A   1      41.139  29.161  28.410  1.00  0.00    -0.342 N 
ATOM      7  C   UNL A   1      39.969  29.387  29.075  1.00  0.00     0.240 C 
ATOM      8  O   UNL A   1      39.810  30.521  29.539  1.00  0.00    -0.273 OA
ATOM      9  H   UNL A   1      41.798  29.891  28.454  1.00  0.00     0.164 HD
BRANCH   7  10
ATOM     10  C   UNL A   1      38.983  28.247  29.415  1.00  0.00     0.216 C 
BRANCH  10  11
ATOM     11  N   UNL A   1      38.742  27.941  30.823  1.00  0.00    -0.340 N 
ATOM     12  C   UNL A   1      37.796  28.494  31.673  1.00  0.00     0.292 C 
ATOM     13  O   UNL A   1      37.644  28.101  32.823  1.00  0.00    -0.265 OA
ATOM     14  H   UNL A   1      39.326  27.254  31.220  1.00  0.00     0.164 HD
BRANCH  12  15
ATOM     15  C   UNL A   1      36.900  29.614  31.152  1.00  0.00     0.252 C 
ATOM     16  O   UNL A   1      36.267  29.368  30.124  1.00  0.00    -0.283 OA
BRANCH  15  17
ATOM     17  C   UNL A   1      36.956  30.963  31.728  1.00  0.00     0.054 A 
ATOM     18  N   UNL A   1      36.874  32.800  33.046  1.00  0.00    -0.240 N 
ATOM     19  C   UNL A   1      36.631  31.428  33.009  1.00  0.00     0.117 A 
ATOM     20  C   UNL A   1      37.566  33.138  31.869  1.00  0.00     0.065 A 
ATOM     21  C   UNL A   1      37.299  32.116  30.963  1.00  0.00     0.012 A 
ATOM     22  C   UNL A   1      38.137  34.357  31.454  1.00  0.00     0.028 A 
ATOM     23  C   UNL A   1      37.433  32.383  29.584  1.00  0.00     0.011 A 
ATOM     24  C   UNL A   1      38.190  34.622  30.086  1.00  0.00     0.002 A 
ATOM     25  C   UNL A   1      37.805  33.663  29.161  1.00  0.00     0.001 A 
BRANCH  18  26
ATOM     26  S   UNL A   1      35.714  34.034  33.473  1.00  0.00     0.268 S 
ATOM     27  O   UNL A   1      36.537  35.048  34.111  1.00  0.00    -0.201 OA
ATOM     28  O   UNL A   1      34.724  33.283  34.234  1.00  0.00    -0.201 OA
BRANCH  26  29
ATOM     29  C   UNL A   1      34.686  34.915  32.356  1.00  0.00     0.088 A 
ATOM     30  C   UNL A   1      32.651  36.454  28.869  1.00  0.00     0.044 C 
ATOM     31  C   UNL A   1      33.306  35.932  30.116  1.00  0.00    -0.051 A 
ATOM     32  C   UNL A   1      33.837  34.651  30.068  1.00  0.00     0.005 A 
ATOM     33  C   UNL A   1      33.456  36.690  31.300  1.00  0.00     0.005 A 
ATOM     34  C   UNL A   1      34.501  34.154  31.174  1.00  0.00     0.022 A 
ATOM     35  C   UNL A   1      34.153  36.190  32.431  1.00  0.00     0.022 A 
ENDBRANCH  26  29
ENDBRANCH  18  26
ENDBRANCH  15  17
ENDBRANCH  12  15
ENDBRANCH  10  11
ENDBRANCH   7  10
ENDBRANCH   5   6
BRANCH   5  36
ATOM     36  C   UNL A   1      40.339  27.183  27.111  1.00  0.00     0.072 C 
BRANCH  36  37
ATOM     37  C   UNL A   1      40.274  25.679  27.220  1.00  0.00    -0.020 A 
ATOM     38  C   UNL A   1      39.379  24.877  27.900  1.00  0.00     0.087 A 
ATOM     39  C   UNL A   1      41.190  24.761  26.575  1.00  0.00     0.003 A 
ATOM     40  N   UNL A   1      39.642  23.568  27.619  1.00  0.00    -0.361 N 
ATOM     41  C   UNL A   1      40.710  23.467  26.774  1.00  0.00     0.046 A 
ATOM     42  C   UNL A   1      42.377  24.908  25.824  1.00  0.00     0.010 A 
ATOM     43  H   UNL A   1      39.133  22.804  27.974  1.00  0.00     0.166 HD
ATOM     44  C   UNL A   1      41.289  22.326  26.208  1.00  0.00     0.026 A 
ATOM     45  C   UNL A   1      43.007  23.770  25.295  1.00  0.00     0.001 A 
ATOM     46  C   UNL A   1      42.456  22.502  25.465  1.00  0.00     0.002 A 
ENDBRANCH  36  37
ENDBRANCH   5  36
ENDBRANCH   1   5
BRANCH   3  47
ATOM     47  C   UNL A   1      44.747  27.637  27.034  1.00  0.00     0.117 C 
BRANCH  47  48
ATOM     48  C   UNL A   1      45.664  28.811  27.355  1.00  0.00     0.042 C 
BRANCH  48  49
ATOM     49  C   UNL A   1      46.868  28.447  28.225  1.00  0.00     0.118 C 
BRANCH  49  50
ATOM     50  N   UNL A   1      47.787  27.494  27.610  1.00  0.00    -0.352 N 
ATOM     51  C   UNL A   1      48.160  26.230  28.038  1.00  0.00     0.251 C 
ATOM     52  H   UNL A   1      48.202  27.793  26.769  1.00  0.00     0.163 HD
ATOM     53  O   UNL A   1      48.927  25.559  27.370  1.00  0.00    -0.269 OA
BRANCH  51  54
ATOM     54  C   UNL A   1      47.519  25.645  29.242  1.00  0.00     0.039 A 
ATOM     55  C   UNL A   1      46.290  24.995  29.074  1.00  0.00     0.014 A 
ATOM     56  C   UNL A   1      48.018  25.869  30.523  1.00  0.00     0.014 A 
ATOM     57  C   UNL A   1      45.446  24.831  30.170  1.00  0.00     0.010 A 
ATOM     58  C   UNL A   1      47.166  25.743  31.604  1.00  0.00     0.010 A 
ATOM     59  C   UNL A   1      45.850  25.322  31.411  1.00  0.00    -0.014 A 
BRANCH  59  60
ATOM     60  C   UNL A   1      44.908  25.596  32.490  1.00  0.00     0.031 A 
ATOM     61  C   UNL A   1      44.505  26.970  32.832  1.00  0.00     0.074 A 
ATOM     62  C   UNL A   1      44.392  24.561  33.193  1.00  0.00     0.049 A 
ATOM     63  N   UNL A   1      44.233  27.356  34.033  1.00  0.00    -0.248 NA
ATOM     64  C   UNL A   1      44.392  28.028  31.837  1.00  0.00     0.031 C 
ATOM     65  C   UNL A   1      43.327  24.610  34.190  1.00  0.00     0.029 A 
ATOM     66  N   UNL A   1      44.904  23.258  33.292  1.00  0.00    -0.354 N 
ATOM     67  C   UNL A   1      43.672  28.607  33.947  1.00  0.00     0.074 A 
ATOM     68  C   UNL A   1      43.853  29.011  32.568  1.00  0.00     0.031 C 
ATOM     69  C   UNL A   1      43.450  23.548  35.002  1.00  0.00     0.029 A 
ATOM     70  C   UNL A   1      44.667  22.852  34.622  1.00  0.00     0.049 A 
ATOM     71  H   UNL A   1      45.338  22.734  32.580  1.00  0.00     0.167 HD
ATOM     72  C   UNL A   1      42.982  29.123  35.003  1.00  0.00     0.037 A 
ATOM     73  C   UNL A   1      45.684  22.529  35.471  1.00  0.00     0.037 A 
ATOM     74  C   UNL A   1      42.929  28.195  36.124  1.00  0.00     0.049 A 
ATOM     75  C   UNL A   1      45.717  23.353  36.733  1.00  0.00     0.074 A 
ATOM     76  C   UNL A   1      41.971  27.272  36.515  1.00  0.00     0.029 A 
ATOM     77  N   UNL A   1      44.082  27.892  36.838  1.00  0.00    -0.354 N 
ATOM     78  N   UNL A   1      45.131  24.511  36.859  1.00  0.00    -0.248 NA
ATOM     79  C   UNL A   1      46.436  22.956  37.940  1.00  0.00     0.031 C 
ATOM     80  C   UNL A   1      42.562  26.387  37.444  1.00  0.00     0.029 A 
ATOM     81  C   UNL A   1      43.875  26.779  37.631  1.00  0.00     0.049 A 
ATOM     82  H   UNL A   1      44.925  28.398  36.787  1.00  0.00     0.167 HD
ATOM     83  C   UNL A   1      45.394  25.024  38.105  1.00  0.00     0.074 A 
ATOM     84  C   UNL A   1      46.196  24.003  38.750  1.00  0.00     0.031 C 
ATOM     85  C   UNL A   1      44.928  26.250  38.485  1.00  0.00     0.037 A 
BRANCH  72  86
ATOM     86  C   UNL A   1      42.098  30.335  34.864  1.00  0.00     0.057 A 
ATOM     87  C   UNL A   1      40.827  30.258  34.265  1.00  0.00     0.134 A 
ATOM     88  C   UNL A   1      42.484  31.625  35.266  1.00  0.00     0.134 A 
ATOM     89  F   UNL A   1      40.282  29.088  33.911  1.00  0.00    -0.206 F 
ATOM     90  C   UNL A   1      40.052  31.389  33.982  1.00  0.00     0.040 A 
ATOM     91  C   UNL A   1      41.741  32.770  34.948  1.00  0.00     0.040 A 
ATOM     92  F   UNL A   1      43.596  31.818  35.993  1.00  0.00    -0.206 F 
ATOM     93  C   UNL A   1      40.526  32.655  34.288  1.00  0.00     0.006 A 
ENDBRANCH  72  86
BRANCH  73  94
ATOM     94  C   UNL A   1      46.879  21.970  34.792  1.00  0.00     0.057 A 
ATOM     95  C   UNL A   1      48.004  22.792  34.612  1.00  0.00     0.134 A 
ATOM     96  C   UNL A   1      47.065  20.593  34.647  1.00  0.00     0.134 A 
ATOM     97  F   UNL A   1      47.894  24.124  34.740  1.00  0.00    -0.206 F 
ATOM     98  C   UNL A   1      49.279  22.264  34.397  1.00  0.00     0.040 A 
ATOM     99  C   UNL A   1      48.337  20.053  34.422  1.00  0.00     0.040 A 
ATOM    100  F   UNL A   1      46.046  19.743  34.829  1.00  0.00    -0.206 F 
ATOM    101  C   UNL A   1      49.453  20.885  34.335  1.00  0.00     0.006 A 
ENDBRANCH  73  94
BRANCH  85 102
ATOM    102  C   UNL A   1      45.311  27.022  39.728  1.00  0.00     0.057 A 
ATOM    103  C   UNL A   1      44.772  26.797  41.002  1.00  0.00     0.134 A 
ATOM    104  C   UNL A   1      46.376  27.954  39.691  1.00  0.00     0.134 A 
ATOM    105  F   UNL A   1      43.839  25.861  41.217  1.00  0.00    -0.206 F 
ATOM    106  C   UNL A   1      45.214  27.487  42.141  1.00  0.00     0.040 A 
ATOM    107  C   UNL A   1      46.861  28.609  40.828  1.00  0.00     0.040 A 
ATOM    108  F   UNL A   1      47.014  28.258  38.551  1.00  0.00    -0.206 F 
ATOM    109  C   UNL A   1      46.268  28.388  42.060  1.00  0.00     0.006 A 
ENDBRANCH  85 102
ENDBRANCH  59  60
ENDBRANCH  51  54
ENDBRANCH  49  50
ENDBRANCH  48  49
ENDBRANCH  47  48
ENDBRANCH   3  47
TORSDOF 19
ENDMDL
