MODEL 1
REMARK VINA RESULT:     -12.3      0.000      0.000
REMARK SMILES O=C(NCCCNC(=O)[C@H]1CCCC[C@@H]1c1nc([C@@H]2CSCCS2)no1)c1ccc(-c2c3nc(c(-c4c(F)cccc4F)c4ccc([nH]4)c(-c4c(F)cccc4F)c4nc(c(-c5c(F)cccc5F)c5ccc2[nH]5)C=C4)C=C3)cc1
REMARK SMILES IDX 5 1 4 2 3 3 1 4 2 5 27 7 28 8 80 9 29 10 79 11 30 12 31 13
REMARK SMILES IDX 32 14 73 15 33 16 78 17 72 18 74 19 34 20 77 21 71 22 70 23
REMARK SMILES IDX 35 25 61 26 44 27 60 28 45 29 48 30 59 31 75 32 46 33 47 34
REMARK SMILES IDX 58 36 76 37 49 38 36 39 37 40 42 41 38 42 39 43 41 44 43 45
REMARK SMILES IDX 40 46 62 47 63 48 68 49 64 50 65 51 67 52 69 53 66 54 50 55
REMARK SMILES IDX 51 56 56 57 52 58 53 59 55 60 57 61 54 62 6 63 7 64 8 65
REMARK SMILES IDX 9 67 10 68 11 69 15 70 12 71 14 72 13 73 16 74 17 75 26 76
REMARK SMILES IDX 18 77 25 78 19 79 20 80 24 81 21 82 23 83 22 84
REMARK H PARENT 3 6 74 24 48 35 7 66
REMARK Flexibility Score: inf
ROOT
ATOM      1  C   UNL A   1      31.401  31.753  26.436  1.00  0.00     0.042 C 
ENDROOT
BRANCH   1   2
ATOM      2  C   UNL A   1      32.684  32.407  26.932  1.00  0.00     0.118 C 
BRANCH   2   3
ATOM      3  N   UNL A   1      32.471  33.766  27.404  1.00  0.00    -0.352 N 
ATOM      4  O   UNL A   1      32.618  35.510  28.822  1.00  0.00    -0.269 OA
ATOM      5  C   UNL A   1      33.071  34.430  28.443  1.00  0.00     0.251 C 
ATOM      6  H   UNL A   1      31.798  34.284  26.906  1.00  0.00     0.163 HD
BRANCH   5   7
ATOM      7  C   UNL A   1      34.254  33.853  29.116  1.00  0.00     0.039 A 
ATOM      8  C   UNL A   1      34.113  32.815  30.041  1.00  0.00     0.014 A 
ATOM      9  C   UNL A   1      35.528  34.319  28.776  1.00  0.00     0.014 A 
ATOM     10  C   UNL A   1      35.228  32.322  30.709  1.00  0.00     0.010 A 
ATOM     11  C   UNL A   1      36.656  33.760  29.382  1.00  0.00     0.010 A 
ATOM     12  C   UNL A   1      36.514  32.761  30.357  1.00  0.00    -0.014 A 
BRANCH  12  13
ATOM     13  C   UNL A   1      37.698  32.065  30.916  1.00  0.00     0.031 A 
ATOM     14  C   UNL A   1      38.418  30.998  30.145  1.00  0.00     0.074 A 
ATOM     15  C   UNL A   1      38.103  32.403  32.157  1.00  0.00     0.049 A 
ATOM     16  N   UNL A   1      39.437  30.265  30.517  1.00  0.00    -0.248 NA
ATOM     17  C   UNL A   1      37.932  30.707  28.787  1.00  0.00     0.031 C 
ATOM     18  C   UNL A   1      37.463  33.413  33.005  1.00  0.00     0.029 A 
ATOM     19  N   UNL A   1      39.136  31.935  32.926  1.00  0.00    -0.354 N 
ATOM     20  C   UNL A   1      39.702  29.412  29.452  1.00  0.00     0.074 A 
ATOM     21  C   UNL A   1      38.730  29.709  28.422  1.00  0.00     0.031 C 
ATOM     22  C   UNL A   1      38.127  33.501  34.165  1.00  0.00     0.029 A 
ATOM     23  C   UNL A   1      39.192  32.507  34.174  1.00  0.00     0.049 A 
ATOM     24  H   UNL A   1      39.777  31.254  32.614  1.00  0.00     0.167 HD
ATOM     25  C   UNL A   1      40.671  28.472  29.354  1.00  0.00     0.037 A 
ATOM     26  C   UNL A   1      39.983  32.234  35.227  1.00  0.00     0.037 A 
ATOM     27  C   UNL A   1      41.645  28.202  30.381  1.00  0.00     0.049 A 
ATOM     28  C   UNL A   1      41.018  31.156  35.097  1.00  0.00     0.074 A 
ATOM     29  C   UNL A   1      42.718  27.327  30.338  1.00  0.00     0.029 A 
ATOM     30  N   UNL A   1      41.657  28.787  31.637  1.00  0.00    -0.354 N 
ATOM     31  N   UNL A   1      41.309  30.415  34.056  1.00  0.00    -0.248 NA
ATOM     32  C   UNL A   1      41.827  30.867  36.288  1.00  0.00     0.031 C 
ATOM     33  C   UNL A   1      43.338  27.334  31.591  1.00  0.00     0.029 A 
ATOM     34  C   UNL A   1      42.686  28.255  32.396  1.00  0.00     0.049 A 
ATOM     35  H   UNL A   1      41.027  29.479  31.945  1.00  0.00     0.167 HD
ATOM     36  C   UNL A   1      42.340  29.580  34.461  1.00  0.00     0.074 A 
ATOM     37  C   UNL A   1      42.644  29.926  35.834  1.00  0.00     0.031 C 
ATOM     38  C   UNL A   1      42.973  28.608  33.763  1.00  0.00     0.037 A 
BRANCH  25  39
ATOM     39  C   UNL A   1      40.728  27.635  28.108  1.00  0.00     0.057 A 
ATOM     40  C   UNL A   1      41.488  28.012  26.994  1.00  0.00     0.134 A 
ATOM     41  C   UNL A   1      40.096  26.385  28.068  1.00  0.00     0.134 A 
ATOM     42  F   UNL A   1      42.114  29.197  26.968  1.00  0.00    -0.206 F 
ATOM     43  C   UNL A   1      41.613  27.177  25.883  1.00  0.00     0.040 A 
ATOM     44  C   UNL A   1      40.232  25.532  26.972  1.00  0.00     0.040 A 
ATOM     45  F   UNL A   1      39.361  25.960  29.106  1.00  0.00    -0.206 F 
ATOM     46  C   UNL A   1      40.994  25.927  25.874  1.00  0.00     0.006 A 
ENDBRANCH  25  39
BRANCH  26  47
ATOM     47  C   UNL A   1      39.788  32.956  36.511  1.00  0.00     0.057 A 
ATOM     48  C   UNL A   1      38.843  32.530  37.450  1.00  0.00     0.134 A 
ATOM     49  C   UNL A   1      40.531  34.103  36.819  1.00  0.00     0.134 A 
ATOM     50  F   UNL A   1      38.090  31.449  37.205  1.00  0.00    -0.206 F 
ATOM     51  C   UNL A   1      38.625  33.233  38.636  1.00  0.00     0.040 A 
ATOM     52  C   UNL A   1      40.347  34.797  38.015  1.00  0.00     0.040 A 
ATOM     53  F   UNL A   1      41.459  34.560  35.964  1.00  0.00    -0.206 F 
ATOM     54  C   UNL A   1      39.382  34.367  38.922  1.00  0.00     0.006 A 
ENDBRANCH  26  47
BRANCH  38  55
ATOM     55  C   UNL A   1      44.061  27.856  34.470  1.00  0.00     0.057 A 
ATOM     56  C   UNL A   1      45.374  28.342  34.524  1.00  0.00     0.134 A 
ATOM     57  C   UNL A   1      43.784  26.658  35.139  1.00  0.00     0.134 A 
ATOM     58  F   UNL A   1      45.706  29.476  33.888  1.00  0.00    -0.206 F 
ATOM     59  C   UNL A   1      46.376  27.653  35.206  1.00  0.00     0.040 A 
ATOM     60  C   UNL A   1      44.773  25.974  35.847  1.00  0.00     0.040 A 
ATOM     61  F   UNL A   1      42.546  26.141  35.130  1.00  0.00    -0.206 F 
ATOM     62  C   UNL A   1      46.075  26.471  35.879  1.00  0.00     0.006 A 
ENDBRANCH  38  55
ENDBRANCH  12  13
ENDBRANCH   5   7
ENDBRANCH   2   3
ENDBRANCH   1   2
BRANCH   1  63
ATOM     63  C   UNL A   1      31.576  30.308  25.981  1.00  0.00     0.117 C 
BRANCH  63  64
ATOM     64  N   UNL A   1      31.139  30.114  24.610  1.00  0.00    -0.356 N 
ATOM     65  C   UNL A   1      31.217  29.027  23.794  1.00  0.00     0.223 C 
ATOM     66  H   UNL A   1      30.715  30.902  24.201  1.00  0.00     0.163 HD
ATOM     67  O   UNL A   1      30.763  29.147  22.657  1.00  0.00    -0.275 OA
BRANCH  65  68
ATOM     68  C   UNL A   1      31.845  27.731  24.304  1.00  0.00     0.091 C 
ATOM     69  C   UNL A   1      30.822  26.900  25.109  1.00  0.00     0.014 C 
ATOM     70  C   UNL A   1      32.464  26.926  23.143  1.00  0.00     0.091 C 
ATOM     71  C   UNL A   1      29.806  26.150  24.249  1.00  0.00     0.001 C 
ATOM     72  C   UNL A   1      31.388  26.239  22.289  1.00  0.00     0.014 C 
ATOM     73  C   UNL A   1      30.458  25.363  23.120  1.00  0.00     0.001 C 
BRANCH  70  74
ATOM     74  C   UNL A   1      33.503  25.938  23.591  1.00  0.00     0.230 A 
ATOM     75  N   UNL A   1      34.021  25.772  24.788  1.00  0.00    -0.195 NA
ATOM     76  O   UNL A   1      33.960  25.027  22.684  1.00  0.00    -0.339 OA
ATOM     77  C   UNL A   1      34.856  24.694  24.605  1.00  0.00     0.185 A 
ATOM     78  N   UNL A   1      34.855  24.203  23.356  1.00  0.00    -0.061 NA
BRANCH  77  79
ATOM     79  C   UNL A   1      35.656  24.050  25.696  1.00  0.00     0.128 C 
ATOM     80  C   UNL A   1      37.018  23.517  25.229  1.00  0.00     0.092 C 
ATOM     81  S   UNL A   1      34.676  22.856  26.691  1.00  0.00    -0.149 SA
ATOM     82  S   UNL A   1      37.029  22.019  24.184  1.00  0.00    -0.160 SA
ATOM     83  C   UNL A   1      34.691  21.410  25.585  1.00  0.00     0.081 C 
ATOM     84  C   UNL A   1      36.092  20.902  25.271  1.00  0.00     0.080 C 
ENDBRANCH  77  79
ENDBRANCH  70  74
ENDBRANCH  65  68
ENDBRANCH  63  64
ENDBRANCH   1  63
TORSDOF 12
ENDMDL
MODEL 2
REMARK VINA RESULT:     -12.3      5.029     10.130
REMARK SMILES O=C(NCCCNC(=O)[C@H]1CCCC[C@@H]1c1nc([C@@H]2CSCCS2)no1)c1ccc(-c2c3nc(c(-c4c(F)cccc4F)c4ccc([nH]4)c(-c4c(F)cccc4F)c4nc(c(-c5c(F)cccc5F)c5ccc2[nH]5)C=C4)C=C3)cc1
REMARK SMILES IDX 5 1 4 2 3 3 1 4 2 5 27 7 28 8 80 9 29 10 79 11 30 12 31 13
REMARK SMILES IDX 32 14 73 15 33 16 78 17 72 18 74 19 34 20 77 21 71 22 70 23
REMARK SMILES IDX 35 25 61 26 44 27 60 28 45 29 48 30 59 31 75 32 46 33 47 34
REMARK SMILES IDX 58 36 76 37 49 38 36 39 37 40 42 41 38 42 39 43 41 44 43 45
REMARK SMILES IDX 40 46 62 47 63 48 68 49 64 50 65 51 67 52 69 53 66 54 50 55
REMARK SMILES IDX 51 56 56 57 52 58 53 59 55 60 57 61 54 62 6 63 7 64 8 65
REMARK SMILES IDX 9 67 10 68 11 69 15 70 12 71 14 72 13 73 16 74 17 75 26 76
REMARK SMILES IDX 18 77 25 78 19 79 20 80 24 81 21 82 23 83 22 84
REMARK H PARENT 3 6 74 24 48 35 7 66
REMARK Flexibility Score: inf
ROOT
ATOM      1  C   UNL A   1      37.938  19.626  24.782  1.00  0.00     0.042 C 
ENDROOT
BRANCH   1   2
ATOM      2  C   UNL A   1      39.049  20.011  25.750  1.00  0.00     0.118 C 
BRANCH   2   3
ATOM      3  N   UNL A   1      40.115  19.023  25.796  1.00  0.00    -0.352 N 
ATOM      4  O   UNL A   1      42.237  18.265  25.768  1.00  0.00    -0.269 OA
ATOM      5  C   UNL A   1      41.464  19.206  25.957  1.00  0.00     0.251 C 
ATOM      6  H   UNL A   1      39.826  18.087  25.696  1.00  0.00     0.163 HD
BRANCH   5   7
ATOM      7  C   UNL A   1      41.998  20.527  26.348  1.00  0.00     0.039 A 
ATOM      8  C   UNL A   1      42.345  21.472  25.379  1.00  0.00     0.014 A 
ATOM      9  C   UNL A   1      42.104  20.846  27.706  1.00  0.00     0.014 A 
ATOM     10  C   UNL A   1      42.900  22.688  25.760  1.00  0.00     0.010 A 
ATOM     11  C   UNL A   1      42.577  22.104  28.089  1.00  0.00     0.010 A 
ATOM     12  C   UNL A   1      42.984  23.032  27.118  1.00  0.00    -0.014 A 
BRANCH  12  13
ATOM     13  C   UNL A   1      43.367  24.414  27.496  1.00  0.00     0.031 A 
ATOM     14  C   UNL A   1      42.340  25.425  27.917  1.00  0.00     0.074 A 
ATOM     15  C   UNL A   1      44.670  24.751  27.429  1.00  0.00     0.049 A 
ATOM     16  N   UNL A   1      42.511  26.684  28.229  1.00  0.00    -0.248 NA
ATOM     17  C   UNL A   1      40.942  24.972  27.992  1.00  0.00     0.031 C 
ATOM     18  C   UNL A   1      45.751  23.853  27.011  1.00  0.00     0.029 A 
ATOM     19  N   UNL A   1      45.311  25.932  27.699  1.00  0.00    -0.354 N 
ATOM     20  C   UNL A   1      41.246  27.182  28.516  1.00  0.00     0.074 A 
ATOM     21  C   UNL A   1      40.312  26.091  28.330  1.00  0.00     0.031 C 
ATOM     22  C   UNL A   1      46.918  24.508  27.071  1.00  0.00     0.029 A 
ATOM     23  C   UNL A   1      46.663  25.888  27.460  1.00  0.00     0.049 A 
ATOM     24  H   UNL A   1      44.847  26.735  28.033  1.00  0.00     0.167 HD
ATOM     25  C   UNL A   1      40.906  28.435  28.899  1.00  0.00     0.037 A 
ATOM     26  C   UNL A   1      47.592  26.861  27.505  1.00  0.00     0.037 A 
ATOM     27  C   UNL A   1      41.849  29.505  29.100  1.00  0.00     0.049 A 
ATOM     28  C   UNL A   1      47.171  28.248  27.893  1.00  0.00     0.074 A 
ATOM     29  C   UNL A   1      41.609  30.786  29.570  1.00  0.00     0.029 A 
ATOM     30  N   UNL A   1      43.206  29.428  28.829  1.00  0.00    -0.354 N 
ATOM     31  N   UNL A   1      45.985  28.682  28.239  1.00  0.00    -0.248 NA
ATOM     32  C   UNL A   1      48.213  29.283  27.885  1.00  0.00     0.031 C 
ATOM     33  C   UNL A   1      42.808  31.502  29.520  1.00  0.00     0.029 A 
ATOM     34  C   UNL A   1      43.807  30.652  29.072  1.00  0.00     0.049 A 
ATOM     35  H   UNL A   1      43.675  28.623  28.511  1.00  0.00     0.167 HD
ATOM     36  C   UNL A   1      46.138  30.036  28.501  1.00  0.00     0.074 A 
ATOM     37  C   UNL A   1      47.538  30.345  28.301  1.00  0.00     0.031 C 
ATOM     38  C   UNL A   1      45.202  30.944  28.866  1.00  0.00     0.037 A 
BRANCH  25  39
ATOM     39  C   UNL A   1      39.452  28.746  29.109  1.00  0.00     0.057 A 
ATOM     40  C   UNL A   1      38.831  28.595  30.354  1.00  0.00     0.134 A 
ATOM     41  C   UNL A   1      38.693  29.304  28.071  1.00  0.00     0.134 A 
ATOM     42  F   UNL A   1      39.500  28.063  31.387  1.00  0.00    -0.206 F 
ATOM     43  C   UNL A   1      37.505  28.983  30.559  1.00  0.00     0.040 A 
ATOM     44  C   UNL A   1      37.374  29.716  28.269  1.00  0.00     0.040 A 
ATOM     45  F   UNL A   1      39.230  29.485  26.855  1.00  0.00    -0.206 F 
ATOM     46  C   UNL A   1      36.776  29.556  29.518  1.00  0.00     0.006 A 
ENDBRANCH  25  39
BRANCH  26  47
ATOM     47  C   UNL A   1      48.996  26.567  27.120  1.00  0.00     0.057 A 
ATOM     48  C   UNL A   1      49.412  26.622  25.787  1.00  0.00     0.134 A 
ATOM     49  C   UNL A   1      49.950  26.202  28.079  1.00  0.00     0.134 A 
ATOM     50  F   UNL A   1      48.542  26.948  24.821  1.00  0.00    -0.206 F 
ATOM     51  C   UNL A   1      50.720  26.301  25.417  1.00  0.00     0.040 A 
ATOM     52  C   UNL A   1      51.268  25.911  27.728  1.00  0.00     0.040 A 
ATOM     53  F   UNL A   1      49.617  26.138  29.377  1.00  0.00    -0.206 F 
ATOM     54  C   UNL A   1      51.653  25.949  26.391  1.00  0.00     0.006 A 
ENDBRANCH  26  47
BRANCH  38  55
ATOM     55  C   UNL A   1      45.665  32.355  29.079  1.00  0.00     0.057 A 
ATOM     56  C   UNL A   1      45.613  33.307  28.053  1.00  0.00     0.134 A 
ATOM     57  C   UNL A   1      46.124  32.775  30.333  1.00  0.00     0.134 A 
ATOM     58  F   UNL A   1      45.199  32.961  26.825  1.00  0.00    -0.206 F 
ATOM     59  C   UNL A   1      46.018  34.625  28.264  1.00  0.00     0.040 A 
ATOM     60  C   UNL A   1      46.506  34.097  30.563  1.00  0.00     0.040 A 
ATOM     61  F   UNL A   1      46.193  31.913  31.359  1.00  0.00    -0.206 F 
ATOM     62  C   UNL A   1      46.457  35.026  29.524  1.00  0.00     0.006 A 
ENDBRANCH  38  55
ENDBRANCH  12  13
ENDBRANCH   5   7
ENDBRANCH   2   3
ENDBRANCH   1   2
BRANCH   1  63
ATOM     63  C   UNL A   1      36.862  20.694  24.616  1.00  0.00     0.117 C 
BRANCH  63  64
ATOM     64  N   UNL A   1      36.052  20.839  25.812  1.00  0.00    -0.356 N 
ATOM     65  C   UNL A   1      34.888  21.514  26.024  1.00  0.00     0.223 C 
ATOM     66  H   UNL A   1      36.402  20.370  26.603  1.00  0.00     0.163 HD
ATOM     67  O   UNL A   1      34.415  21.469  27.160  1.00  0.00    -0.275 OA
BRANCH  65  68
ATOM     68  C   UNL A   1      34.228  22.280  24.880  1.00  0.00     0.091 C 
ATOM     69  C   UNL A   1      33.051  21.478  24.284  1.00  0.00     0.014 C 
ATOM     70  C   UNL A   1      33.799  23.690  25.337  1.00  0.00     0.091 C 
ATOM     71  C   UNL A   1      31.779  21.506  25.129  1.00  0.00     0.001 C 
ATOM     72  C   UNL A   1      32.545  23.643  26.224  1.00  0.00     0.014 C 
ATOM     73  C   UNL A   1      31.385  22.916  25.553  1.00  0.00     0.001 C 
BRANCH  70  74
ATOM     74  C   UNL A   1      33.615  24.655  24.202  1.00  0.00     0.230 A 
ATOM     75  N   UNL A   1      32.885  25.748  24.158  1.00  0.00    -0.195 NA
ATOM     76  O   UNL A   1      34.328  24.447  23.057  1.00  0.00    -0.339 OA
ATOM     77  C   UNL A   1      33.160  26.241  22.903  1.00  0.00     0.185 A 
ATOM     78  N   UNL A   1      34.028  25.498  22.199  1.00  0.00    -0.061 NA
BRANCH  77  79
ATOM     79  C   UNL A   1      32.618  27.529  22.364  1.00  0.00     0.128 C 
ATOM     80  C   UNL A   1      33.299  28.776  22.945  1.00  0.00     0.092 C 
ATOM     81  S   UNL A   1      30.781  27.593  22.379  1.00  0.00    -0.149 SA
ATOM     82  S   UNL A   1      32.927  29.216  24.678  1.00  0.00    -0.160 SA
ATOM     83  C   UNL A   1      30.476  27.993  24.129  1.00  0.00     0.081 C 
ATOM     84  C   UNL A   1      31.113  29.305  24.570  1.00  0.00     0.080 C 
ENDBRANCH  77  79
ENDBRANCH  70  74
ENDBRANCH  65  68
ENDBRANCH  63  64
ENDBRANCH   1  63
TORSDOF 12
ENDMDL
MODEL 3
REMARK VINA RESULT:     -12.1      0.813      1.662
REMARK SMILES O=C(NCCCNC(=O)[C@H]1CCCC[C@@H]1c1nc([C@@H]2CSCCS2)no1)c1ccc(-c2c3nc(c(-c4c(F)cccc4F)c4ccc([nH]4)c(-c4c(F)cccc4F)c4nc(c(-c5c(F)cccc5F)c5ccc2[nH]5)C=C4)C=C3)cc1
REMARK SMILES IDX 5 1 4 2 3 3 1 4 2 5 27 7 28 8 80 9 29 10 79 11 30 12 31 13
REMARK SMILES IDX 32 14 73 15 33 16 78 17 72 18 74 19 34 20 77 21 71 22 70 23
REMARK SMILES IDX 35 25 61 26 44 27 60 28 45 29 48 30 59 31 75 32 46 33 47 34
REMARK SMILES IDX 58 36 76 37 49 38 36 39 37 40 42 41 38 42 39 43 41 44 43 45
REMARK SMILES IDX 40 46 62 47 63 48 68 49 64 50 65 51 67 52 69 53 66 54 50 55
REMARK SMILES IDX 51 56 56 57 52 58 53 59 55 60 57 61 54 62 6 63 7 64 8 65
REMARK SMILES IDX 9 67 10 68 11 69 15 70 12 71 14 72 13 73 16 74 17 75 26 76
REMARK SMILES IDX 18 77 25 78 19 79 20 80 24 81 21 82 23 83 22 84
REMARK H PARENT 3 6 74 24 48 35 7 66
REMARK Flexibility Score: inf
ROOT
ATOM      1  C   UNL A   1      31.422  31.317  26.492  1.00  0.00     0.042 C 
ENDROOT
BRANCH   1   2
ATOM      2  C   UNL A   1      32.697  32.056  26.877  1.00  0.00     0.118 C 
BRANCH   2   3
ATOM      3  N   UNL A   1      32.446  33.436  27.265  1.00  0.00    -0.352 N 
ATOM      4  O   UNL A   1      32.535  35.265  28.577  1.00  0.00    -0.269 OA
ATOM      5  C   UNL A   1      33.018  34.175  28.268  1.00  0.00     0.251 C 
ATOM      6  H   UNL A   1      31.767  33.907  26.730  1.00  0.00     0.163 HD
BRANCH   5   7
ATOM      7  C   UNL A   1      34.206  33.668  28.986  1.00  0.00     0.039 A 
ATOM      8  C   UNL A   1      34.076  32.704  29.990  1.00  0.00     0.014 A 
ATOM      9  C   UNL A   1      35.475  34.124  28.615  1.00  0.00     0.014 A 
ATOM     10  C   UNL A   1      35.196  32.280  30.696  1.00  0.00     0.010 A 
ATOM     11  C   UNL A   1      36.608  33.629  29.265  1.00  0.00     0.010 A 
ATOM     12  C   UNL A   1      36.476  32.707  30.314  1.00  0.00    -0.014 A 
BRANCH  12  13
ATOM     13  C   UNL A   1      37.668  32.073  30.929  1.00  0.00     0.031 A 
ATOM     14  C   UNL A   1      38.411  30.965  30.240  1.00  0.00     0.074 A 
ATOM     15  C   UNL A   1      38.059  32.505  32.145  1.00  0.00     0.049 A 
ATOM     16  N   UNL A   1      39.439  30.278  30.669  1.00  0.00    -0.248 NA
ATOM     17  C   UNL A   1      37.940  30.570  28.903  1.00  0.00     0.031 C 
ATOM     18  C   UNL A   1      37.396  33.562  32.915  1.00  0.00     0.029 A 
ATOM     19  N   UNL A   1      39.094  32.111  32.951  1.00  0.00    -0.354 N 
ATOM     20  C   UNL A   1      39.725  29.357  29.670  1.00  0.00     0.074 A 
ATOM     21  C   UNL A   1      38.756  29.563  28.616  1.00  0.00     0.031 C 
ATOM     22  C   UNL A   1      38.050  33.744  34.070  1.00  0.00     0.029 A 
ATOM     23  C   UNL A   1      39.131  32.772  34.155  1.00  0.00     0.049 A 
ATOM     24  H   UNL A   1      39.748  31.421  32.693  1.00  0.00     0.167 HD
ATOM     25  C   UNL A   1      40.710  28.428  29.646  1.00  0.00     0.037 A 
ATOM     26  C   UNL A   1      39.920  32.588  35.230  1.00  0.00     0.037 A 
ATOM     27  C   UNL A   1      41.681  28.248  30.695  1.00  0.00     0.049 A 
ATOM     28  C   UNL A   1      40.973  31.521  35.183  1.00  0.00     0.074 A 
ATOM     29  C   UNL A   1      42.769  27.391  30.721  1.00  0.00     0.029 A 
ATOM     30  N   UNL A   1      41.675  28.922  31.906  1.00  0.00    -0.354 N 
ATOM     31  N   UNL A   1      41.283  30.713  34.200  1.00  0.00    -0.248 NA
ATOM     32  C   UNL A   1      41.778  31.331  36.397  1.00  0.00     0.031 C 
ATOM     33  C   UNL A   1      43.380  27.498  31.974  1.00  0.00     0.029 A 
ATOM     34  C   UNL A   1      42.707  28.463  32.707  1.00  0.00     0.049 A 
ATOM     35  H   UNL A   1      41.032  29.623  32.160  1.00  0.00     0.167 HD
ATOM     36  C   UNL A   1      42.325  29.926  34.670  1.00  0.00     0.074 A 
ATOM     37  C   UNL A   1      42.613  30.374  36.016  1.00  0.00     0.031 C 
ATOM     38  C   UNL A   1      42.979  28.918  34.047  1.00  0.00     0.037 A 
BRANCH  25  39
ATOM     39  C   UNL A   1      40.790  27.506  28.463  1.00  0.00     0.057 A 
ATOM     40  C   UNL A   1      40.022  26.338  28.377  1.00  0.00     0.134 A 
ATOM     41  C   UNL A   1      41.570  27.851  27.351  1.00  0.00     0.134 A 
ATOM     42  F   UNL A   1      39.258  25.950  29.408  1.00  0.00    -0.206 F 
ATOM     43  C   UNL A   1      40.030  25.544  27.229  1.00  0.00     0.040 A 
ATOM     44  C   UNL A   1      41.569  27.076  26.189  1.00  0.00     0.040 A 
ATOM     45  F   UNL A   1      42.321  28.961  27.364  1.00  0.00    -0.206 F 
ATOM     46  C   UNL A   1      40.797  25.919  26.126  1.00  0.00     0.006 A 
ENDBRANCH  25  39
BRANCH  26  47
ATOM     47  C   UNL A   1      39.704  33.396  36.458  1.00  0.00     0.057 A 
ATOM     48  C   UNL A   1      38.811  32.985  37.453  1.00  0.00     0.134 A 
ATOM     49  C   UNL A   1      40.372  34.612  36.654  1.00  0.00     0.134 A 
ATOM     50  F   UNL A   1      38.128  31.840  37.315  1.00  0.00    -0.206 F 
ATOM     51  C   UNL A   1      38.571  33.766  38.585  1.00  0.00     0.040 A 
ATOM     52  C   UNL A   1      40.167  35.386  37.796  1.00  0.00     0.040 A 
ATOM     53  F   UNL A   1      41.248  35.059  35.740  1.00  0.00    -0.206 F 
ATOM     54  C   UNL A   1      39.255  34.967  38.761  1.00  0.00     0.006 A 
ENDBRANCH  26  47
BRANCH  38  55
ATOM     55  C   UNL A   1      44.074  28.236  34.812  1.00  0.00     0.057 A 
ATOM     56  C   UNL A   1      43.830  27.089  35.578  1.00  0.00     0.134 A 
ATOM     57  C   UNL A   1      45.391  28.706  34.747  1.00  0.00     0.134 A 
ATOM     58  F   UNL A   1      42.586  26.601  35.694  1.00  0.00    -0.206 F 
ATOM     59  C   UNL A   1      44.857  26.443  36.266  1.00  0.00     0.040 A 
ATOM     60  C   UNL A   1      46.431  28.052  35.409  1.00  0.00     0.040 A 
ATOM     61  F   UNL A   1      45.692  29.797  34.027  1.00  0.00    -0.206 F 
ATOM     62  C   UNL A   1      46.163  26.918  36.174  1.00  0.00     0.006 A 
ENDBRANCH  38  55
ENDBRANCH  12  13
ENDBRANCH   5   7
ENDBRANCH   2   3
ENDBRANCH   1   2
BRANCH   1  63
ATOM     63  C   UNL A   1      31.665  29.967  25.827  1.00  0.00     0.117 C 
BRANCH  63  64
ATOM     64  N   UNL A   1      31.382  30.005  24.403  1.00  0.00    -0.356 N 
ATOM     65  C   UNL A   1      31.246  29.001  23.493  1.00  0.00     0.223 C 
ATOM     66  H   UNL A   1      31.269  30.910  24.033  1.00  0.00     0.163 HD
ATOM     67  O   UNL A   1      31.007  29.328  22.331  1.00  0.00    -0.275 OA
BRANCH  65  68
ATOM     68  C   UNL A   1      31.388  27.545  23.933  1.00  0.00     0.091 C 
ATOM     69  C   UNL A   1      30.657  26.599  22.957  1.00  0.00     0.014 C 
ATOM     70  C   UNL A   1      32.873  27.166  24.108  1.00  0.00     0.091 C 
ATOM     71  C   UNL A   1      31.401  26.348  21.647  1.00  0.00     0.001 C 
ATOM     72  C   UNL A   1      33.576  26.978  22.755  1.00  0.00     0.014 C 
ATOM     73  C   UNL A   1      32.861  25.969  21.864  1.00  0.00     0.001 C 
BRANCH  70  74
ATOM     74  C   UNL A   1      33.083  25.970  24.990  1.00  0.00     0.230 A 
ATOM     75  N   UNL A   1      34.176  25.261  25.173  1.00  0.00    -0.195 NA
ATOM     76  O   UNL A   1      32.046  25.556  25.775  1.00  0.00    -0.339 OA
ATOM     77  C   UNL A   1      33.785  24.349  26.126  1.00  0.00     0.185 A 
ATOM     78  N   UNL A   1      32.512  24.486  26.528  1.00  0.00    -0.061 NA
BRANCH  77  79
ATOM     79  C   UNL A   1      34.692  23.328  26.741  1.00  0.00     0.128 C 
ATOM     80  C   UNL A   1      35.962  23.059  25.922  1.00  0.00     0.092 C 
ATOM     81  S   UNL A   1      33.802  21.812  27.278  1.00  0.00    -0.149 SA
ATOM     82  S   UNL A   1      35.783  22.124  24.362  1.00  0.00    -0.160 SA
ATOM     83  C   UNL A   1      33.621  20.950  25.685  1.00  0.00     0.081 C 
ATOM     84  C   UNL A   1      34.951  20.642  25.009  1.00  0.00     0.080 C 
ENDBRANCH  77  79
ENDBRANCH  70  74
ENDBRANCH  65  68
ENDBRANCH  63  64
ENDBRANCH   1  63
TORSDOF 12
ENDMDL
