MODEL 1
REMARK VINA RESULT:     -13.4      0.000      0.000
REMARK SMILES O=C(NCCCNC(=O)c1ccc(-c2c3nc(c(-c4c(F)cccc4F)c4ccc([nH]4)c(-c4c(F)cccc4F)c4nc(c(-c5c(F)cccc5F)c5ccc2[nH]5)C=C4)C=C3)cc1)C1=Cc2cc(S(F)(F)(F)(F)F)cc(Br)c2O[C@@H]1C(F)(F)F
REMARK SMILES IDX 5 1 4 2 3 3 1 4 2 5 64 7 65 8 80 9 66 10 79 11 67 12 78 13
REMARK SMILES IDX 68 14 76 15 75 16 77 17 81 18 82 19 83 20 84 21 69 22 70 23
REMARK SMILES IDX 71 24 72 25 73 26 74 27 6 28 7 29 8 30 9 32 10 33 11 34
REMARK SMILES IDX 63 35 12 36 62 37 13 38 14 39 15 40 56 41 16 42 61 43 55 44
REMARK SMILES IDX 57 45 17 46 60 47 54 48 53 49 18 51 44 52 27 53 43 54 28 55
REMARK SMILES IDX 31 56 42 57 58 58 29 59 30 60 41 62 59 63 32 64 19 65 20 66
REMARK SMILES IDX 25 67 21 68 22 69 24 70 26 71 23 72 45 73 46 74 51 75 47 76
REMARK SMILES IDX 48 77 50 78 52 79 49 80 33 81 34 82 39 83 35 84 36 85 38 86
REMARK SMILES IDX 40 87 37 88
REMARK H PARENT 3 6 7 31 57 50 31 61
REMARK Flexibility Score: inf
ROOT
ATOM      1  C   UNL A   1      34.211  29.958  26.997  1.00  0.00     0.042 C 
ENDROOT
BRANCH   1   2
ATOM      2  C   UNL A   1      33.975  28.531  26.529  1.00  0.00     0.118 C 
BRANCH   2   3
ATOM      3  N   UNL A   1      32.842  27.954  27.268  1.00  0.00    -0.352 N 
ATOM      4  O   UNL A   1      30.673  26.991  27.178  1.00  0.00    -0.270 OA
ATOM      5  C   UNL A   1      31.652  27.490  26.541  1.00  0.00     0.251 C 
ATOM      6  H   UNL A   1      32.881  27.878  28.248  1.00  0.00     0.163 HD
BRANCH   5   7
ATOM      7  C   UNL A   1      31.592  27.606  25.027  1.00  0.00     0.067 C 
ATOM      8  C   UNL A   1      32.262  26.713  24.249  1.00  0.00     0.025 C 
ATOM      9  C   UNL A   1      30.785  28.721  24.382  1.00  0.00     0.314 C 
ATOM     10  C   UNL A   1      33.070  25.599  24.893  1.00  0.00     0.020 A 
ATOM     11  O   UNL A   1      31.423  25.307  26.582  1.00  0.00    -0.474 OA
ATOM     12  C   UNL A   1      34.289  25.298  24.308  1.00  0.00     0.036 A 
ATOM     13  C   UNL A   1      32.593  24.879  25.902  1.00  0.00     0.142 A 
ATOM     14  C   UNL A   1      34.802  24.031  24.672  1.00  0.00     0.109 A 
ATOM     15  C   UNL A   1      33.223  23.721  26.292  1.00  0.00     0.062 A 
ATOM     16  C   UNL A   1      34.400  23.332  25.718  1.00  0.00     0.044 A 
ATOM     17  Br  UNL A   1      32.420  22.612  27.696  1.00  0.00    -0.047 Br
BRANCH   9  18
ATOM     18  C   UNL A   1      29.703  28.118  23.500  1.00  0.00     0.429 C 
ATOM     19  F   UNL A   1      29.232  27.011  24.071  1.00  0.00    -0.167 F 
ATOM     20  F   UNL A   1      28.714  28.994  23.349  1.00  0.00    -0.167 F 
ATOM     21  F   UNL A   1      30.215  27.818  22.310  1.00  0.00    -0.167 F 
ENDBRANCH   9  18
BRANCH  14  22
ATOM     22  S   UNL A   1      36.099  23.318  23.631  1.00  0.00     0.310 S 
ATOM     23  F   UNL A   1      36.094  21.962  24.454  1.00  0.00    -0.094 F 
ATOM     24  F   UNL A   1      37.170  23.855  24.655  1.00  0.00    -0.094 F 
ATOM     25  F   UNL A   1      37.218  22.702  22.743  1.00  0.00    -0.094 F 
ATOM     26  F   UNL A   1      35.008  22.668  22.692  1.00  0.00    -0.094 F 
ATOM     27  F   UNL A   1      34.950  23.840  24.581  1.00  0.00    -0.094 F 
ENDBRANCH  14  22
ENDBRANCH   5   7
ENDBRANCH   2   3
ENDBRANCH   1   2
BRANCH   1  28
ATOM     28  C   UNL A   1      35.474  30.012  27.840  1.00  0.00     0.118 C 
BRANCH  28  29
ATOM     29  N   UNL A   1      35.154  30.557  29.167  1.00  0.00    -0.352 N 
ATOM     30  C   UNL A   1      36.208  30.684  30.184  1.00  0.00     0.251 C 
ATOM     31  H   UNL A   1      34.233  30.837  29.375  1.00  0.00     0.163 HD
ATOM     32  O   UNL A   1      35.930  31.156  31.331  1.00  0.00    -0.269 OA
BRANCH  30  33
ATOM     33  C   UNL A   1      37.629  30.252  29.864  1.00  0.00     0.039 A 
ATOM     34  C   UNL A   1      38.129  30.437  28.586  1.00  0.00     0.014 A 
ATOM     35  C   UNL A   1      38.346  29.646  30.803  1.00  0.00     0.014 A 
ATOM     36  C   UNL A   1      39.295  29.683  28.312  1.00  0.00     0.010 A 
ATOM     37  C   UNL A   1      39.543  29.047  30.492  1.00  0.00     0.010 A 
ATOM     38  C   UNL A   1      40.068  29.139  29.233  1.00  0.00    -0.014 A 
BRANCH  38  39
ATOM     39  C   UNL A   1      41.468  28.642  28.912  1.00  0.00     0.031 A 
ATOM     40  C   UNL A   1      41.615  27.300  28.551  1.00  0.00     0.074 A 
ATOM     41  C   UNL A   1      42.510  29.552  28.945  1.00  0.00     0.049 A 
ATOM     42  N   UNL A   1      42.728  26.682  28.156  1.00  0.00    -0.248 NA
ATOM     43  C   UNL A   1      40.517  26.324  28.548  1.00  0.00     0.031 C 
ATOM     44  C   UNL A   1      42.370  30.908  29.300  1.00  0.00     0.029 A 
ATOM     45  N   UNL A   1      43.838  29.330  28.653  1.00  0.00    -0.354 N 
ATOM     46  C   UNL A   1      42.470  25.402  27.877  1.00  0.00     0.074 A 
ATOM     47  C   UNL A   1      41.046  25.153  28.132  1.00  0.00     0.031 C 
ATOM     48  C   UNL A   1      43.595  31.492  29.233  1.00  0.00     0.029 A 
ATOM     49  C   UNL A   1      44.523  30.510  28.836  1.00  0.00     0.049 A 
ATOM     50  H   UNL A   1      44.229  28.474  28.363  1.00  0.00     0.167 HD
ATOM     51  C   UNL A   1      43.368  24.435  27.420  1.00  0.00     0.037 A 
ATOM     52  C   UNL A   1      45.880  30.738  28.672  1.00  0.00     0.037 A 
ATOM     53  C   UNL A   1      44.717  24.674  27.214  1.00  0.00     0.049 A 
ATOM     54  C   UNL A   1      46.788  29.756  28.270  1.00  0.00     0.074 A 
ATOM     55  C   UNL A   1      45.633  23.713  26.746  1.00  0.00     0.029 A 
ATOM     56  N   UNL A   1      45.406  25.849  27.420  1.00  0.00    -0.354 N 
ATOM     57  N   UNL A   1      46.522  28.487  27.954  1.00  0.00    -0.248 NA
ATOM     58  C   UNL A   1      48.233  29.977  28.124  1.00  0.00     0.031 C 
ATOM     59  C   UNL A   1      46.859  24.297  26.679  1.00  0.00     0.029 A 
ATOM     60  C   UNL A   1      46.730  25.632  27.106  1.00  0.00     0.049 A 
ATOM     61  H   UNL A   1      45.020  26.697  27.737  1.00  0.00     0.167 HD
ATOM     62  C   UNL A   1      47.644  27.858  27.599  1.00  0.00     0.074 A 
ATOM     63  C   UNL A   1      48.762  28.806  27.709  1.00  0.00     0.031 C 
ATOM     64  C   UNL A   1      47.781  26.532  27.181  1.00  0.00     0.037 A 
BRANCH  51  65
ATOM     65  C   UNL A   1      42.834  23.041  27.131  1.00  0.00     0.057 A 
ATOM     66  C   UNL A   1      42.474  22.677  25.843  1.00  0.00     0.134 A 
ATOM     67  C   UNL A   1      42.705  22.197  28.147  1.00  0.00     0.134 A 
ATOM     68  F   UNL A   1      42.815  23.382  24.769  1.00  0.00    -0.206 F 
ATOM     69  C   UNL A   1      41.712  21.487  25.776  1.00  0.00     0.040 A 
ATOM     70  C   UNL A   1      42.068  20.992  27.978  1.00  0.00     0.040 A 
ATOM     71  F   UNL A   1      43.197  22.522  29.340  1.00  0.00    -0.206 F 
ATOM     72  C   UNL A   1      41.635  20.593  26.744  1.00  0.00     0.006 A 
ENDBRANCH  51  65
BRANCH  52  73
ATOM     73  C   UNL A   1      46.410  32.136  28.944  1.00  0.00     0.057 A 
ATOM     74  C   UNL A   1      46.870  32.487  30.203  1.00  0.00     0.134 A 
ATOM     75  C   UNL A   1      46.433  33.002  27.937  1.00  0.00     0.134 A 
ATOM     76  F   UNL A   1      47.103  31.596  31.163  1.00  0.00    -0.206 F 
ATOM     77  C   UNL A   1      47.071  33.877  30.373  1.00  0.00     0.040 A 
ATOM     78  C   UNL A   1      46.771  34.316  28.152  1.00  0.00     0.040 A 
ATOM     79  F   UNL A   1      46.127  32.592  26.709  1.00  0.00    -0.206 F 
ATOM     80  C   UNL A   1      47.178  34.746  29.385  1.00  0.00     0.006 A 
ENDBRANCH  52  73
BRANCH  64  81
ATOM     81  C   UNL A   1      49.166  26.047  26.786  1.00  0.00     0.057 A 
ATOM     82  C   UNL A   1      49.966  25.426  27.731  1.00  0.00     0.134 A 
ATOM     83  C   UNL A   1      49.597  26.253  25.547  1.00  0.00     0.134 A 
ATOM     84  F   UNL A   1      49.500  24.975  28.892  1.00  0.00    -0.206 F 
ATOM     85  C   UNL A   1      51.324  25.315  27.349  1.00  0.00     0.040 A 
ATOM     86  C   UNL A   1      50.903  25.994  25.209  1.00  0.00     0.040 A 
ATOM     87  F   UNL A   1      48.756  26.713  24.625  1.00  0.00    -0.206 F 
ATOM     88  C   UNL A   1      51.766  25.435  26.110  1.00  0.00     0.006 A 
ENDBRANCH  64  81
ENDBRANCH  38  39
ENDBRANCH  30  33
ENDBRANCH  28  29
ENDBRANCH   1  28
TORSDOF 12
ENDMDL
MODEL 2
REMARK VINA RESULT:     -13.4      0.457      6.081
REMARK SMILES O=C(NCCCNC(=O)c1ccc(-c2c3nc(c(-c4c(F)cccc4F)c4ccc([nH]4)c(-c4c(F)cccc4F)c4nc(c(-c5c(F)cccc5F)c5ccc2[nH]5)C=C4)C=C3)cc1)C1=Cc2cc(S(F)(F)(F)(F)F)cc(Br)c2O[C@@H]1C(F)(F)F
REMARK SMILES IDX 5 1 4 2 3 3 1 4 2 5 64 7 65 8 80 9 66 10 79 11 67 12 78 13
REMARK SMILES IDX 68 14 76 15 75 16 77 17 81 18 82 19 83 20 84 21 69 22 70 23
REMARK SMILES IDX 71 24 72 25 73 26 74 27 6 28 7 29 8 30 9 32 10 33 11 34
REMARK SMILES IDX 63 35 12 36 62 37 13 38 14 39 15 40 56 41 16 42 61 43 55 44
REMARK SMILES IDX 57 45 17 46 60 47 54 48 53 49 18 51 44 52 27 53 43 54 28 55
REMARK SMILES IDX 31 56 42 57 58 58 29 59 30 60 41 62 59 63 32 64 19 65 20 66
REMARK SMILES IDX 25 67 21 68 22 69 24 70 26 71 23 72 45 73 46 74 51 75 47 76
REMARK SMILES IDX 48 77 50 78 52 79 49 80 33 81 34 82 39 83 35 84 36 85 38 86
REMARK SMILES IDX 40 87 37 88
REMARK H PARENT 3 6 7 31 57 50 31 61
REMARK Flexibility Score: inf
ROOT
ATOM      1  C   UNL A   1      34.327  30.378  27.251  1.00  0.00     0.042 C 
ENDROOT
BRANCH   1   2
ATOM      2  C   UNL A   1      34.321  28.874  27.030  1.00  0.00     0.118 C 
BRANCH   2   3
ATOM      3  N   UNL A   1      33.109  28.296  27.626  1.00  0.00    -0.352 N 
ATOM      4  O   UNL A   1      30.911  27.459  27.288  1.00  0.00    -0.270 OA
ATOM      5  C   UNL A   1      31.959  27.959  26.773  1.00  0.00     0.251 C 
ATOM      6  H   UNL A   1      33.066  28.133  28.596  1.00  0.00     0.163 HD
BRANCH   5   7
ATOM      7  C   UNL A   1      32.025  28.209  25.276  1.00  0.00     0.067 C 
ATOM      8  C   UNL A   1      32.612  27.293  24.458  1.00  0.00     0.025 C 
ATOM      9  C   UNL A   1      31.436  29.483  24.692  1.00  0.00     0.314 C 
ATOM     10  C   UNL A   1      33.201  26.020  25.042  1.00  0.00     0.020 A 
ATOM     11  O   UNL A   1      31.414  25.840  26.597  1.00  0.00    -0.474 OA
ATOM     12  C   UNL A   1      34.403  25.589  24.503  1.00  0.00     0.036 A 
ATOM     13  C   UNL A   1      32.555  25.298  25.950  1.00  0.00     0.142 A 
ATOM     14  C   UNL A   1      34.699  24.233  24.776  1.00  0.00     0.109 A 
ATOM     15  C   UNL A   1      32.980  24.031  26.267  1.00  0.00     0.062 A 
ATOM     16  C   UNL A   1      34.127  23.517  25.727  1.00  0.00     0.044 A 
ATOM     17  Br  UNL A   1      31.928  22.942  27.512  1.00  0.00    -0.047 Br
BRANCH   9  18
ATOM     18  C   UNL A   1      30.343  29.125  23.697  1.00  0.00     0.429 C 
ATOM     19  F   UNL A   1      29.804  27.955  24.031  1.00  0.00    -0.167 F 
ATOM     20  F   UNL A   1      29.404  30.066  23.712  1.00  0.00    -0.167 F 
ATOM     21  F   UNL A   1      30.865  29.039  22.477  1.00  0.00    -0.167 F 
ENDBRANCH   9  18
BRANCH  14  22
ATOM     22  S   UNL A   1      35.950  23.421  23.750  1.00  0.00     0.310 S 
ATOM     23  F   UNL A   1      35.748  22.038  24.499  1.00  0.00    -0.094 F 
ATOM     24  F   UNL A   1      37.028  23.777  24.842  1.00  0.00    -0.094 F 
ATOM     25  F   UNL A   1      37.028  22.720  22.875  1.00  0.00    -0.094 F 
ATOM     26  F   UNL A   1      34.834  22.953  22.736  1.00  0.00    -0.094 F 
ATOM     27  F   UNL A   1      34.828  24.030  24.681  1.00  0.00    -0.094 F 
ENDBRANCH  14  22
ENDBRANCH   5   7
ENDBRANCH   2   3
ENDBRANCH   1   2
BRANCH   1  28
ATOM     28  C   UNL A   1      35.560  30.767  28.049  1.00  0.00     0.118 C 
BRANCH  28  29
ATOM     29  N   UNL A   1      35.231  30.786  29.481  1.00  0.00    -0.352 N 
ATOM     30  C   UNL A   1      36.205  30.293  30.466  1.00  0.00     0.251 C 
ATOM     31  H   UNL A   1      34.358  31.128  29.781  1.00  0.00     0.163 HD
ATOM     32  O   UNL A   1      35.920  30.310  31.705  1.00  0.00    -0.269 OA
BRANCH  30  33
ATOM     33  C   UNL A   1      37.552  29.764  30.004  1.00  0.00     0.039 A 
ATOM     34  C   UNL A   1      38.390  29.140  30.913  1.00  0.00     0.014 A 
ATOM     35  C   UNL A   1      37.928  29.968  28.747  1.00  0.00     0.014 A 
ATOM     36  C   UNL A   1      39.730  29.024  30.471  1.00  0.00     0.010 A 
ATOM     37  C   UNL A   1      39.217  29.704  28.351  1.00  0.00     0.010 A 
ATOM     38  C   UNL A   1      40.117  29.142  29.215  1.00  0.00    -0.014 A 
BRANCH  38  39
ATOM     39  C   UNL A   1      41.488  28.679  28.751  1.00  0.00     0.031 A 
ATOM     40  C   UNL A   1      42.526  29.613  28.756  1.00  0.00     0.074 A 
ATOM     41  C   UNL A   1      41.645  27.349  28.400  1.00  0.00     0.049 A 
ATOM     42  N   UNL A   1      43.811  29.402  28.469  1.00  0.00    -0.248 NA
ATOM     43  C   UNL A   1      42.355  31.032  29.096  1.00  0.00     0.031 C 
ATOM     44  C   UNL A   1      40.606  26.398  28.401  1.00  0.00     0.029 A 
ATOM     45  N   UNL A   1      42.797  26.711  27.995  1.00  0.00    -0.354 N 
ATOM     46  C   UNL A   1      44.505  30.534  28.602  1.00  0.00     0.074 A 
ATOM     47  C   UNL A   1      43.577  31.600  29.000  1.00  0.00     0.031 C 
ATOM     48  C   UNL A   1      41.120  25.209  27.993  1.00  0.00     0.029 A 
ATOM     49  C   UNL A   1      42.490  25.396  27.729  1.00  0.00     0.049 A 
ATOM     50  H   UNL A   1      43.687  27.126  27.910  1.00  0.00     0.167 HD
ATOM     51  C   UNL A   1      45.875  30.718  28.406  1.00  0.00     0.037 A 
ATOM     52  C   UNL A   1      43.343  24.400  27.279  1.00  0.00     0.037 A 
ATOM     53  C   UNL A   1      46.736  29.712  27.999  1.00  0.00     0.049 A 
ATOM     54  C   UNL A   1      44.703  24.598  27.028  1.00  0.00     0.074 A 
ATOM     55  C   UNL A   1      48.121  29.878  27.806  1.00  0.00     0.029 A 
ATOM     56  N   UNL A   1      46.425  28.402  27.709  1.00  0.00    -0.354 N 
ATOM     57  N   UNL A   1      45.403  25.721  27.199  1.00  0.00    -0.248 NA
ATOM     58  C   UNL A   1      45.609  23.559  26.521  1.00  0.00     0.031 C 
ATOM     59  C   UNL A   1      48.636  28.688  27.396  1.00  0.00     0.029 A 
ATOM     60  C   UNL A   1      47.581  27.759  27.325  1.00  0.00     0.049 A 
ATOM     61  H   UNL A   1      45.530  27.995  27.766  1.00  0.00     0.167 HD
ATOM     62  C   UNL A   1      46.681  25.519  26.871  1.00  0.00     0.074 A 
ATOM     63  C   UNL A   1      46.831  24.127  26.424  1.00  0.00     0.031 C 
ATOM     64  C   UNL A   1      47.730  26.438  26.932  1.00  0.00     0.037 A 
BRANCH  51  65
ATOM     65  C   UNL A   1      46.456  32.101  28.656  1.00  0.00     0.057 A 
ATOM     66  C   UNL A   1      46.944  32.445  29.906  1.00  0.00     0.134 A 
ATOM     67  C   UNL A   1      46.461  32.969  27.652  1.00  0.00     0.134 A 
ATOM     68  F   UNL A   1      47.193  31.551  30.859  1.00  0.00    -0.206 F 
ATOM     69  C   UNL A   1      47.155  33.834  30.076  1.00  0.00     0.040 A 
ATOM     70  C   UNL A   1      46.809  34.281  27.862  1.00  0.00     0.040 A 
ATOM     71  F   UNL A   1      46.126  32.564  26.429  1.00  0.00    -0.206 F 
ATOM     72  C   UNL A   1      47.245  34.704  29.087  1.00  0.00     0.006 A 
ENDBRANCH  51  65
BRANCH  52  73
ATOM     73  C   UNL A   1      42.766  23.013  27.046  1.00  0.00     0.057 A 
ATOM     74  C   UNL A   1      42.406  22.600  25.774  1.00  0.00     0.134 A 
ATOM     75  C   UNL A   1      42.633  22.209  28.094  1.00  0.00     0.134 A 
ATOM     76  F   UNL A   1      42.751  23.262  24.673  1.00  0.00    -0.206 F 
ATOM     77  C   UNL A   1      41.640  21.411  25.752  1.00  0.00     0.040 A 
ATOM     78  C   UNL A   1      41.993  20.999  27.971  1.00  0.00     0.040 A 
ATOM     79  F   UNL A   1      43.125  22.577  29.274  1.00  0.00    -0.206 F 
ATOM     80  C   UNL A   1      41.558  20.554  26.753  1.00  0.00     0.006 A 
ENDBRANCH  52  73
BRANCH  64  81
ATOM     81  C   UNL A   1      49.120  25.963  26.542  1.00  0.00     0.057 A 
ATOM     82  C   UNL A   1      49.905  25.312  27.480  1.00  0.00     0.134 A 
ATOM     83  C   UNL A   1      49.569  26.204  25.316  1.00  0.00     0.134 A 
ATOM     84  F   UNL A   1      49.423  24.828  28.620  1.00  0.00    -0.206 F 
ATOM     85  C   UNL A   1      51.268  25.210  27.114  1.00  0.00     0.040 A 
ATOM     86  C   UNL A   1      50.879  25.953  24.989  1.00  0.00     0.040 A 
ATOM     87  F   UNL A   1      48.742  26.693  24.396  1.00  0.00    -0.206 F 
ATOM     88  C   UNL A   1      51.728  25.366  25.885  1.00  0.00     0.006 A 
ENDBRANCH  64  81
ENDBRANCH  38  39
ENDBRANCH  30  33
ENDBRANCH  28  29
ENDBRANCH   1  28
TORSDOF 12
ENDMDL
MODEL 3
REMARK VINA RESULT:     -13.4      5.358     10.051
REMARK SMILES O=C(NCCCNC(=O)c1ccc(-c2c3nc(c(-c4c(F)cccc4F)c4ccc([nH]4)c(-c4c(F)cccc4F)c4nc(c(-c5c(F)cccc5F)c5ccc2[nH]5)C=C4)C=C3)cc1)C1=Cc2cc(S(F)(F)(F)(F)F)cc(Br)c2O[C@@H]1C(F)(F)F
REMARK SMILES IDX 5 1 4 2 3 3 1 4 2 5 64 7 65 8 80 9 66 10 79 11 67 12 78 13
REMARK SMILES IDX 68 14 76 15 75 16 77 17 81 18 82 19 83 20 84 21 69 22 70 23
REMARK SMILES IDX 71 24 72 25 73 26 74 27 6 28 7 29 8 30 9 32 10 33 11 34
REMARK SMILES IDX 63 35 12 36 62 37 13 38 14 39 15 40 56 41 16 42 61 43 55 44
REMARK SMILES IDX 57 45 17 46 60 47 54 48 53 49 18 51 44 52 27 53 43 54 28 55
REMARK SMILES IDX 31 56 42 57 58 58 29 59 30 60 41 62 59 63 32 64 19 65 20 66
REMARK SMILES IDX 25 67 21 68 22 69 24 70 26 71 23 72 45 73 46 74 51 75 47 76
REMARK SMILES IDX 48 77 50 78 52 79 49 80 33 81 34 82 39 83 35 84 36 85 38 86
REMARK SMILES IDX 40 87 37 88
REMARK H PARENT 3 6 7 31 57 50 31 61
REMARK Flexibility Score: inf
ROOT
ATOM      1  C   UNL A   1      38.468  22.893  26.327  1.00  0.00     0.042 C 
ENDROOT
BRANCH   1   2
ATOM      2  C   UNL A   1      37.296  23.776  25.930  1.00  0.00     0.118 C 
BRANCH   2   3
ATOM      3  N   UNL A   1      37.111  23.720  24.473  1.00  0.00    -0.352 N 
ATOM      4  O   UNL A   1      35.811  22.938  22.646  1.00  0.00    -0.270 OA
ATOM      5  C   UNL A   1      35.971  22.986  23.905  1.00  0.00     0.251 C 
ATOM      6  H   UNL A   1      37.750  24.174  23.878  1.00  0.00     0.163 HD
BRANCH   5   7
ATOM      7  C   UNL A   1      34.984  22.286  24.823  1.00  0.00     0.067 C 
ATOM      8  C   UNL A   1      33.972  22.991  25.399  1.00  0.00     0.025 C 
ATOM      9  C   UNL A   1      35.127  20.798  25.099  1.00  0.00     0.314 C 
ATOM     10  C   UNL A   1      33.829  24.478  25.124  1.00  0.00     0.020 A 
ATOM     11  O   UNL A   1      34.455  24.174  22.852  1.00  0.00    -0.474 OA
ATOM     12  C   UNL A   1      33.475  25.277  26.199  1.00  0.00     0.036 A 
ATOM     13  C   UNL A   1      33.937  24.980  23.899  1.00  0.00     0.142 A 
ATOM     14  C   UNL A   1      32.968  26.545  25.828  1.00  0.00     0.109 A 
ATOM     15  C   UNL A   1      33.549  26.272  23.636  1.00  0.00     0.062 A 
ATOM     16  C   UNL A   1      33.132  27.100  24.641  1.00  0.00     0.044 A 
ATOM     17  Br  UNL A   1      33.596  26.938  21.793  1.00  0.00    -0.047 Br
BRANCH   9  18
ATOM     18  C   UNL A   1      33.869  20.075  24.644  1.00  0.00     0.429 C 
ATOM     19  F   UNL A   1      33.303  20.755  23.650  1.00  0.00    -0.167 F 
ATOM     20  F   UNL A   1      34.187  18.855  24.221  1.00  0.00    -0.167 F 
ATOM     21  F   UNL A   1      33.016  19.984  25.659  1.00  0.00    -0.167 F 
ENDBRANCH   9  18
BRANCH  14  22
ATOM     22  S   UNL A   1      32.030  27.472  27.068  1.00  0.00     0.310 S 
ATOM     23  F   UNL A   1      31.737  28.650  26.047  1.00  0.00    -0.094 F 
ATOM     24  F   UNL A   1      33.356  28.230  27.456  1.00  0.00    -0.094 F 
ATOM     25  F   UNL A   1      31.228  28.276  28.131  1.00  0.00    -0.094 F 
ATOM     26  F   UNL A   1      30.688  26.805  26.571  1.00  0.00    -0.094 F 
ATOM     27  F   UNL A   1      32.810  26.732  25.909  1.00  0.00    -0.094 F 
ENDBRANCH  14  22
ENDBRANCH   5   7
ENDBRANCH   2   3
ENDBRANCH   1   2
BRANCH   1  28
ATOM     28  C   UNL A   1      39.565  23.751  26.934  1.00  0.00     0.118 C 
BRANCH  28  29
ATOM     29  N   UNL A   1      40.576  24.050  25.910  1.00  0.00    -0.352 N 
ATOM     30  C   UNL A   1      41.319  25.318  25.958  1.00  0.00     0.251 C 
ATOM     31  H   UNL A   1      40.756  23.402  25.192  1.00  0.00     0.163 HD
ATOM     32  O   UNL A   1      42.195  25.575  25.073  1.00  0.00    -0.269 OA
BRANCH  30  33
ATOM     33  C   UNL A   1      41.044  26.319  27.067  1.00  0.00     0.039 A 
ATOM     34  C   UNL A   1      41.701  27.538  27.068  1.00  0.00     0.014 A 
ATOM     35  C   UNL A   1      40.221  25.980  28.052  1.00  0.00     0.014 A 
ATOM     36  C   UNL A   1      41.648  28.217  28.308  1.00  0.00     0.010 A 
ATOM     37  C   UNL A   1      40.117  26.762  29.177  1.00  0.00     0.010 A 
ATOM     38  C   UNL A   1      40.786  27.951  29.271  1.00  0.00    -0.014 A 
BRANCH  38  39
ATOM     39  C   UNL A   1      40.548  28.914  30.423  1.00  0.00     0.031 A 
ATOM     40  C   UNL A   1      41.393  28.824  31.531  1.00  0.00     0.074 A 
ATOM     41  C   UNL A   1      39.544  29.857  30.290  1.00  0.00     0.049 A 
ATOM     42  N   UNL A   1      41.414  29.614  32.605  1.00  0.00    -0.248 NA
ATOM     43  C   UNL A   1      42.438  27.802  31.689  1.00  0.00     0.031 C 
ATOM     44  C   UNL A   1      38.693  29.961  29.173  1.00  0.00     0.029 A 
ATOM     45  N   UNL A   1      39.186  30.843  31.184  1.00  0.00    -0.354 N 
ATOM     46  C   UNL A   1      42.376  29.226  33.445  1.00  0.00     0.074 A 
ATOM     47  C   UNL A   1      43.043  28.051  32.870  1.00  0.00     0.031 C 
ATOM     48  C   UNL A   1      37.829  30.986  29.393  1.00  0.00     0.029 A 
ATOM     49  C   UNL A   1      38.124  31.541  30.653  1.00  0.00     0.049 A 
ATOM     50  H   UNL A   1      39.616  31.019  32.052  1.00  0.00     0.167 HD
ATOM     51  C   UNL A   1      42.722  29.808  34.666  1.00  0.00     0.037 A 
ATOM     52  C   UNL A   1      37.438  32.602  31.220  1.00  0.00     0.037 A 
ATOM     53  C   UNL A   1      42.063  30.897  35.213  1.00  0.00     0.049 A 
ATOM     54  C   UNL A   1      37.747  33.148  32.468  1.00  0.00     0.074 A 
ATOM     55  C   UNL A   1      42.405  31.500  36.439  1.00  0.00     0.029 A 
ATOM     56  N   UNL A   1      40.985  31.579  34.693  1.00  0.00    -0.354 N 
ATOM     57  N   UNL A   1      38.734  32.784  33.290  1.00  0.00    -0.248 NA
ATOM     58  C   UNL A   1      37.007  34.251  33.094  1.00  0.00     0.031 C 
ATOM     59  C   UNL A   1      41.539  32.525  36.660  1.00  0.00     0.029 A 
ATOM     60  C   UNL A   1      40.642  32.579  35.576  1.00  0.00     0.049 A 
ATOM     61  H   UNL A   1      40.537  31.386  33.838  1.00  0.00     0.167 HD
ATOM     62  C   UNL A   1      38.727  33.549  34.383  1.00  0.00     0.074 A 
ATOM     63  C   UNL A   1      37.611  34.500  34.276  1.00  0.00     0.031 C 
ATOM     64  C   UNL A   1      39.609  33.496  35.464  1.00  0.00     0.037 A 
BRANCH  51  65
ATOM     65  C   UNL A   1      43.888  29.212  35.438  1.00  0.00     0.057 A 
ATOM     66  C   UNL A   1      45.179  29.667  35.227  1.00  0.00     0.134 A 
ATOM     67  C   UNL A   1      43.634  28.235  36.301  1.00  0.00     0.134 A 
ATOM     68  F   UNL A   1      45.454  30.794  34.577  1.00  0.00    -0.206 F 
ATOM     69  C   UNL A   1      46.179  28.824  35.767  1.00  0.00     0.040 A 
ATOM     70  C   UNL A   1      44.661  27.543  36.895  1.00  0.00     0.040 A 
ATOM     71  F   UNL A   1      42.374  27.924  36.592  1.00  0.00    -0.206 F 
ATOM     72  C   UNL A   1      45.964  27.901  36.686  1.00  0.00     0.006 A 
ENDBRANCH  51  65
BRANCH  52  73
ATOM     73  C   UNL A   1      36.283  33.209  30.440  1.00  0.00     0.057 A 
ATOM     74  C   UNL A   1      34.975  32.848  30.716  1.00  0.00     0.134 A 
ATOM     75  C   UNL A   1      36.567  34.103  29.499  1.00  0.00     0.134 A 
ATOM     76  F   UNL A   1      34.626  32.162  31.801  1.00  0.00    -0.206 F 
ATOM     77  C   UNL A   1      34.043  33.278  29.741  1.00  0.00     0.040 A 
ATOM     78  C   UNL A   1      35.582  34.582  28.670  1.00  0.00     0.040 A 
ATOM     79  F   UNL A   1      37.816  34.538  29.360  1.00  0.00    -0.206 F 
ATOM     80  C   UNL A   1      34.275  34.222  28.848  1.00  0.00     0.006 A 
ENDBRANCH  52  73
BRANCH  64  81
ATOM     81  C   UNL A   1      39.425  34.505  36.586  1.00  0.00     0.057 A 
ATOM     82  C   UNL A   1      39.986  35.766  36.467  1.00  0.00     0.134 A 
ATOM     83  C   UNL A   1      38.753  34.150  37.675  1.00  0.00     0.134 A 
ATOM     84  F   UNL A   1      40.442  36.252  35.316  1.00  0.00    -0.206 F 
ATOM     85  C   UNL A   1      40.029  36.491  37.681  1.00  0.00     0.040 A 
ATOM     86  C   UNL A   1      38.725  34.969  38.777  1.00  0.00     0.040 A 
ATOM     87  F   UNL A   1      38.101  32.991  37.697  1.00  0.00    -0.206 F 
ATOM     88  C   UNL A   1      39.309  36.205  38.751  1.00  0.00     0.006 A 
ENDBRANCH  64  81
ENDBRANCH  38  39
ENDBRANCH  30  33
ENDBRANCH  28  29
ENDBRANCH   1  28
TORSDOF 12
ENDMDL
