MODEL 1
REMARK VINA RESULT:     -12.7      0.000      0.000
REMARK SMILES O=C(NCCCNC(=O)[C@H]1Cc2[nH]cnc2CN1C(=O)c1ccncc1Cl)c1ccc(-c2c3nc(c(-c4c(F)cccc4F)c4ccc([nH]4)c(-c4c(F)cccc4F)c4nc(c(-c5c(F)cccc5F)c5ccc2[nH]5)C=C4)C=C3)cc1
REMARK SMILES IDX 5 1 4 2 3 3 1 4 2 5 28 7 29 8 81 9 30 10 80 11 31 12 32 13
REMARK SMILES IDX 33 14 74 15 34 16 79 17 73 18 75 19 35 20 78 21 72 22 71 23
REMARK SMILES IDX 36 25 62 26 45 27 61 28 46 29 49 30 60 31 76 32 47 33 48 34
REMARK SMILES IDX 59 36 77 37 50 38 37 39 38 40 43 41 39 42 40 43 42 44 44 45
REMARK SMILES IDX 41 46 63 47 64 48 69 49 65 50 66 51 68 52 70 53 67 54 51 55
REMARK SMILES IDX 52 56 57 57 53 58 54 59 56 60 58 61 55 62 6 63 7 64 8 65
REMARK SMILES IDX 9 67 10 68 11 69 18 70 12 71 17 72 13 73 16 74 14 75 15 77
REMARK SMILES IDX 19 78 20 79 21 80 22 81 26 82 23 83 25 84 27 85 24 86
REMARK H PARENT 3 6 75 24 49 35 7 66 13 76
REMARK Flexibility Score: inf
ROOT
ATOM      1  C   UNL A   1      32.569  30.492  26.898  1.00  0.00     0.042 C 
ENDROOT
BRANCH   1   2
ATOM      2  C   UNL A   1      33.955  30.874  27.400  1.00  0.00     0.118 C 
BRANCH   2   3
ATOM      3  N   UNL A   1      34.029  31.677  28.602  1.00  0.00    -0.352 N 
ATOM      4  O   UNL A   1      34.880  32.844  30.305  1.00  0.00    -0.269 OA
ATOM      5  C   UNL A   1      35.048  31.947  29.476  1.00  0.00     0.251 C 
ATOM      6  H   UNL A   1      33.180  32.115  28.838  1.00  0.00     0.163 HD
BRANCH   5   7
ATOM      7  C   UNL A   1      36.286  31.143  29.547  1.00  0.00     0.039 A 
ATOM      8  C   UNL A   1      36.328  29.758  29.705  1.00  0.00     0.014 A 
ATOM      9  C   UNL A   1      37.486  31.860  29.400  1.00  0.00     0.014 A 
ATOM     10  C   UNL A   1      37.557  29.115  29.833  1.00  0.00     0.010 A 
ATOM     11  C   UNL A   1      38.712  31.217  29.499  1.00  0.00     0.010 A 
ATOM     12  C   UNL A   1      38.749  29.848  29.754  1.00  0.00    -0.014 A 
BRANCH  12  13
ATOM     13  C   UNL A   1      40.016  29.118  29.787  1.00  0.00     0.031 A 
ATOM     14  C   UNL A   1      40.603  28.919  31.145  1.00  0.00     0.074 A 
ATOM     15  C   UNL A   1      40.561  28.500  28.721  1.00  0.00     0.049 A 
ATOM     16  N   UNL A   1      41.759  29.299  31.585  1.00  0.00    -0.248 NA
ATOM     17  C   UNL A   1      39.761  28.267  32.160  1.00  0.00     0.031 C 
ATOM     18  C   UNL A   1      39.974  28.306  27.394  1.00  0.00     0.029 A 
ATOM     19  N   UNL A   1      41.738  27.812  28.642  1.00  0.00    -0.354 N 
ATOM     20  C   UNL A   1      41.862  28.801  32.885  1.00  0.00     0.074 A 
ATOM     21  C   UNL A   1      40.563  28.278  33.225  1.00  0.00     0.031 C 
ATOM     22  C   UNL A   1      40.693  27.378  26.721  1.00  0.00     0.029 A 
ATOM     23  C   UNL A   1      41.855  27.011  27.515  1.00  0.00     0.049 A 
ATOM     24  H   UNL A   1      42.443  27.879  29.326  1.00  0.00     0.167 HD
ATOM     25  C   UNL A   1      43.058  28.686  33.524  1.00  0.00     0.037 A 
ATOM     26  C   UNL A   1      42.802  26.070  27.281  1.00  0.00     0.037 A 
ATOM     27  C   UNL A   1      44.078  29.481  32.902  1.00  0.00     0.049 A 
ATOM     28  C   UNL A   1      43.946  26.331  28.187  1.00  0.00     0.074 A 
ATOM     29  C   UNL A   1      44.255  30.828  32.653  1.00  0.00     0.029 A 
ATOM     30  N   UNL A   1      45.018  28.838  32.136  1.00  0.00    -0.354 N 
ATOM     31  N   UNL A   1      44.766  27.334  28.068  1.00  0.00    -0.248 NA
ATOM     32  C   UNL A   1      43.956  25.668  29.482  1.00  0.00     0.031 C 
ATOM     33  C   UNL A   1      44.939  30.885  31.403  1.00  0.00     0.029 A 
ATOM     34  C   UNL A   1      45.166  29.573  30.991  1.00  0.00     0.049 A 
ATOM     35  H   UNL A   1      45.494  28.008  32.367  1.00  0.00     0.167 HD
ATOM     36  C   UNL A   1      45.065  27.699  29.370  1.00  0.00     0.074 A 
ATOM     37  C   UNL A   1      44.636  26.571  30.190  1.00  0.00     0.031 C 
ATOM     38  C   UNL A   1      45.372  28.991  29.687  1.00  0.00     0.037 A 
BRANCH  25  39
ATOM     39  C   UNL A   1      43.396  27.596  34.512  1.00  0.00     0.057 A 
ATOM     40  C   UNL A   1      43.497  26.263  34.068  1.00  0.00     0.134 A 
ATOM     41  C   UNL A   1      43.322  27.759  35.909  1.00  0.00     0.134 A 
ATOM     42  F   UNL A   1      43.556  25.976  32.758  1.00  0.00    -0.206 F 
ATOM     43  C   UNL A   1      43.450  25.174  34.945  1.00  0.00     0.040 A 
ATOM     44  C   UNL A   1      43.329  26.679  36.797  1.00  0.00     0.040 A 
ATOM     45  F   UNL A   1      43.135  28.955  36.480  1.00  0.00    -0.206 F 
ATOM     46  C   UNL A   1      43.359  25.380  36.316  1.00  0.00     0.006 A 
ENDBRANCH  25  39
BRANCH  26  47
ATOM     47  C   UNL A   1      42.697  24.810  26.509  1.00  0.00     0.057 A 
ATOM     48  C   UNL A   1      43.465  24.598  25.355  1.00  0.00     0.134 A 
ATOM     49  C   UNL A   1      42.046  23.680  27.033  1.00  0.00     0.134 A 
ATOM     50  F   UNL A   1      44.157  25.604  24.801  1.00  0.00    -0.206 F 
ATOM     51  C   UNL A   1      43.600  23.331  24.772  1.00  0.00     0.040 A 
ATOM     52  C   UNL A   1      42.165  22.412  26.455  1.00  0.00     0.040 A 
ATOM     53  F   UNL A   1      41.348  23.749  28.175  1.00  0.00    -0.206 F 
ATOM     54  C   UNL A   1      42.957  22.231  25.329  1.00  0.00     0.006 A 
ENDBRANCH  26  47
BRANCH  38  55
ATOM     55  C   UNL A   1      45.674  29.939  28.563  1.00  0.00     0.057 A 
ATOM     56  C   UNL A   1      44.700  30.670  27.868  1.00  0.00     0.134 A 
ATOM     57  C   UNL A   1      47.012  30.230  28.274  1.00  0.00     0.134 A 
ATOM     58  F   UNL A   1      43.397  30.536  28.150  1.00  0.00    -0.206 F 
ATOM     59  C   UNL A   1      45.044  31.613  26.896  1.00  0.00     0.040 A 
ATOM     60  C   UNL A   1      47.369  31.195  27.331  1.00  0.00     0.040 A 
ATOM     61  F   UNL A   1      48.000  29.611  28.941  1.00  0.00    -0.206 F 
ATOM     62  C   UNL A   1      46.382  31.883  26.629  1.00  0.00     0.006 A 
ENDBRANCH  38  55
ENDBRANCH  12  13
ENDBRANCH   5   7
ENDBRANCH   2   3
ENDBRANCH   1   2
BRANCH   1  63
ATOM     63  C   UNL A   1      31.981  29.121  27.272  1.00  0.00     0.117 C 
BRANCH  63  64
ATOM     64  N   UNL A   1      32.703  27.897  26.936  1.00  0.00    -0.354 N 
ATOM     65  C   UNL A   1      32.963  27.286  25.728  1.00  0.00     0.243 C 
ATOM     66  H   UNL A   1      33.071  27.420  27.716  1.00  0.00     0.163 HD
ATOM     67  O   UNL A   1      33.996  26.619  25.615  1.00  0.00    -0.273 OA
BRANCH  65  68
ATOM     68  C   UNL A   1      32.079  27.548  24.524  1.00  0.00     0.181 C 
ATOM     69  C   UNL A   1      32.586  28.423  23.338  1.00  0.00     0.091 C 
ATOM     70  N   UNL A   1      31.227  26.465  23.998  1.00  0.00    -0.320 N 
ATOM     71  C   UNL A   1      31.330  28.859  22.629  1.00  0.00     0.042 A 
ATOM     72  C   UNL A   1      29.873  27.004  23.625  1.00  0.00     0.178 C 
ATOM     73  N   UNL A   1      31.095  29.958  21.854  1.00  0.00    -0.348 N 
ATOM     74  C   UNL A   1      30.101  28.233  22.771  1.00  0.00     0.081 A 
ATOM     75  C   UNL A   1      29.740  30.000  21.632  1.00  0.00     0.197 A 
ATOM     76  H   UNL A   1      31.766  30.596  21.520  1.00  0.00     0.167 HD
ATOM     77  N   UNL A   1      29.117  28.970  22.167  1.00  0.00    -0.240 NA
BRANCH  70  78
ATOM     78  C   UNL A   1      31.545  25.211  23.464  1.00  0.00     0.256 C 
ATOM     79  O   UNL A   1      31.487  25.133  22.222  1.00  0.00    -0.269 OA
BRANCH  78  80
ATOM     80  C   UNL A   1      31.957  23.883  24.088  1.00  0.00     0.061 A 
ATOM     81  C   UNL A   1      32.254  22.951  23.055  1.00  0.00     0.035 A 
ATOM     82  C   UNL A   1      31.893  23.317  25.369  1.00  0.00     0.072 A 
ATOM     83  C   UNL A   1      32.339  21.586  23.292  1.00  0.00     0.112 A 
ATOM     84  C   UNL A   1      31.982  21.919  25.501  1.00  0.00     0.132 A 
ATOM     85  Cl  UNL A   1      31.687  24.034  26.898  1.00  0.00    -0.082 Cl
ATOM     86  N   UNL A   1      32.186  21.043  24.501  1.00  0.00    -0.263 NA
ENDBRANCH  78  80
ENDBRANCH  70  78
ENDBRANCH  65  68
ENDBRANCH  63  64
ENDBRANCH   1  63
TORSDOF 12
ENDMDL
MODEL 2
REMARK VINA RESULT:     -12.6      2.517      6.675
REMARK SMILES O=C(NCCCNC(=O)[C@H]1Cc2[nH]cnc2CN1C(=O)c1ccncc1Cl)c1ccc(-c2c3nc(c(-c4c(F)cccc4F)c4ccc([nH]4)c(-c4c(F)cccc4F)c4nc(c(-c5c(F)cccc5F)c5ccc2[nH]5)C=C4)C=C3)cc1
REMARK SMILES IDX 5 1 4 2 3 3 1 4 2 5 28 7 29 8 81 9 30 10 80 11 31 12 32 13
REMARK SMILES IDX 33 14 74 15 34 16 79 17 73 18 75 19 35 20 78 21 72 22 71 23
REMARK SMILES IDX 36 25 62 26 45 27 61 28 46 29 49 30 60 31 76 32 47 33 48 34
REMARK SMILES IDX 59 36 77 37 50 38 37 39 38 40 43 41 39 42 40 43 42 44 44 45
REMARK SMILES IDX 41 46 63 47 64 48 69 49 65 50 66 51 68 52 70 53 67 54 51 55
REMARK SMILES IDX 52 56 57 57 53 58 54 59 56 60 58 61 55 62 6 63 7 64 8 65
REMARK SMILES IDX 9 67 10 68 11 69 18 70 12 71 17 72 13 73 16 74 14 75 15 77
REMARK SMILES IDX 19 78 20 79 21 80 22 81 26 82 23 83 25 84 27 85 24 86
REMARK H PARENT 3 6 75 24 49 35 7 66 13 76
REMARK Flexibility Score: inf
ROOT
ATOM      1  C   UNL A   1      33.586  28.067  26.254  1.00  0.00     0.042 C 
ENDROOT
BRANCH   1   2
ATOM      2  C   UNL A   1      34.919  28.641  26.714  1.00  0.00     0.118 C 
BRANCH   2   3
ATOM      3  N   UNL A   1      34.930  29.381  27.958  1.00  0.00    -0.352 N 
ATOM      4  O   UNL A   1      35.645  30.674  29.633  1.00  0.00    -0.269 OA
ATOM      5  C   UNL A   1      35.942  29.899  28.721  1.00  0.00     0.251 C 
ATOM      6  H   UNL A   1      34.033  29.543  28.330  1.00  0.00     0.163 HD
BRANCH   5   7
ATOM      7  C   UNL A   1      37.355  29.488  28.575  1.00  0.00     0.039 A 
ATOM      8  C   UNL A   1      38.180  29.839  27.507  1.00  0.00     0.014 A 
ATOM      9  C   UNL A   1      37.877  28.722  29.631  1.00  0.00     0.014 A 
ATOM     10  C   UNL A   1      39.474  29.330  27.439  1.00  0.00     0.010 A 
ATOM     11  C   UNL A   1      39.177  28.237  29.579  1.00  0.00     0.010 A 
ATOM     12  C   UNL A   1      39.965  28.510  28.464  1.00  0.00    -0.014 A 
BRANCH  12  13
ATOM     13  C   UNL A   1      41.364  28.086  28.404  1.00  0.00     0.031 A 
ATOM     14  C   UNL A   1      41.610  26.792  27.702  1.00  0.00     0.074 A 
ATOM     15  C   UNL A   1      42.404  28.855  28.781  1.00  0.00     0.049 A 
ATOM     16  N   UNL A   1      42.164  25.718  28.167  1.00  0.00    -0.248 NA
ATOM     17  C   UNL A   1      41.112  26.660  26.325  1.00  0.00     0.031 C 
ATOM     18  C   UNL A   1      42.386  30.264  29.179  1.00  0.00     0.029 A 
ATOM     19  N   UNL A   1      43.736  28.551  28.780  1.00  0.00    -0.354 N 
ATOM     20  C   UNL A   1      42.230  24.823  27.098  1.00  0.00     0.074 A 
ATOM     21  C   UNL A   1      41.467  25.410  26.027  1.00  0.00     0.031 C 
ATOM     22  C   UNL A   1      43.651  30.744  29.173  1.00  0.00     0.029 A 
ATOM     23  C   UNL A   1      44.571  29.652  28.897  1.00  0.00     0.049 A 
ATOM     24  H   UNL A   1      44.073  27.629  28.705  1.00  0.00     0.167 HD
ATOM     25  C   UNL A   1      43.064  23.747  27.105  1.00  0.00     0.037 A 
ATOM     26  C   UNL A   1      45.915  29.677  28.715  1.00  0.00     0.037 A 
ATOM     27  C   UNL A   1      43.519  23.429  28.429  1.00  0.00     0.049 A 
ATOM     28  C   UNL A   1      46.419  28.288  28.820  1.00  0.00     0.074 A 
ATOM     29  C   UNL A   1      42.910  23.060  29.613  1.00  0.00     0.029 A 
ATOM     30  N   UNL A   1      44.805  23.768  28.766  1.00  0.00    -0.354 N 
ATOM     31  N   UNL A   1      46.478  27.607  29.927  1.00  0.00    -0.248 NA
ATOM     32  C   UNL A   1      46.515  27.502  27.599  1.00  0.00     0.031 C 
ATOM     33  C   UNL A   1      43.697  23.665  30.636  1.00  0.00     0.029 A 
ATOM     34  C   UNL A   1      44.752  24.330  30.013  1.00  0.00     0.049 A 
ATOM     35  H   UNL A   1      45.610  23.633  28.217  1.00  0.00     0.167 HD
ATOM     36  C   UNL A   1      46.179  26.306  29.555  1.00  0.00     0.074 A 
ATOM     37  C   UNL A   1      46.329  26.281  28.104  1.00  0.00     0.031 C 
ATOM     38  C   UNL A   1      45.568  25.448  30.423  1.00  0.00     0.037 A 
BRANCH  25  39
ATOM     39  C   UNL A   1      43.739  23.181  25.879  1.00  0.00     0.057 A 
ATOM     40  C   UNL A   1      43.688  21.795  25.636  1.00  0.00     0.134 A 
ATOM     41  C   UNL A   1      44.682  23.891  25.111  1.00  0.00     0.134 A 
ATOM     42  F   UNL A   1      42.844  21.006  26.318  1.00  0.00    -0.206 F 
ATOM     43  C   UNL A   1      44.563  21.156  24.750  1.00  0.00     0.040 A 
ATOM     44  C   UNL A   1      45.523  23.269  24.183  1.00  0.00     0.040 A 
ATOM     45  F   UNL A   1      44.910  25.198  25.289  1.00  0.00    -0.206 F 
ATOM     46  C   UNL A   1      45.490  21.893  24.025  1.00  0.00     0.006 A 
ENDBRANCH  25  39
BRANCH  26  47
ATOM     47  C   UNL A   1      46.769  30.776  28.210  1.00  0.00     0.057 A 
ATOM     48  C   UNL A   1      46.476  31.430  27.004  1.00  0.00     0.134 A 
ATOM     49  C   UNL A   1      47.731  31.393  29.028  1.00  0.00     0.134 A 
ATOM     50  F   UNL A   1      45.543  30.943  26.173  1.00  0.00    -0.206 F 
ATOM     51  C   UNL A   1      47.086  32.640  26.645  1.00  0.00     0.040 A 
ATOM     52  C   UNL A   1      48.355  32.595  28.676  1.00  0.00     0.040 A 
ATOM     53  F   UNL A   1      48.034  30.900  30.236  1.00  0.00    -0.206 F 
ATOM     54  C   UNL A   1      48.021  33.231  27.488  1.00  0.00     0.006 A 
ENDBRANCH  26  47
BRANCH  38  55
ATOM     55  C   UNL A   1      45.501  25.839  31.871  1.00  0.00     0.057 A 
ATOM     56  C   UNL A   1      46.539  25.630  32.790  1.00  0.00     0.134 A 
ATOM     57  C   UNL A   1      44.404  26.587  32.313  1.00  0.00     0.134 A 
ATOM     58  F   UNL A   1      47.674  25.017  32.429  1.00  0.00    -0.206 F 
ATOM     59  C   UNL A   1      46.464  26.101  34.103  1.00  0.00     0.040 A 
ATOM     60  C   UNL A   1      44.332  27.094  33.611  1.00  0.00     0.040 A 
ATOM     61  F   UNL A   1      43.398  26.877  31.471  1.00  0.00    -0.206 F 
ATOM     62  C   UNL A   1      45.360  26.842  34.516  1.00  0.00     0.006 A 
ENDBRANCH  38  55
ENDBRANCH  12  13
ENDBRANCH   5   7
ENDBRANCH   2   3
ENDBRANCH   1   2
BRANCH   1  63
ATOM     63  C   UNL A   1      33.134  28.281  24.799  1.00  0.00     0.117 C 
BRANCH  63  64
ATOM     64  N   UNL A   1      33.785  27.552  23.714  1.00  0.00    -0.354 N 
ATOM     65  C   UNL A   1      33.672  26.246  23.287  1.00  0.00     0.243 C 
ATOM     66  H   UNL A   1      34.423  28.092  23.192  1.00  0.00     0.163 HD
ATOM     67  O   UNL A   1      33.861  25.998  22.092  1.00  0.00    -0.273 OA
BRANCH  65  68
ATOM     68  C   UNL A   1      33.182  25.164  24.231  1.00  0.00     0.181 C 
ATOM     69  C   UNL A   1      31.986  24.246  23.839  1.00  0.00     0.091 C 
ATOM     70  N   UNL A   1      34.160  24.381  25.009  1.00  0.00    -0.320 N 
ATOM     71  C   UNL A   1      31.492  23.692  25.150  1.00  0.00     0.042 A 
ATOM     72  C   UNL A   1      33.664  24.180  26.415  1.00  0.00     0.178 C 
ATOM     73  N   UNL A   1      30.254  23.237  25.500  1.00  0.00    -0.348 N 
ATOM     74  C   UNL A   1      32.239  23.679  26.318  1.00  0.00     0.081 A 
ATOM     75  C   UNL A   1      30.274  23.051  26.862  1.00  0.00     0.197 A 
ATOM     76  H   UNL A   1      29.494  23.075  24.896  1.00  0.00     0.167 HD
ATOM     77  N   UNL A   1      31.459  23.303  27.379  1.00  0.00    -0.240 NA
BRANCH  70  78
ATOM     78  C   UNL A   1      35.198  23.532  24.609  1.00  0.00     0.256 C 
ATOM     79  O   UNL A   1      35.166  23.182  23.413  1.00  0.00    -0.269 OA
BRANCH  78  80
ATOM     80  C   UNL A   1      36.390  22.922  25.336  1.00  0.00     0.061 A 
ATOM     81  C   UNL A   1      37.177  23.962  25.903  1.00  0.00     0.035 A 
ATOM     82  C   UNL A   1      36.995  21.658  25.381  1.00  0.00     0.072 A 
ATOM     83  C   UNL A   1      38.478  23.754  26.338  1.00  0.00     0.112 A 
ATOM     84  C   UNL A   1      38.324  21.554  25.832  1.00  0.00     0.132 A 
ATOM     85  Cl  UNL A   1      36.408  20.122  24.940  1.00  0.00    -0.082 Cl
ATOM     86  N   UNL A   1      39.082  22.564  26.293  1.00  0.00    -0.263 NA
ENDBRANCH  78  80
ENDBRANCH  70  78
ENDBRANCH  65  68
ENDBRANCH  63  64
ENDBRANCH   1  63
TORSDOF 12
ENDMDL
MODEL 3
REMARK VINA RESULT:     -12.4      1.297      3.121
REMARK SMILES O=C(NCCCNC(=O)[C@H]1Cc2[nH]cnc2CN1C(=O)c1ccncc1Cl)c1ccc(-c2c3nc(c(-c4c(F)cccc4F)c4ccc([nH]4)c(-c4c(F)cccc4F)c4nc(c(-c5c(F)cccc5F)c5ccc2[nH]5)C=C4)C=C3)cc1
REMARK SMILES IDX 5 1 4 2 3 3 1 4 2 5 28 7 29 8 81 9 30 10 80 11 31 12 32 13
REMARK SMILES IDX 33 14 74 15 34 16 79 17 73 18 75 19 35 20 78 21 72 22 71 23
REMARK SMILES IDX 36 25 62 26 45 27 61 28 46 29 49 30 60 31 76 32 47 33 48 34
REMARK SMILES IDX 59 36 77 37 50 38 37 39 38 40 43 41 39 42 40 43 42 44 44 45
REMARK SMILES IDX 41 46 63 47 64 48 69 49 65 50 66 51 68 52 70 53 67 54 51 55
REMARK SMILES IDX 52 56 57 57 53 58 54 59 56 60 58 61 55 62 6 63 7 64 8 65
REMARK SMILES IDX 9 67 10 68 11 69 18 70 12 71 17 72 13 73 16 74 14 75 15 77
REMARK SMILES IDX 19 78 20 79 21 80 22 81 26 82 23 83 25 84 27 85 24 86
REMARK H PARENT 3 6 75 24 49 35 7 66 13 76
REMARK Flexibility Score: inf
ROOT
ATOM      1  C   UNL A   1      32.674  29.641  26.868  1.00  0.00     0.042 C 
ENDROOT
BRANCH   1   2
ATOM      2  C   UNL A   1      33.991  30.325  27.208  1.00  0.00     0.118 C 
BRANCH   2   3
ATOM      3  N   UNL A   1      33.995  31.239  28.330  1.00  0.00    -0.352 N 
ATOM      4  O   UNL A   1      34.738  32.643  29.900  1.00  0.00    -0.269 OA
ATOM      5  C   UNL A   1      34.991  31.696  29.151  1.00  0.00     0.251 C 
ATOM      6  H   UNL A   1      33.107  31.603  28.547  1.00  0.00     0.163 HD
BRANCH   5   7
ATOM      7  C   UNL A   1      36.311  31.040  29.262  1.00  0.00     0.039 A 
ATOM      8  C   UNL A   1      37.534  31.669  29.035  1.00  0.00     0.014 A 
ATOM      9  C   UNL A   1      36.288  29.694  29.666  1.00  0.00     0.014 A 
ATOM     10  C   UNL A   1      38.713  30.930  29.097  1.00  0.00     0.010 A 
ATOM     11  C   UNL A   1      37.464  28.962  29.756  1.00  0.00     0.010 A 
ATOM     12  C   UNL A   1      38.676  29.570  29.434  1.00  0.00    -0.014 A 
BRANCH  12  13
ATOM     13  C   UNL A   1      39.945  28.859  29.591  1.00  0.00     0.031 A 
ATOM     14  C   UNL A   1      40.434  28.730  30.996  1.00  0.00     0.074 A 
ATOM     15  C   UNL A   1      40.571  28.201  28.597  1.00  0.00     0.049 A 
ATOM     16  N   UNL A   1      41.552  29.145  31.499  1.00  0.00    -0.248 NA
ATOM     17  C   UNL A   1      39.528  28.115  31.978  1.00  0.00     0.031 C 
ATOM     18  C   UNL A   1      40.083  27.938  27.242  1.00  0.00     0.029 A 
ATOM     19  N   UNL A   1      41.758  27.525  28.635  1.00  0.00    -0.354 N 
ATOM     20  C   UNL A   1      41.566  28.709  32.825  1.00  0.00     0.074 A 
ATOM     21  C   UNL A   1      40.252  28.185  33.095  1.00  0.00     0.031 C 
ATOM     22  C   UNL A   1      40.858  26.990  26.667  1.00  0.00     0.029 A 
ATOM     23  C   UNL A   1      41.963  26.676  27.557  1.00  0.00     0.049 A 
ATOM     24  H   UNL A   1      42.411  27.632  29.363  1.00  0.00     0.167 HD
ATOM     25  C   UNL A   1      42.714  28.639  33.553  1.00  0.00     0.037 A 
ATOM     26  C   UNL A   1      42.934  25.737  27.435  1.00  0.00     0.037 A 
ATOM     27  C   UNL A   1      43.769  29.419  32.968  1.00  0.00     0.049 A 
ATOM     28  C   UNL A   1      44.007  26.054  28.408  1.00  0.00     0.074 A 
ATOM     29  C   UNL A   1      43.950  30.755  32.670  1.00  0.00     0.029 A 
ATOM     30  N   UNL A   1      44.768  28.754  32.302  1.00  0.00    -0.354 N 
ATOM     31  N   UNL A   1      44.824  27.062  28.301  1.00  0.00    -0.248 NA
ATOM     32  C   UNL A   1      43.930  25.451  29.729  1.00  0.00     0.031 C 
ATOM     33  C   UNL A   1      44.721  30.764  31.471  1.00  0.00     0.029 A 
ATOM     34  C   UNL A   1      44.990  29.437  31.137  1.00  0.00     0.049 A 
ATOM     35  H   UNL A   1      45.234  27.942  32.605  1.00  0.00     0.167 HD
ATOM     36  C   UNL A   1      45.025  27.490  29.603  1.00  0.00     0.074 A 
ATOM     37  C   UNL A   1      44.549  26.395  30.442  1.00  0.00     0.031 C 
ATOM     38  C   UNL A   1      45.295  28.799  29.880  1.00  0.00     0.037 A 
BRANCH  25  39
ATOM     39  C   UNL A   1      42.992  27.600  34.611  1.00  0.00     0.057 A 
ATOM     40  C   UNL A   1      43.242  26.268  34.228  1.00  0.00     0.134 A 
ATOM     41  C   UNL A   1      42.720  27.790  35.981  1.00  0.00     0.134 A 
ATOM     42  F   UNL A   1      43.494  25.955  32.948  1.00  0.00    -0.206 F 
ATOM     43  C   UNL A   1      43.153  25.199  35.128  1.00  0.00     0.040 A 
ATOM     44  C   UNL A   1      42.683  26.735  36.897  1.00  0.00     0.040 A 
ATOM     45  F   UNL A   1      42.378  28.983  36.482  1.00  0.00    -0.206 F 
ATOM     46  C   UNL A   1      42.866  25.430  36.467  1.00  0.00     0.006 A 
ENDBRANCH  25  39
BRANCH  26  47
ATOM     47  C   UNL A   1      42.897  24.442  26.717  1.00  0.00     0.057 A 
ATOM     48  C   UNL A   1      43.547  24.274  25.486  1.00  0.00     0.134 A 
ATOM     49  C   UNL A   1      42.457  23.266  27.348  1.00  0.00     0.134 A 
ATOM     50  F   UNL A   1      44.041  25.332  24.825  1.00  0.00    -0.206 F 
ATOM     51  C   UNL A   1      43.770  23.008  24.927  1.00  0.00     0.040 A 
ATOM     52  C   UNL A   1      42.663  21.997  26.795  1.00  0.00     0.040 A 
ATOM     53  F   UNL A   1      41.892  23.299  28.562  1.00  0.00    -0.206 F 
ATOM     54  C   UNL A   1      43.336  21.864  25.588  1.00  0.00     0.006 A 
ENDBRANCH  26  47
BRANCH  38  55
ATOM     55  C   UNL A   1      45.668  29.698  28.737  1.00  0.00     0.057 A 
ATOM     56  C   UNL A   1      46.975  29.854  28.254  1.00  0.00     0.134 A 
ATOM     57  C   UNL A   1      44.644  30.314  28.008  1.00  0.00     0.134 A 
ATOM     58  F   UNL A   1      48.007  29.217  28.823  1.00  0.00    -0.206 F 
ATOM     59  C   UNL A   1      47.253  30.629  27.125  1.00  0.00     0.040 A 
ATOM     60  C   UNL A   1      44.905  31.061  26.859  1.00  0.00     0.040 A 
ATOM     61  F   UNL A   1      43.362  30.161  28.378  1.00  0.00    -0.206 F 
ATOM     62  C   UNL A   1      46.216  31.230  26.419  1.00  0.00     0.006 A 
ENDBRANCH  38  55
ENDBRANCH  12  13
ENDBRANCH   5   7
ENDBRANCH   2   3
ENDBRANCH   1   2
BRANCH   1  63
ATOM     63  C   UNL A   1      32.576  28.108  26.950  1.00  0.00     0.117 C 
BRANCH  63  64
ATOM     64  N   UNL A   1      31.270  27.455  26.934  1.00  0.00    -0.354 N 
ATOM     65  C   UNL A   1      30.787  26.383  26.212  1.00  0.00     0.243 C 
ATOM     66  H   UNL A   1      30.613  27.853  27.551  1.00  0.00     0.163 HD
ATOM     67  O   UNL A   1      29.908  25.680  26.718  1.00  0.00    -0.273 OA
BRANCH  65  68
ATOM     68  C   UNL A   1      31.426  25.990  24.893  1.00  0.00     0.181 C 
ATOM     69  C   UNL A   1      30.771  24.910  23.982  1.00  0.00     0.091 C 
ATOM     70  N   UNL A   1      32.044  27.028  24.048  1.00  0.00    -0.320 N 
ATOM     71  C   UNL A   1      31.889  24.447  23.085  1.00  0.00     0.042 A 
ATOM     72  C   UNL A   1      33.337  26.523  23.468  1.00  0.00     0.178 C 
ATOM     73  N   UNL A   1      32.062  23.257  22.440  1.00  0.00    -0.348 N 
ATOM     74  C   UNL A   1      33.056  25.163  22.866  1.00  0.00     0.081 A 
ATOM     75  C   UNL A   1      33.341  23.265  21.936  1.00  0.00     0.197 A 
ATOM     76  H   UNL A   1      31.401  22.533  22.353  1.00  0.00     0.167 HD
ATOM     77  N   UNL A   1      33.960  24.404  22.172  1.00  0.00    -0.240 NA
BRANCH  70  78
ATOM     78  C   UNL A   1      31.506  28.160  23.425  1.00  0.00     0.256 C 
ATOM     79  O   UNL A   1      32.297  29.112  23.280  1.00  0.00    -0.269 OA
BRANCH  78  80
ATOM     80  C   UNL A   1      30.125  28.493  22.871  1.00  0.00     0.061 A 
ATOM     81  C   UNL A   1      30.213  29.655  22.056  1.00  0.00     0.035 A 
ATOM     82  C   UNL A   1      28.813  28.084  23.146  1.00  0.00     0.072 A 
ATOM     83  C   UNL A   1      29.093  30.384  21.683  1.00  0.00     0.112 A 
ATOM     84  C   UNL A   1      27.744  28.900  22.731  1.00  0.00     0.132 A 
ATOM     85  Cl  UNL A   1      28.216  26.716  23.964  1.00  0.00    -0.082 Cl
ATOM     86  N   UNL A   1      27.850  30.040  22.026  1.00  0.00    -0.263 NA
ENDBRANCH  78  80
ENDBRANCH  70  78
ENDBRANCH  65  68
ENDBRANCH  63  64
ENDBRANCH   1  63
TORSDOF 12
ENDMDL
