MODEL 1
REMARK VINA RESULT:     -12.4      0.000      0.000
REMARK SMILES CN(C(=O)C[C@@H]1SC(=O)N(c2ccccc2)C1=O)c1ccccc1C(=O)NCCCNC(=O)c1ccc(-c2c3nc(c(-c4c(F)cccc4F)c4ccc([nH]4)c(-c4c(F)cccc4F)c4nc(c(-c5c(F)cccc5F)c5ccc2[nH]5)C=C4)C=C3)cc1
REMARK SMILES IDX 25 1 26 2 27 3 24 5 19 6 20 7 21 8 23 9 22 10 2 11 1 12 3 13
REMARK SMILES IDX 4 14 5 15 6 16 7 17 17 18 8 19 10 20 18 21 9 22 11 23 12 24
REMARK SMILES IDX 16 25 13 26 15 27 14 28 28 29 29 30 30 31 31 32 32 33 33 35
REMARK SMILES IDX 34 36 35 37 87 38 36 39 86 40 37 41 38 42 39 43 80 44 40 45
REMARK SMILES IDX 85 46 79 47 81 48 41 49 84 50 78 51 77 52 42 54 68 55 51 56
REMARK SMILES IDX 67 57 52 58 55 59 66 60 82 61 53 62 54 63 65 65 83 66 56 67
REMARK SMILES IDX 43 68 44 69 49 70 45 71 46 72 48 73 50 74 47 75 69 76 70 77
REMARK SMILES IDX 75 78 71 79 72 80 74 81 76 82 73 83 57 84 58 85 63 86 59 87
REMARK SMILES IDX 60 88 62 89 64 90 61 91
REMARK H PARENT 27 4 31 34 81 53 55 64
REMARK Flexibility Score: inf
ROOT
ATOM      1  C   UNL A   1      32.421  28.954  23.674  1.00  0.00     0.253 C 
ATOM      2  O   UNL A   1      33.023  28.892  22.597  1.00  0.00    -0.269 OA
ATOM      3  N   UNL A   1      33.027  29.715  24.637  1.00  0.00    -0.352 N 
ATOM      4  H   UNL A   1      33.909  30.056  24.365  1.00  0.00     0.163 HD
ENDROOT
BRANCH   1   5
ATOM      5  C   UNL A   1      31.078  28.302  23.766  1.00  0.00     0.063 A 
ATOM      6  C   UNL A   1      30.741  27.013  24.227  1.00  0.00     0.056 A 
ATOM      7  C   UNL A   1      29.405  26.562  24.109  1.00  0.00     0.027 A 
ATOM      8  C   UNL A   1      28.416  27.352  23.525  1.00  0.00     0.002 A 
ATOM      9  C   UNL A   1      30.045  29.090  23.203  1.00  0.00     0.016 A 
ATOM     10  C   UNL A   1      28.736  28.620  23.074  1.00  0.00     0.001 A 
BRANCH   6  11
ATOM     11  N   UNL A   1      31.695  26.021  24.613  1.00  0.00    -0.315 N 
ATOM     12  C   UNL A   1      31.763  25.731  26.048  1.00  0.00     0.153 C 
BRANCH  11  13
ATOM     13  C   UNL A   1      31.972  25.044  23.653  1.00  0.00     0.228 C 
ATOM     14  O   UNL A   1      32.187  25.335  22.478  1.00  0.00    -0.274 OA
BRANCH  13  15
ATOM     15  C   UNL A   1      31.944  23.590  24.088  1.00  0.00     0.125 C 
BRANCH  15  16
ATOM     16  C   UNL A   1      32.806  22.635  23.241  1.00  0.00     0.156 C 
ATOM     17  S   UNL A   1      32.564  20.926  23.799  1.00  0.00    -0.050 SA
ATOM     18  C   UNL A   1      34.318  22.773  23.321  1.00  0.00     0.248 C 
ATOM     19  C   UNL A   1      34.063  20.954  24.736  1.00  0.00     0.293 C 
ATOM     20  N   UNL A   1      34.831  22.033  24.379  1.00  0.00    -0.240 N 
ATOM     21  O   UNL A   1      34.953  23.377  22.460  1.00  0.00    -0.273 OA
ATOM     22  O   UNL A   1      34.248  20.109  25.586  1.00  0.00    -0.261 OA
BRANCH  20  23
ATOM     23  C   UNL A   1      36.114  22.321  24.957  1.00  0.00     0.053 A 
ATOM     24  C   UNL A   1      36.345  23.542  25.613  1.00  0.00     0.027 A 
ATOM     25  C   UNL A   1      37.172  21.395  24.938  1.00  0.00     0.027 A 
ATOM     26  C   UNL A   1      37.576  23.831  26.212  1.00  0.00     0.002 A 
ATOM     27  C   UNL A   1      38.407  21.685  25.531  1.00  0.00     0.002 A 
ATOM     28  C   UNL A   1      38.608  22.904  26.167  1.00  0.00     0.000 A 
ENDBRANCH  20  23
ENDBRANCH  15  16
ENDBRANCH  13  15
ENDBRANCH  11  13
ENDBRANCH   6  11
ENDBRANCH   1   5
BRANCH   3  29
ATOM     29  C   UNL A   1      32.645  30.126  25.971  1.00  0.00     0.118 C 
BRANCH  29  30
ATOM     30  C   UNL A   1      33.055  29.064  26.993  1.00  0.00     0.042 C 
BRANCH  30  31
ATOM     31  C   UNL A   1      34.535  29.087  27.389  1.00  0.00     0.118 C 
BRANCH  31  32
ATOM     32  N   UNL A   1      34.781  30.075  28.432  1.00  0.00    -0.352 N 
ATOM     33  C   UNL A   1      35.885  30.365  29.197  1.00  0.00     0.251 C 
ATOM     34  H   UNL A   1      34.003  30.646  28.628  1.00  0.00     0.163 HD
ATOM     35  O   UNL A   1      35.711  31.054  30.203  1.00  0.00    -0.269 OA
BRANCH  33  36
ATOM     36  C   UNL A   1      37.263  29.894  28.885  1.00  0.00     0.039 A 
ATOM     37  C   UNL A   1      38.094  29.528  29.957  1.00  0.00     0.014 A 
ATOM     38  C   UNL A   1      37.808  29.909  27.602  1.00  0.00     0.014 A 
ATOM     39  C   UNL A   1      39.429  29.150  29.742  1.00  0.00     0.010 A 
ATOM     40  C   UNL A   1      39.120  29.460  27.379  1.00  0.00     0.010 A 
ATOM     41  C   UNL A   1      39.955  29.087  28.445  1.00  0.00    -0.014 A 
BRANCH  41  42
ATOM     42  C   UNL A   1      41.373  28.686  28.184  1.00  0.00     0.031 A 
ATOM     43  C   UNL A   1      41.707  27.250  27.857  1.00  0.00     0.074 A 
ATOM     44  C   UNL A   1      42.379  29.581  28.275  1.00  0.00     0.049 A 
ATOM     45  N   UNL A   1      42.879  26.677  27.728  1.00  0.00    -0.248 NA
ATOM     46  C   UNL A   1      40.571  26.336  27.666  1.00  0.00     0.031 C 
ATOM     47  C   UNL A   1      42.229  31.004  28.577  1.00  0.00     0.029 A 
ATOM     48  N   UNL A   1      43.738  29.417  28.132  1.00  0.00    -0.354 N 
ATOM     49  C   UNL A   1      42.620  25.334  27.477  1.00  0.00     0.074 A 
ATOM     50  C   UNL A   1      41.183  25.171  27.503  1.00  0.00     0.031 C 
ATOM     51  C   UNL A   1      43.440  31.584  28.588  1.00  0.00     0.029 A 
ATOM     52  C   UNL A   1      44.460  30.569  28.334  1.00  0.00     0.049 A 
ATOM     53  H   UNL A   1      44.155  28.554  27.906  1.00  0.00     0.167 HD
ATOM     54  C   UNL A   1      43.493  24.327  27.230  1.00  0.00     0.037 A 
ATOM     55  C   UNL A   1      45.791  30.789  28.332  1.00  0.00     0.037 A 
ATOM     56  C   UNL A   1      44.921  24.478  27.151  1.00  0.00     0.049 A 
ATOM     57  C   UNL A   1      46.741  29.651  28.074  1.00  0.00     0.074 A 
ATOM     58  C   UNL A   1      45.875  23.515  26.862  1.00  0.00     0.029 A 
ATOM     59  N   UNL A   1      45.603  25.666  27.352  1.00  0.00    -0.354 N 
ATOM     60  N   UNL A   1      46.477  28.395  27.818  1.00  0.00    -0.248 NA
ATOM     61  C   UNL A   1      48.179  29.965  28.109  1.00  0.00     0.031 C 
ATOM     62  C   UNL A   1      47.136  24.116  26.913  1.00  0.00     0.029 A 
ATOM     63  C   UNL A   1      46.965  25.460  27.200  1.00  0.00     0.049 A 
ATOM     64  H   UNL A   1      45.183  26.530  27.569  1.00  0.00     0.167 HD
ATOM     65  C   UNL A   1      47.707  27.779  27.626  1.00  0.00     0.074 A 
ATOM     66  C   UNL A   1      48.721  28.797  27.794  1.00  0.00     0.031 C 
ATOM     67  C   UNL A   1      47.969  26.482  27.335  1.00  0.00     0.037 A 
BRANCH  54  68
ATOM     68  C   UNL A   1      42.922  22.956  27.018  1.00  0.00     0.057 A 
ATOM     69  C   UNL A   1      42.553  22.137  28.093  1.00  0.00     0.134 A 
ATOM     70  C   UNL A   1      42.697  22.468  25.725  1.00  0.00     0.134 A 
ATOM     71  F   UNL A   1      42.750  22.543  29.356  1.00  0.00    -0.206 F 
ATOM     72  C   UNL A   1      42.005  20.870  27.889  1.00  0.00     0.040 A 
ATOM     73  C   UNL A   1      42.127  21.212  25.508  1.00  0.00     0.040 A 
ATOM     74  F   UNL A   1      43.016  23.207  24.652  1.00  0.00    -0.206 F 
ATOM     75  C   UNL A   1      41.784  20.407  26.592  1.00  0.00     0.006 A 
ENDBRANCH  54  68
BRANCH  55  76
ATOM     76  C   UNL A   1      46.320  32.155  28.575  1.00  0.00     0.057 A 
ATOM     77  C   UNL A   1      46.619  32.590  29.872  1.00  0.00     0.134 A 
ATOM     78  C   UNL A   1      46.508  33.065  27.529  1.00  0.00     0.134 A 
ATOM     79  F   UNL A   1      46.434  31.772  30.917  1.00  0.00    -0.206 F 
ATOM     80  C   UNL A   1      47.069  33.888  30.122  1.00  0.00     0.040 A 
ATOM     81  C   UNL A   1      46.980  34.358  27.761  1.00  0.00     0.040 A 
ATOM     82  F   UNL A   1      46.241  32.707  26.264  1.00  0.00    -0.206 F 
ATOM     83  C   UNL A   1      47.254  34.775  29.063  1.00  0.00     0.006 A 
ENDBRANCH  55  76
BRANCH  67  84
ATOM     84  C   UNL A   1      49.399  26.089  27.118  1.00  0.00     0.057 A 
ATOM     85  C   UNL A   1      49.967  26.038  25.840  1.00  0.00     0.134 A 
ATOM     86  C   UNL A   1      50.235  25.823  28.211  1.00  0.00     0.134 A 
ATOM     87  F   UNL A   1      49.216  26.272  24.753  1.00  0.00    -0.206 F 
ATOM     88  C   UNL A   1      51.316  25.727  25.654  1.00  0.00     0.040 A 
ATOM     89  C   UNL A   1      51.589  25.530  28.039  1.00  0.00     0.040 A 
ATOM     90  F   UNL A   1      49.754  25.861  29.463  1.00  0.00    -0.206 F 
ATOM     91  C   UNL A   1      52.132  25.480  26.757  1.00  0.00     0.006 A 
ENDBRANCH  67  84
ENDBRANCH  41  42
ENDBRANCH  33  36
ENDBRANCH  31  32
ENDBRANCH  30  31
ENDBRANCH  29  30
ENDBRANCH   3  29
TORSDOF 15
ENDMDL
MODEL 2
REMARK VINA RESULT:     -12.3      0.585      5.902
REMARK SMILES CN(C(=O)C[C@@H]1SC(=O)N(c2ccccc2)C1=O)c1ccccc1C(=O)NCCCNC(=O)c1ccc(-c2c3nc(c(-c4c(F)cccc4F)c4ccc([nH]4)c(-c4c(F)cccc4F)c4nc(c(-c5c(F)cccc5F)c5ccc2[nH]5)C=C4)C=C3)cc1
REMARK SMILES IDX 25 1 26 2 27 3 24 5 19 6 20 7 21 8 23 9 22 10 2 11 1 12 3 13
REMARK SMILES IDX 4 14 5 15 6 16 7 17 17 18 8 19 10 20 18 21 9 22 11 23 12 24
REMARK SMILES IDX 16 25 13 26 15 27 14 28 28 29 29 30 30 31 31 32 32 33 33 35
REMARK SMILES IDX 34 36 35 37 87 38 36 39 86 40 37 41 38 42 39 43 80 44 40 45
REMARK SMILES IDX 85 46 79 47 81 48 41 49 84 50 78 51 77 52 42 54 68 55 51 56
REMARK SMILES IDX 67 57 52 58 55 59 66 60 82 61 53 62 54 63 65 65 83 66 56 67
REMARK SMILES IDX 43 68 44 69 49 70 45 71 46 72 48 73 50 74 47 75 69 76 70 77
REMARK SMILES IDX 75 78 71 79 72 80 74 81 76 82 73 83 57 84 58 85 63 86 59 87
REMARK SMILES IDX 60 88 62 89 64 90 61 91
REMARK H PARENT 27 4 31 34 81 53 55 64
REMARK Flexibility Score: inf
ROOT
ATOM      1  C   UNL A   1      31.922  28.911  23.675  1.00  0.00     0.253 C 
ATOM      2  O   UNL A   1      32.500  28.884  22.583  1.00  0.00    -0.269 OA
ATOM      3  N   UNL A   1      32.510  29.700  24.626  1.00  0.00    -0.352 N 
ATOM      4  H   UNL A   1      33.366  30.088  24.334  1.00  0.00     0.163 HD
ENDROOT
BRANCH   1   5
ATOM      5  C   UNL A   1      30.618  28.188  23.796  1.00  0.00     0.063 A 
ATOM      6  C   UNL A   1      30.358  26.893  24.288  1.00  0.00     0.056 A 
ATOM      7  C   UNL A   1      29.048  26.367  24.195  1.00  0.00     0.027 A 
ATOM      8  C   UNL A   1      28.010  27.087  23.607  1.00  0.00     0.002 A 
ATOM      9  C   UNL A   1      29.537  28.905  23.228  1.00  0.00     0.016 A 
ATOM     10  C   UNL A   1      28.255  28.362  23.125  1.00  0.00     0.001 A 
BRANCH   6  11
ATOM     11  N   UNL A   1      31.370  25.963  24.684  1.00  0.00    -0.315 N 
ATOM     12  C   UNL A   1      31.439  25.675  26.119  1.00  0.00     0.153 C 
BRANCH  11  13
ATOM     13  C   UNL A   1      31.720  25.009  23.726  1.00  0.00     0.228 C 
ATOM     14  O   UNL A   1      31.851  25.302  22.539  1.00  0.00    -0.274 OA
BRANCH  13  15
ATOM     15  C   UNL A   1      31.881  23.569  24.180  1.00  0.00     0.125 C 
BRANCH  15  16
ATOM     16  C   UNL A   1      32.737  22.682  23.257  1.00  0.00     0.156 C 
ATOM     17  S   UNL A   1      32.489  20.934  23.679  1.00  0.00    -0.050 SA
ATOM     18  C   UNL A   1      34.249  22.807  23.342  1.00  0.00     0.248 C 
ATOM     19  C   UNL A   1      33.991  20.882  24.609  1.00  0.00     0.293 C 
ATOM     20  N   UNL A   1      34.763  21.984  24.336  1.00  0.00    -0.240 N 
ATOM     21  O   UNL A   1      34.884  23.475  22.529  1.00  0.00    -0.273 OA
ATOM     22  O   UNL A   1      34.176  19.971  25.389  1.00  0.00    -0.261 OA
BRANCH  20  23
ATOM     23  C   UNL A   1      36.049  22.220  24.930  1.00  0.00     0.053 A 
ATOM     24  C   UNL A   1      37.065  21.252  24.844  1.00  0.00     0.027 A 
ATOM     25  C   UNL A   1      36.369  23.426  25.577  1.00  0.00     0.027 A 
ATOM     26  C   UNL A   1      38.335  21.473  25.386  1.00  0.00     0.002 A 
ATOM     27  C   UNL A   1      37.638  23.646  26.126  1.00  0.00     0.002 A 
ATOM     28  C   UNL A   1      38.621  22.669  26.031  1.00  0.00     0.000 A 
ENDBRANCH  20  23
ENDBRANCH  15  16
ENDBRANCH  13  15
ENDBRANCH  11  13
ENDBRANCH   6  11
ENDBRANCH   1   5
BRANCH   3  29
ATOM     29  C   UNL A   1      32.139  30.087  25.971  1.00  0.00     0.118 C 
BRANCH  29  30
ATOM     30  C   UNL A   1      32.539  28.997  26.967  1.00  0.00     0.042 C 
BRANCH  30  31
ATOM     31  C   UNL A   1      34.001  29.041  27.420  1.00  0.00     0.118 C 
BRANCH  31  32
ATOM     32  N   UNL A   1      34.258  30.219  28.239  1.00  0.00    -0.352 N 
ATOM     33  C   UNL A   1      35.356  30.633  28.955  1.00  0.00     0.251 C 
ATOM     34  H   UNL A   1      33.495  30.840  28.289  1.00  0.00     0.163 HD
ATOM     35  O   UNL A   1      35.184  31.523  29.789  1.00  0.00    -0.269 OA
BRANCH  33  36
ATOM     36  C   UNL A   1      36.724  30.069  28.786  1.00  0.00     0.039 A 
ATOM     37  C   UNL A   1      37.391  29.601  29.930  1.00  0.00     0.014 A 
ATOM     38  C   UNL A   1      37.419  30.090  27.578  1.00  0.00     0.014 A 
ATOM     39  C   UNL A   1      38.712  29.130  29.857  1.00  0.00     0.010 A 
ATOM     40  C   UNL A   1      38.712  29.550  27.490  1.00  0.00     0.010 A 
ATOM     41  C   UNL A   1      39.384  29.074  28.628  1.00  0.00    -0.014 A 
BRANCH  41  42
ATOM     42  C   UNL A   1      40.790  28.576  28.518  1.00  0.00     0.031 A 
ATOM     43  C   UNL A   1      41.948  29.528  28.699  1.00  0.00     0.074 A 
ATOM     44  C   UNL A   1      41.052  27.287  28.216  1.00  0.00     0.049 A 
ATOM     45  N   UNL A   1      43.230  29.325  28.514  1.00  0.00    -0.248 NA
ATOM     46  C   UNL A   1      41.617  30.895  29.130  1.00  0.00     0.031 C 
ATOM     47  C   UNL A   1      40.053  26.240  28.013  1.00  0.00     0.029 A 
ATOM     48  N   UNL A   1      42.251  26.641  28.013  1.00  0.00    -0.354 N 
ATOM     49  C   UNL A   1      43.849  30.543  28.771  1.00  0.00     0.074 A 
ATOM     50  C   UNL A   1      42.802  31.487  29.094  1.00  0.00     0.031 C 
ATOM     51  C   UNL A   1      40.674  25.084  27.725  1.00  0.00     0.029 A 
ATOM     52  C   UNL A   1      42.116  25.314  27.683  1.00  0.00     0.049 A 
ATOM     53  H   UNL A   1      43.123  27.088  28.097  1.00  0.00     0.167 HD
ATOM     54  C   UNL A   1      45.169  30.849  28.758  1.00  0.00     0.037 A 
ATOM     55  C   UNL A   1      43.042  24.385  27.366  1.00  0.00     0.037 A 
ATOM     56  C   UNL A   1      46.229  29.913  28.488  1.00  0.00     0.049 A 
ATOM     57  C   UNL A   1      44.500  24.754  27.339  1.00  0.00     0.074 A 
ATOM     58  C   UNL A   1      47.597  30.134  28.498  1.00  0.00     0.029 A 
ATOM     59  N   UNL A   1      46.042  28.579  28.171  1.00  0.00    -0.354 N 
ATOM     60  N   UNL A   1      45.068  25.904  27.605  1.00  0.00    -0.248 NA
ATOM     61  C   UNL A   1      45.449  23.692  26.963  1.00  0.00     0.031 C 
ATOM     62  C   UNL A   1      48.238  28.938  28.161  1.00  0.00     0.029 A 
ATOM     63  C   UNL A   1      47.270  27.965  27.975  1.00  0.00     0.049 A 
ATOM     64  H   UNL A   1      45.169  28.132  28.096  1.00  0.00     0.167 HD
ATOM     65  C   UNL A   1      46.434  25.695  27.466  1.00  0.00     0.074 A 
ATOM     66  C   UNL A   1      46.615  24.309  27.091  1.00  0.00     0.031 C 
ATOM     67  C   UNL A   1      47.447  26.578  27.635  1.00  0.00     0.037 A 
BRANCH  54  68
ATOM     68  C   UNL A   1      45.551  32.270  29.053  1.00  0.00     0.057 A 
ATOM     69  C   UNL A   1      45.844  32.700  30.354  1.00  0.00     0.134 A 
ATOM     70  C   UNL A   1      45.670  33.207  28.019  1.00  0.00     0.134 A 
ATOM     71  F   UNL A   1      45.740  31.853  31.389  1.00  0.00    -0.206 F 
ATOM     72  C   UNL A   1      46.216  34.018  30.619  1.00  0.00     0.040 A 
ATOM     73  C   UNL A   1      46.065  34.522  28.269  1.00  0.00     0.040 A 
ATOM     74  F   UNL A   1      45.416  32.857  26.749  1.00  0.00    -0.206 F 
ATOM     75  C   UNL A   1      46.334  34.932  29.573  1.00  0.00     0.006 A 
ENDBRANCH  54  68
BRANCH  55  76
ATOM     76  C   UNL A   1      42.624  22.996  27.051  1.00  0.00     0.057 A 
ATOM     77  C   UNL A   1      42.275  22.101  28.070  1.00  0.00     0.134 A 
ATOM     78  C   UNL A   1      42.593  22.519  25.735  1.00  0.00     0.134 A 
ATOM     79  F   UNL A   1      42.312  22.492  29.352  1.00  0.00    -0.206 F 
ATOM     80  C   UNL A   1      41.929  20.777  27.794  1.00  0.00     0.040 A 
ATOM     81  C   UNL A   1      42.226  21.205  25.442  1.00  0.00     0.040 A 
ATOM     82  F   UNL A   1      42.914  23.329  24.715  1.00  0.00    -0.206 F 
ATOM     83  C   UNL A   1      41.900  20.327  26.476  1.00  0.00     0.006 A 
ENDBRANCH  55  76
BRANCH  67  84
ATOM     84  C   UNL A   1      48.849  26.071  27.478  1.00  0.00     0.057 A 
ATOM     85  C   UNL A   1      49.493  26.048  26.236  1.00  0.00     0.134 A 
ATOM     86  C   UNL A   1      49.585  25.664  28.598  1.00  0.00     0.134 A 
ATOM     87  F   UNL A   1      48.839  26.415  25.124  1.00  0.00    -0.206 F 
ATOM     88  C   UNL A   1      50.819  25.629  26.111  1.00  0.00     0.040 A 
ATOM     89  C   UNL A   1      50.918  25.261  28.489  1.00  0.00     0.040 A 
ATOM     90  F   UNL A   1      49.028  25.668  29.819  1.00  0.00    -0.206 F 
ATOM     91  C   UNL A   1      51.538  25.241  27.242  1.00  0.00     0.006 A 
ENDBRANCH  67  84
ENDBRANCH  41  42
ENDBRANCH  33  36
ENDBRANCH  31  32
ENDBRANCH  30  31
ENDBRANCH  29  30
ENDBRANCH   3  29
TORSDOF 15
ENDMDL
MODEL 3
REMARK VINA RESULT:     -12.3      5.309     10.058
REMARK SMILES CN(C(=O)C[C@@H]1SC(=O)N(c2ccccc2)C1=O)c1ccccc1C(=O)NCCCNC(=O)c1ccc(-c2c3nc(c(-c4c(F)cccc4F)c4ccc([nH]4)c(-c4c(F)cccc4F)c4nc(c(-c5c(F)cccc5F)c5ccc2[nH]5)C=C4)C=C3)cc1
REMARK SMILES IDX 25 1 26 2 27 3 24 5 19 6 20 7 21 8 23 9 22 10 2 11 1 12 3 13
REMARK SMILES IDX 4 14 5 15 6 16 7 17 17 18 8 19 10 20 18 21 9 22 11 23 12 24
REMARK SMILES IDX 16 25 13 26 15 27 14 28 28 29 29 30 30 31 31 32 32 33 33 35
REMARK SMILES IDX 34 36 35 37 87 38 36 39 86 40 37 41 38 42 39 43 80 44 40 45
REMARK SMILES IDX 85 46 79 47 81 48 41 49 84 50 78 51 77 52 42 54 68 55 51 56
REMARK SMILES IDX 67 57 52 58 55 59 66 60 82 61 53 62 54 63 65 65 83 66 56 67
REMARK SMILES IDX 43 68 44 69 49 70 45 71 46 72 48 73 50 74 47 75 69 76 70 77
REMARK SMILES IDX 75 78 71 79 72 80 74 81 76 82 73 83 57 84 58 85 63 86 59 87
REMARK SMILES IDX 60 88 62 89 64 90 61 91
REMARK H PARENT 27 4 31 34 81 53 55 64
REMARK Flexibility Score: inf
ROOT
ATOM      1  C   UNL A   1      34.327  21.367  26.361  1.00  0.00     0.253 C 
ATOM      2  O   UNL A   1      33.668  21.479  27.400  1.00  0.00    -0.269 OA
ATOM      3  N   UNL A   1      35.664  21.634  26.488  1.00  0.00    -0.352 N 
ATOM      4  H   UNL A   1      35.913  21.954  27.385  1.00  0.00     0.163 HD
ENDROOT
BRANCH   1   5
ATOM      5  C   UNL A   1      33.632  20.856  25.140  1.00  0.00     0.063 A 
ATOM      6  C   UNL A   1      33.037  21.577  24.085  1.00  0.00     0.056 A 
ATOM      7  C   UNL A   1      32.323  20.876  23.083  1.00  0.00     0.027 A 
ATOM      8  C   UNL A   1      32.173  19.492  23.126  1.00  0.00     0.002 A 
ATOM      9  C   UNL A   1      33.483  19.448  25.140  1.00  0.00     0.016 A 
ATOM     10  C   UNL A   1      32.757  18.775  24.155  1.00  0.00     0.001 A 
BRANCH   6  11
ATOM     11  N   UNL A   1      32.905  23.000  24.055  1.00  0.00    -0.315 N 
ATOM     12  C   UNL A   1      33.137  23.631  22.753  1.00  0.00     0.153 C 
BRANCH  11  13
ATOM     13  C   UNL A   1      32.015  23.543  24.985  1.00  0.00     0.228 C 
ATOM     14  O   UNL A   1      30.934  23.013  25.232  1.00  0.00    -0.274 OA
BRANCH  13  15
ATOM     15  C   UNL A   1      32.395  24.853  25.653  1.00  0.00     0.125 C 
BRANCH  15  16
ATOM     16  C   UNL A   1      31.288  25.924  25.675  1.00  0.00     0.156 C 
ATOM     17  S   UNL A   1      31.074  26.622  24.014  1.00  0.00    -0.050 SA
ATOM     18  C   UNL A   1      31.517  27.175  26.506  1.00  0.00     0.248 C 
ATOM     19  C   UNL A   1      32.034  28.049  24.421  1.00  0.00     0.293 C 
ATOM     20  N   UNL A   1      32.206  28.138  25.780  1.00  0.00    -0.240 N 
ATOM     21  O   UNL A   1      31.025  27.299  27.626  1.00  0.00    -0.273 OA
ATOM     22  O   UNL A   1      32.469  28.747  23.530  1.00  0.00    -0.261 OA
BRANCH  20  23
ATOM     23  C   UNL A   1      32.933  29.198  26.420  1.00  0.00     0.053 A 
ATOM     24  C   UNL A   1      34.282  29.027  26.775  1.00  0.00     0.027 A 
ATOM     25  C   UNL A   1      32.359  30.454  26.680  1.00  0.00     0.027 A 
ATOM     26  C   UNL A   1      35.021  30.056  27.369  1.00  0.00     0.002 A 
ATOM     27  C   UNL A   1      33.095  31.484  27.281  1.00  0.00     0.002 A 
ATOM     28  C   UNL A   1      34.425  31.283  27.626  1.00  0.00     0.000 A 
ENDBRANCH  20  23
ENDBRANCH  15  16
ENDBRANCH  13  15
ENDBRANCH  11  13
ENDBRANCH   6  11
ENDBRANCH   1   5
BRANCH   3  29
ATOM     29  C   UNL A   1      36.790  21.542  25.584  1.00  0.00     0.118 C 
BRANCH  29  30
ATOM     30  C   UNL A   1      37.087  22.909  24.964  1.00  0.00     0.042 C 
BRANCH  30  31
ATOM     31  C   UNL A   1      37.814  23.893  25.886  1.00  0.00     0.118 C 
BRANCH  31  32
ATOM     32  N   UNL A   1      39.230  23.562  25.989  1.00  0.00    -0.352 N 
ATOM     33  C   UNL A   1      40.297  24.208  26.566  1.00  0.00     0.251 C 
ATOM     34  H   UNL A   1      39.469  22.709  25.559  1.00  0.00     0.163 HD
ATOM     35  O   UNL A   1      41.426  23.838  26.240  1.00  0.00    -0.269 OA
BRANCH  33  36
ATOM     36  C   UNL A   1      40.167  25.321  27.547  1.00  0.00     0.039 A 
ATOM     37  C   UNL A   1      41.081  26.384  27.465  1.00  0.00     0.014 A 
ATOM     38  C   UNL A   1      39.266  25.305  28.611  1.00  0.00     0.014 A 
ATOM     39  C   UNL A   1      41.067  27.427  28.405  1.00  0.00     0.010 A 
ATOM     40  C   UNL A   1      39.202  26.384  29.508  1.00  0.00     0.010 A 
ATOM     41  C   UNL A   1      40.109  27.455  29.427  1.00  0.00    -0.014 A 
BRANCH  41  42
ATOM     42  C   UNL A   1      40.067  28.552  30.443  1.00  0.00     0.031 A 
ATOM     43  C   UNL A   1      40.981  28.509  31.645  1.00  0.00     0.074 A 
ATOM     44  C   UNL A   1      39.192  29.574  30.332  1.00  0.00     0.049 A 
ATOM     45  N   UNL A   1      41.009  29.287  32.699  1.00  0.00    -0.248 NA
ATOM     46  C   UNL A   1      41.988  27.436  31.669  1.00  0.00     0.031 C 
ATOM     47  C   UNL A   1      38.245  29.768  29.235  1.00  0.00     0.029 A 
ATOM     48  N   UNL A   1      38.951  30.641  31.167  1.00  0.00    -0.354 N 
ATOM     49  C   UNL A   1      42.006  28.778  33.523  1.00  0.00     0.074 A 
ATOM     50  C   UNL A   1      42.539  27.606  32.862  1.00  0.00     0.031 C 
ATOM     51  C   UNL A   1      37.534  30.885  29.457  1.00  0.00     0.029 A 
ATOM     52  C   UNL A   1      37.944  31.469  30.732  1.00  0.00     0.049 A 
ATOM     53  H   UNL A   1      39.453  30.796  31.999  1.00  0.00     0.167 HD
ATOM     54  C   UNL A   1      42.454  29.247  34.712  1.00  0.00     0.037 A 
ATOM     55  C   UNL A   1      37.397  32.565  31.296  1.00  0.00     0.037 A 
ATOM     56  C   UNL A   1      41.971  30.437  35.362  1.00  0.00     0.049 A 
ATOM     57  C   UNL A   1      37.897  33.056  32.628  1.00  0.00     0.074 A 
ATOM     58  C   UNL A   1      42.402  31.006  36.549  1.00  0.00     0.029 A 
ATOM     59  N   UNL A   1      40.959  31.248  34.875  1.00  0.00    -0.354 N 
ATOM     60  N   UNL A   1      38.854  32.574  33.380  1.00  0.00    -0.248 NA
ATOM     61  C   UNL A   1      37.237  34.246  33.190  1.00  0.00     0.031 C 
ATOM     62  C   UNL A   1      41.633  32.147  36.795  1.00  0.00     0.029 A 
ATOM     63  C   UNL A   1      40.747  32.307  35.743  1.00  0.00     0.049 A 
ATOM     64  H   UNL A   1      40.465  31.094  34.038  1.00  0.00     0.167 HD
ATOM     65  C   UNL A   1      38.934  33.418  34.481  1.00  0.00     0.074 A 
ATOM     66  C   UNL A   1      37.931  34.444  34.301  1.00  0.00     0.031 C 
ATOM     67  C   UNL A   1      39.769  33.345  35.545  1.00  0.00     0.037 A 
BRANCH  54  68
ATOM     68  C   UNL A   1      43.537  28.467  35.398  1.00  0.00     0.057 A 
ATOM     69  C   UNL A   1      44.893  28.719  35.155  1.00  0.00     0.134 A 
ATOM     70  C   UNL A   1      43.220  27.486  36.345  1.00  0.00     0.134 A 
ATOM     71  F   UNL A   1      45.262  29.641  34.253  1.00  0.00    -0.206 F 
ATOM     72  C   UNL A   1      45.896  28.003  35.810  1.00  0.00     0.040 A 
ATOM     73  C   UNL A   1      44.215  26.780  37.025  1.00  0.00     0.040 A 
ATOM     74  F   UNL A   1      41.941  27.205  36.634  1.00  0.00    -0.206 F 
ATOM     75  C   UNL A   1      45.557  27.035  36.754  1.00  0.00     0.006 A 
ENDBRANCH  54  68
BRANCH  55  76
ATOM     76  C   UNL A   1      36.306  33.294  30.601  1.00  0.00     0.057 A 
ATOM     77  C   UNL A   1      34.976  33.168  31.020  1.00  0.00     0.134 A 
ATOM     78  C   UNL A   1      36.558  34.103  29.488  1.00  0.00     0.134 A 
ATOM     79  F   UNL A   1      34.669  32.385  32.065  1.00  0.00    -0.206 F 
ATOM     80  C   UNL A   1      33.933  33.806  30.346  1.00  0.00     0.040 A 
ATOM     81  C   UNL A   1      35.529  34.767  28.819  1.00  0.00     0.040 A 
ATOM     82  F   UNL A   1      37.811  34.265  29.040  1.00  0.00    -0.206 F 
ATOM     83  C   UNL A   1      34.209  34.612  29.244  1.00  0.00     0.006 A 
ENDBRANCH  55  76
BRANCH  67  84
ATOM     84  C   UNL A   1      39.685  34.431  36.575  1.00  0.00     0.057 A 
ATOM     85  C   UNL A   1      38.927  34.285  37.743  1.00  0.00     0.134 A 
ATOM     86  C   UNL A   1      40.425  35.610  36.425  1.00  0.00     0.134 A 
ATOM     87  F   UNL A   1      38.188  33.183  37.941  1.00  0.00    -0.206 F 
ATOM     88  C   UNL A   1      38.903  35.279  38.724  1.00  0.00     0.040 A 
ATOM     89  C   UNL A   1      40.424  36.603  37.407  1.00  0.00     0.040 A 
ATOM     90  F   UNL A   1      41.176  35.809  35.330  1.00  0.00    -0.206 F 
ATOM     91  C   UNL A   1      39.659  36.439  38.560  1.00  0.00     0.006 A 
ENDBRANCH  67  84
ENDBRANCH  41  42
ENDBRANCH  33  36
ENDBRANCH  31  32
ENDBRANCH  30  31
ENDBRANCH  29  30
ENDBRANCH   3  29
TORSDOF 15
ENDMDL
