MODEL 1
REMARK VINA RESULT:     -10.3      0.000      0.000
REMARK SMILES C[C@H](Sc1ccc(C(=O)NCCCNC(=O)c2ccc(-c3c4nc(c(-c5c(F)cccc5F)c5ccc([nH]5)c(-c5c(F)cccc5F)c5nc(c(-c6c(F)cccc6F)c6ccc3[nH]6)C=C5)C=C4)cc2)cn1)[C@@H](C)O
REMARK SMILES IDX 11 1 10 2 8 3 9 4 7 6 4 7 5 8 72 9 6 10 71 11 3 12 2 13 1 14
REMARK SMILES IDX 73 15 74 16 75 17 12 19 13 20 14 21 15 22 16 24 17 25 18 26
REMARK SMILES IDX 70 27 19 28 69 29 20 30 21 31 22 32 63 33 23 34 68 35 62 36
REMARK SMILES IDX 64 37 24 38 67 39 61 40 60 41 25 43 51 44 34 45 50 46 35 47
REMARK SMILES IDX 38 48 49 49 65 50 36 51 37 52 48 54 66 55 39 56 26 57 27 58
REMARK SMILES IDX 32 59 28 60 29 61 31 62 33 63 30 64 52 65 53 66 58 67 54 68
REMARK SMILES IDX 55 69 57 70 59 71 56 72 40 73 41 74 46 75 42 76 43 77 45 78
REMARK SMILES IDX 47 79 44 80
REMARK H PARENT 10 5 75 18 14 23 64 42 38 53
REMARK Flexibility Score: inf
ROOT
ATOM      1  C   UNL A   1      41.353  19.575  26.127  1.00  0.00     0.118 C 
ENDROOT
BRANCH   1   2
ATOM      2  N   UNL A   1      42.532  18.829  25.738  1.00  0.00    -0.352 N 
ATOM      3  C   UNL A   1      43.809  19.162  25.377  1.00  0.00     0.252 C 
ATOM      4  O   UNL A   1      44.553  18.216  25.105  1.00  0.00    -0.269 OA
ATOM      5  H   UNL A   1      42.379  17.856  25.734  1.00  0.00     0.163 HD
BRANCH   3   6
ATOM      6  C   UNL A   1      44.353  20.542  25.274  1.00  0.00     0.058 A 
ATOM      7  C   UNL A   1      45.688  22.974  24.974  1.00  0.00     0.096 A 
ATOM      8  C   UNL A   1      44.326  22.963  25.228  1.00  0.00     0.036 A 
ATOM      9  N   UNL A   1      46.400  21.830  24.932  1.00  0.00    -0.249 NA
ATOM     10  C   UNL A   1      43.654  21.741  25.337  1.00  0.00     0.018 A 
ATOM     11  C   UNL A   1      45.731  20.658  25.098  1.00  0.00     0.126 A 
BRANCH   7  12
ATOM     12  S   UNL A   1      46.613  24.445  24.626  1.00  0.00    -0.101 SA
BRANCH  12  13
ATOM     13  C   UNL A   1      45.914  25.705  25.778  1.00  0.00     0.078 C 
ATOM     14  C   UNL A   1      46.761  25.606  27.058  1.00  0.00     0.022 C 
BRANCH  13  15
ATOM     15  C   UNL A   1      45.903  27.170  25.267  1.00  0.00     0.124 C 
ATOM     16  C   UNL A   1      46.978  27.548  24.253  1.00  0.00     0.039 C 
BRANCH  15  17
ATOM     17  O   UNL A   1      44.641  27.430  24.627  1.00  0.00    -0.392 OA
ATOM     18  H   UNL A   1      44.280  26.600  24.275  1.00  0.00     0.210 HD
ENDBRANCH  15  17
ENDBRANCH  13  15
ENDBRANCH  12  13
ENDBRANCH   7  12
ENDBRANCH   3   6
ENDBRANCH   1   2
BRANCH   1  19
ATOM     19  C   UNL A   1      41.462  20.129  27.547  1.00  0.00     0.042 C 
BRANCH  19  20
ATOM     20  C   UNL A   1      40.827  21.515  27.684  1.00  0.00     0.118 C 
BRANCH  20  21
ATOM     21  N   UNL A   1      39.750  21.702  26.719  1.00  0.00    -0.352 N 
ATOM     22  C   UNL A   1      38.965  22.787  26.442  1.00  0.00     0.251 C 
ATOM     23  H   UNL A   1      39.553  20.908  26.171  1.00  0.00     0.163 HD
ATOM     24  O   UNL A   1      37.965  22.630  25.747  1.00  0.00    -0.269 OA
BRANCH  22  25
ATOM     25  C   UNL A   1      39.297  24.134  26.949  1.00  0.00     0.039 A 
ATOM     26  C   UNL A   1      39.982  25.008  26.097  1.00  0.00     0.014 A 
ATOM     27  C   UNL A   1      39.044  24.509  28.272  1.00  0.00     0.014 A 
ATOM     28  C   UNL A   1      40.401  26.253  26.563  1.00  0.00     0.010 A 
ATOM     29  C   UNL A   1      39.403  25.779  28.718  1.00  0.00     0.010 A 
ATOM     30  C   UNL A   1      40.107  26.652  27.876  1.00  0.00    -0.014 A 
BRANCH  30  31
ATOM     31  C   UNL A   1      40.572  27.964  28.387  1.00  0.00     0.031 A 
ATOM     32  C   UNL A   1      42.044  28.254  28.492  1.00  0.00     0.074 A 
ATOM     33  C   UNL A   1      39.668  28.881  28.777  1.00  0.00     0.049 A 
ATOM     34  N   UNL A   1      42.645  29.333  28.926  1.00  0.00    -0.248 NA
ATOM     35  C   UNL A   1      42.963  27.182  28.079  1.00  0.00     0.031 C 
ATOM     36  C   UNL A   1      38.216  28.696  28.764  1.00  0.00     0.029 A 
ATOM     37  N   UNL A   1      39.839  30.152  29.261  1.00  0.00    -0.354 N 
ATOM     38  C   UNL A   1      44.006  29.062  28.855  1.00  0.00     0.074 A 
ATOM     39  C   UNL A   1      44.142  27.702  28.385  1.00  0.00     0.031 C 
ATOM     40  C   UNL A   1      37.627  29.824  29.194  1.00  0.00     0.029 A 
ATOM     41  C   UNL A   1      38.658  30.798  29.534  1.00  0.00     0.049 A 
ATOM     42  H   UNL A   1      40.724  30.563  29.400  1.00  0.00     0.167 HD
ATOM     43  C   UNL A   1      45.048  29.882  29.135  1.00  0.00     0.037 A 
ATOM     44  C   UNL A   1      38.436  32.041  29.998  1.00  0.00     0.037 A 
ATOM     45  C   UNL A   1      44.907  31.246  29.573  1.00  0.00     0.049 A 
ATOM     46  C   UNL A   1      39.608  32.942  30.266  1.00  0.00     0.074 A 
ATOM     47  C   UNL A   1      45.897  32.174  29.841  1.00  0.00     0.029 A 
ATOM     48  N   UNL A   1      43.693  31.877  29.802  1.00  0.00    -0.354 N 
ATOM     49  N   UNL A   1      40.889  32.693  30.141  1.00  0.00    -0.248 NA
ATOM     50  C   UNL A   1      39.301  34.304  30.723  1.00  0.00     0.031 C 
ATOM     51  C   UNL A   1      45.282  33.360  30.258  1.00  0.00     0.029 A 
ATOM     52  C   UNL A   1      43.909  33.181  30.212  1.00  0.00     0.049 A 
ATOM     53  H   UNL A   1      42.809  31.458  29.690  1.00  0.00     0.167 HD
ATOM     54  C   UNL A   1      41.540  33.873  30.474  1.00  0.00     0.074 A 
ATOM     55  C   UNL A   1      40.511  34.841  30.793  1.00  0.00     0.031 C 
ATOM     56  C   UNL A   1      42.870  34.132  30.513  1.00  0.00     0.037 A 
BRANCH  43  57
ATOM     57  C   UNL A   1      46.430  29.321  28.967  1.00  0.00     0.057 A 
ATOM     58  C   UNL A   1      47.153  29.482  27.777  1.00  0.00     0.134 A 
ATOM     59  C   UNL A   1      47.056  28.629  30.012  1.00  0.00     0.134 A 
ATOM     60  F   UNL A   1      46.607  30.121  26.732  1.00  0.00    -0.206 F 
ATOM     61  C   UNL A   1      48.435  28.950  27.622  1.00  0.00     0.040 A 
ATOM     62  C   UNL A   1      48.347  28.116  29.878  1.00  0.00     0.040 A 
ATOM     63  F   UNL A   1      46.423  28.443  31.180  1.00  0.00    -0.206 F 
ATOM     64  C   UNL A   1      49.038  28.270  28.678  1.00  0.00     0.006 A 
ENDBRANCH  43  57
BRANCH  44  65
ATOM     65  C   UNL A   1      37.045  32.521  30.193  1.00  0.00     0.057 A 
ATOM     66  C   UNL A   1      36.369  33.199  29.172  1.00  0.00     0.134 A 
ATOM     67  C   UNL A   1      36.362  32.315  31.396  1.00  0.00     0.134 A 
ATOM     68  F   UNL A   1      36.979  33.438  28.002  1.00  0.00    -0.206 F 
ATOM     69  C   UNL A   1      35.068  33.674  29.346  1.00  0.00     0.040 A 
ATOM     70  C   UNL A   1      35.052  32.764  31.576  1.00  0.00     0.040 A 
ATOM     71  F   UNL A   1      36.951  31.662  32.407  1.00  0.00    -0.206 F 
ATOM     72  C   UNL A   1      34.405  33.452  30.552  1.00  0.00     0.006 A 
ENDBRANCH  44  65
BRANCH  56  73
ATOM     73  C   UNL A   1      43.279  35.530  30.871  1.00  0.00     0.057 A 
ATOM     74  C   UNL A   1      43.476  35.927  32.199  1.00  0.00     0.134 A 
ATOM     75  C   UNL A   1      43.492  36.486  29.869  1.00  0.00     0.134 A 
ATOM     76  F   UNL A   1      43.273  35.061  33.204  1.00  0.00    -0.206 F 
ATOM     77  C   UNL A   1      43.842  37.234  32.521  1.00  0.00     0.040 A 
ATOM     78  C   UNL A   1      43.884  37.789  30.178  1.00  0.00     0.040 A 
ATOM     79  F   UNL A   1      43.328  36.167  28.576  1.00  0.00    -0.206 F 
ATOM     80  C   UNL A   1      44.051  38.168  31.508  1.00  0.00     0.006 A 
ENDBRANCH  56  73
ENDBRANCH  30  31
ENDBRANCH  22  25
ENDBRANCH  20  21
ENDBRANCH  19  20
ENDBRANCH   1  19
TORSDOF 14
ENDMDL
MODEL 2
REMARK VINA RESULT:     -10.2      4.732     10.413
REMARK SMILES C[C@H](Sc1ccc(C(=O)NCCCNC(=O)c2ccc(-c3c4nc(c(-c5c(F)cccc5F)c5ccc([nH]5)c(-c5c(F)cccc5F)c5nc(c(-c6c(F)cccc6F)c6ccc3[nH]6)C=C5)C=C4)cc2)cn1)[C@@H](C)O
REMARK SMILES IDX 11 1 10 2 8 3 9 4 7 6 4 7 5 8 72 9 6 10 71 11 3 12 2 13 1 14
REMARK SMILES IDX 73 15 74 16 75 17 12 19 13 20 14 21 15 22 16 24 17 25 18 26
REMARK SMILES IDX 70 27 19 28 69 29 20 30 21 31 22 32 63 33 23 34 68 35 62 36
REMARK SMILES IDX 64 37 24 38 67 39 61 40 60 41 25 43 51 44 34 45 50 46 35 47
REMARK SMILES IDX 38 48 49 49 65 50 36 51 37 52 48 54 66 55 39 56 26 57 27 58
REMARK SMILES IDX 32 59 28 60 29 61 31 62 33 63 30 64 52 65 53 66 58 67 54 68
REMARK SMILES IDX 55 69 57 70 59 71 56 72 40 73 41 74 46 75 42 76 43 77 45 78
REMARK SMILES IDX 47 79 44 80
REMARK H PARENT 10 5 75 18 14 23 64 42 38 53
REMARK Flexibility Score: inf
ROOT
ATOM      1  C   UNL A   1      35.148  34.917  32.849  1.00  0.00     0.118 C 
ENDROOT
BRANCH   1   2
ATOM      2  N   UNL A   1      35.306  34.654  34.264  1.00  0.00    -0.352 N 
ATOM      3  C   UNL A   1      36.090  33.814  35.009  1.00  0.00     0.252 C 
ATOM      4  O   UNL A   1      35.933  33.878  36.231  1.00  0.00    -0.269 OA
ATOM      5  H   UNL A   1      34.712  35.209  34.820  1.00  0.00     0.163 HD
BRANCH   3   6
ATOM      6  C   UNL A   1      37.080  32.843  34.473  1.00  0.00     0.058 A 
ATOM      7  C   UNL A   1      39.182  31.188  33.682  1.00  0.00     0.096 A 
ATOM      8  C   UNL A   1      37.890  30.901  33.274  1.00  0.00     0.036 A 
ATOM      9  N   UNL A   1      39.458  32.292  34.403  1.00  0.00    -0.249 NA
ATOM     10  C   UNL A   1      36.834  31.710  33.707  1.00  0.00     0.018 A 
ATOM     11  C   UNL A   1      38.420  33.094  34.762  1.00  0.00     0.126 A 
BRANCH   7  12
ATOM     12  S   UNL A   1      40.573  30.136  33.362  1.00  0.00    -0.101 SA
BRANCH  12  13
ATOM     13  C   UNL A   1      40.926  29.342  34.989  1.00  0.00     0.078 C 
ATOM     14  C   UNL A   1      41.601  28.001  34.653  1.00  0.00     0.022 C 
BRANCH  13  15
ATOM     15  C   UNL A   1      41.820  30.149  35.966  1.00  0.00     0.124 C 
ATOM     16  C   UNL A   1      42.906  31.017  35.341  1.00  0.00     0.039 C 
BRANCH  15  17
ATOM     17  O   UNL A   1      40.987  31.040  36.730  1.00  0.00    -0.392 OA
ATOM     18  H   UNL A   1      41.527  31.765  37.083  1.00  0.00     0.210 HD
ENDBRANCH  15  17
ENDBRANCH  13  15
ENDBRANCH  12  13
ENDBRANCH   7  12
ENDBRANCH   3   6
ENDBRANCH   1   2
BRANCH   1  19
ATOM     19  C   UNL A   1      33.681  35.065  32.450  1.00  0.00     0.042 C 
BRANCH  19  20
ATOM     20  C   UNL A   1      33.493  35.994  31.248  1.00  0.00     0.118 C 
BRANCH  20  21
ATOM     21  N   UNL A   1      32.793  35.319  30.161  1.00  0.00    -0.352 N 
ATOM     22  C   UNL A   1      33.240  34.461  29.194  1.00  0.00     0.251 C 
ATOM     23  H   UNL A   1      31.830  35.516  30.115  1.00  0.00     0.163 HD
ATOM     24  O   UNL A   1      32.505  34.210  28.243  1.00  0.00    -0.269 OA
BRANCH  22  25
ATOM     25  C   UNL A   1      34.574  33.831  29.274  1.00  0.00     0.039 A 
ATOM     26  C   UNL A   1      34.726  32.718  30.108  1.00  0.00     0.014 A 
ATOM     27  C   UNL A   1      35.689  34.377  28.631  1.00  0.00     0.014 A 
ATOM     28  C   UNL A   1      35.985  32.148  30.289  1.00  0.00     0.010 A 
ATOM     29  C   UNL A   1      36.936  33.767  28.759  1.00  0.00     0.010 A 
ATOM     30  C   UNL A   1      37.099  32.664  29.609  1.00  0.00    -0.014 A 
BRANCH  30  31
ATOM     31  C   UNL A   1      38.446  32.080  29.818  1.00  0.00     0.031 A 
ATOM     32  C   UNL A   1      39.496  32.852  30.567  1.00  0.00     0.074 A 
ATOM     33  C   UNL A   1      38.727  30.866  29.310  1.00  0.00     0.049 A 
ATOM     34  N   UNL A   1      40.732  32.518  30.839  1.00  0.00    -0.248 NA
ATOM     35  C   UNL A   1      39.116  34.188  31.055  1.00  0.00     0.031 C 
ATOM     36  C   UNL A   1      37.805  30.043  28.527  1.00  0.00     0.029 A 
ATOM     37  N   UNL A   1      39.872  30.114  29.378  1.00  0.00    -0.354 N 
ATOM     38  C   UNL A   1      41.279  33.605  31.510  1.00  0.00     0.074 A 
ATOM     39  C   UNL A   1      40.258  34.627  31.562  1.00  0.00     0.031 C 
ATOM     40  C   UNL A   1      38.411  28.887  28.209  1.00  0.00     0.029 A 
ATOM     41  C   UNL A   1      39.768  28.900  28.745  1.00  0.00     0.049 A 
ATOM     42  H   UNL A   1      40.690  30.415  29.837  1.00  0.00     0.167 HD
ATOM     43  C   UNL A   1      42.514  33.730  32.056  1.00  0.00     0.037 A 
ATOM     44  C   UNL A   1      40.667  27.905  28.621  1.00  0.00     0.037 A 
ATOM     45  C   UNL A   1      43.516  32.697  32.029  1.00  0.00     0.049 A 
ATOM     46  C   UNL A   1      42.015  28.054  29.265  1.00  0.00     0.074 A 
ATOM     47  C   UNL A   1      44.780  32.705  32.589  1.00  0.00     0.029 A 
ATOM     48  N   UNL A   1      43.359  31.465  31.410  1.00  0.00    -0.354 N 
ATOM     49  N   UNL A   1      42.500  29.065  29.946  1.00  0.00    -0.248 NA
ATOM     50  C   UNL A   1      42.936  26.916  29.139  1.00  0.00     0.031 C 
ATOM     51  C   UNL A   1      45.400  31.487  32.286  1.00  0.00     0.029 A 
ATOM     52  C   UNL A   1      44.507  30.707  31.571  1.00  0.00     0.049 A 
ATOM     53  H   UNL A   1      42.552  31.174  30.928  1.00  0.00     0.167 HD
ATOM     54  C   UNL A   1      43.768  28.674  30.355  1.00  0.00     0.074 A 
ATOM     55  C   UNL A   1      43.971  27.329  29.856  1.00  0.00     0.031 C 
ATOM     56  C   UNL A   1      44.683  29.366  31.077  1.00  0.00     0.037 A 
BRANCH  43  57
ATOM     57  C   UNL A   1      42.840  35.030  32.731  1.00  0.00     0.057 A 
ATOM     58  C   UNL A   1      43.449  36.087  32.041  1.00  0.00     0.134 A 
ATOM     59  C   UNL A   1      42.525  35.238  34.079  1.00  0.00     0.134 A 
ATOM     60  F   UNL A   1      43.790  35.950  30.751  1.00  0.00    -0.206 F 
ATOM     61  C   UNL A   1      43.759  37.293  32.675  1.00  0.00     0.040 A 
ATOM     62  C   UNL A   1      42.805  36.447  34.717  1.00  0.00     0.040 A 
ATOM     63  F   UNL A   1      41.936  34.270  34.798  1.00  0.00    -0.206 F 
ATOM     64  C   UNL A   1      43.431  37.477  34.017  1.00  0.00     0.006 A 
ENDBRANCH  43  57
BRANCH  44  65
ATOM     65  C   UNL A   1      40.301  26.664  27.896  1.00  0.00     0.057 A 
ATOM     66  C   UNL A   1      40.772  26.423  26.599  1.00  0.00     0.134 A 
ATOM     67  C   UNL A   1      39.480  25.692  28.476  1.00  0.00     0.134 A 
ATOM     68  F   UNL A   1      41.552  27.325  25.986  1.00  0.00    -0.206 F 
ATOM     69  C   UNL A   1      40.421  25.270  25.896  1.00  0.00     0.040 A 
ATOM     70  C   UNL A   1      39.139  24.522  27.794  1.00  0.00     0.040 A 
ATOM     71  F   UNL A   1      39.008  25.859  29.720  1.00  0.00    -0.206 F 
ATOM     72  C   UNL A   1      39.604  24.313  26.497  1.00  0.00     0.006 A 
ENDBRANCH  44  65
BRANCH  56  73
ATOM     73  C   UNL A   1      45.964  28.659  31.405  1.00  0.00     0.057 A 
ATOM     74  C   UNL A   1      47.094  28.753  30.584  1.00  0.00     0.134 A 
ATOM     75  C   UNL A   1      46.070  27.885  32.569  1.00  0.00     0.134 A 
ATOM     76  F   UNL A   1      47.051  29.468  29.449  1.00  0.00    -0.206 F 
ATOM     77  C   UNL A   1      48.276  28.079  30.893  1.00  0.00     0.040 A 
ATOM     78  C   UNL A   1      47.255  27.227  32.901  1.00  0.00     0.040 A 
ATOM     79  F   UNL A   1      45.026  27.761  33.402  1.00  0.00    -0.206 F 
ATOM     80  C   UNL A   1      48.360  27.317  32.056  1.00  0.00     0.006 A 
ENDBRANCH  56  73
ENDBRANCH  30  31
ENDBRANCH  22  25
ENDBRANCH  20  21
ENDBRANCH  19  20
ENDBRANCH   1  19
TORSDOF 14
ENDMDL
MODEL 3
REMARK VINA RESULT:     -10.1      4.176     10.929
REMARK SMILES C[C@H](Sc1ccc(C(=O)NCCCNC(=O)c2ccc(-c3c4nc(c(-c5c(F)cccc5F)c5ccc([nH]5)c(-c5c(F)cccc5F)c5nc(c(-c6c(F)cccc6F)c6ccc3[nH]6)C=C5)C=C4)cc2)cn1)[C@@H](C)O
REMARK SMILES IDX 11 1 10 2 8 3 9 4 7 6 4 7 5 8 72 9 6 10 71 11 3 12 2 13 1 14
REMARK SMILES IDX 73 15 74 16 75 17 12 19 13 20 14 21 15 22 16 24 17 25 18 26
REMARK SMILES IDX 70 27 19 28 69 29 20 30 21 31 22 32 63 33 23 34 68 35 62 36
REMARK SMILES IDX 64 37 24 38 67 39 61 40 60 41 25 43 51 44 34 45 50 46 35 47
REMARK SMILES IDX 38 48 49 49 65 50 36 51 37 52 48 54 66 55 39 56 26 57 27 58
REMARK SMILES IDX 32 59 28 60 29 61 31 62 33 63 30 64 52 65 53 66 58 67 54 68
REMARK SMILES IDX 55 69 57 70 59 71 56 72 40 73 41 74 46 75 42 76 43 77 45 78
REMARK SMILES IDX 47 79 44 80
REMARK H PARENT 10 5 75 18 14 23 64 42 38 53
REMARK Flexibility Score: inf
ROOT
ATOM      1  C   UNL A   1      34.039  35.019  29.209  1.00  0.00     0.118 C 
ENDROOT
BRANCH   1   2
ATOM      2  N   UNL A   1      33.121  35.199  30.315  1.00  0.00    -0.352 N 
ATOM      3  C   UNL A   1      33.203  35.043  31.672  1.00  0.00     0.252 C 
ATOM      4  O   UNL A   1      32.175  35.301  32.304  1.00  0.00    -0.269 OA
ATOM      5  H   UNL A   1      32.233  35.506  30.022  1.00  0.00     0.163 HD
BRANCH   3   6
ATOM      6  C   UNL A   1      34.399  34.583  32.425  1.00  0.00     0.058 A 
ATOM      7  C   UNL A   1      36.451  33.415  33.912  1.00  0.00     0.096 A 
ATOM      8  C   UNL A   1      36.688  34.588  33.215  1.00  0.00     0.036 A 
ATOM      9  N   UNL A   1      35.225  32.856  33.942  1.00  0.00    -0.249 NA
ATOM     10  C   UNL A   1      35.668  35.148  32.438  1.00  0.00     0.018 A 
ATOM     11  C   UNL A   1      34.236  33.452  33.224  1.00  0.00     0.126 A 
BRANCH   7  12
ATOM     12  S   UNL A   1      37.708  32.509  34.773  1.00  0.00    -0.101 SA
BRANCH  12  13
ATOM     13  C   UNL A   1      38.747  31.786  33.431  1.00  0.00     0.078 C 
ATOM     14  C   UNL A   1      40.201  32.103  33.822  1.00  0.00     0.022 C 
BRANCH  13  15
ATOM     15  C   UNL A   1      38.589  30.263  33.186  1.00  0.00     0.124 C 
ATOM     16  C   UNL A   1      39.871  29.439  33.152  1.00  0.00     0.039 C 
BRANCH  15  17
ATOM     17  O   UNL A   1      37.782  29.704  34.238  1.00  0.00    -0.392 OA
ATOM     18  H   UNL A   1      36.913  29.457  33.883  1.00  0.00     0.210 HD
ENDBRANCH  15  17
ENDBRANCH  13  15
ENDBRANCH  12  13
ENDBRANCH   7  12
ENDBRANCH   3   6
ENDBRANCH   1   2
BRANCH   1  19
ATOM     19  C   UNL A   1      33.734  33.756  28.405  1.00  0.00     0.042 C 
BRANCH  19  20
ATOM     20  C   UNL A   1      34.589  32.564  28.842  1.00  0.00     0.118 C 
BRANCH  20  21
ATOM     21  N   UNL A   1      34.022  31.305  28.375  1.00  0.00    -0.352 N 
ATOM     22  C   UNL A   1      34.615  30.131  28.000  1.00  0.00     0.251 C 
ATOM     23  H   UNL A   1      33.039  31.298  28.321  1.00  0.00     0.163 HD
ATOM     24  O   UNL A   1      33.939  29.288  27.418  1.00  0.00    -0.269 OA
BRANCH  22  25
ATOM     25  C   UNL A   1      36.039  29.857  28.285  1.00  0.00     0.039 A 
ATOM     26  C   UNL A   1      36.963  30.042  27.250  1.00  0.00     0.014 A 
ATOM     27  C   UNL A   1      36.459  29.326  29.507  1.00  0.00     0.014 A 
ATOM     28  C   UNL A   1      38.303  29.706  27.443  1.00  0.00     0.010 A 
ATOM     29  C   UNL A   1      37.808  29.053  29.722  1.00  0.00     0.010 A 
ATOM     30  C   UNL A   1      38.737  29.216  28.684  1.00  0.00    -0.014 A 
BRANCH  30  31
ATOM     31  C   UNL A   1      40.155  28.832  28.888  1.00  0.00     0.031 A 
ATOM     32  C   UNL A   1      41.111  29.793  29.539  1.00  0.00     0.074 A 
ATOM     33  C   UNL A   1      40.582  27.628  28.466  1.00  0.00     0.049 A 
ATOM     34  N   UNL A   1      42.387  29.645  29.791  1.00  0.00    -0.248 NA
ATOM     35  C   UNL A   1      40.569  31.102  29.936  1.00  0.00     0.031 C 
ATOM     36  C   UNL A   1      39.757  26.631  27.782  1.00  0.00     0.029 A 
ATOM     37  N   UNL A   1      41.817  27.040  28.550  1.00  0.00    -0.354 N 
ATOM     38  C   UNL A   1      42.802  30.846  30.356  1.00  0.00     0.074 A 
ATOM     39  C   UNL A   1      41.656  31.727  30.366  1.00  0.00     0.031 C 
ATOM     40  C   UNL A   1      40.503  25.543  27.532  1.00  0.00     0.029 A 
ATOM     41  C   UNL A   1      41.859  25.775  28.016  1.00  0.00     0.049 A 
ATOM     42  H   UNL A   1      42.599  27.481  28.955  1.00  0.00     0.167 HD
ATOM     43  C   UNL A   1      44.022  31.174  30.846  1.00  0.00     0.037 A 
ATOM     44  C   UNL A   1      42.879  24.900  27.936  1.00  0.00     0.037 A 
ATOM     45  C   UNL A   1      45.152  30.282  30.863  1.00  0.00     0.049 A 
ATOM     46  C   UNL A   1      44.212  25.275  28.519  1.00  0.00     0.074 A 
ATOM     47  C   UNL A   1      46.418  30.500  31.375  1.00  0.00     0.029 A 
ATOM     48  N   UNL A   1      45.145  28.994  30.347  1.00  0.00    -0.354 N 
ATOM     49  N   UNL A   1      44.575  26.392  29.102  1.00  0.00    -0.248 NA
ATOM     50  C   UNL A   1      45.272  24.261  28.447  1.00  0.00     0.031 C 
ATOM     51  C   UNL A   1      47.186  29.353  31.144  1.00  0.00     0.029 A 
ATOM     52  C   UNL A   1      46.386  28.408  30.524  1.00  0.00     0.049 A 
ATOM     53  H   UNL A   1      44.372  28.562  29.917  1.00  0.00     0.167 HD
ATOM     54  C   UNL A   1      45.894  26.204  29.495  1.00  0.00     0.074 A 
ATOM     55  C   UNL A   1      46.261  24.861  29.093  1.00  0.00     0.031 C 
ATOM     56  C   UNL A   1      46.727  27.065  30.128  1.00  0.00     0.037 A 
BRANCH  43  57
ATOM     57  C   UNL A   1      44.190  32.556  31.407  1.00  0.00     0.057 A 
ATOM     58  C   UNL A   1      44.587  33.635  30.606  1.00  0.00     0.134 A 
ATOM     59  C   UNL A   1      43.933  32.818  32.759  1.00  0.00     0.134 A 
ATOM     60  F   UNL A   1      44.863  33.450  29.306  1.00  0.00    -0.206 F 
ATOM     61  C   UNL A   1      44.750  34.918  31.134  1.00  0.00     0.040 A 
ATOM     62  C   UNL A   1      44.067  34.101  33.293  1.00  0.00     0.040 A 
ATOM     63  F   UNL A   1      43.544  31.832  33.582  1.00  0.00    -0.206 F 
ATOM     64  C   UNL A   1      44.483  35.154  32.481  1.00  0.00     0.006 A 
ENDBRANCH  43  57
BRANCH  44  65
ATOM     65  C   UNL A   1      42.664  23.567  27.322  1.00  0.00     0.057 A 
ATOM     66  C   UNL A   1      42.274  22.471  28.101  1.00  0.00     0.134 A 
ATOM     67  C   UNL A   1      42.840  23.356  25.951  1.00  0.00     0.134 A 
ATOM     68  F   UNL A   1      42.103  22.609  29.424  1.00  0.00    -0.206 F 
ATOM     69  C   UNL A   1      42.087  21.206  27.541  1.00  0.00     0.040 A 
ATOM     70  C   UNL A   1      42.633  22.102  25.373  1.00  0.00     0.040 A 
ATOM     71  F   UNL A   1      43.200  24.369  25.150  1.00  0.00    -0.206 F 
ATOM     72  C   UNL A   1      42.263  21.021  26.171  1.00  0.00     0.006 A 
ENDBRANCH  44  65
BRANCH  56  73
ATOM     73  C   UNL A   1      48.098  26.560  30.464  1.00  0.00     0.057 A 
ATOM     74  C   UNL A   1      49.178  26.708  29.584  1.00  0.00     0.134 A 
ATOM     75  C   UNL A   1      48.342  25.932  31.692  1.00  0.00     0.134 A 
ATOM     76  F   UNL A   1      49.004  27.289  28.388  1.00  0.00    -0.206 F 
ATOM     77  C   UNL A   1      50.446  26.221  29.902  1.00  0.00     0.040 A 
ATOM     78  C   UNL A   1      49.613  25.464  32.031  1.00  0.00     0.040 A 
ATOM     79  F   UNL A   1      47.353  25.766  32.582  1.00  0.00    -0.206 F 
ATOM     80  C   UNL A   1      50.667  25.601  31.130  1.00  0.00     0.006 A 
ENDBRANCH  56  73
ENDBRANCH  30  31
ENDBRANCH  22  25
ENDBRANCH  20  21
ENDBRANCH  19  20
ENDBRANCH   1  19
TORSDOF 14
ENDMDL
