MODEL 1
REMARK VINA RESULT:     -12.5      0.000      0.000
REMARK SMILES COc1cc2c(CC(=O)NCCCNC(=O)c3ccc(-c4c5nc(c(-c6c(F)cccc6F)c6ccc([nH]6)c(-c6c(F)cccc6F)c6nc(c(-c7c(F)cccc7F)c7ccc4[nH]7)C=C6)C=C5)cc3)c(C)n(C(=O)c3ccc(Cl)cc3)c2cc1Cl
REMARK SMILES IDX 11 1 10 2 8 3 9 4 7 6 6 7 3 8 4 9 85 10 5 11 84 12 86 13
REMARK SMILES IDX 83 14 71 15 73 16 72 17 2 18 1 19 74 20 75 21 76 22 77 23
REMARK SMILES IDX 82 24 78 25 81 26 79 27 80 28 12 29 13 30 14 31 15 32 16 34
REMARK SMILES IDX 17 35 18 36 70 37 19 38 69 39 20 40 21 41 22 42 63 43 23 44
REMARK SMILES IDX 68 45 62 46 64 47 24 48 67 49 61 50 60 51 25 53 51 54 34 55
REMARK SMILES IDX 50 56 35 57 38 58 49 59 65 60 36 61 37 62 48 64 66 65 39 66
REMARK SMILES IDX 26 67 27 68 32 69 28 70 29 71 31 72 33 73 30 74 52 75 53 76
REMARK SMILES IDX 58 77 54 78 55 79 57 80 59 81 56 82 40 83 41 84 46 85 42 86
REMARK SMILES IDX 43 87 45 88 47 89 44 90
REMARK H PARENT 10 5 14 33 64 52 38 63
REMARK Flexibility Score: inf
ROOT
ATOM      1  C   UNL A   1      36.817  23.525  24.944  1.00  0.00     0.117 C 
ENDROOT
BRANCH   1   2
ATOM      2  N   UNL A   1      35.646  23.525  25.802  1.00  0.00    -0.356 N 
ATOM      3  C   UNL A   1      34.472  24.210  25.669  1.00  0.00     0.224 C 
ATOM      4  O   UNL A   1      33.594  24.025  26.515  1.00  0.00    -0.275 OA
ATOM      5  H   UNL A   1      35.708  22.947  26.597  1.00  0.00     0.163 HD
BRANCH   3   6
ATOM      6  C   UNL A   1      34.240  25.131  24.482  1.00  0.00     0.138 C 
BRANCH   6   7
ATOM      7  C   UNL A   1      33.046  26.031  24.643  1.00  0.00    -0.009 A 
ATOM      8  C   UNL A   1      33.721  29.369  26.418  1.00  0.00     0.138 A 
ATOM      9  C   UNL A   1      34.035  28.119  25.863  1.00  0.00     0.058 A 
ATOM     10  C   UNL A   1      32.401  29.806  26.402  1.00  0.00     0.085 A 
ATOM     11  C   UNL A   1      33.036  27.315  25.261  1.00  0.00     0.008 A 
ATOM     12  C   UNL A   1      31.392  28.989  25.880  1.00  0.00     0.051 A 
ATOM     13  Cl  UNL A   1      31.902  31.387  26.895  1.00  0.00    -0.080 Cl
ATOM     14  C   UNL A   1      31.718  27.778  25.237  1.00  0.00     0.058 A 
ATOM     15  C   UNL A   1      31.738  25.738  24.272  1.00  0.00     0.028 A 
ATOM     16  N   UNL A   1      30.953  26.883  24.466  1.00  0.00    -0.280 N 
ATOM     17  C   UNL A   1      31.231  24.442  23.715  1.00  0.00     0.065 C 
BRANCH   8  18
ATOM     18  O   UNL A   1      34.801  30.089  26.859  1.00  0.00    -0.495 OA
ATOM     19  C   UNL A   1      35.463  29.543  27.998  1.00  0.00     0.278 C 
ENDBRANCH   8  18
BRANCH  16  20
ATOM     20  C   UNL A   1      29.645  27.121  23.948  1.00  0.00     0.262 C 
ATOM     21  O   UNL A   1      28.739  26.330  24.218  1.00  0.00    -0.268 OA
BRANCH  20  22
ATOM     22  C   UNL A   1      29.275  28.250  23.080  1.00  0.00     0.040 A 
ATOM     23  C   UNL A   1      30.240  28.898  22.299  1.00  0.00     0.015 A 
ATOM     24  C   UNL A   1      27.955  28.715  23.124  1.00  0.00     0.015 A 
ATOM     25  C   UNL A   1      29.900  30.080  21.638  1.00  0.00     0.021 A 
ATOM     26  C   UNL A   1      27.621  29.890  22.449  1.00  0.00     0.021 A 
ATOM     27  C   UNL A   1      28.599  30.580  21.730  1.00  0.00     0.041 A 
ATOM     28  Cl  UNL A   1      28.205  32.078  20.982  1.00  0.00    -0.084 Cl
ENDBRANCH  20  22
ENDBRANCH  16  20
ENDBRANCH   6   7
ENDBRANCH   3   6
ENDBRANCH   1   2
BRANCH   1  29
ATOM     29  C   UNL A   1      37.461  22.143  24.813  1.00  0.00     0.042 C 
BRANCH  29  30
ATOM     30  C   UNL A   1      38.249  21.707  26.050  1.00  0.00     0.118 C 
BRANCH  30  31
ATOM     31  N   UNL A   1      39.685  21.658  25.847  1.00  0.00    -0.352 N 
ATOM     32  C   UNL A   1      40.760  22.415  26.214  1.00  0.00     0.251 C 
ATOM     33  H   UNL A   1      39.952  20.881  25.306  1.00  0.00     0.163 HD
ATOM     34  O   UNL A   1      41.863  21.939  25.930  1.00  0.00    -0.269 OA
BRANCH  32  35
ATOM     35  C   UNL A   1      40.716  23.758  26.854  1.00  0.00     0.039 A 
ATOM     36  C   UNL A   1      39.875  24.812  26.500  1.00  0.00     0.014 A 
ATOM     37  C   UNL A   1      41.667  23.974  27.874  1.00  0.00     0.014 A 
ATOM     38  C   UNL A   1      40.044  26.067  27.087  1.00  0.00     0.010 A 
ATOM     39  C   UNL A   1      41.835  25.221  28.465  1.00  0.00     0.010 A 
ATOM     40  C   UNL A   1      41.052  26.283  28.037  1.00  0.00    -0.014 A 
BRANCH  40  41
ATOM     41  C   UNL A   1      41.151  27.599  28.670  1.00  0.00     0.031 A 
ATOM     42  C   UNL A   1      42.368  28.361  28.278  1.00  0.00     0.074 A 
ATOM     43  C   UNL A   1      40.203  28.158  29.453  1.00  0.00     0.049 A 
ATOM     44  N   UNL A   1      43.367  28.681  29.033  1.00  0.00    -0.248 NA
ATOM     45  C   UNL A   1      42.565  28.684  26.858  1.00  0.00     0.031 C 
ATOM     46  C   UNL A   1      38.853  27.667  29.729  1.00  0.00     0.029 A 
ATOM     47  N   UNL A   1      40.232  29.350  30.123  1.00  0.00    -0.354 N 
ATOM     48  C   UNL A   1      44.230  29.426  28.233  1.00  0.00     0.074 A 
ATOM     49  C   UNL A   1      43.771  29.254  26.880  1.00  0.00     0.031 C 
ATOM     50  C   UNL A   1      38.129  28.647  30.319  1.00  0.00     0.029 A 
ATOM     51  C   UNL A   1      38.992  29.788  30.578  1.00  0.00     0.049 A 
ATOM     52  H   UNL A   1      41.063  29.857  30.270  1.00  0.00     0.167 HD
ATOM     53  C   UNL A   1      45.098  30.317  28.788  1.00  0.00     0.037 A 
ATOM     54  C   UNL A   1      38.689  31.009  31.096  1.00  0.00     0.037 A 
ATOM     55  C   UNL A   1      45.301  30.037  30.190  1.00  0.00     0.049 A 
ATOM     56  C   UNL A   1      39.955  31.628  31.559  1.00  0.00     0.074 A 
ATOM     57  C   UNL A   1      45.733  28.943  30.917  1.00  0.00     0.029 A 
ATOM     58  N   UNL A   1      44.696  30.866  31.104  1.00  0.00    -0.354 N 
ATOM     59  N   UNL A   1      40.622  31.216  32.599  1.00  0.00    -0.248 NA
ATOM     60  C   UNL A   1      40.714  32.415  30.600  1.00  0.00     0.031 C 
ATOM     61  C   UNL A   1      44.926  28.941  32.093  1.00  0.00     0.029 A 
ATOM     62  C   UNL A   1      44.108  30.068  32.047  1.00  0.00     0.049 A 
ATOM     63  H   UNL A   1      44.687  31.850  31.083  1.00  0.00     0.167 HD
ATOM     64  C   UNL A   1      41.948  31.274  32.201  1.00  0.00     0.074 A 
ATOM     65  C   UNL A   1      41.951  32.106  30.999  1.00  0.00     0.031 C 
ATOM     66  C   UNL A   1      42.873  30.408  32.709  1.00  0.00     0.037 A 
BRANCH  53  67
ATOM     67  C   UNL A   1      45.404  31.677  28.197  1.00  0.00     0.057 A 
ATOM     68  C   UNL A   1      46.653  32.051  27.661  1.00  0.00     0.134 A 
ATOM     69  C   UNL A   1      44.328  32.508  27.827  1.00  0.00     0.134 A 
ATOM     70  F   UNL A   1      47.777  31.367  27.899  1.00  0.00    -0.206 F 
ATOM     71  C   UNL A   1      46.803  33.103  26.755  1.00  0.00     0.040 A 
ATOM     72  C   UNL A   1      44.459  33.533  26.883  1.00  0.00     0.040 A 
ATOM     73  F   UNL A   1      43.089  32.277  28.287  1.00  0.00    -0.206 F 
ATOM     74  C   UNL A   1      45.698  33.818  26.326  1.00  0.00     0.006 A 
ENDBRANCH  53  67
BRANCH  54  75
ATOM     75  C   UNL A   1      37.428  31.790  31.007  1.00  0.00     0.057 A 
ATOM     76  C   UNL A   1      36.453  31.728  32.017  1.00  0.00     0.134 A 
ATOM     77  C   UNL A   1      37.021  32.397  29.807  1.00  0.00     0.134 A 
ATOM     78  F   UNL A   1      36.697  31.104  33.178  1.00  0.00    -0.206 F 
ATOM     79  C   UNL A   1      35.154  32.219  31.844  1.00  0.00     0.040 A 
ATOM     80  C   UNL A   1      35.720  32.887  29.616  1.00  0.00     0.040 A 
ATOM     81  F   UNL A   1      37.857  32.471  28.760  1.00  0.00    -0.206 F 
ATOM     82  C   UNL A   1      34.777  32.788  30.634  1.00  0.00     0.006 A 
ENDBRANCH  54  75
BRANCH  66  83
ATOM     83  C   UNL A   1      42.486  29.576  33.898  1.00  0.00     0.057 A 
ATOM     84  C   UNL A   1      42.930  29.973  35.164  1.00  0.00     0.134 A 
ATOM     85  C   UNL A   1      41.815  28.346  33.818  1.00  0.00     0.134 A 
ATOM     86  F   UNL A   1      43.629  31.111  35.309  1.00  0.00    -0.206 F 
ATOM     87  C   UNL A   1      42.708  29.197  36.301  1.00  0.00     0.040 A 
ATOM     88  C   UNL A   1      41.555  27.574  34.955  1.00  0.00     0.040 A 
ATOM     89  F   UNL A   1      41.444  27.830  32.640  1.00  0.00    -0.206 F 
ATOM     90  C   UNL A   1      42.007  27.998  36.202  1.00  0.00     0.006 A 
ENDBRANCH  66  83
ENDBRANCH  40  41
ENDBRANCH  32  35
ENDBRANCH  30  31
ENDBRANCH  29  30
ENDBRANCH   1  29
TORSDOF 14
ENDMDL
MODEL 2
REMARK VINA RESULT:     -12.5      3.421      8.253
REMARK SMILES COc1cc2c(CC(=O)NCCCNC(=O)c3ccc(-c4c5nc(c(-c6c(F)cccc6F)c6ccc([nH]6)c(-c6c(F)cccc6F)c6nc(c(-c7c(F)cccc7F)c7ccc4[nH]7)C=C6)C=C5)cc3)c(C)n(C(=O)c3ccc(Cl)cc3)c2cc1Cl
REMARK SMILES IDX 11 1 10 2 8 3 9 4 7 6 6 7 3 8 4 9 85 10 5 11 84 12 86 13
REMARK SMILES IDX 83 14 71 15 73 16 72 17 2 18 1 19 74 20 75 21 76 22 77 23
REMARK SMILES IDX 82 24 78 25 81 26 79 27 80 28 12 29 13 30 14 31 15 32 16 34
REMARK SMILES IDX 17 35 18 36 70 37 19 38 69 39 20 40 21 41 22 42 63 43 23 44
REMARK SMILES IDX 68 45 62 46 64 47 24 48 67 49 61 50 60 51 25 53 51 54 34 55
REMARK SMILES IDX 50 56 35 57 38 58 49 59 65 60 36 61 37 62 48 64 66 65 39 66
REMARK SMILES IDX 26 67 27 68 32 69 28 70 29 71 31 72 33 73 30 74 52 75 53 76
REMARK SMILES IDX 58 77 54 78 55 79 57 80 59 81 56 82 40 83 41 84 46 85 42 86
REMARK SMILES IDX 43 87 45 88 47 89 44 90
REMARK H PARENT 10 5 14 33 64 52 38 63
REMARK Flexibility Score: inf
ROOT
ATOM      1  C   UNL A   1      31.340  28.128  26.442  1.00  0.00     0.117 C 
ENDROOT
BRANCH   1   2
ATOM      2  N   UNL A   1      31.175  26.764  26.912  1.00  0.00    -0.356 N 
ATOM      3  C   UNL A   1      31.868  25.639  26.571  1.00  0.00     0.224 C 
ATOM      4  O   UNL A   1      31.570  24.583  27.132  1.00  0.00    -0.275 OA
ATOM      5  H   UNL A   1      30.457  26.632  27.573  1.00  0.00     0.163 HD
BRANCH   3   6
ATOM      6  C   UNL A   1      33.009  25.703  25.568  1.00  0.00     0.138 C 
BRANCH   6   7
ATOM      7  C   UNL A   1      33.343  24.373  24.950  1.00  0.00    -0.009 A 
ATOM      8  C   UNL A   1      36.820  22.983  25.800  1.00  0.00     0.138 A 
ATOM      9  C   UNL A   1      35.750  23.890  25.842  1.00  0.00     0.058 A 
ATOM     10  C   UNL A   1      36.717  21.849  25.001  1.00  0.00     0.085 A 
ATOM     11  C   UNL A   1      34.560  23.651  25.111  1.00  0.00     0.008 A 
ATOM     12  C   UNL A   1      35.578  21.639  24.215  1.00  0.00     0.051 A 
ATOM     13  Cl  UNL A   1      37.881  20.571  24.986  1.00  0.00    -0.080 Cl
ATOM     14  C   UNL A   1      34.466  22.497  24.329  1.00  0.00     0.058 A 
ATOM     15  C   UNL A   1      32.546  23.653  24.065  1.00  0.00     0.028 A 
ATOM     16  N   UNL A   1      33.153  22.413  23.829  1.00  0.00    -0.280 N 
ATOM     17  C   UNL A   1      31.235  24.085  23.482  1.00  0.00     0.065 C 
BRANCH   8  18
ATOM     18  O   UNL A   1      37.857  23.279  26.645  1.00  0.00    -0.495 OA
ATOM     19  C   UNL A   1      38.766  24.266  26.158  1.00  0.00     0.278 C 
ENDBRANCH   8  18
BRANCH  16  20
ATOM     20  C   UNL A   1      32.550  21.265  23.234  1.00  0.00     0.262 C 
ATOM     21  O   UNL A   1      31.991  21.379  22.141  1.00  0.00    -0.268 OA
BRANCH  20  22
ATOM     22  C   UNL A   1      32.519  19.921  23.834  1.00  0.00     0.040 A 
ATOM     23  C   UNL A   1      32.572  19.759  25.225  1.00  0.00     0.015 A 
ATOM     24  C   UNL A   1      32.528  18.813  22.980  1.00  0.00     0.015 A 
ATOM     25  C   UNL A   1      32.737  18.477  25.755  1.00  0.00     0.021 A 
ATOM     26  C   UNL A   1      32.679  17.534  23.519  1.00  0.00     0.021 A 
ATOM     27  C   UNL A   1      32.806  17.374  24.900  1.00  0.00     0.041 A 
ATOM     28  Cl  UNL A   1      33.091  15.808  25.551  1.00  0.00    -0.084 Cl
ENDBRANCH  20  22
ENDBRANCH  16  20
ENDBRANCH   6   7
ENDBRANCH   3   6
ENDBRANCH   1   2
BRANCH   1  29
ATOM     29  C   UNL A   1      32.208  28.980  27.371  1.00  0.00     0.042 C 
BRANCH  29  30
ATOM     30  C   UNL A   1      33.081  30.002  26.641  1.00  0.00     0.118 C 
BRANCH  30  31
ATOM     31  N   UNL A   1      33.401  31.175  27.432  1.00  0.00    -0.352 N 
ATOM     32  C   UNL A   1      34.513  31.683  28.039  1.00  0.00     0.251 C 
ATOM     33  H   UNL A   1      32.615  31.753  27.564  1.00  0.00     0.163 HD
ATOM     34  O   UNL A   1      34.382  32.812  28.522  1.00  0.00    -0.269 OA
BRANCH  32  35
ATOM     35  C   UNL A   1      35.815  30.986  28.221  1.00  0.00     0.039 A 
ATOM     36  C   UNL A   1      36.051  29.623  28.050  1.00  0.00     0.014 A 
ATOM     37  C   UNL A   1      36.880  31.799  28.664  1.00  0.00     0.014 A 
ATOM     38  C   UNL A   1      37.288  29.079  28.400  1.00  0.00     0.010 A 
ATOM     39  C   UNL A   1      38.116  31.263  29.008  1.00  0.00     0.010 A 
ATOM     40  C   UNL A   1      38.306  29.892  28.919  1.00  0.00    -0.014 A 
BRANCH  40  41
ATOM     41  C   UNL A   1      39.606  29.287  29.213  1.00  0.00     0.031 A 
ATOM     42  C   UNL A   1      39.942  29.265  30.663  1.00  0.00     0.074 A 
ATOM     43  C   UNL A   1      40.411  28.695  28.304  1.00  0.00     0.049 A 
ATOM     44  N   UNL A   1      40.880  29.925  31.258  1.00  0.00    -0.248 NA
ATOM     45  C   UNL A   1      39.049  28.539  31.577  1.00  0.00     0.031 C 
ATOM     46  C   UNL A   1      40.126  28.401  26.899  1.00  0.00     0.029 A 
ATOM     47  N   UNL A   1      41.655  28.155  28.478  1.00  0.00    -0.354 N 
ATOM     48  C   UNL A   1      40.830  29.540  32.596  1.00  0.00     0.074 A 
ATOM     49  C   UNL A   1      39.592  28.824  32.761  1.00  0.00     0.031 C 
ATOM     50  C   UNL A   1      41.065  27.553  26.418  1.00  0.00     0.029 A 
ATOM     51  C   UNL A   1      42.084  27.343  27.432  1.00  0.00     0.049 A 
ATOM     52  H   UNL A   1      42.202  28.327  29.278  1.00  0.00     0.167 HD
ATOM     53  C   UNL A   1      41.933  29.636  33.389  1.00  0.00     0.037 A 
ATOM     54  C   UNL A   1      43.175  26.531  27.414  1.00  0.00     0.037 A 
ATOM     55  C   UNL A   1      42.899  30.548  32.824  1.00  0.00     0.049 A 
ATOM     56  C   UNL A   1      44.105  27.003  28.470  1.00  0.00     0.074 A 
ATOM     57  C   UNL A   1      42.882  31.876  32.440  1.00  0.00     0.029 A 
ATOM     58  N   UNL A   1      44.021  30.013  32.238  1.00  0.00    -0.354 N 
ATOM     59  N   UNL A   1      44.779  28.115  28.394  1.00  0.00    -0.248 NA
ATOM     60  C   UNL A   1      43.939  26.462  29.810  1.00  0.00     0.031 C 
ATOM     61  C   UNL A   1      43.681  31.928  31.260  1.00  0.00     0.029 A 
ATOM     62  C   UNL A   1      44.194  30.651  31.040  1.00  0.00     0.049 A 
ATOM     63  H   UNL A   1      44.592  29.303  32.610  1.00  0.00     0.167 HD
ATOM     64  C   UNL A   1      44.704  28.650  29.670  1.00  0.00     0.074 A 
ATOM     65  C   UNL A   1      44.258  27.547  30.521  1.00  0.00     0.031 C 
ATOM     66  C   UNL A   1      44.728  30.000  29.869  1.00  0.00     0.037 A 
BRANCH  53  67
ATOM     67  C   UNL A   1      42.330  28.593  34.413  1.00  0.00     0.057 A 
ATOM     68  C   UNL A   1      42.752  27.286  34.097  1.00  0.00     0.134 A 
ATOM     69  C   UNL A   1      42.645  29.018  35.719  1.00  0.00     0.134 A 
ATOM     70  F   UNL A   1      42.547  26.728  32.899  1.00  0.00    -0.206 F 
ATOM     71  C   UNL A   1      43.509  26.503  34.972  1.00  0.00     0.040 A 
ATOM     72  C   UNL A   1      43.445  28.261  36.584  1.00  0.00     0.040 A 
ATOM     73  F   UNL A   1      42.280  30.233  36.155  1.00  0.00    -0.206 F 
ATOM     74  C   UNL A   1      43.899  27.006  36.201  1.00  0.00     0.006 A 
ENDBRANCH  53  67
BRANCH  54  75
ATOM     75  C   UNL A   1      43.379  25.231  26.724  1.00  0.00     0.057 A 
ATOM     76  C   UNL A   1      44.128  25.139  25.538  1.00  0.00     0.134 A 
ATOM     77  C   UNL A   1      42.617  24.096  27.050  1.00  0.00     0.134 A 
ATOM     78  F   UNL A   1      44.834  26.184  25.082  1.00  0.00    -0.206 F 
ATOM     79  C   UNL A   1      44.110  24.004  24.720  1.00  0.00     0.040 A 
ATOM     80  C   UNL A   1      42.583  22.954  26.235  1.00  0.00     0.040 A 
ATOM     81  F   UNL A   1      41.830  24.090  28.136  1.00  0.00    -0.206 F 
ATOM     82  C   UNL A   1      43.323  22.910  25.058  1.00  0.00     0.006 A 
ENDBRANCH  54  75
BRANCH  66  83
ATOM     83  C   UNL A   1      45.105  30.880  28.712  1.00  0.00     0.057 A 
ATOM     84  C   UNL A   1      44.105  31.263  27.812  1.00  0.00     0.134 A 
ATOM     85  C   UNL A   1      46.422  31.240  28.389  1.00  0.00     0.134 A 
ATOM     86  F   UNL A   1      42.829  30.905  28.026  1.00  0.00    -0.206 F 
ATOM     87  C   UNL A   1      44.393  31.985  26.654  1.00  0.00     0.040 A 
ATOM     88  C   UNL A   1      46.720  31.993  27.249  1.00  0.00     0.040 A 
ATOM     89  F   UNL A   1      47.458  30.830  29.131  1.00  0.00    -0.206 F 
ATOM     90  C   UNL A   1      45.704  32.364  26.374  1.00  0.00     0.006 A 
ENDBRANCH  66  83
ENDBRANCH  40  41
ENDBRANCH  32  35
ENDBRANCH  30  31
ENDBRANCH  29  30
ENDBRANCH   1  29
TORSDOF 14
ENDMDL
MODEL 3
REMARK VINA RESULT:     -12.1      2.787      4.472
REMARK SMILES COc1cc2c(CC(=O)NCCCNC(=O)c3ccc(-c4c5nc(c(-c6c(F)cccc6F)c6ccc([nH]6)c(-c6c(F)cccc6F)c6nc(c(-c7c(F)cccc7F)c7ccc4[nH]7)C=C6)C=C5)cc3)c(C)n(C(=O)c3ccc(Cl)cc3)c2cc1Cl
REMARK SMILES IDX 11 1 10 2 8 3 9 4 7 6 6 7 3 8 4 9 85 10 5 11 84 12 86 13
REMARK SMILES IDX 83 14 71 15 73 16 72 17 2 18 1 19 74 20 75 21 76 22 77 23
REMARK SMILES IDX 82 24 78 25 81 26 79 27 80 28 12 29 13 30 14 31 15 32 16 34
REMARK SMILES IDX 17 35 18 36 70 37 19 38 69 39 20 40 21 41 22 42 63 43 23 44
REMARK SMILES IDX 68 45 62 46 64 47 24 48 67 49 61 50 60 51 25 53 51 54 34 55
REMARK SMILES IDX 50 56 35 57 38 58 49 59 65 60 36 61 37 62 48 64 66 65 39 66
REMARK SMILES IDX 26 67 27 68 32 69 28 70 29 71 31 72 33 73 30 74 52 75 53 76
REMARK SMILES IDX 58 77 54 78 55 79 57 80 59 81 56 82 40 83 41 84 46 85 42 86
REMARK SMILES IDX 43 87 45 88 47 89 44 90
REMARK H PARENT 10 5 14 33 64 52 38 63
REMARK Flexibility Score: inf
ROOT
ATOM      1  C   UNL A   1      38.399  22.104  26.127  1.00  0.00     0.117 C 
ENDROOT
BRANCH   1   2
ATOM      2  N   UNL A   1      38.019  22.395  24.756  1.00  0.00    -0.356 N 
ATOM      3  C   UNL A   1      37.080  23.265  24.283  1.00  0.00     0.224 C 
ATOM      4  O   UNL A   1      36.953  23.371  23.061  1.00  0.00    -0.275 OA
ATOM      5  H   UNL A   1      38.511  21.890  24.068  1.00  0.00     0.163 HD
BRANCH   3   6
ATOM      6  C   UNL A   1      36.255  24.115  25.236  1.00  0.00     0.138 C 
BRANCH   6   7
ATOM      7  C   UNL A   1      34.787  23.792  25.215  1.00  0.00    -0.009 A 
ATOM      8  C   UNL A   1      32.497  26.592  23.925  1.00  0.00     0.138 A 
ATOM      9  C   UNL A   1      33.711  25.972  24.259  1.00  0.00     0.058 A 
ATOM     10  C   UNL A   1      31.306  25.909  24.141  1.00  0.00     0.085 A 
ATOM     11  C   UNL A   1      33.740  24.655  24.782  1.00  0.00     0.008 A 
ATOM     12  C   UNL A   1      31.314  24.638  24.727  1.00  0.00     0.051 A 
ATOM     13  Cl  UNL A   1      29.758  26.481  23.621  1.00  0.00    -0.080 Cl
ATOM     14  C   UNL A   1      32.534  23.977  24.975  1.00  0.00     0.058 A 
ATOM     15  C   UNL A   1      34.195  22.619  25.674  1.00  0.00     0.028 A 
ATOM     16  N   UNL A   1      32.831  22.656  25.356  1.00  0.00    -0.280 N 
ATOM     17  C   UNL A   1      34.881  21.474  26.356  1.00  0.00     0.065 C 
BRANCH   8  18
ATOM     18  O   UNL A   1      32.625  27.816  23.321  1.00  0.00    -0.495 OA
ATOM     19  C   UNL A   1      32.927  28.893  24.205  1.00  0.00     0.278 C 
ENDBRANCH   8  18
BRANCH  16  20
ATOM     20  C   UNL A   1      31.919  21.558  25.371  1.00  0.00     0.262 C 
ATOM     21  O   UNL A   1      30.789  21.722  25.834  1.00  0.00    -0.268 OA
BRANCH  20  22
ATOM     22  C   UNL A   1      32.225  20.201  24.887  1.00  0.00     0.040 A 
ATOM     23  C   UNL A   1      32.583  19.186  25.783  1.00  0.00     0.015 A 
ATOM     24  C   UNL A   1      32.236  19.978  23.505  1.00  0.00     0.015 A 
ATOM     25  C   UNL A   1      33.052  17.970  25.282  1.00  0.00     0.021 A 
ATOM     26  C   UNL A   1      32.694  18.755  23.014  1.00  0.00     0.021 A 
ATOM     27  C   UNL A   1      33.122  17.766  23.902  1.00  0.00     0.041 A 
ATOM     28  Cl  UNL A   1      33.777  16.299  23.289  1.00  0.00    -0.084 Cl
ENDBRANCH  20  22
ENDBRANCH  16  20
ENDBRANCH   6   7
ENDBRANCH   3   6
ENDBRANCH   1   2
BRANCH   1  29
ATOM     29  C   UNL A   1      39.752  22.707  26.513  1.00  0.00     0.042 C 
BRANCH  29  30
ATOM     30  C   UNL A   1      40.932  21.750  26.332  1.00  0.00     0.118 C 
BRANCH  30  31
ATOM     31  N   UNL A   1      41.951  22.237  25.422  1.00  0.00    -0.352 N 
ATOM     32  C   UNL A   1      42.751  23.340  25.334  1.00  0.00     0.251 C 
ATOM     33  H   UNL A   1      42.105  21.613  24.677  1.00  0.00     0.163 HD
ATOM     34  O   UNL A   1      43.601  23.306  24.439  1.00  0.00    -0.269 OA
BRANCH  32  35
ATOM     35  C   UNL A   1      42.647  24.573  26.161  1.00  0.00     0.039 A 
ATOM     36  C   UNL A   1      43.239  24.783  27.405  1.00  0.00     0.014 A 
ATOM     37  C   UNL A   1      41.817  25.585  25.635  1.00  0.00     0.014 A 
ATOM     38  C   UNL A   1      42.935  25.932  28.137  1.00  0.00     0.010 A 
ATOM     39  C   UNL A   1      41.515  26.733  26.359  1.00  0.00     0.010 A 
ATOM     40  C   UNL A   1      42.040  26.886  27.633  1.00  0.00    -0.014 A 
BRANCH  40  41
ATOM     41  C   UNL A   1      41.801  28.103  28.410  1.00  0.00     0.031 A 
ATOM     42  C   UNL A   1      42.858  29.137  28.244  1.00  0.00     0.074 A 
ATOM     43  C   UNL A   1      40.690  28.356  29.136  1.00  0.00     0.049 A 
ATOM     44  N   UNL A   1      43.696  29.550  29.138  1.00  0.00    -0.248 NA
ATOM     45  C   UNL A   1      43.108  29.673  26.898  1.00  0.00     0.031 C 
ATOM     46  C   UNL A   1      39.455  27.573  29.202  1.00  0.00     0.029 A 
ATOM     47  N   UNL A   1      40.405  29.433  29.928  1.00  0.00    -0.354 N 
ATOM     48  C   UNL A   1      44.449  30.549  28.526  1.00  0.00     0.074 A 
ATOM     49  C   UNL A   1      44.160  30.464  27.119  1.00  0.00     0.031 C 
ATOM     50  C   UNL A   1      38.490  28.305  29.806  1.00  0.00     0.029 A 
ATOM     51  C   UNL A   1      39.065  29.552  30.284  1.00  0.00     0.049 A 
ATOM     52  H   UNL A   1      41.094  30.073  30.223  1.00  0.00     0.167 HD
ATOM     53  C   UNL A   1      45.055  31.516  29.269  1.00  0.00     0.037 A 
ATOM     54  C   UNL A   1      38.465  30.611  30.891  1.00  0.00     0.037 A 
ATOM     55  C   UNL A   1      45.186  31.105  30.647  1.00  0.00     0.049 A 
ATOM     56  C   UNL A   1      39.524  31.405  31.559  1.00  0.00     0.074 A 
ATOM     57  C   UNL A   1      45.774  30.036  31.296  1.00  0.00     0.029 A 
ATOM     58  N   UNL A   1      44.340  31.672  31.569  1.00  0.00    -0.354 N 
ATOM     59  N   UNL A   1      40.168  31.005  32.619  1.00  0.00    -0.248 NA
ATOM     60  C   UNL A   1      40.182  32.445  30.783  1.00  0.00     0.031 C 
ATOM     61  C   UNL A   1      44.884  29.721  32.366  1.00  0.00     0.029 A 
ATOM     62  C   UNL A   1      43.853  30.658  32.348  1.00  0.00     0.049 A 
ATOM     63  H   UNL A   1      44.124  32.629  31.654  1.00  0.00     0.167 HD
ATOM     64  C   UNL A   1      41.482  31.377  32.383  1.00  0.00     0.074 A 
ATOM     65  C   UNL A   1      41.415  32.341  31.286  1.00  0.00     0.031 C 
ATOM     66  C   UNL A   1      42.520  30.656  32.898  1.00  0.00     0.037 A 
BRANCH  53  67
ATOM     67  C   UNL A   1      45.117  32.975  28.867  1.00  0.00     0.057 A 
ATOM     68  C   UNL A   1      43.996  33.823  28.764  1.00  0.00     0.134 A 
ATOM     69  C   UNL A   1      46.358  33.640  28.937  1.00  0.00     0.134 A 
ATOM     70  F   UNL A   1      42.742  33.361  28.700  1.00  0.00    -0.206 F 
ATOM     71  C   UNL A   1      44.091  35.215  28.824  1.00  0.00     0.040 A 
ATOM     72  C   UNL A   1      46.460  35.032  29.047  1.00  0.00     0.040 A 
ATOM     73  F   UNL A   1      47.506  32.950  29.014  1.00  0.00    -0.206 F 
ATOM     74  C   UNL A   1      45.320  35.823  29.014  1.00  0.00     0.006 A 
ENDBRANCH  53  67
BRANCH  54  75
ATOM     75  C   UNL A   1      37.080  31.129  30.743  1.00  0.00     0.057 A 
ATOM     76  C   UNL A   1      36.612  31.631  29.517  1.00  0.00     0.134 A 
ATOM     77  C   UNL A   1      36.274  31.405  31.860  1.00  0.00     0.134 A 
ATOM     78  F   UNL A   1      37.331  31.498  28.394  1.00  0.00    -0.206 F 
ATOM     79  C   UNL A   1      35.430  32.373  29.407  1.00  0.00     0.040 A 
ATOM     80  C   UNL A   1      35.091  32.155  31.766  1.00  0.00     0.040 A 
ATOM     81  F   UNL A   1      36.648  31.013  33.087  1.00  0.00    -0.206 F 
ATOM     82  C   UNL A   1      34.672  32.652  30.537  1.00  0.00     0.006 A 
ENDBRANCH  54  75
BRANCH  66  83
ATOM     83  C   UNL A   1      42.213  29.617  33.938  1.00  0.00     0.057 A 
ATOM     84  C   UNL A   1      42.430  29.936  35.283  1.00  0.00     0.134 A 
ATOM     85  C   UNL A   1      41.847  28.294  33.651  1.00  0.00     0.134 A 
ATOM     86  F   UNL A   1      42.838  31.168  35.629  1.00  0.00    -0.206 F 
ATOM     87  C   UNL A   1      42.276  28.993  36.299  1.00  0.00     0.040 A 
ATOM     88  C   UNL A   1      41.655  27.347  34.662  1.00  0.00     0.040 A 
ATOM     89  F   UNL A   1      41.719  27.865  32.389  1.00  0.00    -0.206 F 
ATOM     90  C   UNL A   1      41.875  27.695  35.992  1.00  0.00     0.006 A 
ENDBRANCH  66  83
ENDBRANCH  40  41
ENDBRANCH  32  35
ENDBRANCH  30  31
ENDBRANCH  29  30
ENDBRANCH   1  29
TORSDOF 14
ENDMDL
