MODEL 1
REMARK VINA RESULT:     -12.1      0.000      0.000
REMARK SMILES COc1cc2cc(C(=O)NCCCNC(=O)c3ccc(-c4c5nc(c(-c6c(F)cccc6F)c6ccc([nH]6)c(-c6c(F)cccc6F)c6nc(c(-c7c(F)cccc7F)c7ccc4[nH]7)C=C6)C=C5)cc3)n(Cc3ccccc3)c2c(OC)c1OC
REMARK SMILES IDX 12 1 11 2 10 3 8 4 9 5 7 7 3 8 4 9 83 10 5 11 80 12 6 13
REMARK SMILES IDX 79 14 71 15 2 16 1 17 84 18 85 19 81 20 82 21 72 22 73 23
REMARK SMILES IDX 74 24 78 25 75 26 77 27 76 28 13 29 14 30 15 31 16 33 17 34
REMARK SMILES IDX 18 35 70 36 19 37 69 38 20 39 21 40 22 41 63 42 23 43 68 44
REMARK SMILES IDX 62 45 64 46 24 47 67 48 61 49 60 50 25 52 51 53 34 54 50 55
REMARK SMILES IDX 35 56 38 57 49 58 65 59 36 60 37 61 48 63 66 64 39 65 26 66
REMARK SMILES IDX 27 67 32 68 28 69 29 70 31 71 33 72 30 73 52 74 53 75 58 76
REMARK SMILES IDX 54 77 55 78 57 79 59 80 56 81 40 82 41 83 46 84 42 85 43 86
REMARK SMILES IDX 45 87 47 88 44 89
REMARK H PARENT 10 6 14 32 64 51 38 62
REMARK Flexibility Score: inf
ROOT
ATOM      1  C   UNL A   1      34.590  30.443  27.601  1.00  0.00     0.042 C 
ENDROOT
BRANCH   1   2
ATOM      2  C   UNL A   1      33.216  30.447  26.922  1.00  0.00     0.118 C 
BRANCH   2   3
ATOM      3  N   UNL A   1      32.282  29.547  27.568  1.00  0.00    -0.351 N 
ATOM      4  C   UNL A   1      31.768  28.320  27.295  1.00  0.00     0.267 C 
ATOM      5  O   UNL A   1      31.084  27.847  28.218  1.00  0.00    -0.268 OA
ATOM      6  H   UNL A   1      31.936  29.916  28.413  1.00  0.00     0.163 HD
BRANCH   4   7
ATOM      7  C   UNL A   1      32.004  27.553  26.088  1.00  0.00     0.108 A 
ATOM      8  C   UNL A   1      32.808  24.257  22.916  1.00  0.00     0.165 A 
ATOM      9  C   UNL A   1      32.474  24.387  24.264  1.00  0.00     0.061 A 
ATOM     10  C   UNL A   1      32.998  25.384  22.098  1.00  0.00     0.205 A 
ATOM     11  C   UNL A   1      32.318  25.673  24.805  1.00  0.00     0.008 A 
ATOM     12  C   UNL A   1      32.859  26.688  22.628  1.00  0.00     0.189 A 
ATOM     13  C   UNL A   1      32.086  26.161  26.107  1.00  0.00     0.042 A 
ATOM     14  C   UNL A   1      32.433  26.786  23.980  1.00  0.00     0.096 A 
ATOM     15  N   UNL A   1      31.970  27.877  24.738  1.00  0.00    -0.329 N 
BRANCH   8  16
ATOM     16  O   UNL A   1      32.878  22.975  22.428  1.00  0.00    -0.493 OA
ATOM     17  C   UNL A   1      31.849  22.143  22.961  1.00  0.00     0.278 C 
ENDBRANCH   8  16
BRANCH  10  18
ATOM     18  O   UNL A   1      33.410  25.221  20.795  1.00  0.00    -0.490 OA
ATOM     19  C   UNL A   1      32.359  25.430  19.849  1.00  0.00     0.278 C 
ENDBRANCH  10  18
BRANCH  12  20
ATOM     20  O   UNL A   1      33.138  27.869  21.998  1.00  0.00    -0.491 OA
ATOM     21  C   UNL A   1      34.363  28.527  22.274  1.00  0.00     0.278 C 
ENDBRANCH  12  20
BRANCH  15  22
ATOM     22  C   UNL A   1      31.457  29.085  24.084  1.00  0.00     0.158 C 
BRANCH  22  23
ATOM     23  C   UNL A   1      30.009  29.164  23.645  1.00  0.00    -0.028 A 
ATOM     24  C   UNL A   1      29.175  28.085  23.336  1.00  0.00     0.005 A 
ATOM     25  C   UNL A   1      29.458  30.463  23.558  1.00  0.00     0.005 A 
ATOM     26  C   UNL A   1      27.820  28.287  23.051  1.00  0.00     0.000 A 
ATOM     27  C   UNL A   1      28.113  30.667  23.249  1.00  0.00     0.000 A 
ATOM     28  C   UNL A   1      27.288  29.574  23.015  1.00  0.00     0.000 A 
ENDBRANCH  22  23
ENDBRANCH  15  22
ENDBRANCH   4   7
ENDBRANCH   2   3
ENDBRANCH   1   2
BRANCH   1  29
ATOM     29  C   UNL A   1      35.052  31.793  28.155  1.00  0.00     0.118 C 
BRANCH  29  30
ATOM     30  N   UNL A   1      34.789  31.967  29.567  1.00  0.00    -0.352 N 
ATOM     31  C   UNL A   1      35.508  31.695  30.702  1.00  0.00     0.251 C 
ATOM     32  H   UNL A   1      33.907  32.364  29.752  1.00  0.00     0.163 HD
ATOM     33  O   UNL A   1      34.996  32.039  31.768  1.00  0.00    -0.269 OA
BRANCH  31  34
ATOM     34  C   UNL A   1      36.823  30.982  30.735  1.00  0.00     0.039 A 
ATOM     35  C   UNL A   1      38.084  31.576  30.813  1.00  0.00     0.014 A 
ATOM     36  C   UNL A   1      36.758  29.578  30.708  1.00  0.00     0.014 A 
ATOM     37  C   UNL A   1      39.248  30.796  30.797  1.00  0.00     0.010 A 
ATOM     38  C   UNL A   1      37.914  28.796  30.723  1.00  0.00     0.010 A 
ATOM     39  C   UNL A   1      39.172  29.402  30.733  1.00  0.00    -0.014 A 
BRANCH  39  40
ATOM     40  C   UNL A   1      40.419  28.621  30.710  1.00  0.00     0.031 A 
ATOM     41  C   UNL A   1      41.183  28.437  31.984  1.00  0.00     0.074 A 
ATOM     42  C   UNL A   1      40.828  27.893  29.649  1.00  0.00     0.049 A 
ATOM     43  N   UNL A   1      42.449  28.640  32.199  1.00  0.00    -0.248 NA
ATOM     44  C   UNL A   1      40.459  27.912  33.148  1.00  0.00     0.031 C 
ATOM     45  C   UNL A   1      40.103  27.638  28.404  1.00  0.00     0.029 A 
ATOM     46  N   UNL A   1      41.956  27.126  29.522  1.00  0.00    -0.354 N 
ATOM     47  C   UNL A   1      42.717  28.133  33.469  1.00  0.00     0.074 A 
ATOM     48  C   UNL A   1      41.447  27.739  34.028  1.00  0.00     0.031 C 
ATOM     49  C   UNL A   1      40.700  26.619  27.748  1.00  0.00     0.029 A 
ATOM     50  C   UNL A   1      41.910  26.238  28.460  1.00  0.00     0.049 A 
ATOM     51  H   UNL A   1      42.728  27.198  30.128  1.00  0.00     0.167 HD
ATOM     52  C   UNL A   1      43.977  27.938  33.950  1.00  0.00     0.037 A 
ATOM     53  C   UNL A   1      42.764  25.225  28.188  1.00  0.00     0.037 A 
ATOM     54  C   UNL A   1      44.986  28.635  33.204  1.00  0.00     0.049 A 
ATOM     55  C   UNL A   1      44.028  25.442  28.926  1.00  0.00     0.074 A 
ATOM     56  C   UNL A   1      45.231  29.953  32.873  1.00  0.00     0.029 A 
ATOM     57  N   UNL A   1      45.891  27.907  32.474  1.00  0.00    -0.354 N 
ATOM     58  N   UNL A   1      44.943  26.310  28.601  1.00  0.00    -0.248 NA
ATOM     59  C   UNL A   1      44.177  24.842  30.244  1.00  0.00     0.031 C 
ATOM     60  C   UNL A   1      45.930  29.910  31.631  1.00  0.00     0.029 A 
ATOM     61  C   UNL A   1      46.034  28.565  31.280  1.00  0.00     0.049 A 
ATOM     62  H   UNL A   1      46.346  27.079  32.751  1.00  0.00     0.167 HD
ATOM     63  C   UNL A   1      45.539  26.657  29.802  1.00  0.00     0.074 A 
ATOM     64  C   UNL A   1      45.139  25.620  30.740  1.00  0.00     0.031 C 
ATOM     65  C   UNL A   1      46.054  27.906  29.998  1.00  0.00     0.037 A 
BRANCH  52  66
ATOM     66  C   UNL A   1      44.344  26.915  34.990  1.00  0.00     0.057 A 
ATOM     67  C   UNL A   1      44.678  27.258  36.313  1.00  0.00     0.134 A 
ATOM     68  C   UNL A   1      44.110  25.548  34.758  1.00  0.00     0.134 A 
ATOM     69  F   UNL A   1      44.816  28.538  36.689  1.00  0.00    -0.206 F 
ATOM     70  C   UNL A   1      44.797  26.305  37.331  1.00  0.00     0.040 A 
ATOM     71  C   UNL A   1      44.184  24.590  35.777  1.00  0.00     0.040 A 
ATOM     72  F   UNL A   1      43.736  25.111  33.545  1.00  0.00    -0.206 F 
ATOM     73  C   UNL A   1      44.532  24.969  37.069  1.00  0.00     0.006 A 
ENDBRANCH  52  66
BRANCH  53  74
ATOM     74  C   UNL A   1      42.527  24.006  27.389  1.00  0.00     0.057 A 
ATOM     75  C   UNL A   1      42.174  22.788  27.997  1.00  0.00     0.134 A 
ATOM     76  C   UNL A   1      42.835  23.948  26.024  1.00  0.00     0.134 A 
ATOM     77  F   UNL A   1      41.962  22.711  29.319  1.00  0.00    -0.206 F 
ATOM     78  C   UNL A   1      42.095  21.590  27.283  1.00  0.00     0.040 A 
ATOM     79  C   UNL A   1      42.776  22.753  25.300  1.00  0.00     0.040 A 
ATOM     80  F   UNL A   1      43.242  25.044  25.368  1.00  0.00    -0.206 F 
ATOM     81  C   UNL A   1      42.402  21.569  25.928  1.00  0.00     0.006 A 
ENDBRANCH  53  74
BRANCH  65  82
ATOM     82  C   UNL A   1      46.299  28.759  28.792  1.00  0.00     0.057 A 
ATOM     83  C   UNL A   1      47.609  28.943  28.340  1.00  0.00     0.134 A 
ATOM     84  C   UNL A   1      45.291  29.498  28.154  1.00  0.00     0.134 A 
ATOM     85  F   UNL A   1      48.630  28.318  28.948  1.00  0.00    -0.206 F 
ATOM     86  C   UNL A   1      47.905  29.801  27.278  1.00  0.00     0.040 A 
ATOM     87  C   UNL A   1      45.570  30.334  27.071  1.00  0.00     0.040 A 
ATOM     88  F   UNL A   1      44.026  29.468  28.596  1.00  0.00    -0.206 F 
ATOM     89  C   UNL A   1      46.882  30.489  26.630  1.00  0.00     0.006 A 
ENDBRANCH  65  82
ENDBRANCH  39  40
ENDBRANCH  31  34
ENDBRANCH  29  30
ENDBRANCH   1  29
TORSDOF 15
ENDMDL
MODEL 2
REMARK VINA RESULT:     -12.0      3.850      8.847
REMARK SMILES COc1cc2cc(C(=O)NCCCNC(=O)c3ccc(-c4c5nc(c(-c6c(F)cccc6F)c6ccc([nH]6)c(-c6c(F)cccc6F)c6nc(c(-c7c(F)cccc7F)c7ccc4[nH]7)C=C6)C=C5)cc3)n(Cc3ccccc3)c2c(OC)c1OC
REMARK SMILES IDX 12 1 11 2 10 3 8 4 9 5 7 7 3 8 4 9 83 10 5 11 80 12 6 13
REMARK SMILES IDX 79 14 71 15 2 16 1 17 84 18 85 19 81 20 82 21 72 22 73 23
REMARK SMILES IDX 74 24 78 25 75 26 77 27 76 28 13 29 14 30 15 31 16 33 17 34
REMARK SMILES IDX 18 35 70 36 19 37 69 38 20 39 21 40 22 41 63 42 23 43 68 44
REMARK SMILES IDX 62 45 64 46 24 47 67 48 61 49 60 50 25 52 51 53 34 54 50 55
REMARK SMILES IDX 35 56 38 57 49 58 65 59 36 60 37 61 48 63 66 64 39 65 26 66
REMARK SMILES IDX 27 67 32 68 28 69 29 70 31 71 33 72 30 73 52 74 53 75 58 76
REMARK SMILES IDX 54 77 55 78 57 79 59 80 56 81 40 82 41 83 46 84 42 85 43 86
REMARK SMILES IDX 45 87 47 88 44 89
REMARK H PARENT 10 6 14 32 64 51 38 62
REMARK Flexibility Score: inf
ROOT
ATOM      1  C   UNL A   1      39.380  23.538  27.114  1.00  0.00     0.042 C 
ENDROOT
BRANCH   1   2
ATOM      2  C   UNL A   1      38.245  23.495  26.084  1.00  0.00     0.118 C 
BRANCH   2   3
ATOM      3  N   UNL A   1      37.992  22.151  25.603  1.00  0.00    -0.351 N 
ATOM      4  C   UNL A   1      36.994  21.537  24.917  1.00  0.00     0.267 C 
ATOM      5  O   UNL A   1      37.257  20.369  24.589  1.00  0.00    -0.268 OA
ATOM      6  H   UNL A   1      38.723  21.532  25.831  1.00  0.00     0.163 HD
BRANCH   4   7
ATOM      7  C   UNL A   1      35.741  22.148  24.518  1.00  0.00     0.108 A 
ATOM      8  C   UNL A   1      32.373  24.721  22.618  1.00  0.00     0.165 A 
ATOM      9  C   UNL A   1      33.736  24.458  22.467  1.00  0.00     0.061 A 
ATOM     10  C   UNL A   1      31.614  24.088  23.617  1.00  0.00     0.205 A 
ATOM     11  C   UNL A   1      34.349  23.535  23.328  1.00  0.00     0.008 A 
ATOM     12  C   UNL A   1      32.218  23.165  24.502  1.00  0.00     0.189 A 
ATOM     13  C   UNL A   1      35.682  23.115  23.515  1.00  0.00     0.042 A 
ATOM     14  C   UNL A   1      33.584  22.854  24.267  1.00  0.00     0.096 A 
ATOM     15  N   UNL A   1      34.412  21.836  24.775  1.00  0.00    -0.329 N 
BRANCH   8  16
ATOM     16  O   UNL A   1      31.815  25.580  21.703  1.00  0.00    -0.493 OA
ATOM     17  C   UNL A   1      32.527  25.581  20.467  1.00  0.00     0.278 C 
ENDBRANCH   8  16
BRANCH  10  18
ATOM     18  O   UNL A   1      30.294  24.434  23.792  1.00  0.00    -0.490 OA
ATOM     19  C   UNL A   1      30.127  25.638  24.544  1.00  0.00     0.278 C 
ENDBRANCH  10  18
BRANCH  12  20
ATOM     20  O   UNL A   1      31.646  22.575  25.595  1.00  0.00    -0.491 OA
ATOM     21  C   UNL A   1      31.717  23.229  26.851  1.00  0.00     0.278 C 
ENDBRANCH  12  20
BRANCH  15  22
ATOM     22  C   UNL A   1      33.838  20.626  25.372  1.00  0.00     0.158 C 
BRANCH  22  23
ATOM     23  C   UNL A   1      33.584  19.397  24.523  1.00  0.00    -0.028 A 
ATOM     24  C   UNL A   1      32.528  19.212  23.626  1.00  0.00     0.005 A 
ATOM     25  C   UNL A   1      34.524  18.350  24.653  1.00  0.00     0.005 A 
ATOM     26  C   UNL A   1      32.468  18.071  22.818  1.00  0.00     0.000 A 
ATOM     27  C   UNL A   1      34.451  17.200  23.866  1.00  0.00     0.000 A 
ATOM     28  C   UNL A   1      33.431  17.071  22.930  1.00  0.00     0.000 A 
ENDBRANCH  22  23
ENDBRANCH  15  22
ENDBRANCH   4   7
ENDBRANCH   2   3
ENDBRANCH   1   2
BRANCH   1  29
ATOM     29  C   UNL A   1      40.441  22.444  26.967  1.00  0.00     0.118 C 
BRANCH  29  30
ATOM     30  N   UNL A   1      41.454  22.741  25.978  1.00  0.00    -0.352 N 
ATOM     31  C   UNL A   1      42.268  23.821  25.755  1.00  0.00     0.251 C 
ATOM     32  H   UNL A   1      41.587  22.014  25.327  1.00  0.00     0.163 HD
ATOM     33  O   UNL A   1      43.082  23.711  24.837  1.00  0.00    -0.269 OA
BRANCH  31  34
ATOM     34  C   UNL A   1      42.204  25.114  26.505  1.00  0.00     0.039 A 
ATOM     35  C   UNL A   1      42.770  25.374  27.754  1.00  0.00     0.014 A 
ATOM     36  C   UNL A   1      41.524  26.162  25.860  1.00  0.00     0.014 A 
ATOM     37  C   UNL A   1      42.606  26.622  28.372  1.00  0.00     0.010 A 
ATOM     38  C   UNL A   1      41.385  27.416  26.458  1.00  0.00     0.010 A 
ATOM     39  C   UNL A   1      41.896  27.644  27.737  1.00  0.00    -0.014 A 
BRANCH  39  40
ATOM     40  C   UNL A   1      41.740  28.936  28.424  1.00  0.00     0.031 A 
ATOM     41  C   UNL A   1      42.791  29.986  28.243  1.00  0.00     0.074 A 
ATOM     42  C   UNL A   1      40.612  29.314  29.062  1.00  0.00     0.049 A 
ATOM     43  N   UNL A   1      43.411  30.669  29.158  1.00  0.00    -0.248 NA
ATOM     44  C   UNL A   1      43.158  30.358  26.871  1.00  0.00     0.031 C 
ATOM     45  C   UNL A   1      39.328  28.613  29.105  1.00  0.00     0.029 A 
ATOM     46  N   UNL A   1      40.354  30.487  29.722  1.00  0.00    -0.354 N 
ATOM     47  C   UNL A   1      44.134  31.656  28.488  1.00  0.00     0.074 A 
ATOM     48  C   UNL A   1      43.980  31.390  27.079  1.00  0.00     0.031 C 
ATOM     49  C   UNL A   1      38.380  29.459  29.562  1.00  0.00     0.029 A 
ATOM     50  C   UNL A   1      39.008  30.709  29.958  1.00  0.00     0.049 A 
ATOM     51  H   UNL A   1      41.059  31.114  30.001  1.00  0.00     0.167 HD
ATOM     52  C   UNL A   1      44.713  32.719  29.115  1.00  0.00     0.037 A 
ATOM     53  C   UNL A   1      38.420  31.844  30.403  1.00  0.00     0.037 A 
ATOM     54  C   UNL A   1      44.840  32.544  30.533  1.00  0.00     0.049 A 
ATOM     55  C   UNL A   1      39.442  32.707  31.035  1.00  0.00     0.074 A 
ATOM     56  C   UNL A   1      45.450  31.623  31.362  1.00  0.00     0.029 A 
ATOM     57  N   UNL A   1      44.093  33.337  31.367  1.00  0.00    -0.354 N 
ATOM     58  N   UNL A   1      39.964  32.508  32.211  1.00  0.00    -0.248 NA
ATOM     59  C   UNL A   1      40.112  33.707  30.216  1.00  0.00     0.031 C 
ATOM     60  C   UNL A   1      44.675  31.615  32.559  1.00  0.00     0.029 A 
ATOM     61  C   UNL A   1      43.629  32.514  32.360  1.00  0.00     0.049 A 
ATOM     62  H   UNL A   1      43.924  34.303  31.272  1.00  0.00     0.167 HD
ATOM     63  C   UNL A   1      41.236  33.050  32.128  1.00  0.00     0.074 A 
ATOM     64  C   UNL A   1      41.210  33.900  30.947  1.00  0.00     0.031 C 
ATOM     65  C   UNL A   1      42.272  32.531  32.847  1.00  0.00     0.037 A 
BRANCH  52  66
ATOM     66  C   UNL A   1      44.977  34.050  28.466  1.00  0.00     0.057 A 
ATOM     67  C   UNL A   1      46.257  34.451  28.040  1.00  0.00     0.134 A 
ATOM     68  C   UNL A   1      43.910  34.845  28.013  1.00  0.00     0.134 A 
ATOM     69  F   UNL A   1      47.345  33.714  28.310  1.00  0.00    -0.206 F 
ATOM     70  C   UNL A   1      46.466  35.580  27.240  1.00  0.00     0.040 A 
ATOM     71  C   UNL A   1      44.102  35.953  27.178  1.00  0.00     0.040 A 
ATOM     72  F   UNL A   1      42.641  34.530  28.316  1.00  0.00    -0.206 F 
ATOM     73  C   UNL A   1      45.385  36.325  26.791  1.00  0.00     0.006 A 
ENDBRANCH  52  66
BRANCH  53  74
ATOM     74  C   UNL A   1      37.022  32.287  30.234  1.00  0.00     0.057 A 
ATOM     75  C   UNL A   1      36.636  33.104  29.157  1.00  0.00     0.134 A 
ATOM     76  C   UNL A   1      36.061  32.088  31.234  1.00  0.00     0.134 A 
ATOM     77  F   UNL A   1      37.511  33.445  28.200  1.00  0.00    -0.206 F 
ATOM     78  C   UNL A   1      35.358  33.661  29.061  1.00  0.00     0.040 A 
ATOM     79  C   UNL A   1      34.783  32.653  31.158  1.00  0.00     0.040 A 
ATOM     80  F   UNL A   1      36.352  31.374  32.331  1.00  0.00    -0.206 F 
ATOM     81  C   UNL A   1      34.427  33.440  30.067  1.00  0.00     0.006 A 
ENDBRANCH  53  74
BRANCH  65  82
ATOM     82  C   UNL A   1      41.944  31.624  33.992  1.00  0.00     0.057 A 
ATOM     83  C   UNL A   1      42.082  32.097  35.301  1.00  0.00     0.134 A 
ATOM     84  C   UNL A   1      41.621  30.268  33.833  1.00  0.00     0.134 A 
ATOM     85  F   UNL A   1      42.454  33.367  35.527  1.00  0.00    -0.206 F 
ATOM     86  C   UNL A   1      41.879  31.268  36.407  1.00  0.00     0.040 A 
ATOM     87  C   UNL A   1      41.384  29.437  34.930  1.00  0.00     0.040 A 
ATOM     88  F   UNL A   1      41.579  29.705  32.616  1.00  0.00    -0.206 F 
ATOM     89  C   UNL A   1      41.514  29.937  36.223  1.00  0.00     0.006 A 
ENDBRANCH  65  82
ENDBRANCH  39  40
ENDBRANCH  31  34
ENDBRANCH  29  30
ENDBRANCH   1  29
TORSDOF 15
ENDMDL
MODEL 3
REMARK VINA RESULT:     -11.5      4.486      8.386
REMARK SMILES COc1cc2cc(C(=O)NCCCNC(=O)c3ccc(-c4c5nc(c(-c6c(F)cccc6F)c6ccc([nH]6)c(-c6c(F)cccc6F)c6nc(c(-c7c(F)cccc7F)c7ccc4[nH]7)C=C6)C=C5)cc3)n(Cc3ccccc3)c2c(OC)c1OC
REMARK SMILES IDX 12 1 11 2 10 3 8 4 9 5 7 7 3 8 4 9 83 10 5 11 80 12 6 13
REMARK SMILES IDX 79 14 71 15 2 16 1 17 84 18 85 19 81 20 82 21 72 22 73 23
REMARK SMILES IDX 74 24 78 25 75 26 77 27 76 28 13 29 14 30 15 31 16 33 17 34
REMARK SMILES IDX 18 35 70 36 19 37 69 38 20 39 21 40 22 41 63 42 23 43 68 44
REMARK SMILES IDX 62 45 64 46 24 47 67 48 61 49 60 50 25 52 51 53 34 54 50 55
REMARK SMILES IDX 35 56 38 57 49 58 65 59 36 60 37 61 48 63 66 64 39 65 26 66
REMARK SMILES IDX 27 67 32 68 28 69 29 70 31 71 33 72 30 73 52 74 53 75 58 76
REMARK SMILES IDX 54 77 55 78 57 79 59 80 56 81 40 82 41 83 46 84 42 85 43 86
REMARK SMILES IDX 45 87 47 88 44 89
REMARK H PARENT 10 6 14 32 64 51 38 62
REMARK Flexibility Score: inf
ROOT
ATOM      1  C   UNL A   1      34.555  34.010  31.580  1.00  0.00     0.042 C 
ENDROOT
BRANCH   1   2
ATOM      2  C   UNL A   1      35.157  33.235  32.757  1.00  0.00     0.118 C 
BRANCH   2   3
ATOM      3  N   UNL A   1      35.563  31.896  32.381  1.00  0.00    -0.351 N 
ATOM      4  C   UNL A   1      36.608  31.079  32.674  1.00  0.00     0.267 C 
ATOM      5  O   UNL A   1      36.485  29.928  32.225  1.00  0.00    -0.268 OA
ATOM      6  H   UNL A   1      34.925  31.475  31.759  1.00  0.00     0.163 HD
BRANCH   4   7
ATOM      7  C   UNL A   1      37.759  31.434  33.480  1.00  0.00     0.108 A 
ATOM      8  C   UNL A   1      41.264  31.600  36.524  1.00  0.00     0.165 A 
ATOM      9  C   UNL A   1      40.331  30.697  36.012  1.00  0.00     0.061 A 
ATOM     10  C   UNL A   1      41.303  32.936  36.088  1.00  0.00     0.205 A 
ATOM     11  C   UNL A   1      39.424  31.137  35.036  1.00  0.00     0.008 A 
ATOM     12  C   UNL A   1      40.388  33.401  35.115  1.00  0.00     0.189 A 
ATOM     13  C   UNL A   1      38.320  30.540  34.392  1.00  0.00     0.042 A 
ATOM     14  C   UNL A   1      39.509  32.437  34.551  1.00  0.00     0.096 A 
ATOM     15  N   UNL A   1      38.665  32.485  33.427  1.00  0.00    -0.329 N 
BRANCH   8  16
ATOM     16  O   UNL A   1      42.170  31.094  37.423  1.00  0.00    -0.493 OA
ATOM     17  C   UNL A   1      43.243  30.413  36.776  1.00  0.00     0.278 C 
ENDBRANCH   8  16
BRANCH  10  18
ATOM     18  O   UNL A   1      42.179  33.820  36.674  1.00  0.00    -0.490 OA
ATOM     19  C   UNL A   1      43.361  34.031  35.898  1.00  0.00     0.278 C 
ENDBRANCH  10  18
BRANCH  12  20
ATOM     20  O   UNL A   1      40.218  34.690  34.692  1.00  0.00    -0.491 OA
ATOM     21  C   UNL A   1      39.480  35.592  35.500  1.00  0.00     0.278 C 
ENDBRANCH  12  20
BRANCH  15  22
ATOM     22  C   UNL A   1      38.874  33.481  32.371  1.00  0.00     0.158 C 
BRANCH  22  23
ATOM     23  C   UNL A   1      40.115  33.432  31.503  1.00  0.00    -0.028 A 
ATOM     24  C   UNL A   1      41.112  32.453  31.536  1.00  0.00     0.005 A 
ATOM     25  C   UNL A   1      40.255  34.477  30.562  1.00  0.00     0.005 A 
ATOM     26  C   UNL A   1      42.154  32.461  30.602  1.00  0.00     0.000 A 
ATOM     27  C   UNL A   1      41.308  34.501  29.647  1.00  0.00     0.000 A 
ATOM     28  C   UNL A   1      42.248  33.478  29.655  1.00  0.00     0.000 A 
ENDBRANCH  22  23
ENDBRANCH  15  22
ENDBRANCH   4   7
ENDBRANCH   2   3
ENDBRANCH   1   2
BRANCH   1  29
ATOM     29  C   UNL A   1      35.314  33.887  30.256  1.00  0.00     0.118 C 
BRANCH  29  30
ATOM     30  N   UNL A   1      34.620  33.106  29.254  1.00  0.00    -0.352 N 
ATOM     31  C   UNL A   1      34.879  31.905  28.647  1.00  0.00     0.251 C 
ATOM     32  H   UNL A   1      33.787  33.527  28.942  1.00  0.00     0.163 HD
ATOM     33  O   UNL A   1      34.022  31.493  27.865  1.00  0.00    -0.269 OA
BRANCH  31  34
ATOM     34  C   UNL A   1      36.127  31.100  28.832  1.00  0.00     0.039 A 
ATOM     35  C   UNL A   1      36.234  29.710  28.757  1.00  0.00     0.014 A 
ATOM     36  C   UNL A   1      37.298  31.837  29.081  1.00  0.00     0.014 A 
ATOM     37  C   UNL A   1      37.459  29.070  28.988  1.00  0.00     0.010 A 
ATOM     38  C   UNL A   1      38.526  31.205  29.282  1.00  0.00     0.010 A 
ATOM     39  C   UNL A   1      38.609  29.812  29.271  1.00  0.00    -0.014 A 
BRANCH  39  40
ATOM     40  C   UNL A   1      39.873  29.099  29.516  1.00  0.00     0.031 A 
ATOM     41  C   UNL A   1      40.256  28.765  30.924  1.00  0.00     0.074 A 
ATOM     42  C   UNL A   1      40.628  28.555  28.538  1.00  0.00     0.049 A 
ATOM     43  N   UNL A   1      41.385  28.990  31.525  1.00  0.00    -0.248 NA
ATOM     44  C   UNL A   1      39.277  28.042  31.746  1.00  0.00     0.031 C 
ATOM     45  C   UNL A   1      40.313  28.453  27.113  1.00  0.00     0.029 A 
ATOM     46  N   UNL A   1      41.808  27.866  28.652  1.00  0.00    -0.354 N 
ATOM     47  C   UNL A   1      41.323  28.315  32.743  1.00  0.00     0.074 A 
ATOM     48  C   UNL A   1      39.985  27.786  32.849  1.00  0.00     0.031 C 
ATOM     49  C   UNL A   1      41.157  27.569  26.538  1.00  0.00     0.029 A 
ATOM     50  C   UNL A   1      42.142  27.143  27.519  1.00  0.00     0.049 A 
ATOM     51  H   UNL A   1      42.365  27.883  29.462  1.00  0.00     0.167 HD
ATOM     52  C   UNL A   1      42.406  28.108  33.544  1.00  0.00     0.037 A 
ATOM     53  C   UNL A   1      43.122  26.220  27.383  1.00  0.00     0.037 A 
ATOM     54  C   UNL A   1      43.522  28.952  33.223  1.00  0.00     0.049 A 
ATOM     55  C   UNL A   1      44.100  26.383  28.482  1.00  0.00     0.074 A 
ATOM     56  C   UNL A   1      43.737  30.314  33.150  1.00  0.00     0.029 A 
ATOM     57  N   UNL A   1      44.657  28.380  32.705  1.00  0.00    -0.354 N 
ATOM     58  N   UNL A   1      44.991  27.329  28.554  1.00  0.00    -0.248 NA
ATOM     59  C   UNL A   1      43.918  25.602  29.697  1.00  0.00     0.031 C 
ATOM     60  C   UNL A   1      44.762  30.485  32.173  1.00  0.00     0.029 A 
ATOM     61  C   UNL A   1      45.077  29.213  31.700  1.00  0.00     0.049 A 
ATOM     62  H   UNL A   1      45.083  27.542  32.996  1.00  0.00     0.167 HD
ATOM     63  C   UNL A   1      45.189  27.523  29.911  1.00  0.00     0.074 A 
ATOM     64  C   UNL A   1      44.628  26.341  30.550  1.00  0.00     0.031 C 
ATOM     65  C   UNL A   1      45.517  28.750  30.407  1.00  0.00     0.037 A 
BRANCH  52  66
ATOM     66  C   UNL A   1      42.548  26.961  34.506  1.00  0.00     0.057 A 
ATOM     67  C   UNL A   1      41.912  26.934  35.761  1.00  0.00     0.134 A 
ATOM     68  C   UNL A   1      43.108  25.742  34.084  1.00  0.00     0.134 A 
ATOM     69  F   UNL A   1      41.242  27.999  36.227  1.00  0.00    -0.206 F 
ATOM     70  C   UNL A   1      41.857  25.783  36.554  1.00  0.00     0.040 A 
ATOM     71  C   UNL A   1      43.024  24.572  34.850  1.00  0.00     0.040 A 
ATOM     72  F   UNL A   1      43.697  25.636  32.883  1.00  0.00    -0.206 F 
ATOM     73  C   UNL A   1      42.399  24.592  36.092  1.00  0.00     0.006 A 
ENDBRANCH  52  66
BRANCH  53  74
ATOM     74  C   UNL A   1      43.228  25.122  26.402  1.00  0.00     0.057 A 
ATOM     75  C   UNL A   1      42.452  23.955  26.520  1.00  0.00     0.134 A 
ATOM     76  C   UNL A   1      44.237  25.097  25.431  1.00  0.00     0.134 A 
ATOM     77  F   UNL A   1      41.530  23.833  27.486  1.00  0.00    -0.206 F 
ATOM     78  C   UNL A   1      42.643  22.842  25.697  1.00  0.00     0.040 A 
ATOM     79  C   UNL A   1      44.450  23.983  24.611  1.00  0.00     0.040 A 
ATOM     80  F   UNL A   1      45.069  26.137  25.282  1.00  0.00    -0.206 F 
ATOM     81  C   UNL A   1      43.650  22.852  24.740  1.00  0.00     0.006 A 
ENDBRANCH  53  74
BRANCH  65  82
ATOM     82  C   UNL A   1      46.021  29.782  29.446  1.00  0.00     0.057 A 
ATOM     83  C   UNL A   1      47.385  30.089  29.426  1.00  0.00     0.134 A 
ATOM     84  C   UNL A   1      45.178  30.560  28.639  1.00  0.00     0.134 A 
ATOM     85  F   UNL A   1      48.241  29.429  30.224  1.00  0.00    -0.206 F 
ATOM     86  C   UNL A   1      47.897  31.106  28.617  1.00  0.00     0.040 A 
ATOM     87  C   UNL A   1      45.681  31.558  27.802  1.00  0.00     0.040 A 
ATOM     88  F   UNL A   1      43.846  30.408  28.681  1.00  0.00    -0.206 F 
ATOM     89  C   UNL A   1      47.046  31.835  27.790  1.00  0.00     0.006 A 
ENDBRANCH  65  82
ENDBRANCH  39  40
ENDBRANCH  31  34
ENDBRANCH  29  30
ENDBRANCH   1  29
TORSDOF 15
ENDMDL
