MODEL 1
REMARK VINA RESULT:     -12.1      0.000      0.000
REMARK SMILES C=CC[C@@]1(C(=O)NCCCNC(=O)c2ccc(-c3c4nc(c(-c5c(F)cccc5F)c5ccc([nH]5)c(-c5c(F)cccc5F)c5nc(c(-c6c(F)cccc6F)c6ccc3[nH]6)C=C5)C=C4)cc2)CCCN(C(=O)c2ccc3c(c2)OCO3)C1
REMARK SMILES IDX 9 1 8 2 7 3 5 4 6 5 4 7 68 8 83 9 69 10 71 11 70 12 3 13
REMARK SMILES IDX 2 14 1 15 72 16 73 17 74 18 75 19 79 20 76 21 78 22 77 23
REMARK SMILES IDX 80 24 82 25 81 26 10 27 11 28 12 29 13 31 14 32 15 33 67 34
REMARK SMILES IDX 16 35 66 36 17 37 18 38 19 39 60 40 20 41 65 42 59 43 61 44
REMARK SMILES IDX 21 45 64 46 58 47 57 48 22 50 48 51 31 52 47 53 32 54 35 55
REMARK SMILES IDX 46 56 62 57 33 58 34 59 45 61 63 62 36 63 23 64 24 65 29 66
REMARK SMILES IDX 25 67 26 68 28 69 30 70 27 71 49 72 50 73 55 74 51 75 52 76
REMARK SMILES IDX 54 77 56 78 53 79 37 80 38 81 43 82 39 83 40 84 42 85 44 86
REMARK SMILES IDX 41 87
REMARK H PARENT 7 6 11 30 61 49 35 60
REMARK Flexibility Score: inf
ROOT
ATOM      1  C   UNL A   1      37.299  19.987  24.982  1.00  0.00     0.042 C 
ENDROOT
BRANCH   1   2
ATOM      2  C   UNL A   1      36.285  21.081  24.679  1.00  0.00     0.117 C 
BRANCH   2   3
ATOM      3  N   UNL A   1      35.539  21.456  25.869  1.00  0.00    -0.355 N 
ATOM      4  C   UNL A   1      34.215  21.448  26.176  1.00  0.00     0.228 C 
ATOM      5  O   UNL A   1      33.921  21.950  27.267  1.00  0.00    -0.274 OA
ATOM      6  H   UNL A   1      36.109  21.784  26.602  1.00  0.00     0.163 HD
BRANCH   4   7
ATOM      7  C   UNL A   1      33.138  20.862  25.238  1.00  0.00     0.070 C 
ATOM      8  C   UNL A   1      33.457  21.254  23.757  1.00  0.00     0.021 C 
ATOM      9  C   UNL A   1      31.759  21.473  25.580  1.00  0.00     0.137 C 
ATOM     10  C   UNL A   1      33.272  22.743  23.441  1.00  0.00     0.023 C 
ATOM     11  N   UNL A   1      31.678  22.894  25.286  1.00  0.00    -0.338 N 
ATOM     12  C   UNL A   1      31.909  23.251  23.887  1.00  0.00     0.120 C 
BRANCH   7  13
ATOM     13  C   UNL A   1      33.080  19.309  25.402  1.00  0.00     0.045 C 
BRANCH  13  14
ATOM     14  C   UNL A   1      33.534  18.472  24.235  1.00  0.00    -0.034 C 
ATOM     15  C   UNL A   1      34.545  17.595  24.273  1.00  0.00     0.004 C 
ENDBRANCH  13  14
ENDBRANCH   7  13
BRANCH  11  16
ATOM     16  C   UNL A   1      31.480  23.804  26.323  1.00  0.00     0.254 C 
ATOM     17  O   UNL A   1      30.827  23.582  27.336  1.00  0.00    -0.269 OA
BRANCH  16  18
ATOM     18  C   UNL A   1      32.042  25.151  26.121  1.00  0.00     0.043 A 
ATOM     19  C   UNL A   1      33.435  25.351  26.103  1.00  0.00     0.018 A 
ATOM     20  C   UNL A   1      31.143  26.178  25.810  1.00  0.00     0.064 A 
ATOM     21  C   UNL A   1      33.946  26.586  25.690  1.00  0.00     0.051 A 
ATOM     22  C   UNL A   1      31.681  27.361  25.372  1.00  0.00     0.166 A 
ATOM     23  C   UNL A   1      33.042  27.557  25.300  1.00  0.00     0.165 A 
ATOM     24  O   UNL A   1      30.972  28.420  24.900  1.00  0.00    -0.454 OA
ATOM     25  O   UNL A   1      33.350  28.770  24.766  1.00  0.00    -0.454 OA
ATOM     26  C   UNL A   1      32.040  29.226  24.366  1.00  0.00     0.468 C 
ENDBRANCH  16  18
ENDBRANCH  11  16
ENDBRANCH   4   7
ENDBRANCH   2   3
ENDBRANCH   1   2
BRANCH   1  27
ATOM     27  C   UNL A   1      38.581  20.506  25.612  1.00  0.00     0.118 C 
BRANCH  27  28
ATOM     28  N   UNL A   1      39.614  19.484  25.691  1.00  0.00    -0.352 N 
ATOM     29  C   UNL A   1      40.939  19.598  26.032  1.00  0.00     0.251 C 
ATOM     30  H   UNL A   1      39.318  18.572  25.466  1.00  0.00     0.163 HD
ATOM     31  O   UNL A   1      41.704  18.656  25.847  1.00  0.00    -0.269 OA
BRANCH  29  32
ATOM     32  C   UNL A   1      41.457  20.862  26.599  1.00  0.00     0.039 A 
ATOM     33  C   UNL A   1      41.968  21.830  25.731  1.00  0.00     0.014 A 
ATOM     34  C   UNL A   1      41.453  21.092  27.977  1.00  0.00     0.014 A 
ATOM     35  C   UNL A   1      42.410  23.053  26.240  1.00  0.00     0.010 A 
ATOM     36  C   UNL A   1      41.809  22.341  28.474  1.00  0.00     0.010 A 
ATOM     37  C   UNL A   1      42.297  23.334  27.612  1.00  0.00    -0.014 A 
BRANCH  37  38
ATOM     38  C   UNL A   1      42.679  24.660  28.160  1.00  0.00     0.031 A 
ATOM     39  C   UNL A   1      41.633  25.717  28.383  1.00  0.00     0.074 A 
ATOM     40  C   UNL A   1      43.979  24.937  28.387  1.00  0.00     0.049 A 
ATOM     41  N   UNL A   1      41.783  26.956  28.781  1.00  0.00    -0.248 NA
ATOM     42  C   UNL A   1      40.238  25.346  28.093  1.00  0.00     0.031 C 
ATOM     43  C   UNL A   1      45.094  24.016  28.153  1.00  0.00     0.029 A 
ATOM     44  N   UNL A   1      44.584  26.078  28.849  1.00  0.00    -0.354 N 
ATOM     45  C   UNL A   1      40.510  27.514  28.767  1.00  0.00     0.074 A 
ATOM     46  C   UNL A   1      39.606  26.496  28.281  1.00  0.00     0.031 C 
ATOM     47  C   UNL A   1      46.243  24.624  28.487  1.00  0.00     0.029 A 
ATOM     48  C   UNL A   1      45.953  25.986  28.921  1.00  0.00     0.049 A 
ATOM     49  H   UNL A   1      44.084  26.886  29.106  1.00  0.00     0.167 HD
ATOM     50  C   UNL A   1      40.129  28.757  29.144  1.00  0.00     0.037 A 
ATOM     51  C   UNL A   1      46.873  26.901  29.281  1.00  0.00     0.037 A 
ATOM     52  C   UNL A   1      41.025  29.755  29.666  1.00  0.00     0.049 A 
ATOM     53  C   UNL A   1      46.418  28.268  29.713  1.00  0.00     0.074 A 
ATOM     54  C   UNL A   1      40.720  31.011  30.160  1.00  0.00     0.029 A 
ATOM     55  N   UNL A   1      42.401  29.612  29.757  1.00  0.00    -0.354 N 
ATOM     56  N   UNL A   1      45.201  28.751  29.780  1.00  0.00    -0.248 NA
ATOM     57  C   UNL A   1      47.463  29.214  30.128  1.00  0.00     0.031 C 
ATOM     58  C   UNL A   1      41.916  31.647  30.505  1.00  0.00     0.029 A 
ATOM     59  C   UNL A   1      42.961  30.768  30.273  1.00  0.00     0.049 A 
ATOM     60  H   UNL A   1      42.905  28.808  29.494  1.00  0.00     0.167 HD
ATOM     61  C   UNL A   1      45.332  30.046  30.266  1.00  0.00     0.074 A 
ATOM     62  C   UNL A   1      46.745  30.266  30.495  1.00  0.00     0.031 C 
ATOM     63  C   UNL A   1      44.369  30.970  30.499  1.00  0.00     0.037 A 
BRANCH  50  64
ATOM     64  C   UNL A   1      38.678  29.114  29.014  1.00  0.00     0.057 A 
ATOM     65  C   UNL A   1      37.798  29.047  30.103  1.00  0.00     0.134 A 
ATOM     66  C   UNL A   1      38.168  29.593  27.800  1.00  0.00     0.134 A 
ATOM     67  F   UNL A   1      38.220  28.588  31.290  1.00  0.00    -0.206 F 
ATOM     68  C   UNL A   1      36.459  29.427  29.984  1.00  0.00     0.040 A 
ATOM     69  C   UNL A   1      36.839  30.000  27.676  1.00  0.00     0.040 A 
ATOM     70  F   UNL A   1      38.957  29.689  26.720  1.00  0.00    -0.206 F 
ATOM     71  C   UNL A   1      35.979  29.914  28.770  1.00  0.00     0.006 A 
ENDBRANCH  50  64
BRANCH  51  72
ATOM     72  C   UNL A   1      48.318  26.559  29.253  1.00  0.00     0.057 A 
ATOM     73  C   UNL A   1      49.105  26.825  28.128  1.00  0.00     0.134 A 
ATOM     74  C   UNL A   1      48.940  25.937  30.342  1.00  0.00     0.134 A 
ATOM     75  F   UNL A   1      48.561  27.403  27.045  1.00  0.00    -0.206 F 
ATOM     76  C   UNL A   1      50.451  26.462  28.073  1.00  0.00     0.040 A 
ATOM     77  C   UNL A   1      50.293  25.593  30.313  1.00  0.00     0.040 A 
ATOM     78  F   UNL A   1      48.245  25.661  31.455  1.00  0.00    -0.206 F 
ATOM     79  C   UNL A   1      51.050  25.847  29.171  1.00  0.00     0.006 A 
ENDBRANCH  51  72
BRANCH  63  80
ATOM     80  C   UNL A   1      44.807  32.292  31.058  1.00  0.00     0.057 A 
ATOM     81  C   UNL A   1      45.111  33.379  30.230  1.00  0.00     0.134 A 
ATOM     82  C   UNL A   1      44.884  32.490  32.442  1.00  0.00     0.134 A 
ATOM     83  F   UNL A   1      45.069  33.250  28.895  1.00  0.00    -0.206 F 
ATOM     84  C   UNL A   1      45.501  34.611  30.759  1.00  0.00     0.040 A 
ATOM     85  C   UNL A   1      45.245  33.725  32.984  1.00  0.00     0.040 A 
ATOM     86  F   UNL A   1      44.596  31.492  33.292  1.00  0.00    -0.206 F 
ATOM     87  C   UNL A   1      45.561  34.787  32.140  1.00  0.00     0.006 A 
ENDBRANCH  63  80
ENDBRANCH  37  38
ENDBRANCH  29  32
ENDBRANCH  27  28
ENDBRANCH   1  27
TORSDOF 14
ENDMDL
MODEL 2
REMARK VINA RESULT:     -12.0      4.180      9.414
REMARK SMILES C=CC[C@@]1(C(=O)NCCCNC(=O)c2ccc(-c3c4nc(c(-c5c(F)cccc5F)c5ccc([nH]5)c(-c5c(F)cccc5F)c5nc(c(-c6c(F)cccc6F)c6ccc3[nH]6)C=C5)C=C4)cc2)CCCN(C(=O)c2ccc3c(c2)OCO3)C1
REMARK SMILES IDX 9 1 8 2 7 3 5 4 6 5 4 7 68 8 83 9 69 10 71 11 70 12 3 13
REMARK SMILES IDX 2 14 1 15 72 16 73 17 74 18 75 19 79 20 76 21 78 22 77 23
REMARK SMILES IDX 80 24 82 25 81 26 10 27 11 28 12 29 13 31 14 32 15 33 67 34
REMARK SMILES IDX 16 35 66 36 17 37 18 38 19 39 60 40 20 41 65 42 59 43 61 44
REMARK SMILES IDX 21 45 64 46 58 47 57 48 22 50 48 51 31 52 47 53 32 54 35 55
REMARK SMILES IDX 46 56 62 57 33 58 34 59 45 61 63 62 36 63 23 64 24 65 29 66
REMARK SMILES IDX 25 67 26 68 28 69 30 70 27 71 49 72 50 73 55 74 51 75 52 76
REMARK SMILES IDX 54 77 56 78 53 79 37 80 38 81 43 82 39 83 40 84 42 85 44 86
REMARK SMILES IDX 41 87
REMARK H PARENT 7 6 11 30 61 49 35 60
REMARK Flexibility Score: inf
ROOT
ATOM      1  C   UNL A   1      31.426  31.516  26.133  1.00  0.00     0.042 C 
ENDROOT
BRANCH   1   2
ATOM      2  C   UNL A   1      31.506  30.015  25.889  1.00  0.00     0.117 C 
BRANCH   2   3
ATOM      3  N   UNL A   1      32.436  29.702  24.817  1.00  0.00    -0.355 N 
ATOM      4  C   UNL A   1      32.316  29.003  23.657  1.00  0.00     0.228 C 
ATOM      5  O   UNL A   1      33.365  28.843  23.024  1.00  0.00    -0.274 OA
ATOM      6  H   UNL A   1      33.338  30.071  24.960  1.00  0.00     0.163 HD
BRANCH   4   7
ATOM      7  C   UNL A   1      30.971  28.437  23.154  1.00  0.00     0.070 C 
ATOM      8  C   UNL A   1      30.166  27.836  24.354  1.00  0.00     0.021 C 
ATOM      9  C   UNL A   1      31.231  27.280  22.160  1.00  0.00     0.137 C 
ATOM     10  C   UNL A   1      30.767  26.553  24.941  1.00  0.00     0.023 C 
ATOM     11  N   UNL A   1      31.835  26.117  22.788  1.00  0.00    -0.338 N 
ATOM     12  C   UNL A   1      31.049  25.517  23.865  1.00  0.00     0.120 C 
BRANCH   7  13
ATOM     13  C   UNL A   1      30.153  29.565  22.445  1.00  0.00     0.045 C 
BRANCH  13  14
ATOM     14  C   UNL A   1      28.916  30.065  23.142  1.00  0.00    -0.034 C 
ATOM     15  C   UNL A   1      28.725  31.328  23.542  1.00  0.00     0.004 C 
ENDBRANCH  13  14
ENDBRANCH   7  13
BRANCH  11  16
ATOM     16  C   UNL A   1      33.112  25.710  22.405  1.00  0.00     0.254 C 
ATOM     17  O   UNL A   1      33.627  25.948  21.319  1.00  0.00    -0.269 OA
BRANCH  16  18
ATOM     18  C   UNL A   1      33.839  24.862  23.367  1.00  0.00     0.043 A 
ATOM     19  C   UNL A   1      34.403  25.421  24.529  1.00  0.00     0.018 A 
ATOM     20  C   UNL A   1      33.817  23.481  23.145  1.00  0.00     0.064 A 
ATOM     21  C   UNL A   1      34.890  24.574  25.531  1.00  0.00     0.051 A 
ATOM     22  C   UNL A   1      34.267  22.682  24.165  1.00  0.00     0.166 A 
ATOM     23  C   UNL A   1      34.775  23.210  25.330  1.00  0.00     0.165 A 
ATOM     24  O   UNL A   1      34.200  21.325  24.189  1.00  0.00    -0.454 OA
ATOM     25  O   UNL A   1      35.087  22.240  26.231  1.00  0.00    -0.454 OA
ATOM     26  C   UNL A   1      34.560  21.075  25.561  1.00  0.00     0.468 C 
ENDBRANCH  16  18
ENDBRANCH  11  16
ENDBRANCH   4   7
ENDBRANCH   2   3
ENDBRANCH   1   2
BRANCH   1  27
ATOM     27  C   UNL A   1      32.525  32.042  27.042  1.00  0.00     0.118 C 
BRANCH  27  28
ATOM     28  N   UNL A   1      32.386  33.464  27.316  1.00  0.00    -0.352 N 
ATOM     29  C   UNL A   1      33.057  34.256  28.214  1.00  0.00     0.251 C 
ATOM     30  H   UNL A   1      31.707  33.929  26.776  1.00  0.00     0.163 HD
ATOM     31  O   UNL A   1      32.662  35.395  28.445  1.00  0.00    -0.269 OA
BRANCH  29  32
ATOM     32  C   UNL A   1      34.245  33.735  28.926  1.00  0.00     0.039 A 
ATOM     33  C   UNL A   1      34.065  32.759  29.910  1.00  0.00     0.014 A 
ATOM     34  C   UNL A   1      35.527  34.209  28.639  1.00  0.00     0.014 A 
ATOM     35  C   UNL A   1      35.177  32.212  30.555  1.00  0.00     0.010 A 
ATOM     36  C   UNL A   1      36.637  33.603  29.216  1.00  0.00     0.010 A 
ATOM     37  C   UNL A   1      36.475  32.601  30.184  1.00  0.00    -0.014 A 
BRANCH  37  38
ATOM     38  C   UNL A   1      37.671  31.968  30.795  1.00  0.00     0.031 A 
ATOM     39  C   UNL A   1      38.411  30.883  30.062  1.00  0.00     0.074 A 
ATOM     40  C   UNL A   1      38.047  32.320  32.041  1.00  0.00     0.049 A 
ATOM     41  N   UNL A   1      39.429  30.162  30.464  1.00  0.00    -0.248 NA
ATOM     42  C   UNL A   1      37.929  30.541  28.715  1.00  0.00     0.031 C 
ATOM     43  C   UNL A   1      37.375  33.316  32.879  1.00  0.00     0.029 A 
ATOM     44  N   UNL A   1      39.076  31.867  32.827  1.00  0.00    -0.354 N 
ATOM     45  C   UNL A   1      39.691  29.270  29.430  1.00  0.00     0.074 A 
ATOM     46  C   UNL A   1      38.701  29.510  28.402  1.00  0.00     0.031 C 
ATOM     47  C   UNL A   1      38.017  33.408  34.054  1.00  0.00     0.029 A 
ATOM     48  C   UNL A   1      39.121  32.454  34.069  1.00  0.00     0.049 A 
ATOM     49  H   UNL A   1      39.722  31.187  32.530  1.00  0.00     0.167 HD
ATOM     50  C   UNL A   1      40.679  28.350  29.340  1.00  0.00     0.037 A 
ATOM     51  C   UNL A   1      39.949  32.238  35.109  1.00  0.00     0.037 A 
ATOM     52  C   UNL A   1      41.686  28.142  30.346  1.00  0.00     0.049 A 
ATOM     53  C   UNL A   1      41.049  31.222  34.972  1.00  0.00     0.074 A 
ATOM     54  C   UNL A   1      42.781  27.296  30.305  1.00  0.00     0.029 A 
ATOM     55  N   UNL A   1      41.719  28.782  31.575  1.00  0.00    -0.354 N 
ATOM     56  N   UNL A   1      41.339  30.451  33.952  1.00  0.00    -0.248 NA
ATOM     57  C   UNL A   1      41.942  31.053  36.127  1.00  0.00     0.031 C 
ATOM     58  C   UNL A   1      43.450  27.389  31.529  1.00  0.00     0.029 A 
ATOM     59  C   UNL A   1      42.800  28.329  32.312  1.00  0.00     0.049 A 
ATOM     60  H   UNL A   1      41.071  29.458  31.878  1.00  0.00     0.167 HD
ATOM     61  C   UNL A   1      42.460  29.723  34.333  1.00  0.00     0.074 A 
ATOM     62  C   UNL A   1      42.808  30.159  35.669  1.00  0.00     0.031 C 
ATOM     63  C   UNL A   1      43.137  28.777  33.639  1.00  0.00     0.037 A 
BRANCH  50  64
ATOM     64  C   UNL A   1      40.729  27.495  28.107  1.00  0.00     0.057 A 
ATOM     65  C   UNL A   1      41.452  27.877  26.970  1.00  0.00     0.134 A 
ATOM     66  C   UNL A   1      40.097  26.245  28.081  1.00  0.00     0.134 A 
ATOM     67  F   UNL A   1      42.072  29.066  26.926  1.00  0.00    -0.206 F 
ATOM     68  C   UNL A   1      41.533  27.054  25.845  1.00  0.00     0.040 A 
ATOM     69  C   UNL A   1      40.192  25.402  26.973  1.00  0.00     0.040 A 
ATOM     70  F   UNL A   1      39.393  25.815  29.139  1.00  0.00    -0.206 F 
ATOM     71  C   UNL A   1      40.909  25.807  25.849  1.00  0.00     0.006 A 
ENDBRANCH  50  64
BRANCH  51  72
ATOM     72  C   UNL A   1      39.775  32.999  36.373  1.00  0.00     0.057 A 
ATOM     73  C   UNL A   1      38.855  32.590  37.345  1.00  0.00     0.134 A 
ATOM     74  C   UNL A   1      40.508  34.164  36.628  1.00  0.00     0.134 A 
ATOM     75  F   UNL A   1      38.109  31.492  37.149  1.00  0.00    -0.206 F 
ATOM     76  C   UNL A   1      38.649  33.326  38.513  1.00  0.00     0.040 A 
ATOM     77  C   UNL A   1      40.332  34.895  37.805  1.00  0.00     0.040 A 
ATOM     78  F   UNL A   1      41.411  34.606  35.742  1.00  0.00    -0.206 F 
ATOM     79  C   UNL A   1      39.392  34.481  38.747  1.00  0.00     0.006 A 
ENDBRANCH  51  72
BRANCH  63  80
ATOM     80  C   UNL A   1      44.342  28.172  34.298  1.00  0.00     0.057 A 
ATOM     81  C   UNL A   1      44.259  26.992  35.046  1.00  0.00     0.134 A 
ATOM     82  C   UNL A   1      45.605  28.757  34.148  1.00  0.00     0.134 A 
ATOM     83  F   UNL A   1      43.076  26.389  35.238  1.00  0.00    -0.206 F 
ATOM     84  C   UNL A   1      45.388  26.427  35.642  1.00  0.00     0.040 A 
ATOM     85  C   UNL A   1      46.746  28.187  34.716  1.00  0.00     0.040 A 
ATOM     86  F   UNL A   1      45.755  29.885  33.436  1.00  0.00    -0.206 F 
ATOM     87  C   UNL A   1      46.637  27.021  35.470  1.00  0.00     0.006 A 
ENDBRANCH  63  80
ENDBRANCH  37  38
ENDBRANCH  29  32
ENDBRANCH  27  28
ENDBRANCH   1  27
TORSDOF 14
ENDMDL
MODEL 3
REMARK VINA RESULT:     -12.0      0.414      6.092
REMARK SMILES C=CC[C@@]1(C(=O)NCCCNC(=O)c2ccc(-c3c4nc(c(-c5c(F)cccc5F)c5ccc([nH]5)c(-c5c(F)cccc5F)c5nc(c(-c6c(F)cccc6F)c6ccc3[nH]6)C=C5)C=C4)cc2)CCCN(C(=O)c2ccc3c(c2)OCO3)C1
REMARK SMILES IDX 9 1 8 2 7 3 5 4 6 5 4 7 68 8 83 9 69 10 71 11 70 12 3 13
REMARK SMILES IDX 2 14 1 15 72 16 73 17 74 18 75 19 79 20 76 21 78 22 77 23
REMARK SMILES IDX 80 24 82 25 81 26 10 27 11 28 12 29 13 31 14 32 15 33 67 34
REMARK SMILES IDX 16 35 66 36 17 37 18 38 19 39 60 40 20 41 65 42 59 43 61 44
REMARK SMILES IDX 21 45 64 46 58 47 57 48 22 50 48 51 31 52 47 53 32 54 35 55
REMARK SMILES IDX 46 56 62 57 33 58 34 59 45 61 63 62 36 63 23 64 24 65 29 66
REMARK SMILES IDX 25 67 26 68 28 69 30 70 27 71 49 72 50 73 55 74 51 75 52 76
REMARK SMILES IDX 54 77 56 78 53 79 37 80 38 81 43 82 39 83 40 84 42 85 44 86
REMARK SMILES IDX 41 87
REMARK H PARENT 7 6 11 30 61 49 35 60
REMARK Flexibility Score: inf
ROOT
ATOM      1  C   UNL A   1      37.381  19.837  25.006  1.00  0.00     0.042 C 
ENDROOT
BRANCH   1   2
ATOM      2  C   UNL A   1      36.305  20.872  24.712  1.00  0.00     0.117 C 
BRANCH   2   3
ATOM      3  N   UNL A   1      35.565  21.222  25.914  1.00  0.00    -0.355 N 
ATOM      4  C   UNL A   1      34.239  21.264  26.209  1.00  0.00     0.228 C 
ATOM      5  O   UNL A   1      33.959  21.722  27.323  1.00  0.00    -0.274 OA
ATOM      6  H   UNL A   1      36.143  21.482  26.668  1.00  0.00     0.163 HD
BRANCH   4   7
ATOM      7  C   UNL A   1      33.145  20.783  25.232  1.00  0.00     0.070 C 
ATOM      8  C   UNL A   1      33.531  21.180  23.768  1.00  0.00     0.021 C 
ATOM      9  C   UNL A   1      31.808  21.491  25.555  1.00  0.00     0.137 C 
ATOM     10  C   UNL A   1      33.469  22.686  23.483  1.00  0.00     0.023 C 
ATOM     11  N   UNL A   1      31.845  22.921  25.292  1.00  0.00    -0.338 N 
ATOM     12  C   UNL A   1      32.138  23.288  23.908  1.00  0.00     0.120 C 
BRANCH   7  13
ATOM     13  C   UNL A   1      32.965  19.236  25.359  1.00  0.00     0.045 C 
BRANCH  13  14
ATOM     14  C   UNL A   1      33.439  18.387  24.210  1.00  0.00    -0.034 C 
ATOM     15  C   UNL A   1      34.504  17.577  24.250  1.00  0.00     0.004 C 
ENDBRANCH  13  14
ENDBRANCH   7  13
BRANCH  11  16
ATOM     16  C   UNL A   1      31.691  23.821  26.344  1.00  0.00     0.254 C 
ATOM     17  O   UNL A   1      31.204  23.547  27.436  1.00  0.00    -0.269 OA
BRANCH  16  18
ATOM     18  C   UNL A   1      32.074  25.216  26.066  1.00  0.00     0.043 A 
ATOM     19  C   UNL A   1      33.427  25.604  26.083  1.00  0.00     0.018 A 
ATOM     20  C   UNL A   1      31.060  26.087  25.651  1.00  0.00     0.064 A 
ATOM     21  C   UNL A   1      33.785  26.868  25.602  1.00  0.00     0.051 A 
ATOM     22  C   UNL A   1      31.453  27.301  25.150  1.00  0.00     0.166 A 
ATOM     23  C   UNL A   1      32.777  27.678  25.112  1.00  0.00     0.165 A 
ATOM     24  O   UNL A   1      30.630  28.219  24.579  1.00  0.00    -0.454 OA
ATOM     25  O   UNL A   1      32.943  28.883  24.505  1.00  0.00    -0.454 OA
ATOM     26  C   UNL A   1      31.602  29.128  24.027  1.00  0.00     0.468 C 
ENDBRANCH  16  18
ENDBRANCH  11  16
ENDBRANCH   4   7
ENDBRANCH   2   3
ENDBRANCH   1   2
BRANCH   1  27
ATOM     27  C   UNL A   1      38.641  20.428  25.619  1.00  0.00     0.118 C 
BRANCH  27  28
ATOM     28  N   UNL A   1      39.716  19.453  25.726  1.00  0.00    -0.352 N 
ATOM     29  C   UNL A   1      41.033  19.632  26.068  1.00  0.00     0.251 C 
ATOM     30  H   UNL A   1      39.460  18.525  25.523  1.00  0.00     0.163 HD
ATOM     31  O   UNL A   1      41.839  18.720  25.909  1.00  0.00    -0.269 OA
BRANCH  29  32
ATOM     32  C   UNL A   1      41.495  20.931  26.606  1.00  0.00     0.039 A 
ATOM     33  C   UNL A   1      41.999  21.886  25.720  1.00  0.00     0.014 A 
ATOM     34  C   UNL A   1      41.444  21.206  27.975  1.00  0.00     0.014 A 
ATOM     35  C   UNL A   1      42.387  23.139  26.199  1.00  0.00     0.010 A 
ATOM     36  C   UNL A   1      41.746  22.482  28.439  1.00  0.00     0.010 A 
ATOM     37  C   UNL A   1      42.226  23.461  27.557  1.00  0.00    -0.014 A 
BRANCH  37  38
ATOM     38  C   UNL A   1      42.550  24.817  28.070  1.00  0.00     0.031 A 
ATOM     39  C   UNL A   1      43.951  25.145  28.507  1.00  0.00     0.074 A 
ATOM     40  C   UNL A   1      41.566  25.728  28.210  1.00  0.00     0.049 A 
ATOM     41  N   UNL A   1      44.409  26.246  29.051  1.00  0.00    -0.248 NA
ATOM     42  C   UNL A   1      44.965  24.092  28.340  1.00  0.00     0.031 C 
ATOM     43  C   UNL A   1      40.156  25.510  27.879  1.00  0.00     0.029 A 
ATOM     44  N   UNL A   1      41.599  27.014  28.686  1.00  0.00    -0.354 N 
ATOM     45  C   UNL A   1      45.753  26.008  29.310  1.00  0.00     0.074 A 
ATOM     46  C   UNL A   1      46.029  24.647  28.905  1.00  0.00     0.031 C 
ATOM     47  C   UNL A   1      39.463  26.628  28.147  1.00  0.00     0.029 A 
ATOM     48  C   UNL A   1      40.369  27.627  28.703  1.00  0.00     0.049 A 
ATOM     49  H   UNL A   1      42.425  27.457  28.984  1.00  0.00     0.167 HD
ATOM     50  C   UNL A   1      46.678  26.855  29.820  1.00  0.00     0.037 A 
ATOM     51  C   UNL A   1      40.008  28.851  29.133  1.00  0.00     0.037 A 
ATOM     52  C   UNL A   1      46.410  28.221  30.184  1.00  0.00     0.049 A 
ATOM     53  C   UNL A   1      41.061  29.777  29.679  1.00  0.00     0.074 A 
ATOM     54  C   UNL A   1      47.301  29.184  30.624  1.00  0.00     0.029 A 
ATOM     55  N   UNL A   1      45.159  28.816  30.154  1.00  0.00    -0.354 N 
ATOM     56  N   UNL A   1      42.346  29.567  29.833  1.00  0.00    -0.248 NA
ATOM     57  C   UNL A   1      40.615  31.112  30.102  1.00  0.00     0.031 C 
ATOM     58  C   UNL A   1      46.581  30.348  30.907  1.00  0.00     0.029 A 
ATOM     59  C   UNL A   1      45.250  30.126  30.595  1.00  0.00     0.049 A 
ATOM     60  H   UNL A   1      44.329  28.374  29.862  1.00  0.00     0.167 HD
ATOM     61  C   UNL A   1      42.864  30.749  30.347  1.00  0.00     0.074 A 
ATOM     62  C   UNL A   1      41.758  31.677  30.460  1.00  0.00     0.031 C 
ATOM     63  C   UNL A   1      44.141  31.039  30.697  1.00  0.00     0.037 A 
BRANCH  50  64
ATOM     64  C   UNL A   1      48.072  26.335  30.014  1.00  0.00     0.057 A 
ATOM     65  C   UNL A   1      48.488  25.764  31.224  1.00  0.00     0.134 A 
ATOM     66  C   UNL A   1      48.991  26.350  28.957  1.00  0.00     0.134 A 
ATOM     67  F   UNL A   1      47.660  25.727  32.279  1.00  0.00    -0.206 F 
ATOM     68  C   UNL A   1      49.773  25.240  31.381  1.00  0.00     0.040 A 
ATOM     69  C   UNL A   1      50.270  25.807  29.093  1.00  0.00     0.040 A 
ATOM     70  F   UNL A   1      48.656  26.877  27.771  1.00  0.00    -0.206 F 
ATOM     71  C   UNL A   1      50.664  25.252  30.309  1.00  0.00     0.006 A 
ENDBRANCH  50  64
BRANCH  51  72
ATOM     72  C   UNL A   1      38.587  29.278  29.065  1.00  0.00     0.057 A 
ATOM     73  C   UNL A   1      37.760  29.227  30.192  1.00  0.00     0.134 A 
ATOM     74  C   UNL A   1      38.018  29.725  27.867  1.00  0.00     0.134 A 
ATOM     75  F   UNL A   1      38.243  28.790  31.365  1.00  0.00    -0.206 F 
ATOM     76  C   UNL A   1      36.411  29.579  30.127  1.00  0.00     0.040 A 
ATOM     77  C   UNL A   1      36.677  30.107  27.792  1.00  0.00     0.040 A 
ATOM     78  F   UNL A   1      38.758  29.805  26.752  1.00  0.00    -0.206 F 
ATOM     79  C   UNL A   1      35.867  30.024  28.923  1.00  0.00     0.006 A 
ENDBRANCH  51  72
BRANCH  63  80
ATOM     80  C   UNL A   1      44.417  32.424  31.204  1.00  0.00     0.057 A 
ATOM     81  C   UNL A   1      44.724  33.479  30.338  1.00  0.00     0.134 A 
ATOM     82  C   UNL A   1      44.335  32.711  32.572  1.00  0.00     0.134 A 
ATOM     83  F   UNL A   1      44.831  33.267  29.017  1.00  0.00    -0.206 F 
ATOM     84  C   UNL A   1      44.963  34.769  30.817  1.00  0.00     0.040 A 
ATOM     85  C   UNL A   1      44.544  34.001  33.061  1.00  0.00     0.040 A 
ATOM     86  F   UNL A   1      44.036  31.745  33.455  1.00  0.00    -0.206 F 
ATOM     87  C   UNL A   1      44.865  35.033  32.182  1.00  0.00     0.006 A 
ENDBRANCH  63  80
ENDBRANCH  37  38
ENDBRANCH  29  32
ENDBRANCH  27  28
ENDBRANCH   1  27
TORSDOF 14
ENDMDL
