MODEL 1
REMARK VINA RESULT:     -14.3      0.000      0.000
REMARK SMILES Cc1ccc(-c2csc(NC(=O)[C@H]3[C@@H](C(=O)NCCCNC(=O)c4ccc(-c5c6nc(c(-c7c(F)cccc7F)c7ccc([nH]7)c(-c7c(F)cccc7F)c7nc(c(-c8c(F)cccc8F)c8ccc5[nH]8)C=C7)C=C6)cc4)[C@H]4C=C[C@@H]3C4)c2C(=O)NC2CC2)cc1
REMARK SMILES IDX 18 1 17 2 15 3 16 4 14 6 13 7 81 8 78 9 80 10 82 11 79 12
REMARK SMILES IDX 11 13 10 14 12 16 9 17 6 18 7 19 83 20 8 21 5 22 1 23 2 24
REMARK SMILES IDX 3 25 91 26 4 27 90 28 84 29 85 30 86 31 87 33 88 34 89 35
REMARK SMILES IDX 19 36 20 37 21 38 22 39 23 41 24 42 25 43 77 44 26 45 76 46
REMARK SMILES IDX 27 47 28 48 29 49 70 50 30 51 75 52 69 53 71 54 31 55 74 56
REMARK SMILES IDX 68 57 67 58 32 60 58 61 41 62 57 63 42 64 45 65 56 66 72 67
REMARK SMILES IDX 43 68 44 69 55 71 73 72 46 73 33 74 34 75 39 76 35 77 36 78
REMARK SMILES IDX 38 79 40 80 37 81 59 82 60 83 65 84 61 85 62 86 64 87 66 88
REMARK SMILES IDX 63 89 47 90 48 91 53 92 49 93 50 94 52 95 54 96 51 97
REMARK H PARENT 17 5 10 15 86 32 21 40 71 59 45 70
REMARK Flexibility Score: inf
ROOT
ATOM      1  C   UNL A   1      32.061  30.224  26.582  1.00  0.00     0.117 C 
ENDROOT
BRANCH   1   2
ATOM      2  N   UNL A   1      32.392  30.080  25.174  1.00  0.00    -0.356 N 
ATOM      3  C   UNL A   1      32.089  29.054  24.314  1.00  0.00     0.224 C 
ATOM      4  O   UNL A   1      32.482  29.149  23.153  1.00  0.00    -0.275 OA
ATOM      5  H   UNL A   1      32.905  30.822  24.783  1.00  0.00     0.163 HD
BRANCH   3   6
ATOM      6  C   UNL A   1      31.165  27.943  24.814  1.00  0.00     0.098 C 
ATOM      7  C   UNL A   1      31.754  26.541  25.246  1.00  0.00     0.099 C 
ATOM      8  C   UNL A   1      31.079  25.595  24.214  1.00  0.00     0.025 C 
ATOM      9  C   UNL A   1      30.186  27.563  23.661  1.00  0.00     0.025 C 
ATOM     10  C   UNL A   1      31.541  25.908  22.818  1.00  0.00    -0.027 C 
ATOM     11  C   UNL A   1      29.672  26.211  24.146  1.00  0.00     0.017 C 
ATOM     12  C   UNL A   1      30.978  27.072  22.468  1.00  0.00    -0.027 C 
BRANCH   7  13
ATOM     13  C   UNL A   1      33.266  26.501  25.462  1.00  0.00     0.229 C 
ATOM     14  N   UNL A   1      34.001  25.366  25.264  1.00  0.00    -0.317 N 
ATOM     15  H   UNL A   1      34.929  25.515  24.973  1.00  0.00     0.170 HD
ATOM     16  O   UNL A   1      33.858  27.495  25.900  1.00  0.00    -0.274 OA
BRANCH  14  17
ATOM     17  C   UNL A   1      33.638  24.039  25.410  1.00  0.00     0.108 A 
ATOM     18  C   UNL A   1      33.336  21.753  25.095  1.00  0.00     0.007 A 
ATOM     19  C   UNL A   1      32.548  22.014  26.202  1.00  0.00     0.076 A 
ATOM     20  C   UNL A   1      34.059  22.942  24.653  1.00  0.00     0.082 A 
ATOM     21  S   UNL A   1      32.735  23.596  26.782  1.00  0.00    -0.125 S 
BRANCH  18  22
ATOM     22  C   UNL A   1      33.332  20.382  24.595  1.00  0.00    -0.017 A 
ATOM     23  C   UNL A   1      33.897  16.516  22.795  1.00  0.00     0.044 C 
ATOM     24  C   UNL A   1      33.603  17.799  23.516  1.00  0.00    -0.051 A 
ATOM     25  C   UNL A   1      34.471  18.232  24.520  1.00  0.00     0.004 A 
ATOM     26  C   UNL A   1      32.547  18.634  23.117  1.00  0.00     0.004 A 
ATOM     27  C   UNL A   1      34.318  19.500  25.072  1.00  0.00     0.009 A 
ATOM     28  C   UNL A   1      32.410  19.926  23.653  1.00  0.00     0.009 A 
ENDBRANCH  18  22
BRANCH  20  29
ATOM     29  C   UNL A   1      34.896  23.181  23.473  1.00  0.00     0.255 C 
ATOM     30  O   UNL A   1      34.381  23.662  22.457  1.00  0.00    -0.269 OA
ATOM     31  N   UNL A   1      36.260  23.030  23.393  1.00  0.00    -0.349 N 
ATOM     32  H   UNL A   1      36.584  23.282  22.498  1.00  0.00     0.164 HD
BRANCH  31  33
ATOM     33  C   UNL A   1      37.341  22.618  24.218  1.00  0.00     0.082 C 
ATOM     34  C   UNL A   1      37.365  22.297  25.669  1.00  0.00     0.027 C 
ATOM     35  C   UNL A   1      37.363  21.182  24.661  1.00  0.00     0.027 C 
ENDBRANCH  31  33
ENDBRANCH  20  29
ENDBRANCH  14  17
ENDBRANCH   7  13
ENDBRANCH   3   6
ENDBRANCH   1   2
BRANCH   1  36
ATOM     36  C   UNL A   1      32.997  31.204  27.281  1.00  0.00     0.042 C 
BRANCH  36  37
ATOM     37  C   UNL A   1      34.316  30.559  27.692  1.00  0.00     0.118 C 
BRANCH  37  38
ATOM     38  N   UNL A   1      35.204  31.449  28.438  1.00  0.00    -0.352 N 
ATOM     39  C   UNL A   1      36.441  31.195  29.013  1.00  0.00     0.251 C 
ATOM     40  H   UNL A   1      34.874  32.369  28.551  1.00  0.00     0.163 HD
ATOM     41  O   UNL A   1      37.027  32.078  29.613  1.00  0.00    -0.269 OA
BRANCH  39  42
ATOM     42  C   UNL A   1      37.110  29.891  28.765  1.00  0.00     0.039 A 
ATOM     43  C   UNL A   1      37.245  29.014  29.850  1.00  0.00     0.014 A 
ATOM     44  C   UNL A   1      37.789  29.649  27.578  1.00  0.00     0.014 A 
ATOM     45  C   UNL A   1      38.271  28.074  29.838  1.00  0.00     0.010 A 
ATOM     46  C   UNL A   1      38.873  28.797  27.604  1.00  0.00     0.010 A 
ATOM     47  C   UNL A   1      39.157  28.068  28.763  1.00  0.00    -0.014 A 
BRANCH  47  48
ATOM     48  C   UNL A   1      40.477  27.456  28.824  1.00  0.00     0.031 A 
ATOM     49  C   UNL A   1      40.666  26.037  28.467  1.00  0.00     0.074 A 
ATOM     50  C   UNL A   1      41.543  28.241  29.096  1.00  0.00     0.049 A 
ATOM     51  N   UNL A   1      41.653  25.310  28.865  1.00  0.00    -0.248 NA
ATOM     52  C   UNL A   1      39.709  25.307  27.645  1.00  0.00     0.031 C 
ATOM     53  C   UNL A   1      42.953  27.920  28.904  1.00  0.00     0.029 A 
ATOM     54  N   UNL A   1      41.553  29.461  29.788  1.00  0.00    -0.354 N 
ATOM     55  C   UNL A   1      41.622  24.131  28.154  1.00  0.00     0.074 A 
ATOM     56  C   UNL A   1      40.357  24.154  27.456  1.00  0.00     0.031 C 
ATOM     57  C   UNL A   1      43.691  28.735  29.676  1.00  0.00     0.029 A 
ATOM     58  C   UNL A   1      42.769  29.496  30.502  1.00  0.00     0.049 A 
ATOM     59  H   UNL A   1      40.853  30.153  29.779  1.00  0.00     0.167 HD
ATOM     60  C   UNL A   1      42.731  23.335  28.126  1.00  0.00     0.037 A 
ATOM     61  C   UNL A   1      42.792  29.521  31.866  1.00  0.00     0.037 A 
ATOM     62  C   UNL A   1      43.795  23.891  28.959  1.00  0.00     0.049 A 
ATOM     63  C   UNL A   1      43.493  28.336  32.485  1.00  0.00     0.074 A 
ATOM     64  C   UNL A   1      44.887  24.688  28.654  1.00  0.00     0.029 A 
ATOM     65  N   UNL A   1      43.649  23.933  30.341  1.00  0.00    -0.354 N 
ATOM     66  N   UNL A   1      43.703  27.211  31.860  1.00  0.00    -0.248 NA
ATOM     67  C   UNL A   1      43.987  28.312  33.860  1.00  0.00     0.031 C 
ATOM     68  C   UNL A   1      45.358  25.265  29.858  1.00  0.00     0.029 A 
ATOM     69  C   UNL A   1      44.570  24.802  30.896  1.00  0.00     0.049 A 
ATOM     70  H   UNL A   1      42.985  23.416  30.853  1.00  0.00     0.167 HD
ATOM     71  C   UNL A   1      44.308  26.325  32.709  1.00  0.00     0.074 A 
ATOM     72  C   UNL A   1      44.481  27.065  33.944  1.00  0.00     0.031 C 
ATOM     73  C   UNL A   1      44.606  25.049  32.328  1.00  0.00     0.037 A 
BRANCH  60  74
ATOM     74  C   UNL A   1      42.960  22.247  27.096  1.00  0.00     0.057 A 
ATOM     75  C   UNL A   1      42.267  21.022  27.172  1.00  0.00     0.134 A 
ATOM     76  C   UNL A   1      43.888  22.315  26.043  1.00  0.00     0.134 A 
ATOM     77  F   UNL A   1      41.256  20.834  28.029  1.00  0.00    -0.206 F 
ATOM     78  C   UNL A   1      42.572  19.917  26.364  1.00  0.00     0.040 A 
ATOM     79  C   UNL A   1      44.244  21.202  25.264  1.00  0.00     0.040 A 
ATOM     80  F   UNL A   1      44.450  23.474  25.679  1.00  0.00    -0.206 F 
ATOM     81  C   UNL A   1      43.596  19.989  25.436  1.00  0.00     0.006 A 
ENDBRANCH  60  74
BRANCH  61  82
ATOM     82  C   UNL A   1      41.629  30.225  32.464  1.00  0.00     0.057 A 
ATOM     83  C   UNL A   1      41.599  31.629  32.421  1.00  0.00     0.134 A 
ATOM     84  C   UNL A   1      40.418  29.569  32.708  1.00  0.00     0.134 A 
ATOM     85  F   UNL A   1      42.727  32.321  32.195  1.00  0.00    -0.206 F 
ATOM     86  C   UNL A   1      40.402  32.346  32.500  1.00  0.00     0.040 A 
ATOM     87  C   UNL A   1      39.214  30.277  32.798  1.00  0.00     0.040 A 
ATOM     88  F   UNL A   1      40.363  28.230  32.745  1.00  0.00    -0.206 F 
ATOM     89  C   UNL A   1      39.199  31.664  32.654  1.00  0.00     0.006 A 
ENDBRANCH  61  82
BRANCH  73  90
ATOM     90  C   UNL A   1      45.047  23.947  33.253  1.00  0.00     0.057 A 
ATOM     91  C   UNL A   1      46.310  23.898  33.860  1.00  0.00     0.134 A 
ATOM     92  C   UNL A   1      44.130  22.965  33.686  1.00  0.00     0.134 A 
ATOM     93  F   UNL A   1      47.239  24.832  33.619  1.00  0.00    -0.206 F 
ATOM     94  C   UNL A   1      46.656  22.907  34.789  1.00  0.00     0.040 A 
ATOM     95  C   UNL A   1      44.448  22.003  34.648  1.00  0.00     0.040 A 
ATOM     96  F   UNL A   1      42.878  22.913  33.207  1.00  0.00    -0.206 F 
ATOM     97  C   UNL A   1      45.722  21.963  35.194  1.00  0.00     0.006 A 
ENDBRANCH  73  90
ENDBRANCH  47  48
ENDBRANCH  39  42
ENDBRANCH  37  38
ENDBRANCH  36  37
ENDBRANCH   1  36
TORSDOF 15
ENDMDL
MODEL 2
REMARK VINA RESULT:     -14.0      3.479      9.578
REMARK SMILES Cc1ccc(-c2csc(NC(=O)[C@H]3[C@@H](C(=O)NCCCNC(=O)c4ccc(-c5c6nc(c(-c7c(F)cccc7F)c7ccc([nH]7)c(-c7c(F)cccc7F)c7nc(c(-c8c(F)cccc8F)c8ccc5[nH]8)C=C7)C=C6)cc4)[C@H]4C=C[C@@H]3C4)c2C(=O)NC2CC2)cc1
REMARK SMILES IDX 18 1 17 2 15 3 16 4 14 6 13 7 81 8 78 9 80 10 82 11 79 12
REMARK SMILES IDX 11 13 10 14 12 16 9 17 6 18 7 19 83 20 8 21 5 22 1 23 2 24
REMARK SMILES IDX 3 25 91 26 4 27 90 28 84 29 85 30 86 31 87 33 88 34 89 35
REMARK SMILES IDX 19 36 20 37 21 38 22 39 23 41 24 42 25 43 77 44 26 45 76 46
REMARK SMILES IDX 27 47 28 48 29 49 70 50 30 51 75 52 69 53 71 54 31 55 74 56
REMARK SMILES IDX 68 57 67 58 32 60 58 61 41 62 57 63 42 64 45 65 56 66 72 67
REMARK SMILES IDX 43 68 44 69 55 71 73 72 46 73 33 74 34 75 39 76 35 77 36 78
REMARK SMILES IDX 38 79 40 80 37 81 59 82 60 83 65 84 61 85 62 86 64 87 66 88
REMARK SMILES IDX 63 89 47 90 48 91 53 92 49 93 50 94 52 95 54 96 51 97
REMARK H PARENT 17 5 10 15 86 32 21 40 71 59 45 70
REMARK Flexibility Score: inf
ROOT
ATOM      1  C   UNL A   1      37.281  21.310  24.969  1.00  0.00     0.117 C 
ENDROOT
BRANCH   1   2
ATOM      2  N   UNL A   1      36.224  21.092  25.943  1.00  0.00    -0.356 N 
ATOM      3  C   UNL A   1      34.880  21.348  25.834  1.00  0.00     0.224 C 
ATOM      4  O   UNL A   1      34.170  21.084  26.802  1.00  0.00    -0.275 OA
ATOM      5  H   UNL A   1      36.513  20.709  26.802  1.00  0.00     0.163 HD
BRANCH   3   6
ATOM      6  C   UNL A   1      34.340  21.802  24.478  1.00  0.00     0.098 C 
ATOM      7  C   UNL A   1      33.991  23.322  24.217  1.00  0.00     0.099 C 
ATOM      8  C   UNL A   1      32.463  23.243  23.945  1.00  0.00     0.025 C 
ATOM      9  C   UNL A   1      32.975  21.090  24.230  1.00  0.00     0.025 C 
ATOM     10  C   UNL A   1      31.724  22.775  25.169  1.00  0.00    -0.027 C 
ATOM     11  C   UNL A   1      32.393  21.951  23.114  1.00  0.00     0.017 C 
ATOM     12  C   UNL A   1      32.000  21.473  25.323  1.00  0.00    -0.027 C 
BRANCH   7  13
ATOM     13  C   UNL A   1      34.546  24.309  25.244  1.00  0.00     0.229 C 
ATOM     14  N   UNL A   1      33.950  25.512  25.494  1.00  0.00    -0.317 N 
ATOM     15  H   UNL A   1      34.057  25.849  26.412  1.00  0.00     0.170 HD
ATOM     16  O   UNL A   1      35.608  24.065  25.829  1.00  0.00    -0.274 OA
BRANCH  14  17
ATOM     17  C   UNL A   1      33.217  26.330  24.652  1.00  0.00     0.108 A 
ATOM     18  C   UNL A   1      31.624  27.776  23.764  1.00  0.00     0.007 A 
ATOM     19  C   UNL A   1      32.360  27.411  22.649  1.00  0.00     0.076 A 
ATOM     20  C   UNL A   1      32.173  27.197  24.987  1.00  0.00     0.082 A 
ATOM     21  S   UNL A   1      33.732  26.498  23.040  1.00  0.00    -0.125 S 
BRANCH  18  22
ATOM     22  C   UNL A   1      30.487  28.664  23.539  1.00  0.00    -0.017 A 
ATOM     23  C   UNL A   1      27.095  31.308  23.559  1.00  0.00     0.044 C 
ATOM     24  C   UNL A   1      28.298  30.423  23.409  1.00  0.00    -0.051 A 
ATOM     25  C   UNL A   1      29.544  30.888  23.831  1.00  0.00     0.004 A 
ATOM     26  C   UNL A   1      28.175  29.095  22.971  1.00  0.00     0.004 A 
ATOM     27  C   UNL A   1      30.633  30.022  23.869  1.00  0.00     0.009 A 
ATOM     28  C   UNL A   1      29.267  28.212  23.036  1.00  0.00     0.009 A 
ENDBRANCH  18  22
BRANCH  20  29
ATOM     29  C   UNL A   1      31.671  27.195  26.365  1.00  0.00     0.255 C 
ATOM     30  O   UNL A   1      30.959  26.258  26.745  1.00  0.00    -0.269 OA
ATOM     31  N   UNL A   1      31.997  28.089  27.356  1.00  0.00    -0.349 N 
ATOM     32  H   UNL A   1      31.547  27.851  28.198  1.00  0.00     0.164 HD
BRANCH  31  33
ATOM     33  C   UNL A   1      32.791  29.256  27.525  1.00  0.00     0.082 C 
ATOM     34  C   UNL A   1      33.608  30.005  26.535  1.00  0.00     0.027 C 
ATOM     35  C   UNL A   1      32.265  30.539  26.947  1.00  0.00     0.027 C 
ENDBRANCH  31  33
ENDBRANCH  20  29
ENDBRANCH  14  17
ENDBRANCH   7  13
ENDBRANCH   3   6
ENDBRANCH   1   2
BRANCH   1  36
ATOM     36  C   UNL A   1      38.648  21.417  25.638  1.00  0.00     0.042 C 
BRANCH  36  37
ATOM     37  C   UNL A   1      38.931  22.819  26.163  1.00  0.00     0.118 C 
BRANCH  37  38
ATOM     38  N   UNL A   1      40.302  23.009  26.636  1.00  0.00    -0.352 N 
ATOM     39  C   UNL A   1      40.930  24.152  27.108  1.00  0.00     0.251 C 
ATOM     40  H   UNL A   1      40.866  22.203  26.614  1.00  0.00     0.163 HD
ATOM     41  O   UNL A   1      42.100  24.109  27.448  1.00  0.00    -0.269 OA
BRANCH  39  42
ATOM     42  C   UNL A   1      40.133  25.384  27.338  1.00  0.00     0.039 A 
ATOM     43  C   UNL A   1      40.408  26.496  26.531  1.00  0.00     0.014 A 
ATOM     44  C   UNL A   1      39.323  25.515  28.459  1.00  0.00     0.014 A 
ATOM     45  C   UNL A   1      40.112  27.770  27.006  1.00  0.00     0.010 A 
ATOM     46  C   UNL A   1      39.128  26.774  28.985  1.00  0.00     0.010 A 
ATOM     47  C   UNL A   1      39.592  27.897  28.293  1.00  0.00    -0.014 A 
BRANCH  47  48
ATOM     48  C   UNL A   1      39.642  29.138  29.051  1.00  0.00     0.031 A 
ATOM     49  C   UNL A   1      38.601  30.170  28.876  1.00  0.00     0.074 A 
ATOM     50  C   UNL A   1      40.588  29.277  30.006  1.00  0.00     0.049 A 
ATOM     51  N   UNL A   1      38.757  31.418  29.159  1.00  0.00    -0.248 NA
ATOM     52  C   UNL A   1      37.290  29.866  28.317  1.00  0.00     0.031 C 
ATOM     53  C   UNL A   1      40.634  30.271  31.074  1.00  0.00     0.029 A 
ATOM     54  N   UNL A   1      41.827  28.624  30.084  1.00  0.00    -0.354 N 
ATOM     55  C   UNL A   1      37.521  32.022  29.089  1.00  0.00     0.074 A 
ATOM     56  C   UNL A   1      36.656  31.027  28.499  1.00  0.00     0.031 C 
ATOM     57  C   UNL A   1      41.896  30.368  31.521  1.00  0.00     0.029 A 
ATOM     58  C   UNL A   1      42.726  29.554  30.649  1.00  0.00     0.049 A 
ATOM     59  H   UNL A   1      42.030  27.703  29.802  1.00  0.00     0.167 HD
ATOM     60  C   UNL A   1      37.339  33.246  29.667  1.00  0.00     0.037 A 
ATOM     61  C   UNL A   1      43.801  30.017  29.949  1.00  0.00     0.037 A 
ATOM     62  C   UNL A   1      38.588  33.745  30.240  1.00  0.00     0.049 A 
ATOM     63  C   UNL A   1      43.787  31.511  29.731  1.00  0.00     0.074 A 
ATOM     64  C   UNL A   1      39.102  33.692  31.525  1.00  0.00     0.029 A 
ATOM     65  N   UNL A   1      39.643  34.104  29.407  1.00  0.00    -0.354 N 
ATOM     66  N   UNL A   1      42.714  32.246  29.820  1.00  0.00    -0.248 NA
ATOM     67  C   UNL A   1      44.970  32.289  29.370  1.00  0.00     0.031 C 
ATOM     68  C   UNL A   1      40.491  33.955  31.453  1.00  0.00     0.029 A 
ATOM     69  C   UNL A   1      40.817  34.193  30.130  1.00  0.00     0.049 A 
ATOM     70  H   UNL A   1      39.564  34.272  28.439  1.00  0.00     0.167 HD
ATOM     71  C   UNL A   1      43.024  33.543  29.513  1.00  0.00     0.074 A 
ATOM     72  C   UNL A   1      44.451  33.524  29.254  1.00  0.00     0.031 C 
ATOM     73  C   UNL A   1      42.077  34.524  29.484  1.00  0.00     0.037 A 
BRANCH  60  74
ATOM     74  C   UNL A   1      35.979  33.826  29.999  1.00  0.00     0.057 A 
ATOM     75  C   UNL A   1      35.144  34.337  28.985  1.00  0.00     0.134 A 
ATOM     76  C   UNL A   1      35.457  33.968  31.296  1.00  0.00     0.134 A 
ATOM     77  F   UNL A   1      35.424  34.168  27.687  1.00  0.00    -0.206 F 
ATOM     78  C   UNL A   1      33.966  35.050  29.249  1.00  0.00     0.040 A 
ATOM     79  C   UNL A   1      34.310  34.726  31.581  1.00  0.00     0.040 A 
ATOM     80  F   UNL A   1      35.997  33.329  32.341  1.00  0.00    -0.206 F 
ATOM     81  C   UNL A   1      33.568  35.288  30.553  1.00  0.00     0.006 A 
ENDBRANCH  60  74
BRANCH  61  82
ATOM     82  C   UNL A   1      44.357  29.025  28.994  1.00  0.00     0.057 A 
ATOM     83  C   UNL A   1      45.232  28.040  29.481  1.00  0.00     0.134 A 
ATOM     84  C   UNL A   1      43.763  28.792  27.749  1.00  0.00     0.134 A 
ATOM     85  F   UNL A   1      45.839  28.204  30.667  1.00  0.00    -0.206 F 
ATOM     86  C   UNL A   1      45.421  26.825  28.817  1.00  0.00     0.040 A 
ATOM     87  C   UNL A   1      43.951  27.581  27.071  1.00  0.00     0.040 A 
ATOM     88  F   UNL A   1      42.902  29.676  27.227  1.00  0.00    -0.206 F 
ATOM     89  C   UNL A   1      44.749  26.579  27.624  1.00  0.00     0.006 A 
ENDBRANCH  61  82
BRANCH  73  90
ATOM     90  C   UNL A   1      42.279  35.910  28.933  1.00  0.00     0.057 A 
ATOM     91  C   UNL A   1      43.006  36.912  29.591  1.00  0.00     0.134 A 
ATOM     92  C   UNL A   1      41.862  36.227  27.623  1.00  0.00     0.134 A 
ATOM     93  F   UNL A   1      43.549  36.705  30.798  1.00  0.00    -0.206 F 
ATOM     94  C   UNL A   1      43.253  38.162  29.009  1.00  0.00     0.040 A 
ATOM     95  C   UNL A   1      42.146  37.452  27.013  1.00  0.00     0.040 A 
ATOM     96  F   UNL A   1      41.180  35.350  26.870  1.00  0.00    -0.206 F 
ATOM     97  C   UNL A   1      42.833  38.432  27.713  1.00  0.00     0.006 A 
ENDBRANCH  73  90
ENDBRANCH  47  48
ENDBRANCH  39  42
ENDBRANCH  37  38
ENDBRANCH  36  37
ENDBRANCH   1  36
TORSDOF 15
ENDMDL
MODEL 3
REMARK VINA RESULT:     -13.1      1.041      1.713
REMARK SMILES Cc1ccc(-c2csc(NC(=O)[C@H]3[C@@H](C(=O)NCCCNC(=O)c4ccc(-c5c6nc(c(-c7c(F)cccc7F)c7ccc([nH]7)c(-c7c(F)cccc7F)c7nc(c(-c8c(F)cccc8F)c8ccc5[nH]8)C=C7)C=C6)cc4)[C@H]4C=C[C@@H]3C4)c2C(=O)NC2CC2)cc1
REMARK SMILES IDX 18 1 17 2 15 3 16 4 14 6 13 7 81 8 78 9 80 10 82 11 79 12
REMARK SMILES IDX 11 13 10 14 12 16 9 17 6 18 7 19 83 20 8 21 5 22 1 23 2 24
REMARK SMILES IDX 3 25 91 26 4 27 90 28 84 29 85 30 86 31 87 33 88 34 89 35
REMARK SMILES IDX 19 36 20 37 21 38 22 39 23 41 24 42 25 43 77 44 26 45 76 46
REMARK SMILES IDX 27 47 28 48 29 49 70 50 30 51 75 52 69 53 71 54 31 55 74 56
REMARK SMILES IDX 68 57 67 58 32 60 58 61 41 62 57 63 42 64 45 65 56 66 72 67
REMARK SMILES IDX 43 68 44 69 55 71 73 72 46 73 33 74 34 75 39 76 35 77 36 78
REMARK SMILES IDX 38 79 40 80 37 81 59 82 60 83 65 84 61 85 62 86 64 87 66 88
REMARK SMILES IDX 63 89 47 90 48 91 53 92 49 93 50 94 52 95 54 96 51 97
REMARK H PARENT 17 5 10 15 86 32 21 40 71 59 45 70
REMARK Flexibility Score: inf
ROOT
ATOM      1  C   UNL A   1      32.849  30.112  26.323  1.00  0.00     0.117 C 
ENDROOT
BRANCH   1   2
ATOM      2  N   UNL A   1      32.890  30.041  24.872  1.00  0.00    -0.356 N 
ATOM      3  C   UNL A   1      32.391  29.071  24.039  1.00  0.00     0.224 C 
ATOM      4  O   UNL A   1      32.549  29.222  22.830  1.00  0.00    -0.275 OA
ATOM      5  H   UNL A   1      33.339  30.792  24.424  1.00  0.00     0.163 HD
BRANCH   3   6
ATOM      6  C   UNL A   1      31.549  27.954  24.657  1.00  0.00     0.098 C 
ATOM      7  C   UNL A   1      32.082  26.465  24.683  1.00  0.00     0.099 C 
ATOM      8  C   UNL A   1      31.020  25.744  23.807  1.00  0.00     0.025 C 
ATOM      9  C   UNL A   1      30.225  27.828  23.842  1.00  0.00     0.025 C 
ATOM     10  C   UNL A   1      31.059  26.251  22.392  1.00  0.00    -0.027 C 
ATOM     11  C   UNL A   1      29.739  26.451  24.281  1.00  0.00     0.017 C 
ATOM     12  C   UNL A   1      30.548  27.490  22.402  1.00  0.00    -0.027 C 
BRANCH   7  13
ATOM     13  C   UNL A   1      33.573  26.295  24.391  1.00  0.00     0.229 C 
ATOM     14  N   UNL A   1      34.051  25.285  23.605  1.00  0.00    -0.317 N 
ATOM     15  H   UNL A   1      34.873  25.497  23.108  1.00  0.00     0.170 HD
ATOM     16  O   UNL A   1      34.400  27.040  24.930  1.00  0.00    -0.274 OA
BRANCH  14  17
ATOM     17  C   UNL A   1      33.555  24.010  23.402  1.00  0.00     0.108 A 
ATOM     18  C   UNL A   1      32.967  21.771  23.648  1.00  0.00     0.007 A 
ATOM     19  C   UNL A   1      32.638  22.030  22.328  1.00  0.00     0.076 A 
ATOM     20  C   UNL A   1      33.446  22.970  24.330  1.00  0.00     0.082 A 
ATOM     21  S   UNL A   1      32.783  23.669  21.925  1.00  0.00    -0.125 S 
BRANCH  18  22
ATOM     22  C   UNL A   1      32.760  20.406  24.121  1.00  0.00    -0.017 A 
ATOM     23  C   UNL A   1      32.822  16.386  25.647  1.00  0.00     0.044 C 
ATOM     24  C   UNL A   1      32.652  17.784  25.131  1.00  0.00    -0.051 A 
ATOM     25  C   UNL A   1      32.841  18.860  25.999  1.00  0.00     0.004 A 
ATOM     26  C   UNL A   1      32.431  18.035  23.767  1.00  0.00     0.004 A 
ATOM     27  C   UNL A   1      32.867  20.159  25.500  1.00  0.00     0.009 A 
ATOM     28  C   UNL A   1      32.486  19.344  23.258  1.00  0.00     0.009 A 
ENDBRANCH  18  22
BRANCH  20  29
ATOM     29  C   UNL A   1      34.020  23.157  25.666  1.00  0.00     0.255 C 
ATOM     30  O   UNL A   1      33.367  23.767  26.522  1.00  0.00    -0.269 OA
ATOM     31  N   UNL A   1      35.196  22.621  26.135  1.00  0.00    -0.349 N 
ATOM     32  H   UNL A   1      35.341  22.875  27.075  1.00  0.00     0.164 HD
BRANCH  31  33
ATOM     33  C   UNL A   1      36.264  21.811  25.665  1.00  0.00     0.082 C 
ATOM     34  C   UNL A   1      36.920  21.777  24.331  1.00  0.00     0.027 C 
ATOM     35  C   UNL A   1      37.601  22.471  25.478  1.00  0.00     0.027 C 
ENDBRANCH  31  33
ENDBRANCH  20  29
ENDBRANCH  14  17
ENDBRANCH   7  13
ENDBRANCH   3   6
ENDBRANCH   1   2
BRANCH   1  36
ATOM     36  C   UNL A   1      34.244  30.002  26.930  1.00  0.00     0.042 C 
BRANCH  36  37
ATOM     37  C   UNL A   1      34.314  30.578  28.340  1.00  0.00     0.118 C 
BRANCH  37  38
ATOM     38  N   UNL A   1      35.359  31.585  28.518  1.00  0.00    -0.352 N 
ATOM     39  C   UNL A   1      36.727  31.427  28.681  1.00  0.00     0.251 C 
ATOM     40  H   UNL A   1      35.044  32.517  28.525  1.00  0.00     0.163 HD
ATOM     41  O   UNL A   1      37.440  32.405  28.831  1.00  0.00    -0.269 OA
BRANCH  39  42
ATOM     42  C   UNL A   1      37.334  30.080  28.525  1.00  0.00     0.039 A 
ATOM     43  C   UNL A   1      37.444  29.280  29.669  1.00  0.00     0.014 A 
ATOM     44  C   UNL A   1      37.986  29.720  27.352  1.00  0.00     0.014 A 
ATOM     45  C   UNL A   1      38.426  28.295  29.717  1.00  0.00     0.010 A 
ATOM     46  C   UNL A   1      39.031  28.824  27.430  1.00  0.00     0.010 A 
ATOM     47  C   UNL A   1      39.297  28.170  28.636  1.00  0.00    -0.014 A 
BRANCH  47  48
ATOM     48  C   UNL A   1      40.589  27.504  28.729  1.00  0.00     0.031 A 
ATOM     49  C   UNL A   1      40.718  26.066  28.427  1.00  0.00     0.074 A 
ATOM     50  C   UNL A   1      41.686  28.252  28.980  1.00  0.00     0.049 A 
ATOM     51  N   UNL A   1      41.671  25.313  28.859  1.00  0.00    -0.248 NA
ATOM     52  C   UNL A   1      39.735  25.347  27.626  1.00  0.00     0.031 C 
ATOM     53  C   UNL A   1      43.083  27.864  28.810  1.00  0.00     0.029 A 
ATOM     54  N   UNL A   1      41.745  29.496  29.627  1.00  0.00    -0.354 N 
ATOM     55  C   UNL A   1      41.592  24.111  28.191  1.00  0.00     0.074 A 
ATOM     56  C   UNL A   1      40.333  24.162  27.484  1.00  0.00     0.031 C 
ATOM     57  C   UNL A   1      43.850  28.674  29.556  1.00  0.00     0.029 A 
ATOM     58  C   UNL A   1      42.958  29.505  30.347  1.00  0.00     0.049 A 
ATOM     59  H   UNL A   1      41.076  30.217  29.587  1.00  0.00     0.167 HD
ATOM     60  C   UNL A   1      42.666  23.267  28.200  1.00  0.00     0.037 A 
ATOM     61  C   UNL A   1      42.974  29.580  31.710  1.00  0.00     0.037 A 
ATOM     62  C   UNL A   1      43.749  23.808  29.020  1.00  0.00     0.049 A 
ATOM     63  C   UNL A   1      43.621  28.389  32.376  1.00  0.00     0.074 A 
ATOM     64  C   UNL A   1      44.875  24.544  28.694  1.00  0.00     0.029 A 
ATOM     65  N   UNL A   1      43.597  23.907  30.399  1.00  0.00    -0.354 N 
ATOM     66  N   UNL A   1      43.785  27.235  31.795  1.00  0.00    -0.248 NA
ATOM     67  C   UNL A   1      44.105  28.396  33.755  1.00  0.00     0.031 C 
ATOM     68  C   UNL A   1      45.365  25.146  29.878  1.00  0.00     0.029 A 
ATOM     69  C   UNL A   1      44.552  24.755  30.928  1.00  0.00     0.049 A 
ATOM     70  H   UNL A   1      42.908  23.438  30.924  1.00  0.00     0.167 HD
ATOM     71  C   UNL A   1      44.346  26.355  32.680  1.00  0.00     0.074 A 
ATOM     72  C   UNL A   1      44.544  27.133  33.889  1.00  0.00     0.031 C 
ATOM     73  C   UNL A   1      44.590  25.054  32.350  1.00  0.00     0.037 A 
BRANCH  60  74
ATOM     74  C   UNL A   1      42.853  22.132  27.214  1.00  0.00     0.057 A 
ATOM     75  C   UNL A   1      42.084  20.955  27.310  1.00  0.00     0.134 A 
ATOM     76  C   UNL A   1      43.811  22.107  26.185  1.00  0.00     0.134 A 
ATOM     77  F   UNL A   1      41.042  20.859  28.145  1.00  0.00    -0.206 F 
ATOM     78  C   UNL A   1      42.341  19.807  26.547  1.00  0.00     0.040 A 
ATOM     79  C   UNL A   1      44.117  20.949  25.453  1.00  0.00     0.040 A 
ATOM     80  F   UNL A   1      44.453  23.216  25.799  1.00  0.00    -0.206 F 
ATOM     81  C   UNL A   1      43.391  19.785  25.646  1.00  0.00     0.006 A 
ENDBRANCH  60  74
BRANCH  61  82
ATOM     82  C   UNL A   1      41.840  30.355  32.273  1.00  0.00     0.057 A 
ATOM     83  C   UNL A   1      40.716  29.656  32.744  1.00  0.00     0.134 A 
ATOM     84  C   UNL A   1      41.994  31.677  32.702  1.00  0.00     0.134 A 
ATOM     85  F   UNL A   1      40.506  28.385  32.367  1.00  0.00    -0.206 F 
ATOM     86  C   UNL A   1      39.848  30.205  33.691  1.00  0.00     0.040 A 
ATOM     87  C   UNL A   1      41.126  32.241  33.644  1.00  0.00     0.040 A 
ATOM     88  F   UNL A   1      43.051  32.403  32.310  1.00  0.00    -0.206 F 
ATOM     89  C   UNL A   1      40.073  31.491  34.171  1.00  0.00     0.006 A 
ENDBRANCH  61  82
BRANCH  73  90
ATOM     90  C   UNL A   1      44.978  23.970  33.318  1.00  0.00     0.057 A 
ATOM     91  C   UNL A   1      44.122  22.930  33.709  1.00  0.00     0.134 A 
ATOM     92  C   UNL A   1      46.309  23.859  33.774  1.00  0.00     0.134 A 
ATOM     93  F   UNL A   1      42.861  22.857  33.262  1.00  0.00    -0.206 F 
ATOM     94  C   UNL A   1      44.544  21.885  34.540  1.00  0.00     0.040 A 
ATOM     95  C   UNL A   1      46.754  22.795  34.562  1.00  0.00     0.040 A 
ATOM     96  F   UNL A   1      47.241  24.770  33.453  1.00  0.00    -0.206 F 
ATOM     97  C   UNL A   1      45.866  21.808  34.960  1.00  0.00     0.006 A 
ENDBRANCH  73  90
ENDBRANCH  47  48
ENDBRANCH  39  42
ENDBRANCH  37  38
ENDBRANCH  36  37
ENDBRANCH   1  36
TORSDOF 15
ENDMDL
