MODEL 1
REMARK VINA RESULT:     -11.7      0.000      0.000
REMARK SMILES CC(C)(C)OC(=O)N1C[C@@H](c2cccc(Cl)c2)CC[C@H]1C(=O)NCCCNC(=O)c1ccc(-c2c3nc(c(-c4c(F)cccc4F)c4ccc([nH]4)c(-c4c(F)cccc4F)c4nc(c(-c5c(F)cccc5F)c5ccc2[nH]5)C=C4)C=C3)cc1
REMARK SMILES IDX 24 1 23 2 21 3 22 4 20 6 8 7 9 8 10 9 19 10 18 11 6 12 7 13
REMARK SMILES IDX 5 14 2 15 1 16 3 17 4 18 11 19 12 20 17 21 13 22 15 23 14 24
REMARK SMILES IDX 16 25 25 26 26 27 27 28 28 29 29 31 30 32 31 33 83 34 32 35
REMARK SMILES IDX 82 36 33 37 34 38 35 39 76 40 36 41 81 42 75 43 77 44 37 45
REMARK SMILES IDX 80 46 74 47 73 48 38 50 64 51 47 52 63 53 48 54 51 55 62 56
REMARK SMILES IDX 78 57 49 58 50 59 61 61 79 62 52 63 39 64 40 65 45 66 41 67
REMARK SMILES IDX 42 68 44 69 46 70 43 71 65 72 66 73 71 74 67 75 68 76 70 77
REMARK SMILES IDX 72 78 69 79 53 80 54 81 59 82 55 83 56 84 58 85 60 86 57 87
REMARK H PARENT 23 5 27 30 77 49 51 60
REMARK Flexibility Score: inf
ROOT
ATOM      1  C   UNL A   1      37.180  20.670  25.005  1.00  0.00     0.117 C 
ENDROOT
BRANCH   1   2
ATOM      2  N   UNL A   1      37.131  21.884  24.210  1.00  0.00    -0.354 N 
ATOM      3  C   UNL A   1      36.167  22.600  23.581  1.00  0.00     0.242 C 
ATOM      4  O   UNL A   1      36.597  23.613  23.005  1.00  0.00    -0.273 OA
ATOM      5  H   UNL A   1      38.022  22.290  24.100  1.00  0.00     0.163 HD
BRANCH   3   6
ATOM      6  C   UNL A   1      34.649  22.263  23.473  1.00  0.00     0.177 C 
ATOM      7  N   UNL A   1      34.040  22.324  24.803  1.00  0.00    -0.296 N 
ATOM      8  C   UNL A   1      33.920  23.643  25.367  1.00  0.00     0.132 C 
ATOM      9  C   UNL A   1      32.965  24.540  24.565  1.00  0.00     0.039 C 
ATOM     10  C   UNL A   1      33.687  23.004  22.543  1.00  0.00     0.036 C 
ATOM     11  C   UNL A   1      33.221  24.389  23.037  1.00  0.00     0.013 C 
BRANCH   7  12
ATOM     12  C   UNL A   1      33.238  21.328  25.316  1.00  0.00     0.410 C 
ATOM     13  O   UNL A   1      32.095  21.542  25.696  1.00  0.00    -0.224 OA
BRANCH  12  14
ATOM     14  O   UNL A   1      33.896  20.151  25.455  1.00  0.00    -0.444 OA
BRANCH  14  15
ATOM     15  C   UNL A   1      33.353  18.963  24.814  1.00  0.00     0.106 C 
ATOM     16  C   UNL A   1      34.576  18.166  24.332  1.00  0.00     0.056 C 
ATOM     17  C   UNL A   1      32.504  19.367  23.607  1.00  0.00     0.056 C 
ATOM     18  C   UNL A   1      32.567  18.052  25.778  1.00  0.00     0.056 C 
ENDBRANCH  14  15
ENDBRANCH  12  14
ENDBRANCH   7  12
BRANCH   9  19
ATOM     19  C   UNL A   1      33.023  25.999  25.049  1.00  0.00    -0.042 A 
ATOM     20  C   UNL A   1      33.848  26.940  24.411  1.00  0.00     0.004 A 
ATOM     21  C   UNL A   1      32.237  26.458  26.127  1.00  0.00     0.024 A 
ATOM     22  C   UNL A   1      33.928  28.262  24.868  1.00  0.00     0.002 A 
ATOM     23  C   UNL A   1      32.322  27.775  26.582  1.00  0.00     0.041 A 
ATOM     24  C   UNL A   1      33.172  28.679  25.961  1.00  0.00     0.020 A 
ATOM     25  Cl  UNL A   1      31.372  28.271  27.928  1.00  0.00    -0.084 Cl
ENDBRANCH   9  19
ENDBRANCH   3   6
ENDBRANCH   1   2
BRANCH   1  26
ATOM     26  C   UNL A   1      38.490  19.903  24.818  1.00  0.00     0.042 C 
BRANCH  26  27
ATOM     27  C   UNL A   1      39.244  19.593  26.107  1.00  0.00     0.118 C 
BRANCH  27  28
ATOM     28  N   UNL A   1      40.554  19.008  25.864  1.00  0.00    -0.352 N 
ATOM     29  C   UNL A   1      41.814  19.558  25.901  1.00  0.00     0.251 C 
ATOM     30  H   UNL A   1      40.536  18.051  25.635  1.00  0.00     0.163 HD
ATOM     31  O   UNL A   1      42.758  18.898  25.472  1.00  0.00    -0.269 OA
BRANCH  29  32
ATOM     32  C   UNL A   1      42.065  20.924  26.424  1.00  0.00     0.039 A 
ATOM     33  C   UNL A   1      42.000  21.131  27.810  1.00  0.00     0.014 A 
ATOM     34  C   UNL A   1      42.281  22.016  25.583  1.00  0.00     0.014 A 
ATOM     35  C   UNL A   1      42.208  22.406  28.345  1.00  0.00     0.010 A 
ATOM     36  C   UNL A   1      42.566  23.273  26.120  1.00  0.00     0.010 A 
ATOM     37  C   UNL A   1      42.521  23.485  27.506  1.00  0.00    -0.014 A 
BRANCH  37  38
ATOM     38  C   UNL A   1      42.778  24.846  28.049  1.00  0.00     0.031 A 
ATOM     39  C   UNL A   1      44.164  25.235  28.488  1.00  0.00     0.074 A 
ATOM     40  C   UNL A   1      41.759  25.712  28.207  1.00  0.00     0.049 A 
ATOM     41  N   UNL A   1      44.569  26.326  29.089  1.00  0.00    -0.248 NA
ATOM     42  C   UNL A   1      45.234  24.254  28.243  1.00  0.00     0.031 C 
ATOM     43  C   UNL A   1      40.364  25.456  27.846  1.00  0.00     0.029 A 
ATOM     44  N   UNL A   1      41.740  26.984  28.727  1.00  0.00    -0.354 N 
ATOM     45  C   UNL A   1      45.928  26.151  29.318  1.00  0.00     0.074 A 
ATOM     46  C   UNL A   1      46.272  24.834  28.826  1.00  0.00     0.031 C 
ATOM     47  C   UNL A   1      39.631  26.544  28.133  1.00  0.00     0.029 A 
ATOM     48  C   UNL A   1      40.493  27.557  28.735  1.00  0.00     0.049 A 
ATOM     49  H   UNL A   1      42.546  27.441  29.061  1.00  0.00     0.167 HD
ATOM     50  C   UNL A   1      46.814  27.014  29.872  1.00  0.00     0.037 A 
ATOM     51  C   UNL A   1      40.087  28.759  29.186  1.00  0.00     0.037 A 
ATOM     52  C   UNL A   1      46.484  28.337  30.328  1.00  0.00     0.049 A 
ATOM     53  C   UNL A   1      41.088  29.699  29.798  1.00  0.00     0.074 A 
ATOM     54  C   UNL A   1      47.324  29.304  30.853  1.00  0.00     0.029 A 
ATOM     55  N   UNL A   1      45.210  28.884  30.306  1.00  0.00    -0.354 N 
ATOM     56  N   UNL A   1      42.376  29.533  29.974  1.00  0.00    -0.248 NA
ATOM     57  C   UNL A   1      40.577  30.993  30.274  1.00  0.00     0.031 C 
ATOM     58  C   UNL A   1      46.553  30.427  31.176  1.00  0.00     0.029 A 
ATOM     59  C   UNL A   1      45.239  30.170  30.819  1.00  0.00     0.049 A 
ATOM     60  H   UNL A   1      44.404  28.426  29.974  1.00  0.00     0.167 HD
ATOM     61  C   UNL A   1      42.833  30.707  30.557  1.00  0.00     0.074 A 
ATOM     62  C   UNL A   1      41.687  31.581  30.696  1.00  0.00     0.031 C 
ATOM     63  C   UNL A   1      44.092  31.032  30.940  1.00  0.00     0.037 A 
BRANCH  50  64
ATOM     64  C   UNL A   1      48.233  26.545  30.013  1.00  0.00     0.057 A 
ATOM     65  C   UNL A   1      48.665  25.830  31.138  1.00  0.00     0.134 A 
ATOM     66  C   UNL A   1      49.173  26.794  29.005  1.00  0.00     0.134 A 
ATOM     67  F   UNL A   1      47.816  25.569  32.144  1.00  0.00    -0.206 F 
ATOM     68  C   UNL A   1      49.988  25.405  31.268  1.00  0.00     0.040 A 
ATOM     69  C   UNL A   1      50.493  26.353  29.114  1.00  0.00     0.040 A 
ATOM     70  F   UNL A   1      48.823  27.467  27.899  1.00  0.00    -0.206 F 
ATOM     71  C   UNL A   1      50.906  25.663  30.252  1.00  0.00     0.006 A 
ENDBRANCH  50  64
BRANCH  51  72
ATOM     72  C   UNL A   1      38.664  29.155  29.052  1.00  0.00     0.057 A 
ATOM     73  C   UNL A   1      38.157  29.600  27.825  1.00  0.00     0.134 A 
ATOM     74  C   UNL A   1      37.780  29.099  30.135  1.00  0.00     0.134 A 
ATOM     75  F   UNL A   1      38.963  29.693  26.757  1.00  0.00    -0.206 F 
ATOM     76  C   UNL A   1      36.824  29.987  27.683  1.00  0.00     0.040 A 
ATOM     77  C   UNL A   1      36.439  29.464  30.002  1.00  0.00     0.040 A 
ATOM     78  F   UNL A   1      38.204  28.673  31.335  1.00  0.00    -0.206 F 
ATOM     79  C   UNL A   1      35.960  29.915  28.773  1.00  0.00     0.006 A 
ENDBRANCH  51  72
BRANCH  63  80
ATOM     80  C   UNL A   1      44.303  32.401  31.513  1.00  0.00     0.057 A 
ATOM     81  C   UNL A   1      44.590  33.504  30.699  1.00  0.00     0.134 A 
ATOM     82  C   UNL A   1      44.172  32.626  32.889  1.00  0.00     0.134 A 
ATOM     83  F   UNL A   1      44.741  33.351  29.375  1.00  0.00    -0.206 F 
ATOM     84  C   UNL A   1      44.757  34.781  31.237  1.00  0.00     0.040 A 
ATOM     85  C   UNL A   1      44.317  33.900  33.436  1.00  0.00     0.040 A 
ATOM     86  F   UNL A   1      43.892  31.610  33.721  1.00  0.00    -0.206 F 
ATOM     87  C   UNL A   1      44.614  34.983  32.610  1.00  0.00     0.006 A 
ENDBRANCH  63  80
ENDBRANCH  37  38
ENDBRANCH  29  32
ENDBRANCH  27  28
ENDBRANCH  26  27
ENDBRANCH   1  26
TORSDOF 14
ENDMDL
MODEL 2
REMARK VINA RESULT:     -11.6      3.244      8.096
REMARK SMILES CC(C)(C)OC(=O)N1C[C@@H](c2cccc(Cl)c2)CC[C@H]1C(=O)NCCCNC(=O)c1ccc(-c2c3nc(c(-c4c(F)cccc4F)c4ccc([nH]4)c(-c4c(F)cccc4F)c4nc(c(-c5c(F)cccc5F)c5ccc2[nH]5)C=C4)C=C3)cc1
REMARK SMILES IDX 24 1 23 2 21 3 22 4 20 6 8 7 9 8 10 9 19 10 18 11 6 12 7 13
REMARK SMILES IDX 5 14 2 15 1 16 3 17 4 18 11 19 12 20 17 21 13 22 15 23 14 24
REMARK SMILES IDX 16 25 25 26 26 27 27 28 28 29 29 31 30 32 31 33 83 34 32 35
REMARK SMILES IDX 82 36 33 37 34 38 35 39 76 40 36 41 81 42 75 43 77 44 37 45
REMARK SMILES IDX 80 46 74 47 73 48 38 50 64 51 47 52 63 53 48 54 51 55 62 56
REMARK SMILES IDX 78 57 49 58 50 59 61 61 79 62 52 63 39 64 40 65 45 66 41 67
REMARK SMILES IDX 42 68 44 69 46 70 43 71 65 72 66 73 71 74 67 75 68 76 70 77
REMARK SMILES IDX 72 78 69 79 53 80 54 81 59 82 55 83 56 84 58 85 60 86 57 87
REMARK H PARENT 23 5 27 30 77 49 51 60
REMARK Flexibility Score: inf
ROOT
ATOM      1  C   UNL A   1      31.730  27.265  26.593  1.00  0.00     0.117 C 
ENDROOT
BRANCH   1   2
ATOM      2  N   UNL A   1      31.715  25.840  26.868  1.00  0.00    -0.354 N 
ATOM      3  C   UNL A   1      31.886  24.705  26.146  1.00  0.00     0.242 C 
ATOM      4  O   UNL A   1      31.789  23.667  26.820  1.00  0.00    -0.273 OA
ATOM      5  H   UNL A   1      31.535  25.648  27.817  1.00  0.00     0.163 HD
BRANCH   3   6
ATOM      6  C   UNL A   1      32.133  24.582  24.611  1.00  0.00     0.177 C 
ATOM      7  N   UNL A   1      33.269  25.425  24.231  1.00  0.00    -0.296 N 
ATOM      8  C   UNL A   1      34.557  24.969  24.686  1.00  0.00     0.132 C 
ATOM      9  C   UNL A   1      34.961  23.628  24.054  1.00  0.00     0.039 C 
ATOM     10  C   UNL A   1      32.353  23.246  23.900  1.00  0.00     0.036 C 
ATOM     11  C   UNL A   1      33.761  22.636  24.052  1.00  0.00     0.013 C 
BRANCH   7  12
ATOM     12  C   UNL A   1      33.235  26.313  23.178  1.00  0.00     0.410 C 
ATOM     13  O   UNL A   1      33.933  26.172  22.183  1.00  0.00    -0.224 OA
BRANCH  12  14
ATOM     14  O   UNL A   1      32.448  27.388  23.430  1.00  0.00    -0.444 OA
BRANCH  14  15
ATOM     15  C   UNL A   1      31.178  27.509  22.730  1.00  0.00     0.106 C 
ATOM     16  C   UNL A   1      31.261  26.514  21.562  1.00  0.00     0.056 C 
ATOM     17  C   UNL A   1      31.023  28.927  22.177  1.00  0.00     0.056 C 
ATOM     18  C   UNL A   1      29.964  27.102  23.589  1.00  0.00     0.056 C 
ENDBRANCH  14  15
ENDBRANCH  12  14
ENDBRANCH   7  12
BRANCH   9  19
ATOM     19  C   UNL A   1      36.224  23.053  24.716  1.00  0.00    -0.042 A 
ATOM     20  C   UNL A   1      37.049  23.855  25.520  1.00  0.00     0.004 A 
ATOM     21  C   UNL A   1      36.591  21.698  24.567  1.00  0.00     0.024 A 
ATOM     22  C   UNL A   1      38.218  23.343  26.099  1.00  0.00     0.002 A 
ATOM     23  C   UNL A   1      37.758  21.192  25.142  1.00  0.00     0.041 A 
ATOM     24  C   UNL A   1      38.579  22.013  25.903  1.00  0.00     0.020 A 
ATOM     25  Cl  UNL A   1      38.180  19.542  24.894  1.00  0.00    -0.084 Cl
ENDBRANCH   9  19
ENDBRANCH   3   6
ENDBRANCH   1   2
BRANCH   1  26
ATOM     26  C   UNL A   1      32.949  27.963  27.199  1.00  0.00     0.042 C 
BRANCH  26  27
ATOM     27  C   UNL A   1      33.727  28.852  26.236  1.00  0.00     0.118 C 
BRANCH  27  28
ATOM     28  N   UNL A   1      33.722  30.251  26.636  1.00  0.00    -0.352 N 
ATOM     29  C   UNL A   1      34.527  30.949  27.505  1.00  0.00     0.251 C 
ATOM     30  H   UNL A   1      33.021  30.794  26.209  1.00  0.00     0.163 HD
ATOM     31  O   UNL A   1      34.204  32.092  27.819  1.00  0.00    -0.269 OA
BRANCH  29  32
ATOM     32  C   UNL A   1      35.760  30.360  28.085  1.00  0.00     0.039 A 
ATOM     33  C   UNL A   1      36.947  30.428  27.341  1.00  0.00     0.014 A 
ATOM     34  C   UNL A   1      35.758  29.676  29.301  1.00  0.00     0.014 A 
ATOM     35  C   UNL A   1      38.127  29.867  27.839  1.00  0.00     0.010 A 
ATOM     36  C   UNL A   1      36.951  29.185  29.835  1.00  0.00     0.010 A 
ATOM     37  C   UNL A   1      38.147  29.264  29.105  1.00  0.00    -0.014 A 
BRANCH  37  38
ATOM     38  C   UNL A   1      39.393  28.687  29.675  1.00  0.00     0.031 A 
ATOM     39  C   UNL A   1      40.021  29.302  30.897  1.00  0.00     0.074 A 
ATOM     40  C   UNL A   1      39.998  27.652  29.061  1.00  0.00     0.049 A 
ATOM     41  N   UNL A   1      41.162  29.018  31.476  1.00  0.00    -0.248 NA
ATOM     42  C   UNL A   1      39.281  30.400  31.537  1.00  0.00     0.031 C 
ATOM     43  C   UNL A   1      39.511  26.976  27.858  1.00  0.00     0.029 A 
ATOM     44  N   UNL A   1      41.165  26.992  29.364  1.00  0.00    -0.354 N 
ATOM     45  C   UNL A   1      41.286  29.918  32.527  1.00  0.00     0.074 A 
ATOM     46  C   UNL A   1      40.126  30.781  32.483  1.00  0.00     0.031 C 
ATOM     47  C   UNL A   1      40.360  25.985  27.538  1.00  0.00     0.029 A 
ATOM     48  C   UNL A   1      41.469  25.980  28.487  1.00  0.00     0.049 A 
ATOM     49  H   UNL A   1      41.729  27.224  30.137  1.00  0.00     0.167 HD
ATOM     50  C   UNL A   1      42.270  30.008  33.455  1.00  0.00     0.037 A 
ATOM     51  C   UNL A   1      42.527  25.149  28.446  1.00  0.00     0.037 A 
ATOM     52  C   UNL A   1      43.406  29.129  33.525  1.00  0.00     0.049 A 
ATOM     53  C   UNL A   1      43.606  25.269  29.486  1.00  0.00     0.074 A 
ATOM     54  C   UNL A   1      44.426  29.107  34.461  1.00  0.00     0.029 A 
ATOM     55  N   UNL A   1      43.669  28.108  32.625  1.00  0.00    -0.354 N 
ATOM     56  N   UNL A   1      43.692  26.101  30.494  1.00  0.00    -0.248 NA
ATOM     57  C   UNL A   1      44.736  24.333  29.379  1.00  0.00     0.031 C 
ATOM     58  C   UNL A   1      45.322  28.092  34.110  1.00  0.00     0.029 A 
ATOM     59  C   UNL A   1      44.840  27.459  32.975  1.00  0.00     0.049 A 
ATOM     60  H   UNL A   1      43.106  27.878  31.850  1.00  0.00     0.167 HD
ATOM     61  C   UNL A   1      44.868  25.775  31.156  1.00  0.00     0.074 A 
ATOM     62  C   UNL A   1      45.458  24.662  30.441  1.00  0.00     0.031 C 
ATOM     63  C   UNL A   1      45.409  26.345  32.260  1.00  0.00     0.037 A 
BRANCH  50  64
ATOM     64  C   UNL A   1      42.153  31.103  34.475  1.00  0.00     0.057 A 
ATOM     65  C   UNL A   1      41.470  30.914  35.684  1.00  0.00     0.134 A 
ATOM     66  C   UNL A   1      42.745  32.352  34.255  1.00  0.00     0.134 A 
ATOM     67  F   UNL A   1      40.870  29.744  35.951  1.00  0.00    -0.206 F 
ATOM     68  C   UNL A   1      41.355  31.939  36.624  1.00  0.00     0.040 A 
ATOM     69  C   UNL A   1      42.657  33.378  35.199  1.00  0.00     0.040 A 
ATOM     70  F   UNL A   1      43.419  32.596  33.122  1.00  0.00    -0.206 F 
ATOM     71  C   UNL A   1      41.954  33.174  36.385  1.00  0.00     0.006 A 
ENDBRANCH  50  64
BRANCH  51  72
ATOM     72  C   UNL A   1      42.607  24.107  27.393  1.00  0.00     0.057 A 
ATOM     73  C   UNL A   1      42.122  22.815  27.627  1.00  0.00     0.134 A 
ATOM     74  C   UNL A   1      43.162  24.372  26.136  1.00  0.00     0.134 A 
ATOM     75  F   UNL A   1      41.596  22.497  28.819  1.00  0.00    -0.206 F 
ATOM     76  C   UNL A   1      42.198  21.819  26.652  1.00  0.00     0.040 A 
ATOM     77  C   UNL A   1      43.226  23.391  25.146  1.00  0.00     0.040 A 
ATOM     78  F   UNL A   1      43.636  25.595  25.849  1.00  0.00    -0.206 F 
ATOM     79  C   UNL A   1      42.747  22.109  25.405  1.00  0.00     0.006 A 
ENDBRANCH  51  72
BRANCH  63  80
ATOM     80  C   UNL A   1      46.683  25.755  32.783  1.00  0.00     0.057 A 
ATOM     81  C   UNL A   1      46.684  24.747  33.756  1.00  0.00     0.134 A 
ATOM     82  C   UNL A   1      47.921  26.167  32.275  1.00  0.00     0.134 A 
ATOM     83  F   UNL A   1      45.531  24.319  34.292  1.00  0.00    -0.206 F 
ATOM     84  C   UNL A   1      47.873  24.182  34.217  1.00  0.00     0.040 A 
ATOM     85  C   UNL A   1      49.116  25.596  32.714  1.00  0.00     0.040 A 
ATOM     86  F   UNL A   1      47.987  27.124  31.337  1.00  0.00    -0.206 F 
ATOM     87  C   UNL A   1      49.095  24.602  33.691  1.00  0.00     0.006 A 
ENDBRANCH  63  80
ENDBRANCH  37  38
ENDBRANCH  29  32
ENDBRANCH  27  28
ENDBRANCH  26  27
ENDBRANCH   1  26
TORSDOF 14
ENDMDL
MODEL 3
REMARK VINA RESULT:     -11.6      3.813      6.827
REMARK SMILES CC(C)(C)OC(=O)N1C[C@@H](c2cccc(Cl)c2)CC[C@H]1C(=O)NCCCNC(=O)c1ccc(-c2c3nc(c(-c4c(F)cccc4F)c4ccc([nH]4)c(-c4c(F)cccc4F)c4nc(c(-c5c(F)cccc5F)c5ccc2[nH]5)C=C4)C=C3)cc1
REMARK SMILES IDX 24 1 23 2 21 3 22 4 20 6 8 7 9 8 10 9 19 10 18 11 6 12 7 13
REMARK SMILES IDX 5 14 2 15 1 16 3 17 4 18 11 19 12 20 17 21 13 22 15 23 14 24
REMARK SMILES IDX 16 25 25 26 26 27 27 28 28 29 29 31 30 32 31 33 83 34 32 35
REMARK SMILES IDX 82 36 33 37 34 38 35 39 76 40 36 41 81 42 75 43 77 44 37 45
REMARK SMILES IDX 80 46 74 47 73 48 38 50 64 51 47 52 63 53 48 54 51 55 62 56
REMARK SMILES IDX 78 57 49 58 50 59 61 61 79 62 52 63 39 64 40 65 45 66 41 67
REMARK SMILES IDX 42 68 44 69 46 70 43 71 65 72 66 73 71 74 67 75 68 76 70 77
REMARK SMILES IDX 72 78 69 79 53 80 54 81 59 82 55 83 56 84 58 85 60 86 57 87
REMARK H PARENT 23 5 27 30 77 49 51 60
REMARK Flexibility Score: inf
ROOT
ATOM      1  C   UNL A   1      42.282  20.432  27.579  1.00  0.00     0.117 C 
ENDROOT
BRANCH   1   2
ATOM      2  N   UNL A   1      42.677  21.601  28.343  1.00  0.00    -0.354 N 
ATOM      3  C   UNL A   1      43.605  22.581  28.217  1.00  0.00     0.242 C 
ATOM      4  O   UNL A   1      43.581  23.411  29.140  1.00  0.00    -0.273 OA
ATOM      5  H   UNL A   1      42.135  21.711  29.158  1.00  0.00     0.163 HD
BRANCH   3   6
ATOM      6  C   UNL A   1      44.685  22.731  27.103  1.00  0.00     0.177 C 
ATOM      7  N   UNL A   1      44.033  23.051  25.831  1.00  0.00    -0.296 N 
ATOM      8  C   UNL A   1      43.460  24.369  25.745  1.00  0.00     0.132 C 
ATOM      9  C   UNL A   1      44.522  25.476  25.816  1.00  0.00     0.039 C 
ATOM     10  C   UNL A   1      45.875  23.687  27.208  1.00  0.00     0.036 C 
ATOM     11  C   UNL A   1      45.561  25.172  26.935  1.00  0.00     0.013 C 
BRANCH   7  12
ATOM     12  C   UNL A   1      44.298  22.385  24.655  1.00  0.00     0.410 C 
ATOM     13  O   UNL A   1      44.739  22.956  23.667  1.00  0.00    -0.224 OA
BRANCH  12  14
ATOM     14  O   UNL A   1      43.906  21.087  24.692  1.00  0.00    -0.444 OA
BRANCH  14  15
ATOM     15  C   UNL A   1      44.908  20.046  24.519  1.00  0.00     0.106 C 
ATOM     16  C   UNL A   1      44.796  19.614  23.049  1.00  0.00     0.056 C 
ATOM     17  C   UNL A   1      44.581  18.856  25.423  1.00  0.00     0.056 C 
ATOM     18  C   UNL A   1      46.351  20.542  24.739  1.00  0.00     0.056 C 
ENDBRANCH  14  15
ENDBRANCH  12  14
ENDBRANCH   7  12
BRANCH   9  19
ATOM     19  C   UNL A   1      43.878  26.867  25.947  1.00  0.00    -0.042 A 
ATOM     20  C   UNL A   1      42.758  27.221  25.177  1.00  0.00     0.004 A 
ATOM     21  C   UNL A   1      44.363  27.829  26.859  1.00  0.00     0.024 A 
ATOM     22  C   UNL A   1      42.188  28.497  25.270  1.00  0.00     0.002 A 
ATOM     23  C   UNL A   1      43.794  29.100  26.947  1.00  0.00     0.041 A 
ATOM     24  C   UNL A   1      42.711  29.442  26.148  1.00  0.00     0.020 A 
ATOM     25  Cl  UNL A   1      44.451  30.250  28.046  1.00  0.00    -0.084 Cl
ENDBRANCH   9  19
ENDBRANCH   3   6
ENDBRANCH   1   2
BRANCH   1  26
ATOM     26  C   UNL A   1      40.910  20.600  26.924  1.00  0.00     0.042 C 
BRANCH  26  27
ATOM     27  C   UNL A   1      40.738  21.874  26.106  1.00  0.00     0.118 C 
BRANCH  27  28
ATOM     28  N   UNL A   1      39.353  22.124  25.739  1.00  0.00    -0.352 N 
ATOM     29  C   UNL A   1      38.479  23.116  26.119  1.00  0.00     0.251 C 
ATOM     30  H   UNL A   1      38.974  21.471  25.108  1.00  0.00     0.163 HD
ATOM     31  O   UNL A   1      37.293  23.005  25.814  1.00  0.00    -0.269 OA
BRANCH  29  32
ATOM     32  C   UNL A   1      38.918  24.302  26.895  1.00  0.00     0.039 A 
ATOM     33  C   UNL A   1      39.671  25.287  26.241  1.00  0.00     0.014 A 
ATOM     34  C   UNL A   1      38.678  24.427  28.265  1.00  0.00     0.014 A 
ATOM     35  C   UNL A   1      40.125  26.411  26.939  1.00  0.00     0.010 A 
ATOM     36  C   UNL A   1      39.063  25.584  28.944  1.00  0.00     0.010 A 
ATOM     37  C   UNL A   1      39.800  26.584  28.293  1.00  0.00    -0.014 A 
BRANCH  37  38
ATOM     38  C   UNL A   1      40.242  27.783  29.054  1.00  0.00     0.031 A 
ATOM     39  C   UNL A   1      41.605  27.812  29.693  1.00  0.00     0.074 A 
ATOM     40  C   UNL A   1      39.401  28.819  29.227  1.00  0.00     0.049 A 
ATOM     41  N   UNL A   1      42.130  28.712  30.487  1.00  0.00    -0.248 NA
ATOM     42  C   UNL A   1      42.485  26.664  29.423  1.00  0.00     0.031 C 
ATOM     43  C   UNL A   1      38.045  28.911  28.683  1.00  0.00     0.029 A 
ATOM     44  N   UNL A   1      39.561  29.994  29.922  1.00  0.00    -0.354 N 
ATOM     45  C   UNL A   1      43.385  28.226  30.833  1.00  0.00     0.074 A 
ATOM     46  C   UNL A   1      43.528  26.935  30.193  1.00  0.00     0.031 C 
ATOM     47  C   UNL A   1      37.506  30.087  29.046  1.00  0.00     0.029 A 
ATOM     48  C   UNL A   1      38.460  30.813  29.879  1.00  0.00     0.049 A 
ATOM     49  H   UNL A   1      40.387  30.225  30.404  1.00  0.00     0.167 HD
ATOM     50  C   UNL A   1      44.339  28.807  31.600  1.00  0.00     0.037 A 
ATOM     51  C   UNL A   1      38.240  32.010  30.456  1.00  0.00     0.037 A 
ATOM     52  C   UNL A   1      44.216  30.105  32.206  1.00  0.00     0.049 A 
ATOM     53  C   UNL A   1      39.313  32.635  31.303  1.00  0.00     0.074 A 
ATOM     54  C   UNL A   1      45.149  30.801  32.955  1.00  0.00     0.029 A 
ATOM     55  N   UNL A   1      43.088  30.908  32.127  1.00  0.00    -0.354 N 
ATOM     56  N   UNL A   1      40.507  32.179  31.591  1.00  0.00    -0.248 NA
ATOM     57  C   UNL A   1      39.004  33.940  31.906  1.00  0.00     0.031 C 
ATOM     58  C   UNL A   1      44.576  32.014  33.354  1.00  0.00     0.029 A 
ATOM     59  C   UNL A   1      43.298  32.087  32.824  1.00  0.00     0.049 A 
ATOM     60  H   UNL A   1      42.261  30.675  31.647  1.00  0.00     0.167 HD
ATOM     61  C   UNL A   1      41.102  33.150  32.385  1.00  0.00     0.074 A 
ATOM     62  C   UNL A   1      40.141  34.224  32.527  1.00  0.00     0.031 C 
ATOM     63  C   UNL A   1      42.336  33.151  32.946  1.00  0.00     0.037 A 
BRANCH  50  64
ATOM     64  C   UNL A   1      45.606  28.034  31.822  1.00  0.00     0.057 A 
ATOM     65  C   UNL A   1      46.737  28.225  31.017  1.00  0.00     0.134 A 
ATOM     66  C   UNL A   1      45.704  27.104  32.864  1.00  0.00     0.134 A 
ATOM     67  F   UNL A   1      46.705  29.093  29.994  1.00  0.00    -0.206 F 
ATOM     68  C   UNL A   1      47.910  27.496  31.222  1.00  0.00     0.040 A 
ATOM     69  C   UNL A   1      46.880  26.386  33.093  1.00  0.00     0.040 A 
ATOM     70  F   UNL A   1      44.660  26.878  33.676  1.00  0.00    -0.206 F 
ATOM     71  C   UNL A   1      47.984  26.576  32.266  1.00  0.00     0.006 A 
ENDBRANCH  50  64
BRANCH  51  72
ATOM     72  C   UNL A   1      36.953  32.713  30.228  1.00  0.00     0.057 A 
ATOM     73  C   UNL A   1      36.796  33.585  29.145  1.00  0.00     0.134 A 
ATOM     74  C   UNL A   1      35.856  32.532  31.078  1.00  0.00     0.134 A 
ATOM     75  F   UNL A   1      37.818  33.812  28.308  1.00  0.00    -0.206 F 
ATOM     76  C   UNL A   1      35.596  34.262  28.921  1.00  0.00     0.040 A 
ATOM     77  C   UNL A   1      34.645  33.188  30.855  1.00  0.00     0.040 A 
ATOM     78  F   UNL A   1      35.943  31.702  32.129  1.00  0.00    -0.206 F 
ATOM     79  C   UNL A   1      34.515  34.060  29.776  1.00  0.00     0.006 A 
ENDBRANCH  51  72
BRANCH  63  80
ATOM     80  C   UNL A   1      42.731  34.364  33.732  1.00  0.00     0.057 A 
ATOM     81  C   UNL A   1      42.578  34.422  35.124  1.00  0.00     0.134 A 
ATOM     82  C   UNL A   1      43.311  35.469  33.097  1.00  0.00     0.134 A 
ATOM     83  F   UNL A   1      42.017  33.402  35.789  1.00  0.00    -0.206 F 
ATOM     84  C   UNL A   1      42.975  35.544  35.853  1.00  0.00     0.040 A 
ATOM     85  C   UNL A   1      43.729  36.587  33.817  1.00  0.00     0.040 A 
ATOM     86  F   UNL A   1      43.489  35.472  31.767  1.00  0.00    -0.206 F 
ATOM     87  C   UNL A   1      43.559  36.629  35.200  1.00  0.00     0.006 A 
ENDBRANCH  63  80
ENDBRANCH  37  38
ENDBRANCH  29  32
ENDBRANCH  27  28
ENDBRANCH  26  27
ENDBRANCH   1  26
TORSDOF 14
ENDMDL
