MODEL 1
REMARK VINA RESULT:     -11.0      0.000      0.000
REMARK SMILES O=C(NCCCNC(=O)[C@H](CO)NC(=O)[C@H](CS)NC(=O)c1ccc(F)cc1)c1ccc(-c2c3nc(c(-c4c(F)cccc4F)c4ccc([nH]4)c(-c4c(F)cccc4F)c4nc(c(-c5c(F)cccc5F)c5ccc2[nH]5)C=C4)C=C3)cc1
REMARK SMILES IDX 6 1 5 2 4 3 3 4 1 5 2 6 29 8 30 9 82 10 31 11 81 12 32 13
REMARK SMILES IDX 33 14 34 15 75 16 35 17 80 18 74 19 76 20 36 21 79 22 73 23
REMARK SMILES IDX 72 24 37 26 63 27 46 28 62 29 47 30 50 31 61 32 77 33 48 34
REMARK SMILES IDX 49 35 60 37 78 38 51 39 38 40 39 41 44 42 40 43 41 44 43 45
REMARK SMILES IDX 45 46 42 47 64 48 65 49 70 50 66 51 67 52 69 53 71 54 68 55
REMARK SMILES IDX 52 56 53 57 58 58 54 59 55 60 57 61 59 62 56 63 7 64 8 65
REMARK SMILES IDX 9 67 10 68 13 69 14 70 15 72 16 73 19 74 20 75 21 77 22 78
REMARK SMILES IDX 23 79 28 80 24 81 27 82 25 83 26 84 17 85 18 86 11 88 12 89
REMARK H PARENT 3 7 76 25 50 36 7 66 13 71 19 76 18 87 12 90
REMARK Flexibility Score: inf
ROOT
ATOM      1  C   UNL A   1      31.335  31.188  25.535  1.00  0.00     0.117 C 
ENDROOT
BRANCH   1   2
ATOM      2  C   UNL A   1      31.270  32.006  26.821  1.00  0.00     0.042 C 
BRANCH   2   3
ATOM      3  C   UNL A   1      32.609  32.612  27.218  1.00  0.00     0.118 C 
BRANCH   3   4
ATOM      4  N   UNL A   1      32.483  34.023  27.553  1.00  0.00    -0.352 N 
ATOM      5  O   UNL A   1      32.698  35.852  28.849  1.00  0.00    -0.269 OA
ATOM      6  C   UNL A   1      33.116  34.734  28.538  1.00  0.00     0.251 C 
ATOM      7  H   UNL A   1      31.855  34.536  26.996  1.00  0.00     0.163 HD
BRANCH   6   8
ATOM      8  C   UNL A   1      34.300  34.174  29.223  1.00  0.00     0.039 A 
ATOM      9  C   UNL A   1      34.148  33.226  30.239  1.00  0.00     0.014 A 
ATOM     10  C   UNL A   1      35.579  34.546  28.800  1.00  0.00     0.014 A 
ATOM     11  C   UNL A   1      35.265  32.722  30.894  1.00  0.00     0.010 A 
ATOM     12  C   UNL A   1      36.704  33.973  29.398  1.00  0.00     0.010 A 
ATOM     13  C   UNL A   1      36.553  33.052  30.446  1.00  0.00    -0.014 A 
BRANCH  13  14
ATOM     14  C   UNL A   1      37.715  32.299  30.976  1.00  0.00     0.031 A 
ATOM     15  C   UNL A   1      38.367  31.202  30.188  1.00  0.00     0.074 A 
ATOM     16  C   UNL A   1      38.165  32.621  32.205  1.00  0.00     0.049 A 
ATOM     17  N   UNL A   1      39.362  30.427  30.538  1.00  0.00    -0.248 NA
ATOM     18  C   UNL A   1      37.842  30.933  28.840  1.00  0.00     0.031 C 
ATOM     19  C   UNL A   1      37.590  33.662  33.063  1.00  0.00     0.029 A 
ATOM     20  N   UNL A   1      39.202  32.119  32.949  1.00  0.00    -0.354 N 
ATOM     21  C   UNL A   1      39.575  29.572  29.465  1.00  0.00     0.074 A 
ATOM     22  C   UNL A   1      38.597  29.911  28.454  1.00  0.00     0.031 C 
ATOM     23  C   UNL A   1      38.295  33.740  34.199  1.00  0.00     0.029 A 
ATOM     24  C   UNL A   1      39.322  32.707  34.186  1.00  0.00     0.049 A 
ATOM     25  H   UNL A   1      39.800  31.406  32.629  1.00  0.00     0.167 HD
ATOM     26  C   UNL A   1      40.510  28.601  29.347  1.00  0.00     0.037 A 
ATOM     27  C   UNL A   1      40.141  32.423  35.217  1.00  0.00     0.037 A 
ATOM     28  C   UNL A   1      41.491  28.294  30.356  1.00  0.00     0.049 A 
ATOM     29  C   UNL A   1      41.133  31.309  35.067  1.00  0.00     0.074 A 
ATOM     30  C   UNL A   1      42.520  27.371  30.294  1.00  0.00     0.029 A 
ATOM     31  N   UNL A   1      41.560  28.889  31.605  1.00  0.00    -0.354 N 
ATOM     32  N   UNL A   1      41.358  30.547  34.024  1.00  0.00    -0.248 NA
ATOM     33  C   UNL A   1      41.973  31.002  36.232  1.00  0.00     0.031 C 
ATOM     34  C   UNL A   1      43.175  27.364  31.527  1.00  0.00     0.029 A 
ATOM     35  C   UNL A   1      42.589  28.322  32.339  1.00  0.00     0.049 A 
ATOM     36  H   UNL A   1      40.969  29.609  31.923  1.00  0.00     0.167 HD
ATOM     37  C   UNL A   1      42.367  29.675  34.404  1.00  0.00     0.074 A 
ATOM     38  C   UNL A   1      42.730  30.018  35.764  1.00  0.00     0.031 C 
ATOM     39  C   UNL A   1      42.935  28.673  33.691  1.00  0.00     0.037 A 
BRANCH  26  40
ATOM     40  C   UNL A   1      40.542  27.779  28.093  1.00  0.00     0.057 A 
ATOM     41  C   UNL A   1      39.940  26.513  28.060  1.00  0.00     0.134 A 
ATOM     42  C   UNL A   1      41.298  28.166  26.980  1.00  0.00     0.134 A 
ATOM     43  F   UNL A   1      39.211  26.080  29.099  1.00  0.00    -0.206 F 
ATOM     44  C   UNL A   1      40.116  25.649  26.978  1.00  0.00     0.040 A 
ATOM     45  C   UNL A   1      41.466  27.317  25.884  1.00  0.00     0.040 A 
ATOM     46  F   UNL A   1      41.896  29.367  26.948  1.00  0.00    -0.206 F 
ATOM     47  C   UNL A   1      40.887  26.048  25.889  1.00  0.00     0.006 A 
ENDBRANCH  26  40
BRANCH  27  48
ATOM     48  C   UNL A   1      40.014  33.183  36.486  1.00  0.00     0.057 A 
ATOM     49  C   UNL A   1      39.095  32.802  37.472  1.00  0.00     0.134 A 
ATOM     50  C   UNL A   1      40.789  34.321  36.734  1.00  0.00     0.134 A 
ATOM     51  F   UNL A   1      38.316  31.725  37.293  1.00  0.00    -0.206 F 
ATOM     52  C   UNL A   1      38.936  33.534  38.649  1.00  0.00     0.040 A 
ATOM     53  C   UNL A   1      40.663  35.046  37.921  1.00  0.00     0.040 A 
ATOM     54  F   UNL A   1      41.699  34.728  35.836  1.00  0.00    -0.206 F 
ATOM     55  C   UNL A   1      39.727  34.657  38.877  1.00  0.00     0.006 A 
ENDBRANCH  27  48
BRANCH  39  56
ATOM     56  C   UNL A   1      44.006  27.867  34.360  1.00  0.00     0.057 A 
ATOM     57  C   UNL A   1      43.687  26.703  35.072  1.00  0.00     0.134 A 
ATOM     58  C   UNL A   1      45.336  28.301  34.383  1.00  0.00     0.134 A 
ATOM     59  F   UNL A   1      42.427  26.242  35.097  1.00  0.00    -0.206 F 
ATOM     60  C   UNL A   1      44.651  26.013  35.806  1.00  0.00     0.040 A 
ATOM     61  C   UNL A   1      46.314  27.605  35.093  1.00  0.00     0.040 A 
ATOM     62  F   UNL A   1      45.705  29.400  33.710  1.00  0.00    -0.206 F 
ATOM     63  C   UNL A   1      45.969  26.466  35.819  1.00  0.00     0.006 A 
ENDBRANCH  39  56
ENDBRANCH  13  14
ENDBRANCH   6   8
ENDBRANCH   3   4
ENDBRANCH   2   3
ENDBRANCH   1   2
BRANCH   1  64
ATOM     64  N   UNL A   1      30.122  31.320  24.751  1.00  0.00    -0.354 N 
ATOM     65  C   UNL A   1      29.628  30.519  23.768  1.00  0.00     0.244 C 
ATOM     66  H   UNL A   1      29.573  32.110  24.960  1.00  0.00     0.163 HD
ATOM     67  O   UNL A   1      28.620  30.907  23.170  1.00  0.00    -0.273 OA
BRANCH  65  68
ATOM     68  C   UNL A   1      30.278  29.153  23.456  1.00  0.00     0.197 C 
BRANCH  68  69
ATOM     69  N   UNL A   1      29.229  28.121  23.519  1.00  0.00    -0.340 N 
ATOM     70  C   UNL A   1      29.327  26.777  23.718  1.00  0.00     0.244 C 
ATOM     71  H   UNL A   1      28.311  28.456  23.397  1.00  0.00     0.164 HD
ATOM     72  O   UNL A   1      28.284  26.123  23.742  1.00  0.00    -0.273 OA
BRANCH  70  73
ATOM     73  C   UNL A   1      30.711  26.123  23.878  1.00  0.00     0.181 C 
BRANCH  73  74
ATOM     74  N   UNL A   1      30.689  25.259  25.061  1.00  0.00    -0.339 N 
ATOM     75  C   UNL A   1      31.293  25.400  26.279  1.00  0.00     0.251 C 
ATOM     76  H   UNL A   1      30.151  24.440  24.962  1.00  0.00     0.164 HD
ATOM     77  O   UNL A   1      31.191  24.515  27.127  1.00  0.00    -0.269 OA
BRANCH  75  78
ATOM     78  C   UNL A   1      32.124  26.585  26.571  1.00  0.00     0.040 A 
ATOM     79  C   UNL A   1      31.651  27.637  27.367  1.00  0.00     0.017 A 
ATOM     80  C   UNL A   1      33.433  26.611  26.070  1.00  0.00     0.017 A 
ATOM     81  C   UNL A   1      32.465  28.747  27.598  1.00  0.00     0.040 A 
ATOM     82  C   UNL A   1      34.247  27.716  26.318  1.00  0.00     0.040 A 
ATOM     83  C   UNL A   1      33.751  28.779  27.068  1.00  0.00     0.123 A 
ATOM     84  F   UNL A   1      34.529  29.845  27.290  1.00  0.00    -0.207 F 
ENDBRANCH  75  78
ENDBRANCH  73  74
BRANCH  73  85
ATOM     85  C   UNL A   1      31.151  25.390  22.602  1.00  0.00     0.101 C 
BRANCH  85  86
ATOM     86  S   UNL A   1      32.936  25.444  22.249  1.00  0.00    -0.177 SA
ATOM     87  H   UNL A   1      33.130  25.564  20.909  1.00  0.00     0.102 HD
ENDBRANCH  85  86
ENDBRANCH  73  85
ENDBRANCH  70  73
ENDBRANCH  68  69
BRANCH  68  88
ATOM     88  C   UNL A   1      30.966  29.075  22.088  1.00  0.00     0.191 C 
BRANCH  88  89
ATOM     89  O   UNL A   1      30.619  30.148  21.222  1.00  0.00    -0.394 OA
ATOM     90  H   UNL A   1      30.013  29.826  20.536  1.00  0.00     0.210 HD
ENDBRANCH  88  89
ENDBRANCH  68  88
ENDBRANCH  65  68
ENDBRANCH   1  64
TORSDOF 18
ENDMDL
MODEL 2
REMARK VINA RESULT:     -10.9      0.978      1.739
REMARK SMILES O=C(NCCCNC(=O)[C@H](CO)NC(=O)[C@H](CS)NC(=O)c1ccc(F)cc1)c1ccc(-c2c3nc(c(-c4c(F)cccc4F)c4ccc([nH]4)c(-c4c(F)cccc4F)c4nc(c(-c5c(F)cccc5F)c5ccc2[nH]5)C=C4)C=C3)cc1
REMARK SMILES IDX 6 1 5 2 4 3 3 4 1 5 2 6 29 8 30 9 82 10 31 11 81 12 32 13
REMARK SMILES IDX 33 14 34 15 75 16 35 17 80 18 74 19 76 20 36 21 79 22 73 23
REMARK SMILES IDX 72 24 37 26 63 27 46 28 62 29 47 30 50 31 61 32 77 33 48 34
REMARK SMILES IDX 49 35 60 37 78 38 51 39 38 40 39 41 44 42 40 43 41 44 43 45
REMARK SMILES IDX 45 46 42 47 64 48 65 49 70 50 66 51 67 52 69 53 71 54 68 55
REMARK SMILES IDX 52 56 53 57 58 58 54 59 55 60 57 61 59 62 56 63 7 64 8 65
REMARK SMILES IDX 9 67 10 68 13 69 14 70 15 72 16 73 19 74 20 75 21 77 22 78
REMARK SMILES IDX 23 79 28 80 24 81 27 82 25 83 26 84 17 85 18 86 11 88 12 89
REMARK H PARENT 3 7 76 25 50 36 7 66 13 71 19 76 18 87 12 90
REMARK Flexibility Score: inf
ROOT
ATOM      1  C   UNL A   1      30.664  31.222  25.239  1.00  0.00     0.117 C 
ENDROOT
BRANCH   1   2
ATOM      2  C   UNL A   1      30.962  31.982  26.527  1.00  0.00     0.042 C 
BRANCH   2   3
ATOM      3  C   UNL A   1      32.383  32.526  26.591  1.00  0.00     0.118 C 
BRANCH   3   4
ATOM      4  N   UNL A   1      32.431  33.833  27.229  1.00  0.00    -0.352 N 
ATOM      5  O   UNL A   1      32.930  35.305  28.859  1.00  0.00    -0.269 OA
ATOM      6  C   UNL A   1      33.204  34.251  28.280  1.00  0.00     0.251 C 
ATOM      7  H   UNL A   1      31.822  34.510  26.856  1.00  0.00     0.163 HD
BRANCH   6   8
ATOM      8  C   UNL A   1      34.368  33.452  28.717  1.00  0.00     0.039 A 
ATOM      9  C   UNL A   1      35.668  33.878  28.430  1.00  0.00     0.014 A 
ATOM     10  C   UNL A   1      34.163  32.301  29.483  1.00  0.00     0.014 A 
ATOM     11  C   UNL A   1      36.756  33.109  28.824  1.00  0.00     0.010 A 
ATOM     12  C   UNL A   1      35.259  31.576  29.957  1.00  0.00     0.010 A 
ATOM     13  C   UNL A   1      36.564  31.979  29.634  1.00  0.00    -0.014 A 
BRANCH  13  14
ATOM     14  C   UNL A   1      37.742  31.336  30.265  1.00  0.00     0.031 A 
ATOM     15  C   UNL A   1      38.592  30.349  29.522  1.00  0.00     0.074 A 
ATOM     16  C   UNL A   1      38.023  31.658  31.543  1.00  0.00     0.049 A 
ATOM     17  N   UNL A   1      39.626  29.674  29.955  1.00  0.00    -0.248 NA
ATOM     18  C   UNL A   1      38.243  30.077  28.118  1.00  0.00     0.031 C 
ATOM     19  C   UNL A   1      37.249  32.595  32.363  1.00  0.00     0.029 A 
ATOM     20  N   UNL A   1      39.027  31.243  32.380  1.00  0.00    -0.354 N 
ATOM     21  C   UNL A   1      40.043  28.890  28.889  1.00  0.00     0.074 A 
ATOM     22  C   UNL A   1      39.144  29.159  27.788  1.00  0.00     0.031 C 
ATOM     23  C   UNL A   1      37.819  32.705  33.569  1.00  0.00     0.029 A 
ATOM     24  C   UNL A   1      38.951  31.792  33.639  1.00  0.00     0.049 A 
ATOM     25  H   UNL A   1      39.732  30.613  32.107  1.00  0.00     0.167 HD
ATOM     26  C   UNL A   1      41.089  28.032  28.845  1.00  0.00     0.037 A 
ATOM     27  C   UNL A   1      39.686  31.559  34.743  1.00  0.00     0.037 A 
ATOM     28  C   UNL A   1      41.989  27.795  29.944  1.00  0.00     0.049 A 
ATOM     29  C   UNL A   1      40.807  30.567  34.670  1.00  0.00     0.074 A 
ATOM     30  C   UNL A   1      43.116  26.992  29.969  1.00  0.00     0.029 A 
ATOM     31  N   UNL A   1      41.861  28.345  31.210  1.00  0.00    -0.354 N 
ATOM     32  N   UNL A   1      41.223  29.875  33.637  1.00  0.00    -0.248 NA
ATOM     33  C   UNL A   1      41.551  30.308  35.910  1.00  0.00     0.031 C 
ATOM     34  C   UNL A   1      43.636  27.009  31.264  1.00  0.00     0.029 A 
ATOM     35  C   UNL A   1      42.865  27.865  32.034  1.00  0.00     0.049 A 
ATOM     36  H   UNL A   1      41.162  28.983  31.482  1.00  0.00     0.167 HD
ATOM     37  C   UNL A   1      42.279  29.104  34.099  1.00  0.00     0.074 A 
ATOM     38  C   UNL A   1      42.458  29.431  35.499  1.00  0.00     0.031 C 
ATOM     39  C   UNL A   1      43.027  28.199  33.425  1.00  0.00     0.037 A 
BRANCH  26  40
ATOM     40  C   UNL A   1      41.343  27.268  27.579  1.00  0.00     0.057 A 
ATOM     41  C   UNL A   1      40.887  25.949  27.445  1.00  0.00     0.134 A 
ATOM     42  C   UNL A   1      42.169  27.775  26.569  1.00  0.00     0.134 A 
ATOM     43  F   UNL A   1      40.101  25.403  28.384  1.00  0.00    -0.206 F 
ATOM     44  C   UNL A   1      41.270  25.151  26.365  1.00  0.00     0.040 A 
ATOM     45  C   UNL A   1      42.543  26.991  25.475  1.00  0.00     0.040 A 
ATOM     46  F   UNL A   1      42.635  29.031  26.637  1.00  0.00    -0.206 F 
ATOM     47  C   UNL A   1      42.106  25.671  25.380  1.00  0.00     0.006 A 
ENDBRANCH  26  40
BRANCH  27  48
ATOM     48  C   UNL A   1      39.343  32.251  36.011  1.00  0.00     0.057 A 
ATOM     49  C   UNL A   1      39.956  33.459  36.368  1.00  0.00     0.134 A 
ATOM     50  C   UNL A   1      38.416  31.710  36.908  1.00  0.00     0.134 A 
ATOM     51  F   UNL A   1      40.861  34.026  35.556  1.00  0.00    -0.206 F 
ATOM     52  C   UNL A   1      39.676  34.094  37.578  1.00  0.00     0.040 A 
ATOM     53  C   UNL A   1      38.102  32.351  38.108  1.00  0.00     0.040 A 
ATOM     54  F   UNL A   1      37.783  30.564  36.616  1.00  0.00    -0.206 F 
ATOM     55  C   UNL A   1      38.740  33.542  38.449  1.00  0.00     0.006 A 
ENDBRANCH  27  48
BRANCH  39  56
ATOM     56  C   UNL A   1      44.107  27.488  34.183  1.00  0.00     0.057 A 
ATOM     57  C   UNL A   1      45.403  28.014  34.243  1.00  0.00     0.134 A 
ATOM     58  C   UNL A   1      43.883  26.236  34.764  1.00  0.00     0.134 A 
ATOM     59  F   UNL A   1      45.683  29.206  33.695  1.00  0.00    -0.206 F 
ATOM     60  C   UNL A   1      46.448  27.304  34.834  1.00  0.00     0.040 A 
ATOM     61  C   UNL A   1      44.915  25.527  35.380  1.00  0.00     0.040 A 
ATOM     62  F   UNL A   1      42.660  25.687  34.750  1.00  0.00    -0.206 F 
ATOM     63  C   UNL A   1      46.205  26.055  35.403  1.00  0.00     0.006 A 
ENDBRANCH  39  56
ENDBRANCH  13  14
ENDBRANCH   6   8
ENDBRANCH   3   4
ENDBRANCH   2   3
ENDBRANCH   1   2
BRANCH   1  64
ATOM     64  N   UNL A   1      29.409  31.643  24.644  1.00  0.00    -0.354 N 
ATOM     65  C   UNL A   1      28.782  31.191  23.523  1.00  0.00     0.244 C 
ATOM     66  H   UNL A   1      28.942  32.365  25.121  1.00  0.00     0.163 HD
ATOM     67  O   UNL A   1      27.766  31.790  23.159  1.00  0.00    -0.273 OA
BRANCH  65  68
ATOM     68  C   UNL A   1      29.299  29.943  22.773  1.00  0.00     0.197 C 
BRANCH  68  69
ATOM     69  N   UNL A   1      28.436  28.804  23.132  1.00  0.00    -0.340 N 
ATOM     70  C   UNL A   1      28.759  27.585  23.645  1.00  0.00     0.244 C 
ATOM     71  H   UNL A   1      27.475  28.947  22.975  1.00  0.00     0.164 HD
ATOM     72  O   UNL A   1      27.839  26.797  23.874  1.00  0.00    -0.273 OA
BRANCH  70  73
ATOM     73  C   UNL A   1      30.233  27.220  23.895  1.00  0.00     0.181 C 
BRANCH  73  74
ATOM     74  N   UNL A   1      30.291  26.160  24.905  1.00  0.00    -0.339 N 
ATOM     75  C   UNL A   1      31.075  26.031  26.017  1.00  0.00     0.251 C 
ATOM     76  H   UNL A   1      29.662  25.418  24.758  1.00  0.00     0.164 HD
ATOM     77  O   UNL A   1      31.005  25.018  26.711  1.00  0.00    -0.269 OA
BRANCH  75  78
ATOM     78  C   UNL A   1      32.059  27.076  26.366  1.00  0.00     0.040 A 
ATOM     79  C   UNL A   1      31.766  28.081  27.297  1.00  0.00     0.017 A 
ATOM     80  C   UNL A   1      33.328  27.009  25.775  1.00  0.00     0.017 A 
ATOM     81  C   UNL A   1      32.721  29.060  27.579  1.00  0.00     0.040 A 
ATOM     82  C   UNL A   1      34.283  27.981  26.073  1.00  0.00     0.040 A 
ATOM     83  C   UNL A   1      33.966  29.004  26.961  1.00  0.00     0.123 A 
ATOM     84  F   UNL A   1      34.878  29.945  27.232  1.00  0.00    -0.207 F 
ENDBRANCH  75  78
ENDBRANCH  73  74
BRANCH  73  85
ATOM     85  C   UNL A   1      30.963  26.856  22.594  1.00  0.00     0.101 C 
BRANCH  85  86
ATOM     86  S   UNL A   1      31.883  25.286  22.630  1.00  0.00    -0.177 SA
ATOM     87  H   UNL A   1      32.139  24.940  23.920  1.00  0.00     0.102 HD
ENDBRANCH  85  86
ENDBRANCH  73  85
ENDBRANCH  70  73
ENDBRANCH  68  69
BRANCH  68  88
ATOM     88  C   UNL A   1      29.321  30.084  21.247  1.00  0.00     0.191 C 
BRANCH  88  89
ATOM     89  O   UNL A   1      28.022  30.155  20.669  1.00  0.00    -0.394 OA
ATOM     90  H   UNL A   1      27.519  29.361  20.910  1.00  0.00     0.210 HD
ENDBRANCH  88  89
ENDBRANCH  68  88
ENDBRANCH  65  68
ENDBRANCH   1  64
TORSDOF 18
ENDMDL
MODEL 3
REMARK VINA RESULT:     -10.9      5.749     10.558
REMARK SMILES O=C(NCCCNC(=O)[C@H](CO)NC(=O)[C@H](CS)NC(=O)c1ccc(F)cc1)c1ccc(-c2c3nc(c(-c4c(F)cccc4F)c4ccc([nH]4)c(-c4c(F)cccc4F)c4nc(c(-c5c(F)cccc5F)c5ccc2[nH]5)C=C4)C=C3)cc1
REMARK SMILES IDX 6 1 5 2 4 3 3 4 1 5 2 6 29 8 30 9 82 10 31 11 81 12 32 13
REMARK SMILES IDX 33 14 34 15 75 16 35 17 80 18 74 19 76 20 36 21 79 22 73 23
REMARK SMILES IDX 72 24 37 26 63 27 46 28 62 29 47 30 50 31 61 32 77 33 48 34
REMARK SMILES IDX 49 35 60 37 78 38 51 39 38 40 39 41 44 42 40 43 41 44 43 45
REMARK SMILES IDX 45 46 42 47 64 48 65 49 70 50 66 51 67 52 69 53 71 54 68 55
REMARK SMILES IDX 52 56 53 57 58 58 54 59 55 60 57 61 59 62 56 63 7 64 8 65
REMARK SMILES IDX 9 67 10 68 13 69 14 70 15 72 16 73 19 74 20 75 21 77 22 78
REMARK SMILES IDX 23 79 28 80 24 81 27 82 25 83 26 84 17 85 18 86 11 88 12 89
REMARK H PARENT 3 7 76 25 50 36 7 66 13 71 19 76 18 87 12 90
REMARK Flexibility Score: inf
ROOT
ATOM      1  C   UNL A   1      36.662  19.919  25.185  1.00  0.00     0.117 C 
ENDROOT
BRANCH   1   2
ATOM      2  C   UNL A   1      38.101  19.968  24.683  1.00  0.00     0.042 C 
BRANCH   2   3
ATOM      3  C   UNL A   1      39.112  20.283  25.778  1.00  0.00     0.118 C 
BRANCH   3   4
ATOM      4  N   UNL A   1      40.082  19.211  25.939  1.00  0.00    -0.352 N 
ATOM      5  O   UNL A   1      42.136  18.288  25.964  1.00  0.00    -0.269 OA
ATOM      6  C   UNL A   1      41.440  19.296  26.106  1.00  0.00     0.251 C 
ATOM      7  H   UNL A   1      39.713  18.299  25.925  1.00  0.00     0.163 HD
BRANCH   6   8
ATOM      8  C   UNL A   1      42.072  20.583  26.462  1.00  0.00     0.039 A 
ATOM      9  C   UNL A   1      42.534  21.446  25.464  1.00  0.00     0.014 A 
ATOM     10  C   UNL A   1      42.140  20.967  27.805  1.00  0.00     0.014 A 
ATOM     11  C   UNL A   1      43.148  22.643  25.808  1.00  0.00     0.010 A 
ATOM     12  C   UNL A   1      42.676  22.212  28.146  1.00  0.00     0.010 A 
ATOM     13  C   UNL A   1      43.180  23.060  27.148  1.00  0.00    -0.014 A 
BRANCH  13  14
ATOM     14  C   UNL A   1      43.589  24.451  27.460  1.00  0.00     0.031 A 
ATOM     15  C   UNL A   1      42.589  25.493  27.864  1.00  0.00     0.074 A 
ATOM     16  C   UNL A   1      44.897  24.759  27.358  1.00  0.00     0.049 A 
ATOM     17  N   UNL A   1      42.792  26.759  28.125  1.00  0.00    -0.248 NA
ATOM     18  C   UNL A   1      41.185  25.071  27.990  1.00  0.00     0.031 C 
ATOM     19  C   UNL A   1      45.951  23.821  26.956  1.00  0.00     0.029 A 
ATOM     20  N   UNL A   1      45.570  25.932  27.580  1.00  0.00    -0.354 N 
ATOM     21  C   UNL A   1      41.546  27.289  28.432  1.00  0.00     0.074 A 
ATOM     22  C   UNL A   1      40.587  26.213  28.311  1.00  0.00     0.031 C 
ATOM     23  C   UNL A   1      47.135  24.445  26.988  1.00  0.00     0.029 A 
ATOM     24  C   UNL A   1      46.920  25.843  27.336  1.00  0.00     0.049 A 
ATOM     25  H   UNL A   1      45.130  26.758  27.885  1.00  0.00     0.167 HD
ATOM     26  C   UNL A   1      41.245  28.560  28.786  1.00  0.00     0.037 A 
ATOM     27  C   UNL A   1      47.878  26.789  27.350  1.00  0.00     0.037 A 
ATOM     28  C   UNL A   1      42.218  29.614  28.925  1.00  0.00     0.049 A 
ATOM     29  C   UNL A   1      47.501  28.196  27.701  1.00  0.00     0.074 A 
ATOM     30  C   UNL A   1      42.013  30.916  29.344  1.00  0.00     0.029 A 
ATOM     31  N   UNL A   1      43.568  29.493  28.638  1.00  0.00    -0.354 N 
ATOM     32  N   UNL A   1      46.327  28.669  28.043  1.00  0.00    -0.248 NA
ATOM     33  C   UNL A   1      48.568  29.205  27.657  1.00  0.00     0.031 C 
ATOM     34  C   UNL A   1      43.227  31.600  29.255  1.00  0.00     0.029 A 
ATOM     35  C   UNL A   1      44.200  30.710  28.832  1.00  0.00     0.049 A 
ATOM     36  H   UNL A   1      44.012  28.665  28.343  1.00  0.00     0.167 HD
ATOM     37  C   UNL A   1      46.513  30.026  28.259  1.00  0.00     0.074 A 
ATOM     38  C   UNL A   1      47.919  30.298  28.036  1.00  0.00     0.031 C 
ATOM     39  C   UNL A   1      45.599  30.963  28.603  1.00  0.00     0.037 A 
BRANCH  26  40
ATOM     40  C   UNL A   1      39.813  28.915  29.056  1.00  0.00     0.057 A 
ATOM     41  C   UNL A   1      39.267  28.731  30.334  1.00  0.00     0.134 A 
ATOM     42  C   UNL A   1      38.941  29.283  28.025  1.00  0.00     0.134 A 
ATOM     43  F   UNL A   1      40.048  28.368  31.361  1.00  0.00    -0.206 F 
ATOM     44  C   UNL A   1      37.898  28.868  30.569  1.00  0.00     0.040 A 
ATOM     45  C   UNL A   1      37.573  29.442  28.252  1.00  0.00     0.040 A 
ATOM     46  F   UNL A   1      39.403  29.479  26.781  1.00  0.00    -0.206 F 
ATOM     47  C   UNL A   1      37.046  29.219  29.524  1.00  0.00     0.006 A 
ENDBRANCH  26  40
BRANCH  27  48
ATOM     48  C   UNL A   1      49.269  26.430  26.974  1.00  0.00     0.057 A 
ATOM     49  C   UNL A   1      50.170  25.926  27.922  1.00  0.00     0.134 A 
ATOM     50  C   UNL A   1      49.739  26.604  25.668  1.00  0.00     0.134 A 
ATOM     51  F   UNL A   1      49.785  25.744  29.194  1.00  0.00    -0.206 F 
ATOM     52  C   UNL A   1      51.493  25.628  27.590  1.00  0.00     0.040 A 
ATOM     53  C   UNL A   1      51.051  26.281  25.315  1.00  0.00     0.040 A 
ATOM     54  F   UNL A   1      48.920  27.067  24.712  1.00  0.00    -0.206 F 
ATOM     55  C   UNL A   1      51.933  25.800  26.281  1.00  0.00     0.006 A 
ENDBRANCH  27  48
BRANCH  39  56
ATOM     56  C   UNL A   1      46.077  32.375  28.756  1.00  0.00     0.057 A 
ATOM     57  C   UNL A   1      46.498  32.856  30.002  1.00  0.00     0.134 A 
ATOM     58  C   UNL A   1      46.022  33.282  27.692  1.00  0.00     0.134 A 
ATOM     59  F   UNL A   1      46.562  32.038  31.064  1.00  0.00    -0.206 F 
ATOM     60  C   UNL A   1      46.824  34.200  30.190  1.00  0.00     0.040 A 
ATOM     61  C   UNL A   1      46.369  34.622  27.861  1.00  0.00     0.040 A 
ATOM     62  F   UNL A   1      45.639  32.877  26.472  1.00  0.00    -0.206 F 
ATOM     63  C   UNL A   1      46.757  35.087  29.117  1.00  0.00     0.006 A 
ENDBRANCH  39  56
ENDBRANCH  13  14
ENDBRANCH   6   8
ENDBRANCH   3   4
ENDBRANCH   2   3
ENDBRANCH   1   2
BRANCH   1  64
ATOM     64  N   UNL A   1      35.952  18.762  24.674  1.00  0.00    -0.354 N 
ATOM     65  C   UNL A   1      34.614  18.536  24.570  1.00  0.00     0.244 C 
ATOM     66  H   UNL A   1      36.525  18.027  24.357  1.00  0.00     0.163 HD
ATOM     67  O   UNL A   1      34.253  17.416  24.198  1.00  0.00    -0.273 OA
BRANCH  65  68
ATOM     68  C   UNL A   1      33.596  19.661  24.855  1.00  0.00     0.197 C 
BRANCH  68  69
ATOM     69  N   UNL A   1      32.807  19.887  23.631  1.00  0.00    -0.340 N 
ATOM     70  C   UNL A   1      32.249  21.030  23.143  1.00  0.00     0.244 C 
ATOM     71  H   UNL A   1      32.662  19.086  23.079  1.00  0.00     0.164 HD
ATOM     72  O   UNL A   1      31.640  20.959  22.075  1.00  0.00    -0.273 OA
BRANCH  70  73
ATOM     73  C   UNL A   1      32.368  22.343  23.936  1.00  0.00     0.181 C 
BRANCH  73  74
ATOM     74  N   UNL A   1      32.643  23.435  22.998  1.00  0.00    -0.339 N 
ATOM     75  C   UNL A   1      33.753  24.218  22.842  1.00  0.00     0.251 C 
ATOM     76  H   UNL A   1      31.906  23.640  22.378  1.00  0.00     0.164 HD
ATOM     77  O   UNL A   1      33.756  25.132  22.020  1.00  0.00    -0.269 OA
BRANCH  75  78
ATOM     78  C   UNL A   1      34.939  24.017  23.699  1.00  0.00     0.040 A 
ATOM     79  C   UNL A   1      36.078  23.347  23.232  1.00  0.00     0.017 A 
ATOM     80  C   UNL A   1      34.919  24.562  24.990  1.00  0.00     0.017 A 
ATOM     81  C   UNL A   1      37.167  23.162  24.086  1.00  0.00     0.040 A 
ATOM     82  C   UNL A   1      36.017  24.387  25.832  1.00  0.00     0.040 A 
ATOM     83  C   UNL A   1      37.124  23.678  25.378  1.00  0.00     0.123 A 
ATOM     84  F   UNL A   1      38.169  23.497  26.194  1.00  0.00    -0.207 F 
ENDBRANCH  75  78
ENDBRANCH  73  74
BRANCH  73  85
ATOM     85  C   UNL A   1      31.135  22.598  24.815  1.00  0.00     0.101 C 
BRANCH  85  86
ATOM     86  S   UNL A   1      31.488  22.994  26.556  1.00  0.00    -0.177 SA
ATOM     87  H   UNL A   1      30.628  23.955  26.986  1.00  0.00     0.102 HD
ENDBRANCH  85  86
ENDBRANCH  73  85
ENDBRANCH  70  73
ENDBRANCH  68  69
BRANCH  68  88
ATOM     88  C   UNL A   1      32.635  19.369  26.014  1.00  0.00     0.191 C 
BRANCH  88  89
ATOM     89  O   UNL A   1      32.770  18.053  26.538  1.00  0.00    -0.394 OA
ATOM     90  H   UNL A   1      33.470  17.584  26.058  1.00  0.00     0.210 HD
ENDBRANCH  88  89
ENDBRANCH  68  88
ENDBRANCH  65  68
ENDBRANCH   1  64
TORSDOF 18
ENDMDL
