MODEL 1
REMARK VINA RESULT:     -12.2      0.000      0.000
REMARK SMILES O=C(NCCCNC(=O)c1ccc(-c2c3nc(c(-c4c(F)cccc4F)c4ccc([nH]4)c(-c4c(F)cccc4F)c4nc(c(-c5c(F)cccc5F)c5ccc2[nH]5)C=C4)C=C3)cc1)C1=Cc2c(ccc(Cl)c2Sc2ccccc2)O[C@H]1C(F)(F)F
REMARK SMILES IDX 5 1 4 2 3 3 1 4 2 5 64 7 65 8 81 9 66 10 80 11 67 12 72 13
REMARK SMILES IDX 68 14 70 15 69 16 71 17 82 18 83 19 84 20 85 21 73 22 74 23
REMARK SMILES IDX 75 24 79 25 76 26 78 27 77 28 6 29 7 30 8 31 9 33 10 34
REMARK SMILES IDX 11 35 63 36 12 37 62 38 13 39 14 40 15 41 56 42 16 43 61 44
REMARK SMILES IDX 55 45 57 46 17 47 60 48 54 49 53 50 18 52 44 53 27 54 43 55
REMARK SMILES IDX 28 56 31 57 42 58 58 59 29 60 30 61 41 63 59 64 32 65 19 66
REMARK SMILES IDX 20 67 25 68 21 69 22 70 24 71 26 72 23 73 45 74 46 75 51 76
REMARK SMILES IDX 47 77 48 78 50 79 52 80 49 81 33 82 34 83 39 84 35 85 36 86
REMARK SMILES IDX 38 87 40 88 37 89
REMARK H PARENT 3 6 7 32 57 51 31 62
REMARK Flexibility Score: inf
ROOT
ATOM      1  C   UNL A   1      37.913  20.214  24.713  1.00  0.00     0.042 C 
ENDROOT
BRANCH   1   2
ATOM      2  C   UNL A   1      37.103  21.467  24.436  1.00  0.00     0.118 C 
BRANCH   2   3
ATOM      3  N   UNL A   1      36.585  22.084  25.648  1.00  0.00    -0.352 N 
ATOM      4  O   UNL A   1      35.110  22.945  27.096  1.00  0.00    -0.270 OA
ATOM      5  C   UNL A   1      35.309  22.302  26.068  1.00  0.00     0.251 C 
ATOM      6  H   UNL A   1      37.279  22.397  26.271  1.00  0.00     0.163 HD
BRANCH   5   7
ATOM      7  C   UNL A   1      34.151  21.831  25.283  1.00  0.00     0.067 C 
ATOM      8  C   UNL A   1      33.601  22.579  24.317  1.00  0.00     0.026 C 
ATOM      9  C   UNL A   1      33.389  20.664  25.817  1.00  0.00     0.314 C 
ATOM     10  C   UNL A   1      32.266  23.078  24.720  1.00  0.00     0.033 A 
ATOM     11  O   UNL A   1      31.968  20.971  25.971  1.00  0.00    -0.475 OA
ATOM     12  C   UNL A   1      31.541  22.227  25.595  1.00  0.00     0.129 A 
ATOM     13  C   UNL A   1      31.822  24.398  24.436  1.00  0.00     0.042 A 
ATOM     14  C   UNL A   1      30.379  22.672  26.208  1.00  0.00     0.049 A 
ATOM     15  C   UNL A   1      30.655  24.828  25.118  1.00  0.00     0.055 A 
ATOM     16  C   UNL A   1      29.955  23.978  25.992  1.00  0.00     0.025 A 
ATOM     17  Cl  UNL A   1      30.034  26.447  25.003  1.00  0.00    -0.083 Cl
BRANCH   9  18
ATOM     18  C   UNL A   1      33.577  19.424  24.931  1.00  0.00     0.429 C 
ATOM     19  F   UNL A   1      33.135  18.296  25.538  1.00  0.00    -0.167 F 
ATOM     20  F   UNL A   1      32.916  19.531  23.755  1.00  0.00    -0.167 F 
ATOM     21  F   UNL A   1      34.884  19.231  24.631  1.00  0.00    -0.167 F 
ENDBRANCH   9  18
BRANCH  13  22
ATOM     22  S   UNL A   1      32.668  25.611  23.372  1.00  0.00    -0.088 SA
BRANCH  22  23
ATOM     23  C   UNL A   1      33.161  26.988  24.377  1.00  0.00     0.012 A 
ATOM     24  C   UNL A   1      32.986  28.298  23.911  1.00  0.00     0.015 A 
ATOM     25  C   UNL A   1      33.667  26.780  25.665  1.00  0.00     0.015 A 
ATOM     26  C   UNL A   1      33.210  29.383  24.761  1.00  0.00     0.001 A 
ATOM     27  C   UNL A   1      33.888  27.867  26.516  1.00  0.00     0.001 A 
ATOM     28  C   UNL A   1      33.640  29.165  26.070  1.00  0.00     0.000 A 
ENDBRANCH  22  23
ENDBRANCH  13  22
ENDBRANCH   5   7
ENDBRANCH   2   3
ENDBRANCH   1   2
BRANCH   1  29
ATOM     29  C   UNL A   1      38.985  20.428  25.769  1.00  0.00     0.118 C 
BRANCH  29  30
ATOM     30  N   UNL A   1      40.053  19.433  25.763  1.00  0.00    -0.352 N 
ATOM     31  C   UNL A   1      41.382  19.527  26.129  1.00  0.00     0.251 C 
ATOM     32  H   UNL A   1      39.780  18.544  25.443  1.00  0.00     0.163 HD
ATOM     33  O   UNL A   1      42.115  18.560  25.997  1.00  0.00    -0.269 OA
BRANCH  31  34
ATOM     34  C   UNL A   1      41.946  20.809  26.622  1.00  0.00     0.039 A 
ATOM     35  C   UNL A   1      42.423  21.739  25.693  1.00  0.00     0.014 A 
ATOM     36  C   UNL A   1      41.981  21.116  27.980  1.00  0.00     0.014 A 
ATOM     37  C   UNL A   1      42.810  23.014  26.117  1.00  0.00     0.010 A 
ATOM     38  C   UNL A   1      42.234  22.421  28.384  1.00  0.00     0.010 A 
ATOM     39  C   UNL A   1      42.650  23.390  27.460  1.00  0.00    -0.014 A 
BRANCH  39  40
ATOM     40  C   UNL A   1      42.910  24.776  27.936  1.00  0.00     0.031 A 
ATOM     41  C   UNL A   1      44.304  25.182  28.338  1.00  0.00     0.074 A 
ATOM     42  C   UNL A   1      41.883  25.630  28.124  1.00  0.00     0.049 A 
ATOM     43  N   UNL A   1      44.708  26.263  28.955  1.00  0.00    -0.248 NA
ATOM     44  C   UNL A   1      45.379  24.215  28.059  1.00  0.00     0.031 C 
ATOM     45  C   UNL A   1      40.473  25.346  27.845  1.00  0.00     0.029 A 
ATOM     46  N   UNL A   1      41.867  26.913  28.614  1.00  0.00    -0.354 N 
ATOM     47  C   UNL A   1      46.067  26.078  29.186  1.00  0.00     0.074 A 
ATOM     48  C   UNL A   1      46.406  24.764  28.690  1.00  0.00     0.031 C 
ATOM     49  C   UNL A   1      39.736  26.429  28.138  1.00  0.00     0.029 A 
ATOM     50  C   UNL A   1      40.612  27.469  28.667  1.00  0.00     0.049 A 
ATOM     51  H   UNL A   1      42.679  27.390  28.901  1.00  0.00     0.167 HD
ATOM     52  C   UNL A   1      46.957  26.936  29.738  1.00  0.00     0.037 A 
ATOM     53  C   UNL A   1      40.209  28.678  29.101  1.00  0.00     0.037 A 
ATOM     54  C   UNL A   1      46.636  28.274  30.154  1.00  0.00     0.049 A 
ATOM     55  C   UNL A   1      41.228  29.644  29.635  1.00  0.00     0.074 A 
ATOM     56  C   UNL A   1      47.484  29.255  30.635  1.00  0.00     0.029 A 
ATOM     57  N   UNL A   1      45.364  28.824  30.118  1.00  0.00    -0.354 N 
ATOM     58  N   UNL A   1      42.518  29.475  29.799  1.00  0.00    -0.248 NA
ATOM     59  C   UNL A   1      40.739  30.969  30.041  1.00  0.00     0.031 C 
ATOM     60  C   UNL A   1      46.720  30.395  30.911  1.00  0.00     0.029 A 
ATOM     61  C   UNL A   1      45.403  30.132  30.570  1.00  0.00     0.049 A 
ATOM     62  H   UNL A   1      44.553  28.355  29.815  1.00  0.00     0.167 HD
ATOM     63  C   UNL A   1      42.998  30.675  30.303  1.00  0.00     0.074 A 
ATOM     64  C   UNL A   1      41.863  31.570  30.407  1.00  0.00     0.031 C 
ATOM     65  C   UNL A   1      44.264  31.008  30.652  1.00  0.00     0.037 A 
BRANCH  52  66
ATOM     66  C   UNL A   1      48.369  26.453  29.904  1.00  0.00     0.057 A 
ATOM     67  C   UNL A   1      48.795  25.793  31.065  1.00  0.00     0.134 A 
ATOM     68  C   UNL A   1      49.312  26.638  28.885  1.00  0.00     0.134 A 
ATOM     69  F   UNL A   1      47.946  25.596  32.084  1.00  0.00    -0.206 F 
ATOM     70  C   UNL A   1      50.115  25.370  31.222  1.00  0.00     0.040 A 
ATOM     71  C   UNL A   1      50.628  26.193  29.018  1.00  0.00     0.040 A 
ATOM     72  F   UNL A   1      48.971  27.256  27.744  1.00  0.00    -0.206 F 
ATOM     73  C   UNL A   1      51.036  25.564  30.194  1.00  0.00     0.006 A 
ENDBRANCH  52  66
BRANCH  53  74
ATOM     74  C   UNL A   1      38.777  29.059  29.014  1.00  0.00     0.057 A 
ATOM     75  C   UNL A   1      37.940  28.956  30.132  1.00  0.00     0.134 A 
ATOM     76  C   UNL A   1      38.212  29.536  27.826  1.00  0.00     0.134 A 
ATOM     77  F   UNL A   1      38.421  28.490  31.294  1.00  0.00    -0.206 F 
ATOM     78  C   UNL A   1      36.588  29.296  30.068  1.00  0.00     0.040 A 
ATOM     79  C   UNL A   1      36.866  29.900  27.753  1.00  0.00     0.040 A 
ATOM     80  F   UNL A   1      38.964  29.666  26.724  1.00  0.00    -0.206 F 
ATOM     81  C   UNL A   1      36.049  29.776  28.875  1.00  0.00     0.006 A 
ENDBRANCH  53  74
BRANCH  65  82
ATOM     82  C   UNL A   1      44.494  32.404  31.144  1.00  0.00     0.057 A 
ATOM     83  C   UNL A   1      44.758  33.460  30.263  1.00  0.00     0.134 A 
ATOM     84  C   UNL A   1      44.405  32.702  32.509  1.00  0.00     0.134 A 
ATOM     85  F   UNL A   1      44.868  33.235  28.945  1.00  0.00    -0.206 F 
ATOM     86  C   UNL A   1      44.944  34.764  30.727  1.00  0.00     0.040 A 
ATOM     87  C   UNL A   1      44.567  34.004  32.982  1.00  0.00     0.040 A 
ATOM     88  F   UNL A   1      44.147  31.735  33.402  1.00  0.00    -0.206 F 
ATOM     89  C   UNL A   1      44.841  35.039  32.089  1.00  0.00     0.006 A 
ENDBRANCH  65  82
ENDBRANCH  39  40
ENDBRANCH  31  34
ENDBRANCH  29  30
ENDBRANCH   1  29
TORSDOF 13
ENDMDL
MODEL 2
REMARK VINA RESULT:     -12.2      3.962      7.384
REMARK SMILES O=C(NCCCNC(=O)c1ccc(-c2c3nc(c(-c4c(F)cccc4F)c4ccc([nH]4)c(-c4c(F)cccc4F)c4nc(c(-c5c(F)cccc5F)c5ccc2[nH]5)C=C4)C=C3)cc1)C1=Cc2c(ccc(Cl)c2Sc2ccccc2)O[C@H]1C(F)(F)F
REMARK SMILES IDX 5 1 4 2 3 3 1 4 2 5 64 7 65 8 81 9 66 10 80 11 67 12 72 13
REMARK SMILES IDX 68 14 70 15 69 16 71 17 82 18 83 19 84 20 85 21 73 22 74 23
REMARK SMILES IDX 75 24 79 25 76 26 78 27 77 28 6 29 7 30 8 31 9 33 10 34
REMARK SMILES IDX 11 35 63 36 12 37 62 38 13 39 14 40 15 41 56 42 16 43 61 44
REMARK SMILES IDX 55 45 57 46 17 47 60 48 54 49 53 50 18 52 44 53 27 54 43 55
REMARK SMILES IDX 28 56 31 57 42 58 58 59 29 60 30 61 41 63 59 64 32 65 19 66
REMARK SMILES IDX 20 67 25 68 21 69 22 70 24 71 26 72 23 73 45 74 46 75 51 76
REMARK SMILES IDX 47 77 48 78 50 79 52 80 49 81 33 82 34 83 39 84 35 85 36 86
REMARK SMILES IDX 38 87 40 88 37 89
REMARK H PARENT 3 6 7 32 57 51 31 62
REMARK Flexibility Score: inf
ROOT
ATOM      1  C   UNL A   1      33.989  28.653  23.104  1.00  0.00     0.042 C 
ENDROOT
BRANCH   1   2
ATOM      2  C   UNL A   1      32.565  28.254  22.760  1.00  0.00     0.118 C 
BRANCH   2   3
ATOM      3  N   UNL A   1      32.480  26.942  22.140  1.00  0.00    -0.352 N 
ATOM      4  O   UNL A   1      32.605  24.717  21.916  1.00  0.00    -0.270 OA
ATOM      5  C   UNL A   1      32.612  25.692  22.663  1.00  0.00     0.251 C 
ATOM      6  H   UNL A   1      32.295  26.962  21.173  1.00  0.00     0.163 HD
BRANCH   5   7
ATOM      7  C   UNL A   1      32.822  25.484  24.109  1.00  0.00     0.067 C 
ATOM      8  C   UNL A   1      34.008  25.104  24.603  1.00  0.00     0.026 C 
ATOM      9  C   UNL A   1      31.608  25.363  24.969  1.00  0.00     0.314 C 
ATOM     10  C   UNL A   1      33.962  23.708  25.096  1.00  0.00     0.033 A 
ATOM     11  O   UNL A   1      31.615  24.123  25.743  1.00  0.00    -0.475 OA
ATOM     12  C   UNL A   1      32.703  23.288  25.602  1.00  0.00     0.129 A 
ATOM     13  C   UNL A   1      35.022  22.785  24.890  1.00  0.00     0.042 A 
ATOM     14  C   UNL A   1      32.473  21.952  25.895  1.00  0.00     0.049 A 
ATOM     15  C   UNL A   1      34.730  21.424  25.160  1.00  0.00     0.055 A 
ATOM     16  C   UNL A   1      33.475  21.020  25.648  1.00  0.00     0.025 A 
ATOM     17  Cl  UNL A   1      35.852  20.134  24.844  1.00  0.00    -0.083 Cl
BRANCH   9  18
ATOM     18  C   UNL A   1      31.462  26.576  25.899  1.00  0.00     0.429 C 
ATOM     19  F   UNL A   1      32.645  26.931  26.457  1.00  0.00    -0.167 F 
ATOM     20  F   UNL A   1      30.983  27.663  25.251  1.00  0.00    -0.167 F 
ATOM     21  F   UNL A   1      30.605  26.313  26.914  1.00  0.00    -0.167 F 
ENDBRANCH   9  18
BRANCH  13  22
ATOM     22  S   UNL A   1      36.667  23.172  24.211  1.00  0.00    -0.088 SA
BRANCH  22  23
ATOM     23  C   UNL A   1      37.848  23.102  25.534  1.00  0.00     0.012 A 
ATOM     24  C   UNL A   1      38.640  21.960  25.712  1.00  0.00     0.015 A 
ATOM     25  C   UNL A   1      38.046  24.210  26.367  1.00  0.00     0.015 A 
ATOM     26  C   UNL A   1      39.685  21.966  26.638  1.00  0.00     0.001 A 
ATOM     27  C   UNL A   1      39.094  24.215  27.291  1.00  0.00     0.001 A 
ATOM     28  C   UNL A   1      39.925  23.102  27.411  1.00  0.00     0.000 A 
ENDBRANCH  22  23
ENDBRANCH  13  22
ENDBRANCH   5   7
ENDBRANCH   2   3
ENDBRANCH   1   2
BRANCH   1  29
ATOM     29  C   UNL A   1      34.156  29.034  24.566  1.00  0.00     0.118 C 
BRANCH  29  30
ATOM     30  N   UNL A   1      33.086  29.870  25.102  1.00  0.00    -0.352 N 
ATOM     31  C   UNL A   1      32.995  30.577  26.286  1.00  0.00     0.251 C 
ATOM     32  H   UNL A   1      32.295  29.943  24.521  1.00  0.00     0.163 HD
ATOM     33  O   UNL A   1      31.968  31.184  26.549  1.00  0.00    -0.269 OA
BRANCH  31  34
ATOM     34  C   UNL A   1      34.105  30.558  27.271  1.00  0.00     0.039 A 
ATOM     35  C   UNL A   1      34.510  29.331  27.808  1.00  0.00     0.014 A 
ATOM     36  C   UNL A   1      34.770  31.723  27.645  1.00  0.00     0.014 A 
ATOM     37  C   UNL A   1      35.652  29.264  28.612  1.00  0.00     0.010 A 
ATOM     38  C   UNL A   1      35.977  31.638  28.327  1.00  0.00     0.010 A 
ATOM     39  C   UNL A   1      36.438  30.409  28.819  1.00  0.00    -0.014 A 
BRANCH  39  40
ATOM     40  C   UNL A   1      37.737  30.363  29.545  1.00  0.00     0.031 A 
ATOM     41  C   UNL A   1      38.915  29.656  28.927  1.00  0.00     0.074 A 
ATOM     42  C   UNL A   1      37.828  30.844  30.801  1.00  0.00     0.049 A 
ATOM     43  N   UNL A   1      40.065  29.334  29.464  1.00  0.00    -0.248 NA
ATOM     44  C   UNL A   1      38.756  29.199  27.536  1.00  0.00     0.031 C 
ATOM     45  C   UNL A   1      36.745  31.489  31.549  1.00  0.00     0.029 A 
ATOM     46  N   UNL A   1      38.881  30.848  31.682  1.00  0.00    -0.354 N 
ATOM     47  C   UNL A   1      40.736  28.592  28.498  1.00  0.00     0.074 A 
ATOM     48  C   UNL A   1      39.847  28.469  27.365  1.00  0.00     0.031 C 
ATOM     49  C   UNL A   1      37.199  31.852  32.759  1.00  0.00     0.029 A 
ATOM     50  C   UNL A   1      38.588  31.428  32.893  1.00  0.00     0.049 A 
ATOM     51  H   UNL A   1      39.764  30.469  31.466  1.00  0.00     0.167 HD
ATOM     52  C   UNL A   1      41.989  28.082  28.541  1.00  0.00     0.037 A 
ATOM     53  C   UNL A   1      39.349  31.592  33.990  1.00  0.00     0.037 A 
ATOM     54  C   UNL A   1      42.901  28.276  29.635  1.00  0.00     0.049 A 
ATOM     55  C   UNL A   1      40.765  31.088  33.985  1.00  0.00     0.074 A 
ATOM     56  C   UNL A   1      44.224  27.884  29.736  1.00  0.00     0.029 A 
ATOM     57  N   UNL A   1      42.588  28.938  30.812  1.00  0.00    -0.354 N 
ATOM     58  N   UNL A   1      41.404  30.434  33.044  1.00  0.00    -0.248 NA
ATOM     59  C   UNL A   1      41.566  31.346  35.189  1.00  0.00     0.031 C 
ATOM     60  C   UNL A   1      44.706  28.290  30.985  1.00  0.00     0.029 A 
ATOM     61  C   UNL A   1      43.691  28.964  31.647  1.00  0.00     0.049 A 
ATOM     62  H   UNL A   1      41.710  29.332  31.023  1.00  0.00     0.167 HD
ATOM     63  C   UNL A   1      42.686  30.224  33.532  1.00  0.00     0.074 A 
ATOM     64  C   UNL A   1      42.740  30.831  34.846  1.00  0.00     0.031 C 
ATOM     65  C   UNL A   1      43.726  29.585  32.946  1.00  0.00     0.037 A 
BRANCH  52  66
ATOM     66  C   UNL A   1      42.448  27.279  27.359  1.00  0.00     0.057 A 
ATOM     67  C   UNL A   1      42.475  25.878  27.379  1.00  0.00     0.134 A 
ATOM     68  C   UNL A   1      42.857  27.914  26.179  1.00  0.00     0.134 A 
ATOM     69  F   UNL A   1      42.110  25.208  28.482  1.00  0.00    -0.206 F 
ATOM     70  C   UNL A   1      42.927  25.140  26.284  1.00  0.00     0.040 A 
ATOM     71  C   UNL A   1      43.283  27.187  25.067  1.00  0.00     0.040 A 
ATOM     72  F   UNL A   1      42.850  29.253  26.088  1.00  0.00    -0.206 F 
ATOM     73  C   UNL A   1      43.328  25.794  25.121  1.00  0.00     0.006 A 
ENDBRANCH  52  66
BRANCH  53  74
ATOM     74  C   UNL A   1      38.802  32.299  35.175  1.00  0.00     0.057 A 
ATOM     75  C   UNL A   1      38.227  31.583  36.233  1.00  0.00     0.134 A 
ATOM     76  C   UNL A   1      38.841  33.693  35.285  1.00  0.00     0.134 A 
ATOM     77  F   UNL A   1      38.145  30.245  36.176  1.00  0.00    -0.206 F 
ATOM     78  C   UNL A   1      37.694  32.229  37.349  1.00  0.00     0.040 A 
ATOM     79  C   UNL A   1      38.332  34.351  36.406  1.00  0.00     0.040 A 
ATOM     80  F   UNL A   1      39.388  34.434  34.311  1.00  0.00    -0.206 F 
ATOM     81  C   UNL A   1      37.751  33.619  37.440  1.00  0.00     0.006 A 
ENDBRANCH  53  74
BRANCH  65  82
ATOM     82  C   UNL A   1      45.017  29.539  33.705  1.00  0.00     0.057 A 
ATOM     83  C   UNL A   1      45.327  28.480  34.567  1.00  0.00     0.134 A 
ATOM     84  C   UNL A   1      45.978  30.543  33.536  1.00  0.00     0.134 A 
ATOM     85  F   UNL A   1      44.441  27.495  34.780  1.00  0.00    -0.206 F 
ATOM     86  C   UNL A   1      46.543  28.430  35.249  1.00  0.00     0.040 A 
ATOM     87  C   UNL A   1      47.206  30.493  34.196  1.00  0.00     0.040 A 
ATOM     88  F   UNL A   1      45.743  31.580  32.718  1.00  0.00    -0.206 F 
ATOM     89  C   UNL A   1      47.489  29.436  35.058  1.00  0.00     0.006 A 
ENDBRANCH  65  82
ENDBRANCH  39  40
ENDBRANCH  31  34
ENDBRANCH  29  30
ENDBRANCH   1  29
TORSDOF 13
ENDMDL
MODEL 3
REMARK VINA RESULT:     -12.2      2.885      7.829
REMARK SMILES O=C(NCCCNC(=O)c1ccc(-c2c3nc(c(-c4c(F)cccc4F)c4ccc([nH]4)c(-c4c(F)cccc4F)c4nc(c(-c5c(F)cccc5F)c5ccc2[nH]5)C=C4)C=C3)cc1)C1=Cc2c(ccc(Cl)c2Sc2ccccc2)O[C@H]1C(F)(F)F
REMARK SMILES IDX 5 1 4 2 3 3 1 4 2 5 64 7 65 8 81 9 66 10 80 11 67 12 72 13
REMARK SMILES IDX 68 14 70 15 69 16 71 17 82 18 83 19 84 20 85 21 73 22 74 23
REMARK SMILES IDX 75 24 79 25 76 26 78 27 77 28 6 29 7 30 8 31 9 33 10 34
REMARK SMILES IDX 11 35 63 36 12 37 62 38 13 39 14 40 15 41 56 42 16 43 61 44
REMARK SMILES IDX 55 45 57 46 17 47 60 48 54 49 53 50 18 52 44 53 27 54 43 55
REMARK SMILES IDX 28 56 31 57 42 58 58 59 29 60 30 61 41 63 59 64 32 65 19 66
REMARK SMILES IDX 20 67 25 68 21 69 22 70 24 71 26 72 23 73 45 74 46 75 51 76
REMARK SMILES IDX 47 77 48 78 50 79 52 80 49 81 33 82 34 83 39 84 35 85 36 86
REMARK SMILES IDX 38 87 40 88 37 89
REMARK H PARENT 3 6 7 32 57 51 31 62
REMARK Flexibility Score: inf
ROOT
ATOM      1  C   UNL A   1      32.136  28.529  27.225  1.00  0.00     0.042 C 
ENDROOT
BRANCH   1   2
ATOM      2  C   UNL A   1      31.972  27.348  26.285  1.00  0.00     0.118 C 
BRANCH   2   3
ATOM      3  N   UNL A   1      31.457  26.163  26.952  1.00  0.00    -0.352 N 
ATOM      4  O   UNL A   1      30.692  24.076  27.223  1.00  0.00    -0.270 OA
ATOM      5  C   UNL A   1      31.242  24.899  26.495  1.00  0.00     0.251 C 
ATOM      6  H   UNL A   1      31.225  26.300  27.899  1.00  0.00     0.163 HD
BRANCH   5   7
ATOM      7  C   UNL A   1      31.602  24.509  25.118  1.00  0.00     0.067 C 
ATOM      8  C   UNL A   1      31.913  23.246  24.799  1.00  0.00     0.026 C 
ATOM      9  C   UNL A   1      31.953  25.604  24.165  1.00  0.00     0.314 C 
ATOM     10  C   UNL A   1      33.356  23.110  24.493  1.00  0.00     0.033 A 
ATOM     11  O   UNL A   1      33.270  25.397  23.567  1.00  0.00    -0.475 OA
ATOM     12  C   UNL A   1      33.964  24.261  23.924  1.00  0.00     0.129 A 
ATOM     13  C   UNL A   1      34.132  22.001  24.925  1.00  0.00     0.042 A 
ATOM     14  C   UNL A   1      35.343  24.335  23.789  1.00  0.00     0.049 A 
ATOM     15  C   UNL A   1      35.539  22.136  24.810  1.00  0.00     0.055 A 
ATOM     16  C   UNL A   1      36.128  23.286  24.257  1.00  0.00     0.025 A 
ATOM     17  Cl  UNL A   1      36.656  20.944  25.404  1.00  0.00    -0.083 Cl
BRANCH   9  18
ATOM     18  C   UNL A   1      30.884  25.754  23.072  1.00  0.00     0.429 C 
ATOM     19  F   UNL A   1      29.836  24.918  23.271  1.00  0.00    -0.167 F 
ATOM     20  F   UNL A   1      30.387  27.011  23.012  1.00  0.00    -0.167 F 
ATOM     21  F   UNL A   1      31.393  25.472  21.849  1.00  0.00    -0.167 F 
ENDBRANCH   9  18
BRANCH  13  22
ATOM     22  S   UNL A   1      33.495  20.484  25.706  1.00  0.00    -0.088 SA
BRANCH  22  23
ATOM     23  C   UNL A   1      33.540  19.176  24.508  1.00  0.00     0.012 A 
ATOM     24  C   UNL A   1      34.480  18.143  24.627  1.00  0.00     0.015 A 
ATOM     25  C   UNL A   1      32.597  19.129  23.474  1.00  0.00     0.015 A 
ATOM     26  C   UNL A   1      34.408  17.027  23.791  1.00  0.00     0.001 A 
ATOM     27  C   UNL A   1      32.525  18.010  22.640  1.00  0.00     0.001 A 
ATOM     28  C   UNL A   1      33.417  16.951  22.812  1.00  0.00     0.000 A 
ENDBRANCH  22  23
ENDBRANCH  13  22
ENDBRANCH   5   7
ENDBRANCH   2   3
ENDBRANCH   1   2
BRANCH   1  29
ATOM     29  C   UNL A   1      33.557  29.067  27.251  1.00  0.00     0.118 C 
BRANCH  29  30
ATOM     30  N   UNL A   1      33.712  30.346  27.939  1.00  0.00    -0.352 N 
ATOM     31  C   UNL A   1      34.804  30.911  28.568  1.00  0.00     0.251 C 
ATOM     32  H   UNL A   1      32.898  30.899  27.957  1.00  0.00     0.163 HD
ATOM     33  O   UNL A   1      34.689  31.992  29.123  1.00  0.00    -0.269 OA
BRANCH  31  34
ATOM     34  C   UNL A   1      36.101  30.191  28.632  1.00  0.00     0.039 A 
ATOM     35  C   UNL A   1      36.947  30.223  27.517  1.00  0.00     0.014 A 
ATOM     36  C   UNL A   1      36.505  29.515  29.779  1.00  0.00     0.014 A 
ATOM     37  C   UNL A   1      38.237  29.691  27.605  1.00  0.00     0.010 A 
ATOM     38  C   UNL A   1      37.828  29.111  29.911  1.00  0.00     0.010 A 
ATOM     39  C   UNL A   1      38.714  29.194  28.827  1.00  0.00    -0.014 A 
BRANCH  39  40
ATOM     40  C   UNL A   1      40.123  28.750  29.012  1.00  0.00     0.031 A 
ATOM     41  C   UNL A   1      41.148  29.714  29.550  1.00  0.00     0.074 A 
ATOM     42  C   UNL A   1      40.509  27.531  28.585  1.00  0.00     0.049 A 
ATOM     43  N   UNL A   1      42.451  29.596  29.604  1.00  0.00    -0.248 NA
ATOM     44  C   UNL A   1      40.644  31.008  30.039  1.00  0.00     0.031 C 
ATOM     45  C   UNL A   1      39.637  26.522  27.978  1.00  0.00     0.029 A 
ATOM     46  N   UNL A   1      41.748  26.937  28.581  1.00  0.00    -0.354 N 
ATOM     47  C   UNL A   1      42.919  30.816  30.078  1.00  0.00     0.074 A 
ATOM     48  C   UNL A   1      41.769  31.676  30.247  1.00  0.00     0.031 C 
ATOM     49  C   UNL A   1      40.359  25.427  27.691  1.00  0.00     0.029 A 
ATOM     50  C   UNL A   1      41.752  25.670  28.050  1.00  0.00     0.049 A 
ATOM     51  H   UNL A   1      42.557  27.378  28.926  1.00  0.00     0.167 HD
ATOM     52  C   UNL A   1      44.189  31.181  30.371  1.00  0.00     0.037 A 
ATOM     53  C   UNL A   1      42.765  24.803  27.864  1.00  0.00     0.037 A 
ATOM     54  C   UNL A   1      45.321  30.299  30.283  1.00  0.00     0.049 A 
ATOM     55  C   UNL A   1      44.156  25.201  28.272  1.00  0.00     0.074 A 
ATOM     56  C   UNL A   1      46.634  30.539  30.647  1.00  0.00     0.029 A 
ATOM     57  N   UNL A   1      45.268  28.996  29.812  1.00  0.00    -0.354 N 
ATOM     58  N   UNL A   1      44.576  26.339  28.769  1.00  0.00    -0.248 NA
ATOM     59  C   UNL A   1      45.212  24.193  28.099  1.00  0.00     0.031 C 
ATOM     60  C   UNL A   1      47.380  29.387  30.377  1.00  0.00     0.029 A 
ATOM     61  C   UNL A   1      46.525  28.420  29.874  1.00  0.00     0.049 A 
ATOM     62  H   UNL A   1      44.456  28.546  29.482  1.00  0.00     0.167 HD
ATOM     63  C   UNL A   1      45.936  26.179  28.989  1.00  0.00     0.074 A 
ATOM     64  C   UNL A   1      46.270  24.828  28.585  1.00  0.00     0.031 C 
ATOM     65  C   UNL A   1      46.831  27.070  29.479  1.00  0.00     0.037 A 
BRANCH  52  66
ATOM     66  C   UNL A   1      44.414  32.591  30.833  1.00  0.00     0.057 A 
ATOM     67  C   UNL A   1      44.364  32.943  32.189  1.00  0.00     0.134 A 
ATOM     68  C   UNL A   1      44.694  33.609  29.912  1.00  0.00     0.134 A 
ATOM     69  F   UNL A   1      44.086  32.020  33.121  1.00  0.00    -0.206 F 
ATOM     70  C   UNL A   1      44.549  34.262  32.608  1.00  0.00     0.040 A 
ATOM     71  C   UNL A   1      44.910  34.925  30.322  1.00  0.00     0.040 A 
ATOM     72  F   UNL A   1      44.763  33.340  28.600  1.00  0.00    -0.206 F 
ATOM     73  C   UNL A   1      44.829  35.257  31.674  1.00  0.00     0.006 A 
ENDBRANCH  52  66
BRANCH  53  74
ATOM     74  C   UNL A   1      42.498  23.458  27.298  1.00  0.00     0.057 A 
ATOM     75  C   UNL A   1      42.107  22.397  28.125  1.00  0.00     0.134 A 
ATOM     76  C   UNL A   1      42.620  23.197  25.929  1.00  0.00     0.134 A 
ATOM     77  F   UNL A   1      41.990  22.583  29.449  1.00  0.00    -0.206 F 
ATOM     78  C   UNL A   1      41.864  21.122  27.615  1.00  0.00     0.040 A 
ATOM     79  C   UNL A   1      42.360  21.930  25.401  1.00  0.00     0.040 A 
ATOM     80  F   UNL A   1      42.981  24.172  25.083  1.00  0.00    -0.206 F 
ATOM     81  C   UNL A   1      41.986  20.887  26.246  1.00  0.00     0.006 A 
ENDBRANCH  53  74
BRANCH  65  82
ATOM     82  C   UNL A   1      48.246  26.602  29.638  1.00  0.00     0.057 A 
ATOM     83  C   UNL A   1      48.681  25.957  30.802  1.00  0.00     0.134 A 
ATOM     84  C   UNL A   1      49.169  26.760  28.598  1.00  0.00     0.134 A 
ATOM     85  F   UNL A   1      47.846  25.789  31.839  1.00  0.00    -0.206 F 
ATOM     86  C   UNL A   1      49.994  25.500  30.932  1.00  0.00     0.040 A 
ATOM     87  C   UNL A   1      50.477  26.288  28.707  1.00  0.00     0.040 A 
ATOM     88  F   UNL A   1      48.810  27.364  27.454  1.00  0.00    -0.206 F 
ATOM     89  C   UNL A   1      50.892  25.658  29.878  1.00  0.00     0.006 A 
ENDBRANCH  65  82
ENDBRANCH  39  40
ENDBRANCH  31  34
ENDBRANCH  29  30
ENDBRANCH   1  29
TORSDOF 13
ENDMDL
