MODEL 1
REMARK VINA RESULT:     -12.3      0.000      0.000
REMARK SMILES O=C(C[N@@H+]1CC[N@H+](Cc2cc(F)ccc2Cl)[C@H]2CS(=O)(=O)C[C@H]21)NCCCNC(=O)c1ccc(-c2c3nc(c(-c4c(F)cccc4F)c4ccc([nH]4)c(-c4c(F)cccc4F)c4nc(c(-c5c(F)cccc5F)c5ccc2[nH]5)C=C4)C=C3)cc1
REMARK SMILES IDX 25 1 24 2 1 3 2 4 3 6 4 7 5 8 23 9 6 11 17 12 22 13 7 14
REMARK SMILES IDX 18 15 19 16 20 18 21 19 8 20 9 21 10 22 15 23 11 24 14 25
REMARK SMILES IDX 16 26 12 27 13 28 26 29 27 30 28 31 29 32 30 34 31 35 32 36
REMARK SMILES IDX 84 37 33 38 83 39 34 40 35 41 36 42 77 43 37 44 82 45 76 46
REMARK SMILES IDX 78 47 38 48 81 49 75 50 74 51 39 53 65 54 48 55 64 56 49 57
REMARK SMILES IDX 52 58 63 59 79 60 50 61 51 62 62 64 80 65 53 66 40 67 41 68
REMARK SMILES IDX 46 69 42 70 43 71 45 72 47 73 44 74 66 75 67 76 72 77 68 78
REMARK SMILES IDX 69 79 71 80 73 81 70 82 54 83 55 84 60 85 56 86 57 87 59 88
REMARK SMILES IDX 61 89 58 90
REMARK H PARENT 24 5 4 10 7 17 28 33 78 52 52 63
REMARK Flexibility Score: inf
ROOT
ATOM      1  C   UNL A   1      32.030  29.844  27.248  1.00  0.00     0.118 C 
ENDROOT
BRANCH   1   2
ATOM      2  N   UNL A   1      31.890  28.393  27.369  1.00  0.00    -0.351 N 
ATOM      3  O   UNL A   1      30.953  28.067  25.292  1.00  0.00    -0.269 OA
ATOM      4  C   UNL A   1      31.416  27.589  26.325  1.00  0.00     0.275 C 
ATOM      5  H   UNL A   1      32.139  27.963  28.220  1.00  0.00     0.163 HD
BRANCH   4   6
ATOM      6  C   UNL A   1      31.541  26.046  26.540  1.00  0.00     0.364 C 
BRANCH   6   7
ATOM      7  N   UNL A   1      31.139  25.212  25.351  1.00  0.00    -0.314 N 
ATOM      8  C   UNL A   1      30.960  23.799  25.747  1.00  0.00     0.325 C 
ATOM      9  C   UNL A   1      32.124  25.257  24.254  1.00  0.00     0.259 C 
ATOM     10  H   UNL A   1      30.265  25.612  25.013  1.00  0.00     0.349 HD
ATOM     11  C   UNL A   1      32.265  23.015  26.048  1.00  0.00     0.325 C 
ATOM     12  C   UNL A   1      33.508  24.734  24.705  1.00  0.00     0.259 C 
ATOM     13  C   UNL A   1      31.801  24.469  22.979  1.00  0.00     0.208 C 
ATOM     14  N   UNL A   1      33.529  23.430  25.406  1.00  0.00    -0.318 N 
ATOM     15  C   UNL A   1      34.402  24.832  23.459  1.00  0.00     0.208 C 
ATOM     16  S   UNL A   1      33.324  24.588  22.057  1.00  0.00     0.162 S 
ATOM     17  H   UNL A   1      33.639  22.807  24.606  1.00  0.00     0.349 HD
ATOM     18  O   UNL A   1      33.288  25.827  21.291  1.00  0.00    -0.228 OA
ATOM     19  O   UNL A   1      33.615  23.320  21.439  1.00  0.00    -0.228 OA
BRANCH  14  20
ATOM     20  C   UNL A   1      34.710  23.170  26.276  1.00  0.00     0.301 C 
BRANCH  20  21
ATOM     21  C   UNL A   1      35.766  22.210  25.717  1.00  0.00     0.028 A 
ATOM     22  C   UNL A   1      35.416  20.925  25.272  1.00  0.00     0.050 A 
ATOM     23  C   UNL A   1      37.126  22.526  25.702  1.00  0.00     0.050 A 
ATOM     24  C   UNL A   1      36.400  19.979  24.971  1.00  0.00     0.123 A 
ATOM     25  C   UNL A   1      38.116  21.582  25.393  1.00  0.00     0.024 A 
ATOM     26  Cl  UNL A   1      37.631  24.079  26.177  1.00  0.00    -0.084 Cl
ATOM     27  F   UNL A   1      36.036  18.737  24.634  1.00  0.00    -0.207 F 
ATOM     28  C   UNL A   1      37.750  20.289  25.055  1.00  0.00     0.041 A 
ENDBRANCH  20  21
ENDBRANCH  14  20
ENDBRANCH   6   7
ENDBRANCH   4   6
ENDBRANCH   1   2
BRANCH   1  29
ATOM     29  C   UNL A   1      33.363  30.410  26.695  1.00  0.00     0.042 C 
BRANCH  29  30
ATOM     30  C   UNL A   1      34.729  30.313  27.429  1.00  0.00     0.118 C 
BRANCH  30  31
ATOM     31  N   UNL A   1      34.819  30.851  28.780  1.00  0.00    -0.352 N 
ATOM     32  C   UNL A   1      35.893  30.830  29.660  1.00  0.00     0.251 C 
ATOM     33  H   UNL A   1      34.004  31.290  29.116  1.00  0.00     0.163 HD
ATOM     34  O   UNL A   1      35.803  31.388  30.750  1.00  0.00    -0.269 OA
BRANCH  32  35
ATOM     35  C   UNL A   1      37.166  30.136  29.325  1.00  0.00     0.039 A 
ATOM     36  C   UNL A   1      37.578  30.054  27.997  1.00  0.00     0.014 A 
ATOM     37  C   UNL A   1      37.895  29.434  30.290  1.00  0.00     0.014 A 
ATOM     38  C   UNL A   1      38.773  29.391  27.673  1.00  0.00     0.010 A 
ATOM     39  C   UNL A   1      39.136  28.866  29.992  1.00  0.00     0.010 A 
ATOM     40  C   UNL A   1      39.603  28.857  28.678  1.00  0.00    -0.014 A 
BRANCH  40  41
ATOM     41  C   UNL A   1      40.994  28.404  28.388  1.00  0.00     0.031 A 
ATOM     42  C   UNL A   1      41.322  26.973  28.054  1.00  0.00     0.074 A 
ATOM     43  C   UNL A   1      41.994  29.296  28.533  1.00  0.00     0.049 A 
ATOM     44  N   UNL A   1      42.494  26.427  27.831  1.00  0.00    -0.248 NA
ATOM     45  C   UNL A   1      40.199  26.026  27.979  1.00  0.00     0.031 C 
ATOM     46  C   UNL A   1      41.822  30.695  28.930  1.00  0.00     0.029 A 
ATOM     47  N   UNL A   1      43.352  29.163  28.377  1.00  0.00    -0.354 N 
ATOM     48  C   UNL A   1      42.252  25.078  27.592  1.00  0.00     0.074 A 
ATOM     49  C   UNL A   1      40.825  24.880  27.741  1.00  0.00     0.031 C 
ATOM     50  C   UNL A   1      43.019  31.299  28.956  1.00  0.00     0.029 A 
ATOM     51  C   UNL A   1      44.049  30.323  28.620  1.00  0.00     0.049 A 
ATOM     52  H   UNL A   1      43.785  28.318  28.117  1.00  0.00     0.167 HD
ATOM     53  C   UNL A   1      43.134  24.101  27.263  1.00  0.00     0.037 A 
ATOM     54  C   UNL A   1      45.370  30.579  28.585  1.00  0.00     0.037 A 
ATOM     55  C   UNL A   1      44.553  24.301  27.104  1.00  0.00     0.049 A 
ATOM     56  C   UNL A   1      46.324  29.482  28.212  1.00  0.00     0.074 A 
ATOM     57  C   UNL A   1      45.517  23.383  26.720  1.00  0.00     0.029 A 
ATOM     58  N   UNL A   1      45.215  25.500  27.327  1.00  0.00    -0.354 N 
ATOM     59  N   UNL A   1      46.067  28.233  27.914  1.00  0.00    -0.248 NA
ATOM     60  C   UNL A   1      47.751  29.830  28.166  1.00  0.00     0.031 C 
ATOM     61  C   UNL A   1      46.765  24.015  26.749  1.00  0.00     0.029 A 
ATOM     62  C   UNL A   1      46.574  25.339  27.106  1.00  0.00     0.049 A 
ATOM     63  H   UNL A   1      44.782  26.340  27.602  1.00  0.00     0.167 HD
ATOM     64  C   UNL A   1      47.292  27.655  27.609  1.00  0.00     0.074 A 
ATOM     65  C   UNL A   1      48.293  28.691  27.757  1.00  0.00     0.031 C 
ATOM     66  C   UNL A   1      47.560  26.380  27.237  1.00  0.00     0.037 A 
BRANCH  53  67
ATOM     67  C   UNL A   1      42.592  22.717  27.039  1.00  0.00     0.057 A 
ATOM     68  C   UNL A   1      42.431  22.187  25.752  1.00  0.00     0.134 A 
ATOM     69  C   UNL A   1      42.282  21.882  28.121  1.00  0.00     0.134 A 
ATOM     70  F   UNL A   1      42.709  22.934  24.671  1.00  0.00    -0.206 F 
ATOM     71  C   UNL A   1      41.956  20.890  25.548  1.00  0.00     0.040 A 
ATOM     72  C   UNL A   1      41.830  20.575  27.930  1.00  0.00     0.040 A 
ATOM     73  F   UNL A   1      42.428  22.318  29.382  1.00  0.00    -0.206 F 
ATOM     74  C   UNL A   1      41.659  20.077  26.640  1.00  0.00     0.006 A 
ENDBRANCH  53  67
BRANCH  54  75
ATOM     75  C   UNL A   1      45.863  31.946  28.883  1.00  0.00     0.057 A 
ATOM     76  C   UNL A   1      45.979  32.906  27.872  1.00  0.00     0.134 A 
ATOM     77  C   UNL A   1      46.218  32.330  30.182  1.00  0.00     0.134 A 
ATOM     78  F   UNL A   1      45.665  32.594  26.606  1.00  0.00    -0.206 F 
ATOM     79  C   UNL A   1      46.449  34.193  28.136  1.00  0.00     0.040 A 
ATOM     80  C   UNL A   1      46.666  33.620  30.466  1.00  0.00     0.040 A 
ATOM     81  F   UNL A   1      46.113  31.459  31.198  1.00  0.00    -0.206 F 
ATOM     82  C   UNL A   1      46.790  34.554  29.439  1.00  0.00     0.006 A 
ENDBRANCH  54  75
BRANCH  66  83
ATOM     83  C   UNL A   1      48.984  26.041  26.914  1.00  0.00     0.057 A 
ATOM     84  C   UNL A   1      49.520  26.233  25.634  1.00  0.00     0.134 A 
ATOM     85  C   UNL A   1      49.844  25.564  27.911  1.00  0.00     0.134 A 
ATOM     86  F   UNL A   1      48.744  26.672  24.632  1.00  0.00    -0.206 F 
ATOM     87  C   UNL A   1      50.858  25.952  25.355  1.00  0.00     0.040 A 
ATOM     88  C   UNL A   1      51.189  25.301  27.651  1.00  0.00     0.040 A 
ATOM     89  F   UNL A   1      49.394  25.362  29.160  1.00  0.00    -0.206 F 
ATOM     90  C   UNL A   1      51.699  25.492  26.368  1.00  0.00     0.006 A 
ENDBRANCH  66  83
ENDBRANCH  40  41
ENDBRANCH  32  35
ENDBRANCH  30  31
ENDBRANCH  29  30
ENDBRANCH   1  29
TORSDOF 13
ENDMDL
MODEL 2
REMARK VINA RESULT:     -12.2      3.264      8.287
REMARK SMILES O=C(C[N@@H+]1CC[N@H+](Cc2cc(F)ccc2Cl)[C@H]2CS(=O)(=O)C[C@H]21)NCCCNC(=O)c1ccc(-c2c3nc(c(-c4c(F)cccc4F)c4ccc([nH]4)c(-c4c(F)cccc4F)c4nc(c(-c5c(F)cccc5F)c5ccc2[nH]5)C=C4)C=C3)cc1
REMARK SMILES IDX 25 1 24 2 1 3 2 4 3 6 4 7 5 8 23 9 6 11 17 12 22 13 7 14
REMARK SMILES IDX 18 15 19 16 20 18 21 19 8 20 9 21 10 22 15 23 11 24 14 25
REMARK SMILES IDX 16 26 12 27 13 28 26 29 27 30 28 31 29 32 30 34 31 35 32 36
REMARK SMILES IDX 84 37 33 38 83 39 34 40 35 41 36 42 77 43 37 44 82 45 76 46
REMARK SMILES IDX 78 47 38 48 81 49 75 50 74 51 39 53 65 54 48 55 64 56 49 57
REMARK SMILES IDX 52 58 63 59 79 60 50 61 51 62 62 64 80 65 53 66 40 67 41 68
REMARK SMILES IDX 46 69 42 70 43 71 45 72 47 73 44 74 66 75 67 76 72 77 68 78
REMARK SMILES IDX 69 79 71 80 73 81 70 82 54 83 55 84 60 85 56 86 57 87 59 88
REMARK SMILES IDX 61 89 58 90
REMARK H PARENT 24 5 4 10 7 17 28 33 78 52 52 63
REMARK Flexibility Score: inf
ROOT
ATOM      1  C   UNL A   1      38.332  21.595  25.609  1.00  0.00     0.118 C 
ENDROOT
BRANCH   1   2
ATOM      2  N   UNL A   1      37.453  22.287  24.668  1.00  0.00    -0.351 N 
ATOM      3  O   UNL A   1      35.663  20.860  24.916  1.00  0.00    -0.269 OA
ATOM      4  C   UNL A   1      36.126  21.896  24.443  1.00  0.00     0.275 C 
ATOM      5  H   UNL A   1      37.807  23.060  24.170  1.00  0.00     0.163 HD
BRANCH   4   6
ATOM      6  C   UNL A   1      35.263  22.873  23.582  1.00  0.00     0.364 C 
BRANCH   6   7
ATOM      7  N   UNL A   1      33.775  22.648  23.681  1.00  0.00    -0.314 N 
ATOM      8  C   UNL A   1      33.093  23.170  22.478  1.00  0.00     0.325 C 
ATOM      9  C   UNL A   1      33.171  23.291  24.863  1.00  0.00     0.259 C 
ATOM     10  H   UNL A   1      33.651  21.640  23.766  1.00  0.00     0.349 HD
ATOM     11  C   UNL A   1      33.006  24.716  22.371  1.00  0.00     0.325 C 
ATOM     12  C   UNL A   1      33.380  24.824  24.852  1.00  0.00     0.259 C 
ATOM     13  C   UNL A   1      31.665  23.100  25.081  1.00  0.00     0.208 C 
ATOM     14  N   UNL A   1      33.025  25.532  23.601  1.00  0.00    -0.318 N 
ATOM     15  C   UNL A   1      32.687  25.334  26.124  1.00  0.00     0.208 C 
ATOM     16  S   UNL A   1      31.327  24.219  26.429  1.00  0.00     0.162 S 
ATOM     17  H   UNL A   1      32.047  25.744  23.797  1.00  0.00     0.349 HD
ATOM     18  O   UNL A   1      31.588  23.513  27.675  1.00  0.00    -0.228 OA
ATOM     19  O   UNL A   1      30.081  24.901  26.188  1.00  0.00    -0.228 OA
BRANCH  14  20
ATOM     20  C   UNL A   1      33.680  26.853  23.386  1.00  0.00     0.301 C 
BRANCH  20  21
ATOM     21  C   UNL A   1      33.001  28.062  24.038  1.00  0.00     0.028 A 
ATOM     22  C   UNL A   1      33.617  28.763  25.087  1.00  0.00     0.050 A 
ATOM     23  C   UNL A   1      31.712  28.471  23.687  1.00  0.00     0.050 A 
ATOM     24  C   UNL A   1      32.910  29.719  25.822  1.00  0.00     0.123 A 
ATOM     25  C   UNL A   1      31.002  29.436  24.417  1.00  0.00     0.024 A 
ATOM     26  Cl  UNL A   1      30.914  27.709  22.393  1.00  0.00    -0.084 Cl
ATOM     27  F   UNL A   1      33.496  30.306  26.872  1.00  0.00    -0.207 F 
ATOM     28  C   UNL A   1      31.597  30.041  25.514  1.00  0.00     0.041 A 
ENDBRANCH  20  21
ENDBRANCH  14  20
ENDBRANCH   6   7
ENDBRANCH   4   6
ENDBRANCH   1   2
BRANCH   1  29
ATOM     29  C   UNL A   1      38.994  20.268  25.157  1.00  0.00     0.042 C 
BRANCH  29  30
ATOM     30  C   UNL A   1      39.675  19.256  26.119  1.00  0.00     0.118 C 
BRANCH  30  31
ATOM     31  N   UNL A   1      41.019  18.800  25.792  1.00  0.00    -0.352 N 
ATOM     32  C   UNL A   1      42.231  19.458  25.957  1.00  0.00     0.251 C 
ATOM     33  H   UNL A   1      41.076  17.899  25.399  1.00  0.00     0.163 HD
ATOM     34  O   UNL A   1      43.281  18.890  25.672  1.00  0.00    -0.269 OA
BRANCH  32  35
ATOM     35  C   UNL A   1      42.300  20.855  26.466  1.00  0.00     0.039 A 
ATOM     36  C   UNL A   1      42.088  21.106  27.820  1.00  0.00     0.014 A 
ATOM     37  C   UNL A   1      42.430  21.946  25.602  1.00  0.00     0.014 A 
ATOM     38  C   UNL A   1      42.143  22.423  28.306  1.00  0.00     0.010 A 
ATOM     39  C   UNL A   1      42.590  23.245  26.090  1.00  0.00     0.010 A 
ATOM     40  C   UNL A   1      42.471  23.498  27.457  1.00  0.00    -0.014 A 
BRANCH  40  41
ATOM     41  C   UNL A   1      42.806  24.847  27.994  1.00  0.00     0.031 A 
ATOM     42  C   UNL A   1      44.199  25.217  28.432  1.00  0.00     0.074 A 
ATOM     43  C   UNL A   1      41.798  25.723  28.184  1.00  0.00     0.049 A 
ATOM     44  N   UNL A   1      44.623  26.337  28.968  1.00  0.00    -0.248 NA
ATOM     45  C   UNL A   1      45.247  24.199  28.269  1.00  0.00     0.031 C 
ATOM     46  C   UNL A   1      40.390  25.462  27.877  1.00  0.00     0.029 A 
ATOM     47  N   UNL A   1      41.794  26.999  28.689  1.00  0.00    -0.354 N 
ATOM     48  C   UNL A   1      45.982  26.159  29.208  1.00  0.00     0.074 A 
ATOM     49  C   UNL A   1      46.301  24.807  28.799  1.00  0.00     0.031 C 
ATOM     50  C   UNL A   1      39.665  26.551  28.168  1.00  0.00     0.029 A 
ATOM     51  C   UNL A   1      40.545  27.572  28.723  1.00  0.00     0.049 A 
ATOM     52  H   UNL A   1      42.607  27.459  28.999  1.00  0.00     0.167 HD
ATOM     53  C   UNL A   1      46.881  27.045  29.705  1.00  0.00     0.037 A 
ATOM     54  C   UNL A   1      40.144  28.782  29.156  1.00  0.00     0.037 A 
ATOM     55  C   UNL A   1      46.565  28.395  30.102  1.00  0.00     0.049 A 
ATOM     56  C   UNL A   1      41.159  29.746  29.697  1.00  0.00     0.074 A 
ATOM     57  C   UNL A   1      47.419  29.381  30.566  1.00  0.00     0.029 A 
ATOM     58  N   UNL A   1      45.292  28.947  30.088  1.00  0.00    -0.354 N 
ATOM     59  N   UNL A   1      42.452  29.586  29.841  1.00  0.00    -0.248 NA
ATOM     60  C   UNL A   1      40.664  31.060  30.129  1.00  0.00     0.031 C 
ATOM     61  C   UNL A   1      46.660  30.516  30.871  1.00  0.00     0.029 A 
ATOM     62  C   UNL A   1      45.338  30.253  30.552  1.00  0.00     0.049 A 
ATOM     63  H   UNL A   1      44.478  28.480  29.793  1.00  0.00     0.167 HD
ATOM     64  C   UNL A   1      42.929  30.788  30.346  1.00  0.00     0.074 A 
ATOM     65  C   UNL A   1      41.788  31.669  30.481  1.00  0.00     0.031 C 
ATOM     66  C   UNL A   1      44.200  31.129  30.666  1.00  0.00     0.037 A 
BRANCH  53  67
ATOM     67  C   UNL A   1      48.307  26.590  29.843  1.00  0.00     0.057 A 
ATOM     68  C   UNL A   1      49.248  26.795  28.824  1.00  0.00     0.134 A 
ATOM     69  C   UNL A   1      48.761  25.994  31.027  1.00  0.00     0.134 A 
ATOM     70  F   UNL A   1      48.880  27.361  27.664  1.00  0.00    -0.206 F 
ATOM     71  C   UNL A   1      50.579  26.399  28.967  1.00  0.00     0.040 A 
ATOM     72  C   UNL A   1      50.095  25.616  31.191  1.00  0.00     0.040 A 
ATOM     73  F   UNL A   1      47.919  25.782  32.049  1.00  0.00    -0.206 F 
ATOM     74  C   UNL A   1      51.008  25.812  30.156  1.00  0.00     0.006 A 
ENDBRANCH  53  67
BRANCH  54  75
ATOM     75  C   UNL A   1      38.712  29.159  29.064  1.00  0.00     0.057 A 
ATOM     76  C   UNL A   1      37.870  29.068  30.178  1.00  0.00     0.134 A 
ATOM     77  C   UNL A   1      38.153  29.628  27.869  1.00  0.00     0.134 A 
ATOM     78  F   UNL A   1      38.345  28.614  31.348  1.00  0.00    -0.206 F 
ATOM     79  C   UNL A   1      36.519  29.411  30.104  1.00  0.00     0.040 A 
ATOM     80  C   UNL A   1      36.811  29.998  27.786  1.00  0.00     0.040 A 
ATOM     81  F   UNL A   1      38.913  29.753  26.770  1.00  0.00    -0.206 F 
ATOM     82  C   UNL A   1      35.988  29.882  28.905  1.00  0.00     0.006 A 
ENDBRANCH  54  75
BRANCH  66  83
ATOM     83  C   UNL A   1      44.439  32.529  31.145  1.00  0.00     0.057 A 
ATOM     84  C   UNL A   1      44.686  33.584  30.259  1.00  0.00     0.134 A 
ATOM     85  C   UNL A   1      44.370  32.833  32.511  1.00  0.00     0.134 A 
ATOM     86  F   UNL A   1      44.781  33.356  28.940  1.00  0.00    -0.206 F 
ATOM     87  C   UNL A   1      44.867  34.891  30.714  1.00  0.00     0.040 A 
ATOM     88  C   UNL A   1      44.525  34.139  32.977  1.00  0.00     0.040 A 
ATOM     89  F   UNL A   1      44.132  31.867  33.412  1.00  0.00    -0.206 F 
ATOM     90  C   UNL A   1      44.778  35.172  32.077  1.00  0.00     0.006 A 
ENDBRANCH  66  83
ENDBRANCH  40  41
ENDBRANCH  32  35
ENDBRANCH  30  31
ENDBRANCH  29  30
ENDBRANCH   1  29
TORSDOF 13
ENDMDL
MODEL 3
REMARK VINA RESULT:     -12.2      4.733      6.821
REMARK SMILES O=C(C[N@@H+]1CC[N@H+](Cc2cc(F)ccc2Cl)[C@H]2CS(=O)(=O)C[C@H]21)NCCCNC(=O)c1ccc(-c2c3nc(c(-c4c(F)cccc4F)c4ccc([nH]4)c(-c4c(F)cccc4F)c4nc(c(-c5c(F)cccc5F)c5ccc2[nH]5)C=C4)C=C3)cc1
REMARK SMILES IDX 25 1 24 2 1 3 2 4 3 6 4 7 5 8 23 9 6 11 17 12 22 13 7 14
REMARK SMILES IDX 18 15 19 16 20 18 21 19 8 20 9 21 10 22 15 23 11 24 14 25
REMARK SMILES IDX 16 26 12 27 13 28 26 29 27 30 28 31 29 32 30 34 31 35 32 36
REMARK SMILES IDX 84 37 33 38 83 39 34 40 35 41 36 42 77 43 37 44 82 45 76 46
REMARK SMILES IDX 78 47 38 48 81 49 75 50 74 51 39 53 65 54 48 55 64 56 49 57
REMARK SMILES IDX 52 58 63 59 79 60 50 61 51 62 62 64 80 65 53 66 40 67 41 68
REMARK SMILES IDX 46 69 42 70 43 71 45 72 47 73 44 74 66 75 67 76 72 77 68 78
REMARK SMILES IDX 69 79 71 80 73 81 70 82 54 83 55 84 60 85 56 86 57 87 59 88
REMARK SMILES IDX 61 89 58 90
REMARK H PARENT 24 5 4 10 7 17 28 33 78 52 52 63
REMARK Flexibility Score: inf
ROOT
ATOM      1  C   UNL A   1      31.414  30.748  25.541  1.00  0.00     0.118 C 
ENDROOT
BRANCH   1   2
ATOM      2  N   UNL A   1      31.453  29.300  25.742  1.00  0.00    -0.351 N 
ATOM      3  O   UNL A   1      33.715  29.173  26.149  1.00  0.00    -0.269 OA
ATOM      4  C   UNL A   1      32.620  28.618  26.111  1.00  0.00     0.275 C 
ATOM      5  H   UNL A   1      30.626  28.782  25.612  1.00  0.00     0.163 HD
BRANCH   4   6
ATOM      6  C   UNL A   1      32.438  27.116  26.502  1.00  0.00     0.364 C 
BRANCH   6   7
ATOM      7  N   UNL A   1      31.655  26.299  25.506  1.00  0.00    -0.314 N 
ATOM      8  C   UNL A   1      31.101  25.089  26.151  1.00  0.00     0.325 C 
ATOM      9  C   UNL A   1      32.461  25.870  24.348  1.00  0.00     0.259 C 
ATOM     10  H   UNL A   1      30.910  26.909  25.170  1.00  0.00     0.349 HD
ATOM     11  C   UNL A   1      32.129  23.976  26.485  1.00  0.00     0.325 C 
ATOM     12  C   UNL A   1      33.663  24.996  24.779  1.00  0.00     0.259 C 
ATOM     13  C   UNL A   1      31.755  25.060  23.255  1.00  0.00     0.208 C 
ATOM     14  N   UNL A   1      33.369  23.867  25.689  1.00  0.00    -0.318 N 
ATOM     15  C   UNL A   1      34.380  24.626  23.471  1.00  0.00     0.208 C 
ATOM     16  S   UNL A   1      33.113  24.551  22.216  1.00  0.00     0.162 S 
ATOM     17  H   UNL A   1      33.182  23.137  25.002  1.00  0.00     0.349 HD
ATOM     18  O   UNL A   1      33.365  25.615  21.253  1.00  0.00    -0.228 OA
ATOM     19  O   UNL A   1      32.922  23.184  21.805  1.00  0.00    -0.228 OA
BRANCH  14  20
ATOM     20  C   UNL A   1      34.512  23.362  26.501  1.00  0.00     0.301 C 
BRANCH  20  21
ATOM     21  C   UNL A   1      35.437  22.352  25.815  1.00  0.00     0.028 A 
ATOM     22  C   UNL A   1      34.963  21.096  25.403  1.00  0.00     0.050 A 
ATOM     23  C   UNL A   1      36.803  22.589  25.646  1.00  0.00     0.050 A 
ATOM     24  C   UNL A   1      35.848  20.099  24.982  1.00  0.00     0.123 A 
ATOM     25  C   UNL A   1      37.693  21.594  25.215  1.00  0.00     0.024 A 
ATOM     26  Cl  UNL A   1      37.451  24.103  26.072  1.00  0.00    -0.084 Cl
ATOM     27  F   UNL A   1      35.374  18.886  24.679  1.00  0.00    -0.207 F 
ATOM     28  C   UNL A   1      37.214  20.329  24.912  1.00  0.00     0.041 A 
ENDBRANCH  20  21
ENDBRANCH  14  20
ENDBRANCH   6   7
ENDBRANCH   4   6
ENDBRANCH   1   2
BRANCH   1  29
ATOM     29  C   UNL A   1      31.423  31.664  26.791  1.00  0.00     0.042 C 
BRANCH  29  30
ATOM     30  C   UNL A   1      32.586  32.624  27.167  1.00  0.00     0.118 C 
BRANCH  30  31
ATOM     31  N   UNL A   1      32.247  33.978  27.580  1.00  0.00    -0.352 N 
ATOM     32  C   UNL A   1      32.926  34.823  28.450  1.00  0.00     0.251 C 
ATOM     33  H   UNL A   1      31.422  34.346  27.190  1.00  0.00     0.163 HD
ATOM     34  O   UNL A   1      32.516  35.965  28.639  1.00  0.00    -0.269 OA
BRANCH  32  35
ATOM     35  C   UNL A   1      34.146  34.381  29.178  1.00  0.00     0.039 A 
ATOM     36  C   UNL A   1      34.035  33.904  30.483  1.00  0.00     0.014 A 
ATOM     37  C   UNL A   1      35.425  34.563  28.646  1.00  0.00     0.014 A 
ATOM     38  C   UNL A   1      35.184  33.495  31.179  1.00  0.00     0.010 A 
ATOM     39  C   UNL A   1      36.559  34.061  29.289  1.00  0.00     0.010 A 
ATOM     40  C   UNL A   1      36.449  33.497  30.560  1.00  0.00    -0.014 A 
BRANCH  40  41
ATOM     41  C   UNL A   1      37.623  32.814  31.173  1.00  0.00     0.031 A 
ATOM     42  C   UNL A   1      38.289  31.625  30.532  1.00  0.00     0.074 A 
ATOM     43  C   UNL A   1      38.028  33.221  32.394  1.00  0.00     0.049 A 
ATOM     44  N   UNL A   1      39.286  30.898  30.980  1.00  0.00    -0.248 NA
ATOM     45  C   UNL A   1      37.761  31.178  29.235  1.00  0.00     0.031 C 
ATOM     46  C   UNL A   1      37.418  34.309  33.162  1.00  0.00     0.029 A 
ATOM     47  N   UNL A   1      39.034  32.766  33.210  1.00  0.00    -0.354 N 
ATOM     48  C   UNL A   1      39.503  29.911  30.025  1.00  0.00     0.074 A 
ATOM     49  C   UNL A   1      38.504  30.105  28.994  1.00  0.00     0.031 C 
ATOM     50  C   UNL A   1      38.080  34.460  34.318  1.00  0.00     0.029 A 
ATOM     51  C   UNL A   1      39.132  33.453  34.396  1.00  0.00     0.049 A 
ATOM     52  H   UNL A   1      39.628  32.019  32.969  1.00  0.00     0.167 HD
ATOM     53  C   UNL A   1      40.456  28.946  30.002  1.00  0.00     0.037 A 
ATOM     54  C   UNL A   1      39.968  33.293  35.439  1.00  0.00     0.037 A 
ATOM     55  C   UNL A   1      41.456  28.759  31.024  1.00  0.00     0.049 A 
ATOM     56  C   UNL A   1      41.016  32.221  35.386  1.00  0.00     0.074 A 
ATOM     57  C   UNL A   1      42.494  27.842  31.059  1.00  0.00     0.029 A 
ATOM     58  N   UNL A   1      41.541  29.499  32.194  1.00  0.00    -0.354 N 
ATOM     59  N   UNL A   1      41.255  31.349  34.438  1.00  0.00    -0.248 NA
ATOM     60  C   UNL A   1      41.916  32.113  36.543  1.00  0.00     0.031 C 
ATOM     61  C   UNL A   1      43.182  28.000  32.267  1.00  0.00     0.029 A 
ATOM     62  C   UNL A   1      42.601  29.047  32.964  1.00  0.00     0.049 A 
ATOM     63  H   UNL A   1      40.937  30.236  32.440  1.00  0.00     0.167 HD
ATOM     64  C   UNL A   1      42.352  30.613  34.866  1.00  0.00     0.074 A 
ATOM     65  C   UNL A   1      42.734  31.143  36.158  1.00  0.00     0.031 C 
ATOM     66  C   UNL A   1      42.985  29.593  34.240  1.00  0.00     0.037 A 
BRANCH  53  67
ATOM     67  C   UNL A   1      40.474  28.011  28.825  1.00  0.00     0.057 A 
ATOM     68  C   UNL A   1      41.244  28.277  27.684  1.00  0.00     0.134 A 
ATOM     69  C   UNL A   1      39.762  26.804  28.852  1.00  0.00     0.134 A 
ATOM     70  F   UNL A   1      41.950  29.415  27.592  1.00  0.00    -0.206 F 
ATOM     71  C   UNL A   1      41.284  27.393  26.604  1.00  0.00     0.040 A 
ATOM     72  C   UNL A   1      39.813  25.900  27.789  1.00  0.00     0.040 A 
ATOM     73  F   UNL A   1      39.018  26.477  29.919  1.00  0.00    -0.206 F 
ATOM     74  C   UNL A   1      40.571  26.196  26.657  1.00  0.00     0.006 A 
ENDBRANCH  53  67
BRANCH  54  75
ATOM     75  C   UNL A   1      39.864  34.197  36.611  1.00  0.00     0.057 A 
ATOM     76  C   UNL A   1      40.523  35.431  36.630  1.00  0.00     0.134 A 
ATOM     77  C   UNL A   1      39.098  33.857  37.733  1.00  0.00     0.134 A 
ATOM     78  F   UNL A   1      41.282  35.807  35.589  1.00  0.00    -0.206 F 
ATOM     79  C   UNL A   1      40.441  36.287  37.729  1.00  0.00     0.040 A 
ATOM     80  C   UNL A   1      38.986  34.713  38.828  1.00  0.00     0.040 A 
ATOM     81  F   UNL A   1      38.428  32.695  37.768  1.00  0.00    -0.206 F 
ATOM     82  C   UNL A   1      39.666  35.930  38.830  1.00  0.00     0.006 A 
ENDBRANCH  54  75
BRANCH  66  83
ATOM     83  C   UNL A   1      44.190  29.010  34.917  1.00  0.00     0.057 A 
ATOM     84  C   UNL A   1      45.478  29.518  34.704  1.00  0.00     0.134 A 
ATOM     85  C   UNL A   1      44.051  27.960  35.833  1.00  0.00     0.134 A 
ATOM     86  F   UNL A   1      45.680  30.512  33.827  1.00  0.00    -0.206 F 
ATOM     87  C   UNL A   1      46.586  28.994  35.371  1.00  0.00     0.040 A 
ATOM     88  C   UNL A   1      45.148  27.443  36.524  1.00  0.00     0.040 A 
ATOM     89  F   UNL A   1      42.843  27.431  36.085  1.00  0.00    -0.206 F 
ATOM     90  C   UNL A   1      46.421  27.959  36.290  1.00  0.00     0.006 A 
ENDBRANCH  66  83
ENDBRANCH  40  41
ENDBRANCH  32  35
ENDBRANCH  30  31
ENDBRANCH  29  30
ENDBRANCH   1  29
TORSDOF 13
ENDMDL
