MODEL 1
REMARK VINA RESULT:     -10.7      0.000      0.000
REMARK SMILES CNC(=O)CC[NH+]1CCC(CC(=O)NCCCNC(=O)c2ccc(-c3c4nc(c(-c5c(F)cccc5F)c5ccc([nH]5)c(-c5c(F)cccc5F)c5nc(c(-c6c(F)cccc6F)c6ccc3[nH]6)C=C5)C=C4)cc2)CC1
REMARK SMILES IDX 15 1 14 2 12 3 13 4 11 6 10 7 7 8 8 9 76 10 9 12 75 13 6 14
REMARK SMILES IDX 5 15 3 16 1 17 2 18 4 20 16 21 17 22 18 23 19 24 20 26 21 27
REMARK SMILES IDX 22 28 74 29 23 30 73 31 24 32 25 33 26 34 67 35 27 36 72 37
REMARK SMILES IDX 66 38 68 39 28 40 71 41 65 42 64 43 29 45 55 46 38 47 54 48
REMARK SMILES IDX 39 49 42 50 53 51 69 52 40 53 41 54 52 56 70 57 43 58 30 59
REMARK SMILES IDX 31 60 36 61 32 62 33 63 35 64 37 65 34 66 56 67 57 68 62 69
REMARK SMILES IDX 58 70 59 71 61 72 63 73 60 74 44 75 45 76 50 77 46 78 47 79
REMARK SMILES IDX 49 80 51 81 48 82
REMARK H PARENT 14 5 7 11 2 19 18 25 68 44 42 55
REMARK Flexibility Score: inf
ROOT
ATOM      1  C   UNL A   1      31.974  29.285  25.255  1.00  0.00     0.117 C 
ENDROOT
BRANCH   1   2
ATOM      2  N   UNL A   1      31.632  29.139  23.847  1.00  0.00    -0.356 N 
ATOM      3  C   UNL A   1      30.725  28.327  23.231  1.00  0.00     0.220 C 
ATOM      4  O   UNL A   1      30.699  28.334  21.999  1.00  0.00    -0.275 OA
ATOM      5  H   UNL A   1      32.139  29.724  23.240  1.00  0.00     0.163 HD
BRANCH   3   6
ATOM      6  C   UNL A   1      29.786  27.425  24.023  1.00  0.00     0.104 C 
BRANCH   6   7
ATOM      7  C   UNL A   1      30.447  26.095  24.409  1.00  0.00     0.009 C 
ATOM      8  N   UNL A   1      30.720  23.283  25.213  1.00  0.00    -0.334 N 
ATOM      9  C   UNL A   1      30.759  24.380  26.176  1.00  0.00     0.262 C 
ATOM     10  C   UNL A   1      30.979  23.690  23.825  1.00  0.00     0.262 C 
ATOM     11  H   UNL A   1      29.755  22.953  25.198  1.00  0.00     0.348 HD
ATOM     12  C   UNL A   1      29.918  25.567  25.746  1.00  0.00     0.066 C 
ATOM     13  C   UNL A   1      30.216  24.960  23.396  1.00  0.00     0.066 C 
BRANCH   8  14
ATOM     14  C   UNL A   1      31.572  22.152  25.653  1.00  0.00     0.272 C 
BRANCH  14  15
ATOM     15  C   UNL A   1      32.198  21.270  24.553  1.00  0.00     0.161 C 
BRANCH  15  16
ATOM     16  C   UNL A   1      32.805  19.992  25.105  1.00  0.00     0.225 C 
ATOM     17  C   UNL A   1      35.165  20.933  25.235  1.00  0.00     0.142 C 
ATOM     18  N   UNL A   1      34.141  19.924  25.378  1.00  0.00    -0.359 N 
ATOM     19  H   UNL A   1      34.453  19.058  25.725  1.00  0.00     0.163 HD
ATOM     20  O   UNL A   1      32.120  18.988  25.312  1.00  0.00    -0.275 OA
ENDBRANCH  15  16
ENDBRANCH  14  15
ENDBRANCH   8  14
ENDBRANCH   6   7
ENDBRANCH   3   6
ENDBRANCH   1   2
BRANCH   1  21
ATOM     21  C   UNL A   1      33.276  28.549  25.592  1.00  0.00     0.042 C 
BRANCH  21  22
ATOM     22  C   UNL A   1      33.644  28.562  27.075  1.00  0.00     0.118 C 
BRANCH  22  23
ATOM     23  N   UNL A   1      33.676  29.915  27.614  1.00  0.00    -0.352 N 
ATOM     24  C   UNL A   1      34.643  30.602  28.305  1.00  0.00     0.251 C 
ATOM     25  H   UNL A   1      32.853  30.431  27.454  1.00  0.00     0.163 HD
ATOM     26  O   UNL A   1      34.324  31.669  28.837  1.00  0.00    -0.269 OA
BRANCH  24  27
ATOM     27  C   UNL A   1      36.045  30.125  28.445  1.00  0.00     0.039 A 
ATOM     28  C   UNL A   1      36.472  29.697  29.711  1.00  0.00     0.014 A 
ATOM     29  C   UNL A   1      36.979  30.190  27.408  1.00  0.00     0.014 A 
ATOM     30  C   UNL A   1      37.802  29.310  29.925  1.00  0.00     0.010 A 
ATOM     31  C   UNL A   1      38.291  29.739  27.605  1.00  0.00     0.010 A 
ATOM     32  C   UNL A   1      38.725  29.306  28.869  1.00  0.00    -0.014 A 
BRANCH  32  33
ATOM     33  C   UNL A   1      40.137  28.876  29.080  1.00  0.00     0.031 A 
ATOM     34  C   UNL A   1      41.146  29.816  29.692  1.00  0.00     0.074 A 
ATOM     35  C   UNL A   1      40.536  27.651  28.682  1.00  0.00     0.049 A 
ATOM     36  N   UNL A   1      42.431  29.639  29.889  1.00  0.00    -0.248 NA
ATOM     37  C   UNL A   1      40.654  31.133  30.119  1.00  0.00     0.031 C 
ATOM     38  C   UNL A   1      39.681  26.647  28.048  1.00  0.00     0.029 A 
ATOM     39  N   UNL A   1      41.769  27.046  28.744  1.00  0.00    -0.354 N 
ATOM     40  C   UNL A   1      42.901  30.827  30.436  1.00  0.00     0.074 A 
ATOM     41  C   UNL A   1      41.772  31.729  30.510  1.00  0.00     0.031 C 
ATOM     42  C   UNL A   1      40.411  25.549  27.789  1.00  0.00     0.029 A 
ATOM     43  C   UNL A   1      41.790  25.781  28.207  1.00  0.00     0.049 A 
ATOM     44  H   UNL A   1      42.562  27.478  29.135  1.00  0.00     0.167 HD
ATOM     45  C   UNL A   1      44.154  31.135  30.854  1.00  0.00     0.037 A 
ATOM     46  C   UNL A   1      42.804  24.906  28.057  1.00  0.00     0.037 A 
ATOM     47  C   UNL A   1      45.272  30.228  30.831  1.00  0.00     0.049 A 
ATOM     48  C   UNL A   1      44.182  25.269  28.541  1.00  0.00     0.074 A 
ATOM     49  C   UNL A   1      46.556  30.432  31.311  1.00  0.00     0.029 A 
ATOM     50  N   UNL A   1      45.244  28.950  30.299  1.00  0.00    -0.354 N 
ATOM     51  N   UNL A   1      44.591  26.372  29.116  1.00  0.00    -0.248 NA
ATOM     52  C   UNL A   1      45.237  24.261  28.358  1.00  0.00     0.031 C 
ATOM     53  C   UNL A   1      47.316  29.290  31.032  1.00  0.00     0.029 A 
ATOM     54  C   UNL A   1      46.494  28.361  30.418  1.00  0.00     0.049 A 
ATOM     55  H   UNL A   1      44.453  28.521  29.899  1.00  0.00     0.167 HD
ATOM     56  C   UNL A   1      45.942  26.181  29.387  1.00  0.00     0.074 A 
ATOM     57  C   UNL A   1      46.278  24.852  28.926  1.00  0.00     0.031 C 
ATOM     58  C   UNL A   1      46.821  27.034  29.966  1.00  0.00     0.037 A 
BRANCH  45  59
ATOM     59  C   UNL A   1      44.391  32.521  31.381  1.00  0.00     0.057 A 
ATOM     60  C   UNL A   1      44.769  33.578  30.543  1.00  0.00     0.134 A 
ATOM     61  C   UNL A   1      44.177  32.814  32.734  1.00  0.00     0.134 A 
ATOM     62  F   UNL A   1      44.997  33.363  29.239  1.00  0.00    -0.206 F 
ATOM     63  C   UNL A   1      44.947  34.872  31.036  1.00  0.00     0.040 A 
ATOM     64  C   UNL A   1      44.327  34.109  33.234  1.00  0.00     0.040 A 
ATOM     65  F   UNL A   1      43.802  31.850  33.588  1.00  0.00    -0.206 F 
ATOM     66  C   UNL A   1      44.718  35.142  32.385  1.00  0.00     0.006 A 
ENDBRANCH  45  59
BRANCH  46  67
ATOM     67  C   UNL A   1      42.558  23.587  27.422  1.00  0.00     0.057 A 
ATOM     68  C   UNL A   1      42.229  22.464  28.191  1.00  0.00     0.134 A 
ATOM     69  C   UNL A   1      42.669  23.412  26.038  1.00  0.00     0.134 A 
ATOM     70  F   UNL A   1      42.133  22.565  29.525  1.00  0.00    -0.206 F 
ATOM     71  C   UNL A   1      42.036  21.211  27.609  1.00  0.00     0.040 A 
ATOM     72  C   UNL A   1      42.454  22.170  25.439  1.00  0.00     0.040 A 
ATOM     73  F   UNL A   1      42.983  24.449  25.247  1.00  0.00    -0.206 F 
ATOM     74  C   UNL A   1      42.144  21.063  26.227  1.00  0.00     0.006 A 
ENDBRANCH  46  67
BRANCH  58  75
ATOM     75  C   UNL A   1      48.226  26.547  30.163  1.00  0.00     0.057 A 
ATOM     76  C   UNL A   1      48.611  25.846  31.313  1.00  0.00     0.134 A 
ATOM     77  C   UNL A   1      49.197  26.750  29.174  1.00  0.00     0.134 A 
ATOM     78  F   UNL A   1      47.732  25.630  32.303  1.00  0.00    -0.206 F 
ATOM     79  C   UNL A   1      49.917  25.383  31.482  1.00  0.00     0.040 A 
ATOM     80  C   UNL A   1      50.501  26.272  29.321  1.00  0.00     0.040 A 
ATOM     81  F   UNL A   1      48.893  27.407  28.044  1.00  0.00    -0.206 F 
ATOM     82  C   UNL A   1      50.864  25.590  30.480  1.00  0.00     0.006 A 
ENDBRANCH  58  75
ENDBRANCH  32  33
ENDBRANCH  24  27
ENDBRANCH  22  23
ENDBRANCH  21  22
ENDBRANCH   1  21
TORSDOF 14
ENDMDL
MODEL 2
REMARK VINA RESULT:     -10.6      4.863      9.129
REMARK SMILES CNC(=O)CC[NH+]1CCC(CC(=O)NCCCNC(=O)c2ccc(-c3c4nc(c(-c5c(F)cccc5F)c5ccc([nH]5)c(-c5c(F)cccc5F)c5nc(c(-c6c(F)cccc6F)c6ccc3[nH]6)C=C5)C=C4)cc2)CC1
REMARK SMILES IDX 15 1 14 2 12 3 13 4 11 6 10 7 7 8 8 9 76 10 9 12 75 13 6 14
REMARK SMILES IDX 5 15 3 16 1 17 2 18 4 20 16 21 17 22 18 23 19 24 20 26 21 27
REMARK SMILES IDX 22 28 74 29 23 30 73 31 24 32 25 33 26 34 67 35 27 36 72 37
REMARK SMILES IDX 66 38 68 39 28 40 71 41 65 42 64 43 29 45 55 46 38 47 54 48
REMARK SMILES IDX 39 49 42 50 53 51 69 52 40 53 41 54 52 56 70 57 43 58 30 59
REMARK SMILES IDX 31 60 36 61 32 62 33 63 35 64 37 65 34 66 56 67 57 68 62 69
REMARK SMILES IDX 58 70 59 71 61 72 63 73 60 74 44 75 45 76 50 77 46 78 47 79
REMARK SMILES IDX 49 80 51 81 48 82
REMARK H PARENT 14 5 7 11 2 19 18 25 68 44 42 55
REMARK Flexibility Score: inf
ROOT
ATOM      1  C   UNL A   1      38.016  23.409  26.090  1.00  0.00     0.117 C 
ENDROOT
BRANCH   1   2
ATOM      2  N   UNL A   1      37.752  23.352  24.660  1.00  0.00    -0.356 N 
ATOM      3  C   UNL A   1      36.577  23.249  23.975  1.00  0.00     0.220 C 
ATOM      4  O   UNL A   1      36.641  23.124  22.750  1.00  0.00    -0.275 OA
ATOM      5  H   UNL A   1      38.556  23.394  24.094  1.00  0.00     0.163 HD
BRANCH   3   6
ATOM      6  C   UNL A   1      35.228  23.267  24.685  1.00  0.00     0.104 C 
BRANCH   6   7
ATOM      7  C   UNL A   1      34.456  21.955  24.495  1.00  0.00     0.009 C 
ATOM      8  N   UNL A   1      32.994  19.495  25.160  1.00  0.00    -0.334 N 
ATOM      9  C   UNL A   1      34.426  19.502  24.876  1.00  0.00     0.262 C 
ATOM     10  C   UNL A   1      32.276  20.680  24.669  1.00  0.00     0.262 C 
ATOM     11  H   UNL A   1      32.907  19.556  26.175  1.00  0.00     0.348 HD
ATOM     12  C   UNL A   1      35.096  20.803  25.276  1.00  0.00     0.066 C 
ATOM     13  C   UNL A   1      32.993  22.012  24.969  1.00  0.00     0.066 C 
BRANCH   8  14
ATOM     14  C   UNL A   1      32.369  18.221  24.734  1.00  0.00     0.272 C 
BRANCH  14  15
ATOM     15  C   UNL A   1      33.293  17.154  24.113  1.00  0.00     0.161 C 
BRANCH  15  16
ATOM     16  C   UNL A   1      33.324  15.866  24.919  1.00  0.00     0.225 C 
ATOM     17  C   UNL A   1      35.806  16.025  25.453  1.00  0.00     0.142 C 
ATOM     18  N   UNL A   1      34.489  15.431  25.480  1.00  0.00    -0.359 N 
ATOM     19  H   UNL A   1      34.423  14.585  25.979  1.00  0.00     0.163 HD
ATOM     20  O   UNL A   1      32.312  15.181  25.080  1.00  0.00    -0.275 OA
ENDBRANCH  15  16
ENDBRANCH  14  15
ENDBRANCH   8  14
ENDBRANCH   6   7
ENDBRANCH   3   6
ENDBRANCH   1   2
BRANCH   1  21
ATOM     21  C   UNL A   1      39.113  22.418  26.496  1.00  0.00     0.042 C 
BRANCH  21  22
ATOM     22  C   UNL A   1      40.368  23.068  27.076  1.00  0.00     0.118 C 
BRANCH  22  23
ATOM     23  N   UNL A   1      41.046  23.908  26.099  1.00  0.00    -0.352 N 
ATOM     24  C   UNL A   1      41.243  25.265  26.039  1.00  0.00     0.251 C 
ATOM     25  H   UNL A   1      41.432  23.411  25.341  1.00  0.00     0.163 HD
ATOM     26  O   UNL A   1      41.664  25.741  24.981  1.00  0.00    -0.269 OA
BRANCH  24  27
ATOM     27  C   UNL A   1      40.975  26.183  27.178  1.00  0.00     0.039 A 
ATOM     28  C   UNL A   1      41.773  27.329  27.304  1.00  0.00     0.014 A 
ATOM     29  C   UNL A   1      40.045  25.900  28.182  1.00  0.00     0.014 A 
ATOM     30  C   UNL A   1      41.622  28.192  28.397  1.00  0.00     0.010 A 
ATOM     31  C   UNL A   1      39.846  26.798  29.240  1.00  0.00     0.010 A 
ATOM     32  C   UNL A   1      40.641  27.948  29.370  1.00  0.00    -0.014 A 
BRANCH  32  33
ATOM     33  C   UNL A   1      40.457  28.871  30.527  1.00  0.00     0.031 A 
ATOM     34  C   UNL A   1      39.389  29.937  30.502  1.00  0.00     0.074 A 
ATOM     35  C   UNL A   1      41.278  28.788  31.594  1.00  0.00     0.049 A 
ATOM     36  N   UNL A   1      39.128  30.869  31.385  1.00  0.00    -0.248 NA
ATOM     37  C   UNL A   1      38.515  29.973  29.320  1.00  0.00     0.031 C 
ATOM     38  C   UNL A   1      42.373  27.830  31.746  1.00  0.00     0.029 A 
ATOM     39  N   UNL A   1      41.323  29.531  32.750  1.00  0.00    -0.354 N 
ATOM     40  C   UNL A   1      38.082  31.616  30.856  1.00  0.00     0.074 A 
ATOM     41  C   UNL A   1      37.777  31.048  29.560  1.00  0.00     0.031 C 
ATOM     42  C   UNL A   1      42.975  28.036  32.929  1.00  0.00     0.029 A 
ATOM     43  C   UNL A   1      42.332  29.159  33.606  1.00  0.00     0.049 A 
ATOM     44  H   UNL A   1      40.693  30.261  32.946  1.00  0.00     0.167 HD
ATOM     45  C   UNL A   1      37.422  32.666  31.403  1.00  0.00     0.037 A 
ATOM     46  C   UNL A   1      42.707  29.667  34.796  1.00  0.00     0.037 A 
ATOM     47  C   UNL A   1      37.684  33.206  32.712  1.00  0.00     0.049 A 
ATOM     48  C   UNL A   1      41.951  30.825  35.387  1.00  0.00     0.074 A 
ATOM     49  C   UNL A   1      37.009  34.217  33.378  1.00  0.00     0.029 A 
ATOM     50  N   UNL A   1      38.700  32.785  33.554  1.00  0.00    -0.354 N 
ATOM     51  N   UNL A   1      40.921  31.474  34.900  1.00  0.00    -0.248 NA
ATOM     52  C   UNL A   1      42.406  31.318  36.695  1.00  0.00     0.031 C 
ATOM     53  C   UNL A   1      37.642  34.435  34.606  1.00  0.00     0.029 A 
ATOM     54  C   UNL A   1      38.685  33.532  34.723  1.00  0.00     0.049 A 
ATOM     55  H   UNL A   1      39.337  32.062  33.354  1.00  0.00     0.167 HD
ATOM     56  C   UNL A   1      40.592  32.431  35.852  1.00  0.00     0.074 A 
ATOM     57  C   UNL A   1      41.520  32.270  36.950  1.00  0.00     0.031 C 
ATOM     58  C   UNL A   1      39.606  33.361  35.816  1.00  0.00     0.037 A 
BRANCH  45  59
ATOM     59  C   UNL A   1      36.340  33.312  30.587  1.00  0.00     0.057 A 
ATOM     60  C   UNL A   1      36.628  34.124  29.482  1.00  0.00     0.134 A 
ATOM     61  C   UNL A   1      34.991  33.066  30.873  1.00  0.00     0.134 A 
ATOM     62  F   UNL A   1      37.900  34.404  29.159  1.00  0.00    -0.206 F 
ATOM     63  C   UNL A   1      35.614  34.685  28.705  1.00  0.00     0.040 A 
ATOM     64  C   UNL A   1      33.968  33.601  30.087  1.00  0.00     0.040 A 
ATOM     65  F   UNL A   1      34.645  32.288  31.909  1.00  0.00    -0.206 F 
ATOM     66  C   UNL A   1      34.278  34.417  29.002  1.00  0.00     0.006 A 
ENDBRANCH  45  59
BRANCH  46  67
ATOM     67  C   UNL A   1      43.860  29.078  35.523  1.00  0.00     0.057 A 
ATOM     68  C   UNL A   1      45.164  29.535  35.303  1.00  0.00     0.134 A 
ATOM     69  C   UNL A   1      43.688  28.030  36.436  1.00  0.00     0.134 A 
ATOM     70  F   UNL A   1      45.394  30.520  34.421  1.00  0.00    -0.206 F 
ATOM     71  C   UNL A   1      46.259  28.962  35.950  1.00  0.00     0.040 A 
ATOM     72  C   UNL A   1      44.770  27.465  37.110  1.00  0.00     0.040 A 
ATOM     73  F   UNL A   1      42.462  27.548  36.690  1.00  0.00    -0.206 F 
ATOM     74  C   UNL A   1      46.063  27.925  36.862  1.00  0.00     0.006 A 
ENDBRANCH  46  67
BRANCH  58  75
ATOM     75  C   UNL A   1      39.459  34.256  37.010  1.00  0.00     0.057 A 
ATOM     76  C   UNL A   1      39.949  35.568  37.016  1.00  0.00     0.134 A 
ATOM     77  C   UNL A   1      38.787  33.813  38.157  1.00  0.00     0.134 A 
ATOM     78  F   UNL A   1      40.614  36.049  35.954  1.00  0.00    -0.206 F 
ATOM     79  C   UNL A   1      39.795  36.400  38.126  1.00  0.00     0.040 A 
ATOM     80  C   UNL A   1      38.605  34.642  39.265  1.00  0.00     0.040 A 
ATOM     81  F   UNL A   1      38.285  32.569  38.214  1.00  0.00    -0.206 F 
ATOM     82  C   UNL A   1      39.115  35.938  39.252  1.00  0.00     0.006 A 
ENDBRANCH  58  75
ENDBRANCH  32  33
ENDBRANCH  24  27
ENDBRANCH  22  23
ENDBRANCH  21  22
ENDBRANCH   1  21
TORSDOF 14
ENDMDL
MODEL 3
REMARK VINA RESULT:     -10.5      3.734      7.417
REMARK SMILES CNC(=O)CC[NH+]1CCC(CC(=O)NCCCNC(=O)c2ccc(-c3c4nc(c(-c5c(F)cccc5F)c5ccc([nH]5)c(-c5c(F)cccc5F)c5nc(c(-c6c(F)cccc6F)c6ccc3[nH]6)C=C5)C=C4)cc2)CC1
REMARK SMILES IDX 15 1 14 2 12 3 13 4 11 6 10 7 7 8 8 9 76 10 9 12 75 13 6 14
REMARK SMILES IDX 5 15 3 16 1 17 2 18 4 20 16 21 17 22 18 23 19 24 20 26 21 27
REMARK SMILES IDX 22 28 74 29 23 30 73 31 24 32 25 33 26 34 67 35 27 36 72 37
REMARK SMILES IDX 66 38 68 39 28 40 71 41 65 42 64 43 29 45 55 46 38 47 54 48
REMARK SMILES IDX 39 49 42 50 53 51 69 52 40 53 41 54 52 56 70 57 43 58 30 59
REMARK SMILES IDX 31 60 36 61 32 62 33 63 35 64 37 65 34 66 56 67 57 68 62 69
REMARK SMILES IDX 58 70 59 71 61 72 63 73 60 74 44 75 45 76 50 77 46 78 47 79
REMARK SMILES IDX 49 80 51 81 48 82
REMARK H PARENT 14 5 7 11 2 19 18 25 68 44 42 55
REMARK Flexibility Score: inf
ROOT
ATOM      1  C   UNL A   1      30.901  30.950  25.065  1.00  0.00     0.117 C 
ENDROOT
BRANCH   1   2
ATOM      2  N   UNL A   1      32.018  30.067  25.366  1.00  0.00    -0.356 N 
ATOM      3  C   UNL A   1      32.187  28.734  25.133  1.00  0.00     0.220 C 
ATOM      4  O   UNL A   1      33.206  28.202  25.579  1.00  0.00    -0.275 OA
ATOM      5  H   UNL A   1      32.778  30.506  25.812  1.00  0.00     0.163 HD
BRANCH   3   6
ATOM      6  C   UNL A   1      31.154  27.915  24.367  1.00  0.00     0.104 C 
BRANCH   6   7
ATOM      7  C   UNL A   1      31.279  26.412  24.651  1.00  0.00     0.009 C 
ATOM      8  N   UNL A   1      30.498  23.650  25.276  1.00  0.00    -0.334 N 
ATOM      9  C   UNL A   1      30.946  24.588  26.302  1.00  0.00     0.262 C 
ATOM     10  C   UNL A   1      30.880  24.026  23.908  1.00  0.00     0.262 C 
ATOM     11  H   UNL A   1      29.479  23.701  25.272  1.00  0.00     0.348 HD
ATOM     12  C   UNL A   1      30.601  26.027  25.970  1.00  0.00     0.066 C 
ATOM     13  C   UNL A   1      30.638  25.514  23.580  1.00  0.00     0.066 C 
BRANCH   8  14
ATOM     14  C   UNL A   1      30.874  22.258  25.621  1.00  0.00     0.272 C 
BRANCH  14  15
ATOM     15  C   UNL A   1      32.126  21.674  24.933  1.00  0.00     0.161 C 
BRANCH  15  16
ATOM     16  C   UNL A   1      32.581  20.368  25.561  1.00  0.00     0.225 C 
ATOM     17  C   UNL A   1      34.065  21.490  27.297  1.00  0.00     0.142 C 
ATOM     18  N   UNL A   1      33.454  20.375  26.611  1.00  0.00    -0.359 N 
ATOM     19  H   UNL A   1      33.702  19.486  26.954  1.00  0.00     0.163 HD
ATOM     20  O   UNL A   1      32.189  19.278  25.141  1.00  0.00    -0.275 OA
ENDBRANCH  15  16
ENDBRANCH  14  15
ENDBRANCH   8  14
ENDBRANCH   6   7
ENDBRANCH   3   6
ENDBRANCH   1   2
BRANCH   1  21
ATOM     21  C   UNL A   1      30.799  32.089  26.087  1.00  0.00     0.042 C 
BRANCH  21  22
ATOM     22  C   UNL A   1      32.091  32.368  26.853  1.00  0.00     0.118 C 
BRANCH  22  23
ATOM     23  N   UNL A   1      32.178  33.756  27.283  1.00  0.00    -0.352 N 
ATOM     24  C   UNL A   1      33.004  34.386  28.182  1.00  0.00     0.251 C 
ATOM     25  H   UNL A   1      31.525  34.353  26.852  1.00  0.00     0.163 HD
ATOM     26  O   UNL A   1      32.717  35.538  28.521  1.00  0.00    -0.269 OA
BRANCH  24  27
ATOM     27  C   UNL A   1      34.217  33.752  28.763  1.00  0.00     0.039 A 
ATOM     28  C   UNL A   1      34.076  32.501  29.381  1.00  0.00     0.014 A 
ATOM     29  C   UNL A   1      35.459  34.392  28.820  1.00  0.00     0.014 A 
ATOM     30  C   UNL A   1      35.164  31.888  30.016  1.00  0.00     0.010 A 
ATOM     31  C   UNL A   1      36.564  33.749  29.395  1.00  0.00     0.010 A 
ATOM     32  C   UNL A   1      36.429  32.495  30.013  1.00  0.00    -0.014 A 
BRANCH  32  33
ATOM     33  C   UNL A   1      37.600  31.841  30.667  1.00  0.00     0.031 A 
ATOM     34  C   UNL A   1      38.401  30.790  29.940  1.00  0.00     0.074 A 
ATOM     35  C   UNL A   1      37.925  32.156  31.936  1.00  0.00     0.049 A 
ATOM     36  N   UNL A   1      39.406  30.068  30.374  1.00  0.00    -0.248 NA
ATOM     37  C   UNL A   1      38.010  30.496  28.554  1.00  0.00     0.031 C 
ATOM     38  C   UNL A   1      37.224  33.130  32.774  1.00  0.00     0.029 A 
ATOM     39  N   UNL A   1      38.927  31.680  32.749  1.00  0.00    -0.354 N 
ATOM     40  C   UNL A   1      39.747  29.220  29.327  1.00  0.00     0.074 A 
ATOM     41  C   UNL A   1      38.822  29.494  28.248  1.00  0.00     0.031 C 
ATOM     42  C   UNL A   1      37.821  33.187  33.976  1.00  0.00     0.029 A 
ATOM     43  C   UNL A   1      38.926  32.232  34.008  1.00  0.00     0.049 A 
ATOM     44  H   UNL A   1      39.582  31.006  32.458  1.00  0.00     0.167 HD
ATOM     45  C   UNL A   1      40.749  28.308  29.260  1.00  0.00     0.037 A 
ATOM     46  C   UNL A   1      39.716  31.994  35.073  1.00  0.00     0.037 A 
ATOM     47  C   UNL A   1      41.705  28.063  30.309  1.00  0.00     0.049 A 
ATOM     48  C   UNL A   1      40.828  30.986  34.969  1.00  0.00     0.074 A 
ATOM     49  C   UNL A   1      42.801  27.216  30.294  1.00  0.00     0.029 A 
ATOM     50  N   UNL A   1      41.681  28.661  31.558  1.00  0.00    -0.354 N 
ATOM     51  N   UNL A   1      41.176  30.243  33.947  1.00  0.00    -0.248 NA
ATOM     52  C   UNL A   1      41.659  30.787  36.165  1.00  0.00     0.031 C 
ATOM     53  C   UNL A   1      43.417  27.271  31.549  1.00  0.00     0.029 A 
ATOM     54  C   UNL A   1      42.729  28.183  32.331  1.00  0.00     0.049 A 
ATOM     55  H   UNL A   1      41.019  29.327  31.853  1.00  0.00     0.167 HD
ATOM     56  C   UNL A   1      42.279  29.510  34.370  1.00  0.00     0.074 A 
ATOM     57  C   UNL A   1      42.551  29.909  35.733  1.00  0.00     0.031 C 
ATOM     58  C   UNL A   1      43.000  28.590  33.684  1.00  0.00     0.037 A 
BRANCH  45  59
ATOM     59  C   UNL A   1      40.871  27.497  28.003  1.00  0.00     0.057 A 
ATOM     60  C   UNL A   1      41.653  27.920  26.920  1.00  0.00     0.134 A 
ATOM     61  C   UNL A   1      40.249  26.246  27.900  1.00  0.00     0.134 A 
ATOM     62  F   UNL A   1      42.269  29.111  26.952  1.00  0.00    -0.206 F 
ATOM     63  C   UNL A   1      41.792  27.139  25.772  1.00  0.00     0.040 A 
ATOM     64  C   UNL A   1      40.403  25.444  26.768  1.00  0.00     0.040 A 
ATOM     65  F   UNL A   1      39.496  25.775  28.905  1.00  0.00    -0.206 F 
ATOM     66  C   UNL A   1      41.173  25.892  25.697  1.00  0.00     0.006 A 
ENDBRANCH  45  59
BRANCH  46  67
ATOM     67  C   UNL A   1      39.492  32.731  36.342  1.00  0.00     0.057 A 
ATOM     68  C   UNL A   1      38.582  32.265  37.299  1.00  0.00     0.134 A 
ATOM     69  C   UNL A   1      40.163  33.929  36.618  1.00  0.00     0.134 A 
ATOM     70  F   UNL A   1      37.891  31.137  37.078  1.00  0.00    -0.206 F 
ATOM     71  C   UNL A   1      38.333  32.971  38.476  1.00  0.00     0.040 A 
ATOM     72  C   UNL A   1      39.943  34.632  37.803  1.00  0.00     0.040 A 
ATOM     73  F   UNL A   1      41.047  34.427  35.741  1.00  0.00    -0.206 F 
ATOM     74  C   UNL A   1      39.020  34.157  38.733  1.00  0.00     0.006 A 
ENDBRANCH  46  67
BRANCH  58  75
ATOM     75  C   UNL A   1      44.173  27.971  34.386  1.00  0.00     0.057 A 
ATOM     76  C   UNL A   1      44.060  26.771  35.098  1.00  0.00     0.134 A 
ATOM     77  C   UNL A   1      45.440  28.566  34.320  1.00  0.00     0.134 A 
ATOM     78  F   UNL A   1      42.872  26.157  35.211  1.00  0.00    -0.206 F 
ATOM     79  C   UNL A   1      45.159  26.194  35.736  1.00  0.00     0.040 A 
ATOM     80  C   UNL A   1      46.552  27.988  34.933  1.00  0.00     0.040 A 
ATOM     81  F   UNL A   1      45.619  29.713  33.647  1.00  0.00    -0.206 F 
ATOM     82  C   UNL A   1      46.412  26.800  35.648  1.00  0.00     0.006 A 
ENDBRANCH  58  75
ENDBRANCH  32  33
ENDBRANCH  24  27
ENDBRANCH  22  23
ENDBRANCH  21  22
ENDBRANCH   1  21
TORSDOF 14
ENDMDL
