MODEL 1
REMARK VINA RESULT:     -12.3      0.000      0.000
REMARK SMILES CCOC(=O)c1c(NC(=O)/C=C(/C)C(=O)NCCCNC(=O)c2ccc(-c3c4nc(c(-c5c(F)cccc5F)c5ccc([nH]5)c(-c5c(F)cccc5F)c5nc(c(-c6c(F)cccc6F)c6ccc3[nH]6)C=C5)C=C4)cc2)sc2c1CC[C@H](C(C)(C)C)C2
REMARK SMILES IDX 14 1 15 2 16 3 12 5 11 6 13 7 9 8 8 9 10 11 7 12 6 13 79 14
REMARK SMILES IDX 77 15 78 16 80 17 87 18 81 19 82 20 4 21 5 22 3 23 2 24 1 25
REMARK SMILES IDX 83 26 84 27 85 28 86 29 17 30 18 31 19 32 20 33 21 34 22 36
REMARK SMILES IDX 23 37 24 38 76 39 25 40 75 41 26 42 27 43 28 44 69 45 29 46
REMARK SMILES IDX 74 47 68 48 70 49 30 50 73 51 67 52 66 53 31 55 57 56 40 57
REMARK SMILES IDX 56 58 41 59 44 60 55 61 71 62 42 63 43 64 54 66 72 67 45 68
REMARK SMILES IDX 32 69 33 70 38 71 34 72 35 73 37 74 39 75 36 76 58 77 59 78
REMARK SMILES IDX 64 79 60 80 61 81 63 82 65 83 62 84 46 85 47 86 52 87 48 88
REMARK SMILES IDX 49 89 51 90 53 91 50 92
REMARK H PARENT 16 4 8 10 20 35 70 54 44 65
REMARK Flexibility Score: inf
ROOT
ATOM      1  C   UNL A   1      31.446  27.853  25.369  1.00  0.00     0.247 C 
ATOM      2  O   UNL A   1      32.218  27.282  26.166  1.00  0.00    -0.270 OA
ATOM      3  N   UNL A   1      31.389  29.213  25.665  1.00  0.00    -0.352 N 
ATOM      4  H   UNL A   1      31.825  29.235  26.549  1.00  0.00     0.163 HD
ENDROOT
BRANCH   1   5
ATOM      5  C   UNL A   1      30.779  26.868  24.364  1.00  0.00     0.019 C 
ATOM      6  C   UNL A   1      30.422  25.646  24.807  1.00  0.00     0.080 C 
ATOM      7  C   UNL A   1      30.449  26.849  22.879  1.00  0.00     0.050 C 
BRANCH   6   8
ATOM      8  C   UNL A   1      30.277  25.054  26.127  1.00  0.00     0.249 C 
ATOM      9  N   UNL A   1      31.433  24.632  26.704  1.00  0.00    -0.313 N 
ATOM     10  H   UNL A   1      31.518  24.822  27.666  1.00  0.00     0.171 HD
ATOM     11  O   UNL A   1      29.279  25.304  26.796  1.00  0.00    -0.270 OA
BRANCH   9  12
ATOM     12  C   UNL A   1      32.502  23.977  26.135  1.00  0.00     0.110 A 
ATOM     13  C   UNL A   1      33.100  23.919  24.871  1.00  0.00     0.098 A 
ATOM     14  C   UNL A   1      32.827  22.479  24.516  1.00  0.00    -0.017 A 
ATOM     15  S   UNL A   1      32.868  22.588  27.068  1.00  0.00    -0.122 S 
ATOM     16  C   UNL A   1      32.865  21.665  25.650  1.00  0.00     0.011 A 
ATOM     17  C   UNL A   1      32.470  21.797  23.226  1.00  0.00     0.038 C 
ATOM     18  C   UNL A   1      32.813  20.151  25.677  1.00  0.00     0.051 C 
ATOM     19  C   UNL A   1      32.291  20.273  23.268  1.00  0.00     0.009 C 
ATOM     20  C   UNL A   1      33.233  19.606  24.288  1.00  0.00    -0.000 C 
BRANCH  13  21
ATOM     21  C   UNL A   1      34.136  25.008  24.435  1.00  0.00     0.341 C 
ATOM     22  O   UNL A   1      35.238  24.943  24.984  1.00  0.00    -0.246 OA
BRANCH  21  23
ATOM     23  O   UNL A   1      34.010  26.061  23.527  1.00  0.00    -0.462 OA
BRANCH  23  24
ATOM     24  C   UNL A   1      33.983  27.291  22.434  1.00  0.00     0.230 C 
ATOM     25  C   UNL A   1      33.797  28.814  22.750  1.00  0.00     0.049 C 
ENDBRANCH  23  24
ENDBRANCH  21  23
ENDBRANCH  13  21
BRANCH  20  26
ATOM     26  C   UNL A   1      33.313  18.044  24.120  1.00  0.00    -0.035 C 
ATOM     27  C   UNL A   1      34.792  17.609  24.251  1.00  0.00     0.011 C 
ATOM     28  C   UNL A   1      32.529  17.314  25.224  1.00  0.00     0.011 C 
ATOM     29  C   UNL A   1      32.810  17.549  22.751  1.00  0.00     0.011 C 
ENDBRANCH  20  26
ENDBRANCH   9  12
ENDBRANCH   6   8
ENDBRANCH   1   5
BRANCH   3  30
ATOM     30  C   UNL A   1      31.048  30.770  25.444  1.00  0.00     0.118 C 
BRANCH  30  31
ATOM     31  C   UNL A   1      31.165  32.094  26.394  1.00  0.00     0.042 C 
BRANCH  31  32
ATOM     32  C   UNL A   1      32.412  32.609  27.172  1.00  0.00     0.118 C 
BRANCH  32  33
ATOM     33  N   UNL A   1      32.281  33.983  27.621  1.00  0.00    -0.352 N 
ATOM     34  C   UNL A   1      32.985  34.752  28.512  1.00  0.00     0.251 C 
ATOM     35  H   UNL A   1      31.531  34.462  27.200  1.00  0.00     0.163 HD
ATOM     36  O   UNL A   1      32.528  35.870  28.755  1.00  0.00    -0.269 OA
BRANCH  34  37
ATOM     37  C   UNL A   1      34.226  34.327  29.216  1.00  0.00     0.039 A 
ATOM     38  C   UNL A   1      34.058  33.751  30.487  1.00  0.00     0.014 A 
ATOM     39  C   UNL A   1      35.526  34.552  28.751  1.00  0.00     0.014 A 
ATOM     40  C   UNL A   1      35.157  33.341  31.247  1.00  0.00     0.010 A 
ATOM     41  C   UNL A   1      36.635  34.118  29.505  1.00  0.00     0.010 A 
ATOM     42  C   UNL A   1      36.457  33.478  30.743  1.00  0.00    -0.014 A 
BRANCH  42  43
ATOM     43  C   UNL A   1      37.581  32.782  31.430  1.00  0.00     0.031 A 
ATOM     44  C   UNL A   1      38.105  33.218  32.767  1.00  0.00     0.074 A 
ATOM     45  C   UNL A   1      38.138  31.731  30.796  1.00  0.00     0.049 A 
ATOM     46  N   UNL A   1      39.043  32.670  33.501  1.00  0.00    -0.248 NA
ATOM     47  C   UNL A   1      37.515  34.428  33.353  1.00  0.00     0.031 C 
ATOM     48  C   UNL A   1      37.739  31.247  29.471  1.00  0.00     0.029 A 
ATOM     49  N   UNL A   1      39.150  30.881  31.167  1.00  0.00    -0.354 N 
ATOM     50  C   UNL A   1      39.161  33.467  34.633  1.00  0.00     0.074 A 
ATOM     51  C   UNL A   1      38.216  34.555  34.475  1.00  0.00     0.031 C 
ATOM     52  C   UNL A   1      38.484  30.182  29.147  1.00  0.00     0.029 A 
ATOM     53  C   UNL A   1      39.431  29.920  30.224  1.00  0.00     0.049 A 
ATOM     54  H   UNL A   1      39.628  30.951  32.024  1.00  0.00     0.167 HD
ATOM     55  C   UNL A   1      39.981  33.300  35.703  1.00  0.00     0.037 A 
ATOM     56  C   UNL A   1      40.350  28.937  30.222  1.00  0.00     0.037 A 
ATOM     57  C   UNL A   1      40.920  32.213  35.843  1.00  0.00     0.049 A 
ATOM     58  C   UNL A   1      41.230  28.766  31.428  1.00  0.00     0.074 A 
ATOM     59  C   UNL A   1      41.752  31.921  36.912  1.00  0.00     0.029 A 
ATOM     60  N   UNL A   1      41.164  31.246  34.877  1.00  0.00    -0.354 N 
ATOM     61  N   UNL A   1      41.261  29.474  32.531  1.00  0.00    -0.248 NA
ATOM     62  C   UNL A   1      42.187  27.653  31.396  1.00  0.00     0.031 C 
ATOM     63  C   UNL A   1      42.532  30.810  36.573  1.00  0.00     0.029 A 
ATOM     64  C   UNL A   1      42.151  30.375  35.315  1.00  0.00     0.049 A 
ATOM     65  H   UNL A   1      40.704  31.188  34.010  1.00  0.00     0.167 HD
ATOM     66  C   UNL A   1      42.224  28.881  33.335  1.00  0.00     0.074 A 
ATOM     67  C   UNL A   1      42.736  27.741  32.600  1.00  0.00     0.031 C 
ATOM     68  C   UNL A   1      42.649  29.247  34.569  1.00  0.00     0.037 A 
BRANCH  55  69
ATOM     69  C   UNL A   1      39.913  34.320  36.806  1.00  0.00     0.057 A 
ATOM     70  C   UNL A   1      40.674  35.497  36.776  1.00  0.00     0.134 A 
ATOM     71  C   UNL A   1      39.028  34.156  37.881  1.00  0.00     0.134 A 
ATOM     72  F   UNL A   1      41.541  35.720  35.777  1.00  0.00    -0.206 F 
ATOM     73  C   UNL A   1      40.575  36.459  37.786  1.00  0.00     0.040 A 
ATOM     74  C   UNL A   1      38.904  35.121  38.883  1.00  0.00     0.040 A 
ATOM     75  F   UNL A   1      38.257  33.061  37.967  1.00  0.00    -0.206 F 
ATOM     76  C   UNL A   1      39.684  36.274  38.839  1.00  0.00     0.006 A 
ENDBRANCH  55  69
BRANCH  56  77
ATOM     77  C   UNL A   1      40.468  28.032  29.051  1.00  0.00     0.057 A 
ATOM     78  C   UNL A   1      41.320  28.331  27.982  1.00  0.00     0.134 A 
ATOM     79  C   UNL A   1      39.735  26.840  28.976  1.00  0.00     0.134 A 
ATOM     80  F   UNL A   1      42.037  29.464  27.988  1.00  0.00    -0.206 F 
ATOM     81  C   UNL A   1      41.422  27.492  26.871  1.00  0.00     0.040 A 
ATOM     82  C   UNL A   1      39.850  25.978  27.884  1.00  0.00     0.040 A 
ATOM     83  F   UNL A   1      38.911  26.487  29.973  1.00  0.00    -0.206 F 
ATOM     84  C   UNL A   1      40.690  26.309  26.822  1.00  0.00     0.006 A 
ENDBRANCH  56  77
BRANCH  68  85
ATOM     85  C   UNL A   1      43.700  28.386  35.206  1.00  0.00     0.057 A 
ATOM     86  C   UNL A   1      43.369  27.279  36.001  1.00  0.00     0.134 A 
ATOM     87  C   UNL A   1      45.059  28.658  35.011  1.00  0.00     0.134 A 
ATOM     88  F   UNL A   1      42.084  26.975  36.240  1.00  0.00    -0.206 F 
ATOM     89  C   UNL A   1      44.352  26.493  36.601  1.00  0.00     0.040 A 
ATOM     90  C   UNL A   1      46.052  27.863  35.584  1.00  0.00     0.040 A 
ATOM     91  F   UNL A   1      45.444  29.700  34.257  1.00  0.00    -0.206 F 
ATOM     92  C   UNL A   1      45.699  26.782  36.388  1.00  0.00     0.006 A 
ENDBRANCH  68  85
ENDBRANCH  42  43
ENDBRANCH  34  37
ENDBRANCH  32  33
ENDBRANCH  31  32
ENDBRANCH  30  31
ENDBRANCH   3  30
TORSDOF 16
ENDMDL
MODEL 2
REMARK VINA RESULT:     -12.2      4.723      8.487
REMARK SMILES CCOC(=O)c1c(NC(=O)/C=C(/C)C(=O)NCCCNC(=O)c2ccc(-c3c4nc(c(-c5c(F)cccc5F)c5ccc([nH]5)c(-c5c(F)cccc5F)c5nc(c(-c6c(F)cccc6F)c6ccc3[nH]6)C=C5)C=C4)cc2)sc2c1CC[C@H](C(C)(C)C)C2
REMARK SMILES IDX 14 1 15 2 16 3 12 5 11 6 13 7 9 8 8 9 10 11 7 12 6 13 79 14
REMARK SMILES IDX 77 15 78 16 80 17 87 18 81 19 82 20 4 21 5 22 3 23 2 24 1 25
REMARK SMILES IDX 83 26 84 27 85 28 86 29 17 30 18 31 19 32 20 33 21 34 22 36
REMARK SMILES IDX 23 37 24 38 76 39 25 40 75 41 26 42 27 43 28 44 69 45 29 46
REMARK SMILES IDX 74 47 68 48 70 49 30 50 73 51 67 52 66 53 31 55 57 56 40 57
REMARK SMILES IDX 56 58 41 59 44 60 55 61 71 62 42 63 43 64 54 66 72 67 45 68
REMARK SMILES IDX 32 69 33 70 38 71 34 72 35 73 37 74 39 75 36 76 58 77 59 78
REMARK SMILES IDX 64 79 60 80 61 81 63 82 65 83 62 84 46 85 47 86 52 87 48 88
REMARK SMILES IDX 49 89 51 90 53 91 50 92
REMARK H PARENT 16 4 8 10 20 35 70 54 44 65
REMARK Flexibility Score: inf
ROOT
ATOM      1  C   UNL A   1      31.150  27.837  24.857  1.00  0.00     0.247 C 
ATOM      2  O   UNL A   1      30.390  28.743  24.460  1.00  0.00    -0.270 OA
ATOM      3  N   UNL A   1      31.909  28.300  25.931  1.00  0.00    -0.352 N 
ATOM      4  H   UNL A   1      31.736  29.269  25.884  1.00  0.00     0.163 HD
ENDROOT
BRANCH   1   5
ATOM      5  C   UNL A   1      31.036  26.537  24.007  1.00  0.00     0.019 C 
ATOM      6  C   UNL A   1      30.921  25.359  24.653  1.00  0.00     0.080 C 
ATOM      7  C   UNL A   1      31.096  26.163  22.534  1.00  0.00     0.050 C 
BRANCH   6   8
ATOM      8  C   UNL A   1      30.621  24.985  26.025  1.00  0.00     0.249 C 
ATOM      9  N   UNL A   1      31.691  24.594  26.767  1.00  0.00    -0.313 N 
ATOM     10  H   UNL A   1      31.704  24.925  27.694  1.00  0.00     0.171 HD
ATOM     11  O   UNL A   1      29.588  25.390  26.551  1.00  0.00    -0.270 OA
BRANCH   9  12
ATOM     12  C   UNL A   1      32.757  23.802  26.407  1.00  0.00     0.110 A 
ATOM     13  C   UNL A   1      33.630  23.710  25.318  1.00  0.00     0.098 A 
ATOM     14  C   UNL A   1      33.243  22.355  24.782  1.00  0.00    -0.017 A 
ATOM     15  S   UNL A   1      32.675  22.326  27.273  1.00  0.00    -0.122 S 
ATOM     16  C   UNL A   1      32.882  21.489  25.817  1.00  0.00     0.011 A 
ATOM     17  C   UNL A   1      33.115  21.807  23.388  1.00  0.00     0.038 C 
ATOM     18  C   UNL A   1      32.602  20.005  25.697  1.00  0.00     0.051 C 
ATOM     19  C   UNL A   1      32.708  20.334  23.253  1.00  0.00     0.009 C 
ATOM     20  C   UNL A   1      33.263  19.469  24.400  1.00  0.00    -0.000 C 
BRANCH  13  21
ATOM     21  C   UNL A   1      34.890  24.634  25.233  1.00  0.00     0.341 C 
ATOM     22  O   UNL A   1      34.696  25.755  24.757  1.00  0.00    -0.246 OA
BRANCH  21  23
ATOM     23  O   UNL A   1      36.215  24.391  25.600  1.00  0.00    -0.462 OA
BRANCH  23  24
ATOM     24  C   UNL A   1      37.735  24.073  26.144  1.00  0.00     0.230 C 
ATOM     25  C   UNL A   1      38.473  22.691  26.092  1.00  0.00     0.049 C 
ENDBRANCH  23  24
ENDBRANCH  21  23
ENDBRANCH  13  21
BRANCH  20  26
ATOM     26  C   UNL A   1      33.150  17.926  24.118  1.00  0.00    -0.035 C 
ATOM     27  C   UNL A   1      32.582  17.726  22.692  1.00  0.00     0.011 C 
ATOM     28  C   UNL A   1      34.527  17.240  24.154  1.00  0.00     0.011 C 
ATOM     29  C   UNL A   1      32.210  17.193  25.092  1.00  0.00     0.011 C 
ENDBRANCH  20  26
ENDBRANCH   9  12
ENDBRANCH   6   8
ENDBRANCH   1   5
BRANCH   3  30
ATOM     30  C   UNL A   1      32.894  28.217  27.200  1.00  0.00     0.118 C 
BRANCH  30  31
ATOM     31  C   UNL A   1      34.302  28.951  27.581  1.00  0.00     0.042 C 
BRANCH  31  32
ATOM     32  C   UNL A   1      34.653  30.465  27.483  1.00  0.00     0.118 C 
BRANCH  32  33
ATOM     33  N   UNL A   1      34.855  31.092  28.777  1.00  0.00    -0.352 N 
ATOM     34  C   UNL A   1      35.860  31.023  29.707  1.00  0.00     0.251 C 
ATOM     35  H   UNL A   1      34.118  31.689  29.041  1.00  0.00     0.163 HD
ATOM     36  O   UNL A   1      35.660  31.603  30.776  1.00  0.00    -0.269 OA
BRANCH  34  37
ATOM     37  C   UNL A   1      37.141  30.286  29.531  1.00  0.00     0.039 A 
ATOM     38  C   UNL A   1      37.677  30.265  28.232  1.00  0.00     0.014 A 
ATOM     39  C   UNL A   1      37.778  29.541  30.529  1.00  0.00     0.014 A 
ATOM     40  C   UNL A   1      38.862  29.579  27.949  1.00  0.00     0.010 A 
ATOM     41  C   UNL A   1      38.985  28.869  30.251  1.00  0.00     0.010 A 
ATOM     42  C   UNL A   1      39.554  28.912  28.967  1.00  0.00    -0.014 A 
BRANCH  42  43
ATOM     43  C   UNL A   1      40.943  28.439  28.713  1.00  0.00     0.031 A 
ATOM     44  C   UNL A   1      41.257  27.025  28.320  1.00  0.00     0.074 A 
ATOM     45  C   UNL A   1      41.940  29.334  28.862  1.00  0.00     0.049 A 
ATOM     46  N   UNL A   1      42.417  26.493  28.018  1.00  0.00    -0.248 NA
ATOM     47  C   UNL A   1      40.133  26.081  28.269  1.00  0.00     0.031 C 
ATOM     48  C   UNL A   1      41.756  30.725  29.287  1.00  0.00     0.029 A 
ATOM     49  N   UNL A   1      43.295  29.222  28.680  1.00  0.00    -0.354 N 
ATOM     50  C   UNL A   1      42.166  25.153  27.746  1.00  0.00     0.074 A 
ATOM     51  C   UNL A   1      40.746  24.947  27.947  1.00  0.00     0.031 C 
ATOM     52  C   UNL A   1      42.947  31.339  29.318  1.00  0.00     0.029 A 
ATOM     53  C   UNL A   1      43.982  30.384  28.944  1.00  0.00     0.049 A 
ATOM     54  H   UNL A   1      43.735  28.391  28.390  1.00  0.00     0.167 HD
ATOM     55  C   UNL A   1      43.043  24.190  27.361  1.00  0.00     0.037 A 
ATOM     56  C   UNL A   1      45.299  30.654  28.892  1.00  0.00     0.037 A 
ATOM     57  C   UNL A   1      44.457  24.411  27.169  1.00  0.00     0.049 A 
ATOM     58  C   UNL A   1      46.243  29.573  28.445  1.00  0.00     0.074 A 
ATOM     59  C   UNL A   1      45.419  23.518  26.725  1.00  0.00     0.029 A 
ATOM     60  N   UNL A   1      45.115  25.606  27.425  1.00  0.00    -0.354 N 
ATOM     61  N   UNL A   1      45.976  28.338  28.101  1.00  0.00    -0.248 NA
ATOM     62  C   UNL A   1      47.665  29.929  28.364  1.00  0.00     0.031 C 
ATOM     63  C   UNL A   1      46.663  24.158  26.759  1.00  0.00     0.029 A 
ATOM     64  C   UNL A   1      46.472  25.466  27.174  1.00  0.00     0.049 A 
ATOM     65  H   UNL A   1      44.682  26.432  27.739  1.00  0.00     0.167 HD
ATOM     66  C   UNL A   1      47.191  27.772  27.741  1.00  0.00     0.074 A 
ATOM     67  C   UNL A   1      48.192  28.809  27.887  1.00  0.00     0.031 C 
ATOM     68  C   UNL A   1      47.455  26.509  27.327  1.00  0.00     0.037 A 
BRANCH  55  69
ATOM     69  C   UNL A   1      42.508  22.804  27.132  1.00  0.00     0.057 A 
ATOM     70  C   UNL A   1      42.351  22.273  25.844  1.00  0.00     0.134 A 
ATOM     71  C   UNL A   1      42.206  21.964  28.213  1.00  0.00     0.134 A 
ATOM     72  F   UNL A   1      42.621  23.020  24.764  1.00  0.00    -0.206 F 
ATOM     73  C   UNL A   1      41.891  20.969  25.641  1.00  0.00     0.040 A 
ATOM     74  C   UNL A   1      41.768  20.652  28.023  1.00  0.00     0.040 A 
ATOM     75  F   UNL A   1      42.347  22.400  29.474  1.00  0.00    -0.206 F 
ATOM     76  C   UNL A   1      41.604  20.153  26.733  1.00  0.00     0.006 A 
ENDBRANCH  55  69
BRANCH  56  77
ATOM     77  C   UNL A   1      45.796  32.006  29.254  1.00  0.00     0.057 A 
ATOM     78  C   UNL A   1      45.918  33.018  28.295  1.00  0.00     0.134 A 
ATOM     79  C   UNL A   1      46.153  32.321  30.572  1.00  0.00     0.134 A 
ATOM     80  F   UNL A   1      45.605  32.775  27.015  1.00  0.00    -0.206 F 
ATOM     81  C   UNL A   1      46.400  34.286  28.627  1.00  0.00     0.040 A 
ATOM     82  C   UNL A   1      46.608  33.593  30.923  1.00  0.00     0.040 A 
ATOM     83  F   UNL A   1      46.046  31.401  31.542  1.00  0.00    -0.206 F 
ATOM     84  C   UNL A   1      46.740  34.578  29.945  1.00  0.00     0.006 A 
ENDBRANCH  56  77
BRANCH  68  85
ATOM     85  C   UNL A   1      48.880  26.194  26.981  1.00  0.00     0.057 A 
ATOM     86  C   UNL A   1      49.387  26.384  25.688  1.00  0.00     0.134 A 
ATOM     87  C   UNL A   1      49.760  25.709  27.956  1.00  0.00     0.134 A 
ATOM     88  F   UNL A   1      48.591  26.830  24.705  1.00  0.00    -0.206 F 
ATOM     89  C   UNL A   1      50.710  26.074  25.371  1.00  0.00     0.040 A 
ATOM     90  C   UNL A   1      51.093  25.422  27.658  1.00  0.00     0.040 A 
ATOM     91  F   UNL A   1      49.340  25.510  29.215  1.00  0.00    -0.206 F 
ATOM     92  C   UNL A   1      51.569  25.598  26.360  1.00  0.00     0.006 A 
ENDBRANCH  68  85
ENDBRANCH  42  43
ENDBRANCH  34  37
ENDBRANCH  32  33
ENDBRANCH  31  32
ENDBRANCH  30  31
ENDBRANCH   3  30
TORSDOF 16
ENDMDL
MODEL 3
REMARK VINA RESULT:     -12.0      4.693      9.360
REMARK SMILES CCOC(=O)c1c(NC(=O)/C=C(/C)C(=O)NCCCNC(=O)c2ccc(-c3c4nc(c(-c5c(F)cccc5F)c5ccc([nH]5)c(-c5c(F)cccc5F)c5nc(c(-c6c(F)cccc6F)c6ccc3[nH]6)C=C5)C=C4)cc2)sc2c1CC[C@H](C(C)(C)C)C2
REMARK SMILES IDX 14 1 15 2 16 3 12 5 11 6 13 7 9 8 8 9 10 11 7 12 6 13 79 14
REMARK SMILES IDX 77 15 78 16 80 17 87 18 81 19 82 20 4 21 5 22 3 23 2 24 1 25
REMARK SMILES IDX 83 26 84 27 85 28 86 29 17 30 18 31 19 32 20 33 21 34 22 36
REMARK SMILES IDX 23 37 24 38 76 39 25 40 75 41 26 42 27 43 28 44 69 45 29 46
REMARK SMILES IDX 74 47 68 48 70 49 30 50 73 51 67 52 66 53 31 55 57 56 40 57
REMARK SMILES IDX 56 58 41 59 44 60 55 61 71 62 42 63 43 64 54 66 72 67 45 68
REMARK SMILES IDX 32 69 33 70 38 71 34 72 35 73 37 74 39 75 36 76 58 77 59 78
REMARK SMILES IDX 64 79 60 80 61 81 63 82 65 83 62 84 46 85 47 86 52 87 48 88
REMARK SMILES IDX 49 89 51 90 53 91 50 92
REMARK H PARENT 16 4 8 10 20 35 70 54 44 65
REMARK Flexibility Score: inf
ROOT
ATOM      1  C   UNL A   1      34.127  21.826  24.590  1.00  0.00     0.247 C 
ATOM      2  O   UNL A   1      32.897  21.964  24.436  1.00  0.00    -0.270 OA
ATOM      3  N   UNL A   1      34.443  20.470  24.651  1.00  0.00    -0.352 N 
ATOM      4  H   UNL A   1      33.549  20.070  24.760  1.00  0.00     0.163 HD
ENDROOT
BRANCH   1   5
ATOM      5  C   UNL A   1      34.877  23.186  24.712  1.00  0.00     0.019 C 
ATOM      6  C   UNL A   1      34.780  24.063  23.692  1.00  0.00     0.080 C 
ATOM      7  C   UNL A   1      35.830  23.846  25.696  1.00  0.00     0.050 C 
BRANCH   6   8
ATOM      8  C   UNL A   1      33.910  24.171  22.533  1.00  0.00     0.249 C 
ATOM      9  N   UNL A   1      33.386  25.406  22.314  1.00  0.00    -0.313 N 
ATOM     10  H   UNL A   1      33.361  25.692  21.373  1.00  0.00     0.171 HD
ATOM     11  O   UNL A   1      33.995  23.340  21.633  1.00  0.00    -0.270 OA
BRANCH   9  12
ATOM     12  C   UNL A   1      32.886  26.313  23.220  1.00  0.00     0.110 A 
ATOM     13  C   UNL A   1      31.976  26.289  24.283  1.00  0.00     0.098 A 
ATOM     14  C   UNL A   1      30.901  27.190  23.729  1.00  0.00    -0.017 A 
ATOM     15  S   UNL A   1      33.076  27.895  22.592  1.00  0.00    -0.122 S 
ATOM     16  C   UNL A   1      31.449  28.202  22.940  1.00  0.00     0.011 A 
ATOM     17  C   UNL A   1      29.400  27.159  23.815  1.00  0.00     0.038 C 
ATOM     18  C   UNL A   1      30.714  29.394  22.359  1.00  0.00     0.051 C 
ATOM     19  C   UNL A   1      28.639  28.296  23.121  1.00  0.00     0.009 C 
ATOM     20  C   UNL A   1      29.412  29.627  23.168  1.00  0.00    -0.000 C 
BRANCH  13  21
ATOM     21  C   UNL A   1      32.433  25.825  25.706  1.00  0.00     0.341 C 
ATOM     22  O   UNL A   1      33.198  26.592  26.294  1.00  0.00    -0.246 OA
BRANCH  21  23
ATOM     23  O   UNL A   1      32.123  24.666  26.421  1.00  0.00    -0.462 OA
BRANCH  23  24
ATOM     24  C   UNL A   1      31.877  23.294  27.294  1.00  0.00     0.230 C 
ATOM     25  C   UNL A   1      32.979  22.413  27.976  1.00  0.00     0.049 C 
ENDBRANCH  23  24
ENDBRANCH  21  23
ENDBRANCH  13  21
BRANCH  20  26
ATOM     26  C   UNL A   1      28.528  30.866  22.769  1.00  0.00    -0.035 C 
ATOM     27  C   UNL A   1      28.031  30.670  21.317  1.00  0.00     0.011 C 
ATOM     28  C   UNL A   1      27.279  30.982  23.660  1.00  0.00     0.011 C 
ATOM     29  C   UNL A   1      29.291  32.202  22.816  1.00  0.00     0.011 C 
ENDBRANCH  20  26
ENDBRANCH   9  12
ENDBRANCH   6   8
ENDBRANCH   1   5
BRANCH   3  30
ATOM     30  C   UNL A   1      35.376  19.160  24.650  1.00  0.00     0.118 C 
BRANCH  30  31
ATOM     31  C   UNL A   1      36.985  18.924  24.796  1.00  0.00     0.042 C 
BRANCH  31  32
ATOM     32  C   UNL A   1      38.074  19.961  25.204  1.00  0.00     0.118 C 
BRANCH  32  33
ATOM     33  N   UNL A   1      39.276  19.349  25.740  1.00  0.00    -0.352 N 
ATOM     34  C   UNL A   1      40.413  19.859  26.314  1.00  0.00     0.251 C 
ATOM     35  H   UNL A   1      39.276  18.367  25.678  1.00  0.00     0.163 HD
ATOM     36  O   UNL A   1      41.313  19.053  26.559  1.00  0.00    -0.269 OA
BRANCH  34  37
ATOM     37  C   UNL A   1      40.643  21.294  26.632  1.00  0.00     0.039 A 
ATOM     38  C   UNL A   1      41.630  21.572  27.594  1.00  0.00     0.014 A 
ATOM     39  C   UNL A   1      39.888  22.356  26.125  1.00  0.00     0.014 A 
ATOM     40  C   UNL A   1      41.909  22.884  27.987  1.00  0.00     0.010 A 
ATOM     41  C   UNL A   1      40.183  23.682  26.502  1.00  0.00     0.010 A 
ATOM     42  C   UNL A   1      41.219  23.958  27.410  1.00  0.00    -0.014 A 
BRANCH  42  43
ATOM     43  C   UNL A   1      41.722  25.343  27.623  1.00  0.00     0.031 A 
ATOM     44  C   UNL A   1      40.924  26.392  28.342  1.00  0.00     0.074 A 
ATOM     45  C   UNL A   1      42.939  25.644  27.128  1.00  0.00     0.049 A 
ATOM     46  N   UNL A   1      41.263  27.622  28.643  1.00  0.00    -0.248 NA
ATOM     47  C   UNL A   1      39.569  26.021  28.770  1.00  0.00     0.031 C 
ATOM     48  C   UNL A   1      43.785  24.717  26.370  1.00  0.00     0.029 A 
ATOM     49  N   UNL A   1      43.680  26.798  27.179  1.00  0.00    -0.354 N 
ATOM     50  C   UNL A   1      40.165  28.177  29.289  1.00  0.00     0.074 A 
ATOM     51  C   UNL A   1      39.137  27.155  29.313  1.00  0.00     0.031 C 
ATOM     52  C   UNL A   1      44.930  25.330  26.042  1.00  0.00     0.029 A 
ATOM     53  C   UNL A   1      44.893  26.700  26.539  1.00  0.00     0.049 A 
ATOM     54  H   UNL A   1      43.373  27.617  27.630  1.00  0.00     0.167 HD
ATOM     55  C   UNL A   1      40.035  29.421  29.816  1.00  0.00     0.037 A 
ATOM     56  C   UNL A   1      45.869  27.610  26.367  1.00  0.00     0.037 A 
ATOM     57  C   UNL A   1      41.068  30.430  29.781  1.00  0.00     0.049 A 
ATOM     58  C   UNL A   1      45.703  28.973  26.977  1.00  0.00     0.074 A 
ATOM     59  C   UNL A   1      41.057  31.699  30.336  1.00  0.00     0.029 A 
ATOM     60  N   UNL A   1      42.292  30.288  29.142  1.00  0.00    -0.354 N 
ATOM     61  N   UNL A   1      44.696  29.449  27.668  1.00  0.00    -0.248 NA
ATOM     62  C   UNL A   1      46.814  29.917  26.799  1.00  0.00     0.031 C 
ATOM     63  C   UNL A   1      42.251  32.341  29.992  1.00  0.00     0.029 A 
ATOM     64  C   UNL A   1      43.031  31.455  29.267  1.00  0.00     0.049 A 
ATOM     65  H   UNL A   1      42.591  29.478  28.670  1.00  0.00     0.167 HD
ATOM     66  C   UNL A   1      45.058  30.740  28.026  1.00  0.00     0.074 A 
ATOM     67  C   UNL A   1      46.388  30.962  27.495  1.00  0.00     0.031 C 
ATOM     68  C   UNL A   1      44.353  31.659  28.730  1.00  0.00     0.037 A 
BRANCH  55  69
ATOM     69  C   UNL A   1      38.726  29.775  30.467  1.00  0.00     0.057 A 
ATOM     70  C   UNL A   1      38.501  29.577  31.836  1.00  0.00     0.134 A 
ATOM     71  C   UNL A   1      37.699  30.381  29.729  1.00  0.00     0.134 A 
ATOM     72  F   UNL A   1      39.440  29.003  32.602  1.00  0.00    -0.206 F 
ATOM     73  C   UNL A   1      37.296  29.945  32.441  1.00  0.00     0.040 A 
ATOM     74  C   UNL A   1      36.500  30.774  30.327  1.00  0.00     0.040 A 
ATOM     75  F   UNL A   1      37.850  30.615  28.417  1.00  0.00    -0.206 F 
ATOM     76  C   UNL A   1      36.294  30.551  31.686  1.00  0.00     0.006 A 
ENDBRANCH  55  69
BRANCH  56  77
ATOM     77  C   UNL A   1      47.092  27.254  25.603  1.00  0.00     0.057 A 
ATOM     78  C   UNL A   1      48.169  26.604  26.215  1.00  0.00     0.134 A 
ATOM     79  C   UNL A   1      47.208  27.549  24.238  1.00  0.00     0.134 A 
ATOM     80  F   UNL A   1      48.124  26.307  27.521  1.00  0.00    -0.206 F 
ATOM     81  C   UNL A   1      49.327  26.281  25.505  1.00  0.00     0.040 A 
ATOM     82  C   UNL A   1      48.348  27.206  23.510  1.00  0.00     0.040 A 
ATOM     83  F   UNL A   1      46.205  28.158  23.588  1.00  0.00    -0.206 F 
ATOM     84  C   UNL A   1      49.416  26.577  24.147  1.00  0.00     0.006 A 
ENDBRANCH  56  77
BRANCH  68  85
ATOM     85  C   UNL A   1      45.025  32.977  28.985  1.00  0.00     0.057 A 
ATOM     86  C   UNL A   1      44.868  34.067  28.118  1.00  0.00     0.134 A 
ATOM     87  C   UNL A   1      45.826  33.161  30.118  1.00  0.00     0.134 A 
ATOM     88  F   UNL A   1      44.127  33.950  27.006  1.00  0.00    -0.206 F 
ATOM     89  C   UNL A   1      45.509  35.284  28.355  1.00  0.00     0.040 A 
ATOM     90  C   UNL A   1      46.450  34.381  30.380  1.00  0.00     0.040 A 
ATOM     91  F   UNL A   1      46.013  32.158  30.991  1.00  0.00    -0.206 F 
ATOM     92  C   UNL A   1      46.297  35.444  29.493  1.00  0.00     0.006 A 
ENDBRANCH  68  85
ENDBRANCH  42  43
ENDBRANCH  34  37
ENDBRANCH  32  33
ENDBRANCH  31  32
ENDBRANCH  30  31
ENDBRANCH   3  30
TORSDOF 16
ENDMDL
