MODEL 1
REMARK VINA RESULT:     -12.0      0.000      0.000
REMARK SMILES O=C(NCCCNC(=O)[C@H]1CCCCN1C(=O)c1cn2ccccc2n1)c1ccc(-c2c3nc(c(-c4c(F)cccc4F)c4ccc([nH]4)c(-c4c(F)cccc4F)c4nc(c(-c5c(F)cccc5F)c5ccc2[nH]5)C=C4)C=C3)cc1
REMARK SMILES IDX 5 1 4 2 3 3 1 4 2 5 27 7 28 8 80 9 29 10 79 11 30 12 31 13
REMARK SMILES IDX 32 14 73 15 33 16 78 17 72 18 74 19 34 20 77 21 71 22 70 23
REMARK SMILES IDX 35 25 61 26 44 27 60 28 45 29 48 30 59 31 75 32 46 33 47 34
REMARK SMILES IDX 58 36 76 37 49 38 36 39 37 40 42 41 38 42 39 43 41 44 43 45
REMARK SMILES IDX 40 46 62 47 63 48 68 49 64 50 65 51 67 52 69 53 66 54 50 55
REMARK SMILES IDX 51 56 56 57 52 58 53 59 55 60 57 61 54 62 6 63 7 64 8 65
REMARK SMILES IDX 9 67 10 68 11 69 15 70 12 71 14 72 13 73 16 74 17 75 18 76
REMARK SMILES IDX 19 77 26 78 20 79 25 80 21 81 24 82 22 83 23 84
REMARK H PARENT 3 6 74 24 48 35 7 66
REMARK Flexibility Score: inf
ROOT
ATOM      1  C   UNL A   1      37.318  19.492  24.950  1.00  0.00     0.042 C 
ENDROOT
BRANCH   1   2
ATOM      2  C   UNL A   1      38.565  20.217  25.448  1.00  0.00     0.118 C 
BRANCH   2   3
ATOM      3  N   UNL A   1      39.712  19.340  25.593  1.00  0.00    -0.352 N 
ATOM      4  O   UNL A   1      41.841  18.716  25.932  1.00  0.00    -0.269 OA
ATOM      5  C   UNL A   1      40.985  19.593  26.042  1.00  0.00     0.251 C 
ATOM      6  H   UNL A   1      39.550  18.406  25.325  1.00  0.00     0.163 HD
BRANCH   5   7
ATOM      7  C   UNL A   1      41.362  20.900  26.634  1.00  0.00     0.039 A 
ATOM      8  C   UNL A   1      41.393  21.112  28.014  1.00  0.00     0.014 A 
ATOM      9  C   UNL A   1      41.773  21.927  25.774  1.00  0.00     0.014 A 
ATOM     10  C   UNL A   1      41.702  22.374  28.522  1.00  0.00     0.010 A 
ATOM     11  C   UNL A   1      42.155  23.172  26.288  1.00  0.00     0.010 A 
ATOM     12  C   UNL A   1      42.089  23.418  27.667  1.00  0.00    -0.014 A 
BRANCH  12  13
ATOM     13  C   UNL A   1      42.461  24.739  28.240  1.00  0.00     0.031 A 
ATOM     14  C   UNL A   1      43.896  25.092  28.516  1.00  0.00     0.074 A 
ATOM     15  C   UNL A   1      41.493  25.644  28.486  1.00  0.00     0.049 A 
ATOM     16  N   UNL A   1      44.400  26.229  28.930  1.00  0.00    -0.248 NA
ATOM     17  C   UNL A   1      44.898  24.035  28.309  1.00  0.00     0.031 C 
ATOM     18  C   UNL A   1      40.059  25.418  28.299  1.00  0.00     0.029 A 
ATOM     19  N   UNL A   1      41.571  26.942  28.922  1.00  0.00    -0.354 N 
ATOM     20  C   UNL A   1      45.766  26.017  29.059  1.00  0.00     0.074 A 
ATOM     21  C   UNL A   1      46.015  24.639  28.691  1.00  0.00     0.031 C 
ATOM     22  C   UNL A   1      39.398  26.556  28.560  1.00  0.00     0.029 A 
ATOM     23  C   UNL A   1      40.356  27.580  28.965  1.00  0.00     0.049 A 
ATOM     24  H   UNL A   1      42.417  27.376  29.180  1.00  0.00     0.167 HD
ATOM     25  C   UNL A   1      46.726  26.892  29.444  1.00  0.00     0.037 A 
ATOM     26  C   UNL A   1      40.044  28.851  29.279  1.00  0.00     0.037 A 
ATOM     27  C   UNL A   1      46.494  28.271  29.785  1.00  0.00     0.049 A 
ATOM     28  C   UNL A   1      41.132  29.808  29.665  1.00  0.00     0.074 A 
ATOM     29  C   UNL A   1      47.417  29.244  30.129  1.00  0.00     0.029 A 
ATOM     30  N   UNL A   1      45.246  28.874  29.828  1.00  0.00    -0.354 N 
ATOM     31  N   UNL A   1      42.424  29.607  29.727  1.00  0.00    -0.248 NA
ATOM     32  C   UNL A   1      40.715  31.171  30.027  1.00  0.00     0.031 C 
ATOM     33  C   UNL A   1      46.726  30.430  30.401  1.00  0.00     0.029 A 
ATOM     34  C   UNL A   1      45.375  30.200  30.205  1.00  0.00     0.049 A 
ATOM     35  H   UNL A   1      44.395  28.424  29.621  1.00  0.00     0.167 HD
ATOM     36  C   UNL A   1      42.976  30.815  30.126  1.00  0.00     0.074 A 
ATOM     37  C   UNL A   1      41.881  31.750  30.277  1.00  0.00     0.031 C 
ATOM     38  C   UNL A   1      44.277  31.119  30.352  1.00  0.00     0.037 A 
BRANCH  25  39
ATOM     39  C   UNL A   1      48.132  26.377  29.525  1.00  0.00     0.057 A 
ATOM     40  C   UNL A   1      48.638  25.792  30.692  1.00  0.00     0.134 A 
ATOM     41  C   UNL A   1      48.974  26.430  28.407  1.00  0.00     0.134 A 
ATOM     42  F   UNL A   1      47.889  25.733  31.804  1.00  0.00    -0.206 F 
ATOM     43  C   UNL A   1      49.937  25.284  30.747  1.00  0.00     0.040 A 
ATOM     44  C   UNL A   1      50.270  25.914  28.447  1.00  0.00     0.040 A 
ATOM     45  F   UNL A   1      48.547  26.979  27.260  1.00  0.00    -0.206 F 
ATOM     46  C   UNL A   1      50.755  25.340  29.620  1.00  0.00     0.006 A 
ENDBRANCH  25  39
BRANCH  26  47
ATOM     47  C   UNL A   1      38.636  29.301  29.201  1.00  0.00     0.057 A 
ATOM     48  C   UNL A   1      38.092  29.741  27.990  1.00  0.00     0.134 A 
ATOM     49  C   UNL A   1      37.801  29.287  30.323  1.00  0.00     0.134 A 
ATOM     50  F   UNL A   1      38.852  29.791  26.887  1.00  0.00    -0.206 F 
ATOM     51  C   UNL A   1      36.764  30.159  27.897  1.00  0.00     0.040 A 
ATOM     52  C   UNL A   1      36.467  29.687  30.242  1.00  0.00     0.040 A 
ATOM     53  F   UNL A   1      38.269  28.872  31.509  1.00  0.00    -0.206 F 
ATOM     54  C   UNL A   1      35.946  30.127  29.026  1.00  0.00     0.006 A 
ENDBRANCH  26  47
BRANCH  38  55
ATOM     55  C   UNL A   1      44.580  32.522  30.775  1.00  0.00     0.057 A 
ATOM     56  C   UNL A   1      44.817  33.533  29.835  1.00  0.00     0.134 A 
ATOM     57  C   UNL A   1      44.621  32.870  32.130  1.00  0.00     0.134 A 
ATOM     58  F   UNL A   1      44.806  33.255  28.522  1.00  0.00    -0.206 F 
ATOM     59  C   UNL A   1      45.101  34.841  30.230  1.00  0.00     0.040 A 
ATOM     60  C   UNL A   1      44.889  34.177  32.537  1.00  0.00     0.040 A 
ATOM     61  F   UNL A   1      44.401  31.945  33.077  1.00  0.00    -0.206 F 
ATOM     62  C   UNL A   1      45.133  35.166  31.586  1.00  0.00     0.006 A 
ENDBRANCH  38  55
ENDBRANCH  12  13
ENDBRANCH   5   7
ENDBRANCH   2   3
ENDBRANCH   1   2
BRANCH   1  63
ATOM     63  C   UNL A   1      36.036  20.315  25.002  1.00  0.00     0.117 C 
BRANCH  63  64
ATOM     64  N   UNL A   1      36.201  21.610  24.370  1.00  0.00    -0.354 N 
ATOM     65  C   UNL A   1      35.441  22.739  24.470  1.00  0.00     0.242 C 
ATOM     66  H   UNL A   1      36.982  21.687  23.777  1.00  0.00     0.163 HD
ATOM     67  O   UNL A   1      35.818  23.714  23.815  1.00  0.00    -0.273 OA
BRANCH  65  68
ATOM     68  C   UNL A   1      34.213  22.794  25.418  1.00  0.00     0.174 C 
ATOM     69  C   UNL A   1      34.270  24.023  26.347  1.00  0.00     0.035 C 
ATOM     70  N   UNL A   1      32.910  22.775  24.719  1.00  0.00    -0.325 N 
ATOM     71  C   UNL A   1      33.923  25.328  25.623  1.00  0.00     0.004 C 
ATOM     72  C   UNL A   1      32.605  23.982  23.947  1.00  0.00     0.121 C 
ATOM     73  C   UNL A   1      32.610  25.208  24.855  1.00  0.00     0.022 C 
BRANCH  70  74
ATOM     74  C   UNL A   1      31.978  21.792  25.079  1.00  0.00     0.274 C 
ATOM     75  O   UNL A   1      30.928  22.098  25.650  1.00  0.00    -0.267 OA
BRANCH  74  76
ATOM     76  C   UNL A   1      32.274  20.377  24.809  1.00  0.00     0.147 A 
ATOM     77  C   UNL A   1      32.599  19.788  23.597  1.00  0.00     0.127 A 
ATOM     78  N   UNL A   1      32.388  19.439  25.824  1.00  0.00    -0.223 NA
ATOM     79  N   UNL A   1      32.919  18.484  23.877  1.00  0.00    -0.306 N 
ATOM     80  C   UNL A   1      32.769  18.320  25.247  1.00  0.00     0.137 A 
ATOM     81  C   UNL A   1      33.335  17.471  23.017  1.00  0.00     0.093 A 
ATOM     82  C   UNL A   1      33.059  17.031  25.779  1.00  0.00     0.048 A 
ATOM     83  C   UNL A   1      33.612  16.257  23.523  1.00  0.00     0.018 A 
ATOM     84  C   UNL A   1      33.464  16.043  24.956  1.00  0.00     0.005 A 
ENDBRANCH  74  76
ENDBRANCH  70  74
ENDBRANCH  65  68
ENDBRANCH  63  64
ENDBRANCH   1  63
TORSDOF 12
ENDMDL
MODEL 2
REMARK VINA RESULT:     -11.9      3.079      7.692
REMARK SMILES O=C(NCCCNC(=O)[C@H]1CCCCN1C(=O)c1cn2ccccc2n1)c1ccc(-c2c3nc(c(-c4c(F)cccc4F)c4ccc([nH]4)c(-c4c(F)cccc4F)c4nc(c(-c5c(F)cccc5F)c5ccc2[nH]5)C=C4)C=C3)cc1
REMARK SMILES IDX 5 1 4 2 3 3 1 4 2 5 27 7 28 8 80 9 29 10 79 11 30 12 31 13
REMARK SMILES IDX 32 14 73 15 33 16 78 17 72 18 74 19 34 20 77 21 71 22 70 23
REMARK SMILES IDX 35 25 61 26 44 27 60 28 45 29 48 30 59 31 75 32 46 33 47 34
REMARK SMILES IDX 58 36 76 37 49 38 36 39 37 40 42 41 38 42 39 43 41 44 43 45
REMARK SMILES IDX 40 46 62 47 63 48 68 49 64 50 65 51 67 52 69 53 66 54 50 55
REMARK SMILES IDX 51 56 56 57 52 58 53 59 55 60 57 61 54 62 6 63 7 64 8 65
REMARK SMILES IDX 9 67 10 68 11 69 15 70 12 71 14 72 13 73 16 74 17 75 18 76
REMARK SMILES IDX 19 77 26 78 20 79 25 80 21 81 24 82 22 83 23 84
REMARK H PARENT 3 6 74 24 48 35 7 66
REMARK Flexibility Score: inf
ROOT
ATOM      1  C   UNL A   1      33.364  28.314  27.103  1.00  0.00     0.042 C 
ENDROOT
BRANCH   1   2
ATOM      2  C   UNL A   1      34.729  28.980  27.241  1.00  0.00     0.118 C 
BRANCH   2   3
ATOM      3  N   UNL A   1      34.759  30.007  28.267  1.00  0.00    -0.352 N 
ATOM      4  O   UNL A   1      35.523  31.220  29.993  1.00  0.00    -0.269 OA
ATOM      5  C   UNL A   1      35.777  30.429  29.086  1.00  0.00     0.251 C 
ATOM      6  H   UNL A   1      33.906  30.482  28.396  1.00  0.00     0.163 HD
BRANCH   5   7
ATOM      7  C   UNL A   1      37.168  29.938  28.925  1.00  0.00     0.039 A 
ATOM      8  C   UNL A   1      37.899  29.408  29.990  1.00  0.00     0.014 A 
ATOM      9  C   UNL A   1      37.731  29.942  27.642  1.00  0.00     0.014 A 
ATOM     10  C   UNL A   1      39.223  29.010  29.802  1.00  0.00     0.010 A 
ATOM     11  C   UNL A   1      39.035  29.473  27.439  1.00  0.00     0.010 A 
ATOM     12  C   UNL A   1      39.806  29.034  28.525  1.00  0.00    -0.014 A 
BRANCH  12  13
ATOM     13  C   UNL A   1      41.203  28.558  28.344  1.00  0.00     0.031 A 
ATOM     14  C   UNL A   1      41.498  27.125  27.995  1.00  0.00     0.074 A 
ATOM     15  C   UNL A   1      42.218  29.435  28.467  1.00  0.00     0.049 A 
ATOM     16  N   UNL A   1      42.650  26.565  27.717  1.00  0.00    -0.248 NA
ATOM     17  C   UNL A   1      40.358  26.196  27.959  1.00  0.00     0.031 C 
ATOM     18  C   UNL A   1      42.075  30.844  28.839  1.00  0.00     0.029 A 
ATOM     19  N   UNL A   1      43.566  29.279  28.269  1.00  0.00    -0.354 N 
ATOM     20  C   UNL A   1      42.379  25.221  27.501  1.00  0.00     0.074 A 
ATOM     21  C   UNL A   1      40.955  25.042  27.692  1.00  0.00     0.031 C 
ATOM     22  C   UNL A   1      43.277  31.437  28.784  1.00  0.00     0.029 A 
ATOM     23  C   UNL A   1      44.279  30.444  28.407  1.00  0.00     0.049 A 
ATOM     24  H   UNL A   1      43.983  28.414  28.050  1.00  0.00     0.167 HD
ATOM     25  C   UNL A   1      43.237  24.226  27.170  1.00  0.00     0.037 A 
ATOM     26  C   UNL A   1      45.590  30.695  28.235  1.00  0.00     0.037 A 
ATOM     27  C   UNL A   1      44.650  24.398  26.949  1.00  0.00     0.049 A 
ATOM     28  C   UNL A   1      46.511  29.583  27.829  1.00  0.00     0.074 A 
ATOM     29  C   UNL A   1      45.583  23.455  26.553  1.00  0.00     0.029 A 
ATOM     30  N   UNL A   1      45.334  25.592  27.112  1.00  0.00    -0.354 N 
ATOM     31  N   UNL A   1      46.229  28.330  27.575  1.00  0.00    -0.248 NA
ATOM     32  C   UNL A   1      47.935  29.922  27.691  1.00  0.00     0.031 C 
ATOM     33  C   UNL A   1      46.837  24.075  26.496  1.00  0.00     0.029 A 
ATOM     34  C   UNL A   1      46.679  25.407  26.836  1.00  0.00     0.049 A 
ATOM     35  H   UNL A   1      44.923  26.445  27.383  1.00  0.00     0.167 HD
ATOM     36  C   UNL A   1      47.434  27.732  27.238  1.00  0.00     0.074 A 
ATOM     37  C   UNL A   1      48.450  28.762  27.306  1.00  0.00     0.031 C 
ATOM     38  C   UNL A   1      47.678  26.441  26.908  1.00  0.00     0.037 A 
BRANCH  25  39
ATOM     39  C   UNL A   1      42.668  22.846  27.028  1.00  0.00     0.057 A 
ATOM     40  C   UNL A   1      42.274  22.093  28.140  1.00  0.00     0.134 A 
ATOM     41  C   UNL A   1      42.474  22.284  25.760  1.00  0.00     0.134 A 
ATOM     42  F   UNL A   1      42.456  22.566  29.382  1.00  0.00    -0.206 F 
ATOM     43  C   UNL A   1      41.713  20.823  27.997  1.00  0.00     0.040 A 
ATOM     44  C   UNL A   1      41.902  21.020  25.604  1.00  0.00     0.040 A 
ATOM     45  F   UNL A   1      42.831  22.957  24.656  1.00  0.00    -0.206 F 
ATOM     46  C   UNL A   1      41.521  20.285  26.724  1.00  0.00     0.006 A 
ENDBRANCH  25  39
BRANCH  26  47
ATOM     47  C   UNL A   1      46.102  32.073  28.406  1.00  0.00     0.057 A 
ATOM     48  C   UNL A   1      46.107  32.973  27.335  1.00  0.00     0.134 A 
ATOM     49  C   UNL A   1      46.580  32.527  29.640  1.00  0.00     0.134 A 
ATOM     50  F   UNL A   1      45.676  32.585  26.126  1.00  0.00    -0.206 F 
ATOM     51  C   UNL A   1      46.576  34.278  27.482  1.00  0.00     0.040 A 
ATOM     52  C   UNL A   1      47.037  33.834  29.806  1.00  0.00     0.040 A 
ATOM     53  F   UNL A   1      46.594  31.708  30.701  1.00  0.00    -0.206 F 
ATOM     54  C   UNL A   1      47.039  34.714  28.724  1.00  0.00     0.006 A 
ENDBRANCH  26  47
BRANCH  38  55
ATOM     55  C   UNL A   1      49.093  26.080  26.586  1.00  0.00     0.057 A 
ATOM     56  C   UNL A   1      49.629  26.291  25.309  1.00  0.00     0.134 A 
ATOM     57  C   UNL A   1      49.933  25.531  27.561  1.00  0.00     0.134 A 
ATOM     58  F   UNL A   1      48.866  26.800  24.328  1.00  0.00    -0.206 F 
ATOM     59  C   UNL A   1      50.948  25.954  25.008  1.00  0.00     0.040 A 
ATOM     60  C   UNL A   1      51.259  25.203  27.277  1.00  0.00     0.040 A 
ATOM     61  F   UNL A   1      49.479  25.307  28.803  1.00  0.00    -0.206 F 
ATOM     62  C   UNL A   1      51.769  25.411  25.997  1.00  0.00     0.006 A 
ENDBRANCH  38  55
ENDBRANCH  12  13
ENDBRANCH   5   7
ENDBRANCH   2   3
ENDBRANCH   1   2
BRANCH   1  63
ATOM     63  C   UNL A   1      32.769  28.360  25.701  1.00  0.00     0.117 C 
BRANCH  63  64
ATOM     64  N   UNL A   1      31.470  27.716  25.645  1.00  0.00    -0.354 N 
ATOM     65  C   UNL A   1      31.148  26.396  25.520  1.00  0.00     0.242 C 
ATOM     66  H   UNL A   1      30.701  28.327  25.706  1.00  0.00     0.163 HD
ATOM     67  O   UNL A   1      29.944  26.124  25.501  1.00  0.00    -0.273 OA
BRANCH  65  68
ATOM     68  C   UNL A   1      32.251  25.305  25.477  1.00  0.00     0.174 C 
ATOM     69  C   UNL A   1      32.107  24.308  26.644  1.00  0.00     0.035 C 
ATOM     70  N   UNL A   1      32.309  24.556  24.204  1.00  0.00    -0.325 N 
ATOM     71  C   UNL A   1      30.952  23.322  26.439  1.00  0.00     0.004 C 
ATOM     72  C   UNL A   1      31.167  23.676  23.951  1.00  0.00     0.121 C 
ATOM     73  C   UNL A   1      31.031  22.649  25.071  1.00  0.00     0.022 C 
BRANCH  70  74
ATOM     74  C   UNL A   1      33.531  24.507  23.518  1.00  0.00     0.274 C 
ATOM     75  O   UNL A   1      33.645  25.007  22.397  1.00  0.00    -0.267 OA
BRANCH  74  76
ATOM     76  C   UNL A   1      34.677  23.814  24.126  1.00  0.00     0.147 A 
ATOM     77  C   UNL A   1      35.132  22.529  23.873  1.00  0.00     0.127 A 
ATOM     78  N   UNL A   1      35.559  24.454  24.985  1.00  0.00    -0.223 NA
ATOM     79  N   UNL A   1      36.300  22.389  24.577  1.00  0.00    -0.306 N 
ATOM     80  C   UNL A   1      36.514  23.588  25.243  1.00  0.00     0.137 A 
ATOM     81  C   UNL A   1      37.165  21.299  24.648  1.00  0.00     0.093 A 
ATOM     82  C   UNL A   1      37.688  23.683  26.042  1.00  0.00     0.048 A 
ATOM     83  C   UNL A   1      38.275  21.395  25.400  1.00  0.00     0.018 A 
ATOM     84  C   UNL A   1      38.534  22.636  26.117  1.00  0.00     0.005 A 
ENDBRANCH  74  76
ENDBRANCH  70  74
ENDBRANCH  65  68
ENDBRANCH  63  64
ENDBRANCH   1  63
TORSDOF 12
ENDMDL
MODEL 3
REMARK VINA RESULT:     -11.9      0.484      6.134
REMARK SMILES O=C(NCCCNC(=O)[C@H]1CCCCN1C(=O)c1cn2ccccc2n1)c1ccc(-c2c3nc(c(-c4c(F)cccc4F)c4ccc([nH]4)c(-c4c(F)cccc4F)c4nc(c(-c5c(F)cccc5F)c5ccc2[nH]5)C=C4)C=C3)cc1
REMARK SMILES IDX 5 1 4 2 3 3 1 4 2 5 27 7 28 8 80 9 29 10 79 11 30 12 31 13
REMARK SMILES IDX 32 14 73 15 33 16 78 17 72 18 74 19 34 20 77 21 71 22 70 23
REMARK SMILES IDX 35 25 61 26 44 27 60 28 45 29 48 30 59 31 75 32 46 33 47 34
REMARK SMILES IDX 58 36 76 37 49 38 36 39 37 40 42 41 38 42 39 43 41 44 43 45
REMARK SMILES IDX 40 46 62 47 63 48 68 49 64 50 65 51 67 52 69 53 66 54 50 55
REMARK SMILES IDX 51 56 56 57 52 58 53 59 55 60 57 61 54 62 6 63 7 64 8 65
REMARK SMILES IDX 9 67 10 68 11 69 15 70 12 71 14 72 13 73 16 74 17 75 18 76
REMARK SMILES IDX 19 77 26 78 20 79 25 80 21 81 24 82 22 83 23 84
REMARK H PARENT 3 6 74 24 48 35 7 66
REMARK Flexibility Score: inf
ROOT
ATOM      1  C   UNL A   1      37.355  19.458  24.968  1.00  0.00     0.042 C 
ENDROOT
BRANCH   1   2
ATOM      2  C   UNL A   1      38.607  20.189  25.442  1.00  0.00     0.118 C 
BRANCH   2   3
ATOM      3  N   UNL A   1      39.746  19.307  25.623  1.00  0.00    -0.352 N 
ATOM      4  O   UNL A   1      41.867  18.675  25.994  1.00  0.00    -0.269 OA
ATOM      5  C   UNL A   1      41.018  19.563  26.070  1.00  0.00     0.251 C 
ATOM      6  H   UNL A   1      39.576  18.366  25.385  1.00  0.00     0.163 HD
BRANCH   5   7
ATOM      7  C   UNL A   1      41.405  20.886  26.619  1.00  0.00     0.039 A 
ATOM      8  C   UNL A   1      41.351  21.170  27.986  1.00  0.00     0.014 A 
ATOM      9  C   UNL A   1      41.912  21.851  25.739  1.00  0.00     0.014 A 
ATOM     10  C   UNL A   1      41.673  22.446  28.449  1.00  0.00     0.010 A 
ATOM     11  C   UNL A   1      42.306  23.107  26.214  1.00  0.00     0.010 A 
ATOM     12  C   UNL A   1      42.157  23.428  27.571  1.00  0.00    -0.014 A 
BRANCH  12  13
ATOM     13  C   UNL A   1      42.540  24.765  28.100  1.00  0.00     0.031 A 
ATOM     14  C   UNL A   1      41.505  25.825  28.357  1.00  0.00     0.074 A 
ATOM     15  C   UNL A   1      43.833  25.014  28.381  1.00  0.00     0.049 A 
ATOM     16  N   UNL A   1      41.656  27.010  28.897  1.00  0.00    -0.248 NA
ATOM     17  C   UNL A   1      40.123  25.526  27.950  1.00  0.00     0.031 C 
ATOM     18  C   UNL A   1      44.942  24.089  28.145  1.00  0.00     0.029 A 
ATOM     19  N   UNL A   1      44.431  26.111  28.949  1.00  0.00    -0.354 N 
ATOM     20  C   UNL A   1      40.402  27.604  28.871  1.00  0.00     0.074 A 
ATOM     21  C   UNL A   1      39.500  26.657  28.250  1.00  0.00     0.031 C 
ATOM     22  C   UNL A   1      46.075  24.630  28.619  1.00  0.00     0.029 A 
ATOM     23  C   UNL A   1      45.778  25.953  29.160  1.00  0.00     0.049 A 
ATOM     24  H   UNL A   1      43.941  26.933  29.183  1.00  0.00     0.167 HD
ATOM     25  C   UNL A   1      40.033  28.826  29.326  1.00  0.00     0.037 A 
ATOM     26  C   UNL A   1      46.676  26.772  29.739  1.00  0.00     0.037 A 
ATOM     27  C   UNL A   1      40.916  29.764  29.971  1.00  0.00     0.049 A 
ATOM     28  C   UNL A   1      46.234  28.103  30.270  1.00  0.00     0.074 A 
ATOM     29  C   UNL A   1      40.613  30.999  30.516  1.00  0.00     0.029 A 
ATOM     30  N   UNL A   1      42.276  29.570  30.153  1.00  0.00    -0.354 N 
ATOM     31  N   UNL A   1      45.033  28.626  30.287  1.00  0.00    -0.248 NA
ATOM     32  C   UNL A   1      47.274  28.959  30.858  1.00  0.00     0.031 C 
ATOM     33  C   UNL A   1      41.796  31.564  31.010  1.00  0.00     0.029 A 
ATOM     34  C   UNL A   1      42.828  30.669  30.791  1.00  0.00     0.049 A 
ATOM     35  H   UNL A   1      42.775  28.769  29.871  1.00  0.00     0.167 HD
ATOM     36  C   UNL A   1      45.170  29.865  30.894  1.00  0.00     0.074 A 
ATOM     37  C   UNL A   1      46.567  30.011  31.245  1.00  0.00     0.031 C 
ATOM     38  C   UNL A   1      44.220  30.801  31.133  1.00  0.00     0.037 A 
BRANCH  25  39
ATOM     39  C   UNL A   1      38.601  29.227  29.137  1.00  0.00     0.057 A 
ATOM     40  C   UNL A   1      37.684  29.204  30.195  1.00  0.00     0.134 A 
ATOM     41  C   UNL A   1      38.148  29.681  27.893  1.00  0.00     0.134 A 
ATOM     42  F   UNL A   1      38.051  28.757  31.406  1.00  0.00    -0.206 F 
ATOM     43  C   UNL A   1      36.360  29.613  30.019  1.00  0.00     0.040 A 
ATOM     44  C   UNL A   1      36.831  30.103  27.707  1.00  0.00     0.040 A 
ATOM     45  F   UNL A   1      38.979  29.725  26.841  1.00  0.00    -0.206 F 
ATOM     46  C   UNL A   1      35.932  30.068  28.772  1.00  0.00     0.006 A 
ENDBRANCH  25  39
BRANCH  26  47
ATOM     47  C   UNL A   1      48.083  26.333  29.882  1.00  0.00     0.057 A 
ATOM     48  C   UNL A   1      49.005  26.535  28.850  1.00  0.00     0.134 A 
ATOM     49  C   UNL A   1      48.542  25.721  31.053  1.00  0.00     0.134 A 
ATOM     50  F   UNL A   1      48.615  27.103  27.699  1.00  0.00    -0.206 F 
ATOM     51  C   UNL A   1      50.336  26.138  28.973  1.00  0.00     0.040 A 
ATOM     52  C   UNL A   1      49.873  25.332  31.197  1.00  0.00     0.040 A 
ATOM     53  F   UNL A   1      47.702  25.506  32.076  1.00  0.00    -0.206 F 
ATOM     54  C   UNL A   1      50.775  25.538  30.154  1.00  0.00     0.006 A 
ENDBRANCH  26  47
BRANCH  38  55
ATOM     55  C   UNL A   1      44.664  32.056  31.816  1.00  0.00     0.057 A 
ATOM     56  C   UNL A   1      45.089  33.174  31.086  1.00  0.00     0.134 A 
ATOM     57  C   UNL A   1      44.652  32.156  33.212  1.00  0.00     0.134 A 
ATOM     58  F   UNL A   1      45.136  33.131  29.745  1.00  0.00    -0.206 F 
ATOM     59  C   UNL A   1      45.503  34.344  31.723  1.00  0.00     0.040 A 
ATOM     60  C   UNL A   1      45.050  33.325  33.860  1.00  0.00     0.040 A 
ATOM     61  F   UNL A   1      44.254  31.120  33.965  1.00  0.00    -0.206 F 
ATOM     62  C   UNL A   1      45.481  34.423  33.116  1.00  0.00     0.006 A 
ENDBRANCH  38  55
ENDBRANCH  12  13
ENDBRANCH   5   7
ENDBRANCH   2   3
ENDBRANCH   1   2
BRANCH   1  63
ATOM     63  C   UNL A   1      36.078  20.291  24.998  1.00  0.00     0.117 C 
BRANCH  63  64
ATOM     64  N   UNL A   1      36.258  21.577  24.353  1.00  0.00    -0.354 N 
ATOM     65  C   UNL A   1      35.511  22.716  24.440  1.00  0.00     0.242 C 
ATOM     66  H   UNL A   1      37.040  21.639  23.759  1.00  0.00     0.163 HD
ATOM     67  O   UNL A   1      35.899  23.679  23.774  1.00  0.00    -0.273 OA
BRANCH  65  68
ATOM     68  C   UNL A   1      34.282  22.795  25.385  1.00  0.00     0.174 C 
ATOM     69  C   UNL A   1      34.349  24.036  26.297  1.00  0.00     0.035 C 
ATOM     70  N   UNL A   1      32.980  22.777  24.686  1.00  0.00    -0.325 N 
ATOM     71  C   UNL A   1      34.014  25.334  25.554  1.00  0.00     0.004 C 
ATOM     72  C   UNL A   1      32.686  23.975  23.896  1.00  0.00     0.121 C 
ATOM     73  C   UNL A   1      32.700  25.214  24.787  1.00  0.00     0.022 C 
BRANCH  70  74
ATOM     74  C   UNL A   1      32.039  21.807  25.059  1.00  0.00     0.274 C 
ATOM     75  O   UNL A   1      30.999  22.128  25.637  1.00  0.00    -0.267 OA
BRANCH  74  76
ATOM     76  C   UNL A   1      32.316  20.387  24.793  1.00  0.00     0.147 A 
ATOM     77  C   UNL A   1      32.694  19.799  23.596  1.00  0.00     0.127 A 
ATOM     78  N   UNL A   1      32.350  19.438  25.805  1.00  0.00    -0.223 NA
ATOM     79  N   UNL A   1      32.966  18.486  23.883  1.00  0.00    -0.306 N 
ATOM     80  C   UNL A   1      32.735  18.315  25.240  1.00  0.00     0.137 A 
ATOM     81  C   UNL A   1      33.406  17.469  23.038  1.00  0.00     0.093 A 
ATOM     82  C   UNL A   1      32.963  17.015  25.776  1.00  0.00     0.048 A 
ATOM     83  C   UNL A   1      33.624  16.245  23.548  1.00  0.00     0.018 A 
ATOM     84  C   UNL A   1      33.391  16.024  24.969  1.00  0.00     0.005 A 
ENDBRANCH  74  76
ENDBRANCH  70  74
ENDBRANCH  65  68
ENDBRANCH  63  64
ENDBRANCH   1  63
TORSDOF 12
ENDMDL
