MODEL 1
REMARK VINA RESULT:     -11.3      0.000      0.000
REMARK SMILES O=C(NCCCNC(=O)[C@]1(CCc2cccnc2)CCC[NH2+]C1)c1ccc(-c2c3nc(c(-c4c(F)cccc4F)c4ccc([nH]4)c(-c4c(F)cccc4F)c4nc(c(-c5c(F)cccc5F)c5ccc2[nH]5)C=C4)C=C3)cc1
REMARK SMILES IDX 5 1 4 2 3 3 1 4 2 5 24 7 25 8 77 9 26 10 76 11 27 12 28 13
REMARK SMILES IDX 29 14 70 15 30 16 75 17 69 18 71 19 31 20 74 21 68 22 67 23
REMARK SMILES IDX 32 25 58 26 41 27 57 28 42 29 45 30 56 31 72 32 43 33 44 34
REMARK SMILES IDX 55 36 73 37 46 38 33 39 34 40 39 41 35 42 36 43 38 44 40 45
REMARK SMILES IDX 37 46 59 47 60 48 65 49 61 50 62 51 64 52 66 53 63 54 47 55
REMARK SMILES IDX 48 56 53 57 49 58 50 59 52 60 54 61 51 62 6 63 7 64 8 65
REMARK SMILES IDX 9 67 10 68 19 69 23 70 20 71 22 72 21 73 11 76 12 77 13 78
REMARK SMILES IDX 14 79 18 80 15 81 17 82 16 83
REMARK H PARENT 3 6 71 24 45 35 7 66 22 74 22 75
REMARK Flexibility Score: inf
ROOT
ATOM      1  C   UNL A   1      31.840  28.097  27.102  1.00  0.00     0.042 C 
ENDROOT
BRANCH   1   2
ATOM      2  C   UNL A   1      33.269  28.634  27.291  1.00  0.00     0.118 C 
BRANCH   2   3
ATOM      3  N   UNL A   1      33.358  29.991  27.798  1.00  0.00    -0.352 N 
ATOM      4  O   UNL A   1      34.282  31.858  28.635  1.00  0.00    -0.269 OA
ATOM      5  C   UNL A   1      34.447  30.697  28.270  1.00  0.00     0.251 C 
ATOM      6  H   UNL A   1      32.508  30.486  27.808  1.00  0.00     0.163 HD
BRANCH   5   7
ATOM      7  C   UNL A   1      35.817  30.112  28.388  1.00  0.00     0.039 A 
ATOM      8  C   UNL A   1      36.762  30.182  27.364  1.00  0.00     0.014 A 
ATOM      9  C   UNL A   1      36.227  29.632  29.641  1.00  0.00     0.014 A 
ATOM     10  C   UNL A   1      38.085  29.735  27.578  1.00  0.00     0.010 A 
ATOM     11  C   UNL A   1      37.551  29.207  29.860  1.00  0.00     0.010 A 
ATOM     12  C   UNL A   1      38.504  29.245  28.831  1.00  0.00    -0.014 A 
BRANCH  12  13
ATOM     13  C   UNL A   1      39.926  28.827  29.086  1.00  0.00     0.031 A 
ATOM     14  C   UNL A   1      40.920  29.768  29.731  1.00  0.00     0.074 A 
ATOM     15  C   UNL A   1      40.368  27.610  28.703  1.00  0.00     0.049 A 
ATOM     16  N   UNL A   1      42.201  29.593  29.972  1.00  0.00    -0.248 NA
ATOM     17  C   UNL A   1      40.412  31.079  30.159  1.00  0.00     0.031 C 
ATOM     18  C   UNL A   1      39.560  26.587  28.042  1.00  0.00     0.029 A 
ATOM     19  N   UNL A   1      41.616  27.030  28.802  1.00  0.00    -0.354 N 
ATOM     20  C   UNL A   1      42.650  30.766  30.567  1.00  0.00     0.074 A 
ATOM     21  C   UNL A   1      41.511  31.660  30.626  1.00  0.00     0.031 C 
ATOM     22  C   UNL A   1      40.322  25.506  27.807  1.00  0.00     0.029 A 
ATOM     23  C   UNL A   1      41.688  25.768  28.258  1.00  0.00     0.049 A 
ATOM     24  H   UNL A   1      42.385  27.478  29.223  1.00  0.00     0.167 HD
ATOM     25  C   UNL A   1      43.888  31.077  31.033  1.00  0.00     0.037 A 
ATOM     26  C   UNL A   1      42.727  24.919  28.114  1.00  0.00     0.037 A 
ATOM     27  C   UNL A   1      45.037  30.206  30.994  1.00  0.00     0.049 A 
ATOM     28  C   UNL A   1      44.099  25.303  28.602  1.00  0.00     0.074 A 
ATOM     29  C   UNL A   1      46.312  30.440  31.488  1.00  0.00     0.029 A 
ATOM     30  N   UNL A   1      45.062  28.943  30.427  1.00  0.00    -0.354 N 
ATOM     31  N   UNL A   1      44.487  26.397  29.208  1.00  0.00    -0.248 NA
ATOM     32  C   UNL A   1      45.180  24.328  28.384  1.00  0.00     0.031 C 
ATOM     33  C   UNL A   1      47.118  29.339  31.180  1.00  0.00     0.029 A 
ATOM     34  C   UNL A   1      46.333  28.397  30.538  1.00  0.00     0.049 A 
ATOM     35  H   UNL A   1      44.291  28.497  30.006  1.00  0.00     0.167 HD
ATOM     36  C   UNL A   1      45.844  26.233  29.462  1.00  0.00     0.074 A 
ATOM     37  C   UNL A   1      46.211  24.924  28.966  1.00  0.00     0.031 C 
ATOM     38  C   UNL A   1      46.707  27.095  30.052  1.00  0.00     0.037 A 
BRANCH  25  39
ATOM     39  C   UNL A   1      44.083  32.437  31.644  1.00  0.00     0.057 A 
ATOM     40  C   UNL A   1      44.442  33.547  30.869  1.00  0.00     0.134 A 
ATOM     41  C   UNL A   1      43.822  32.656  33.003  1.00  0.00     0.134 A 
ATOM     42  F   UNL A   1      44.708  33.405  29.562  1.00  0.00    -0.206 F 
ATOM     43  C   UNL A   1      44.549  34.823  31.426  1.00  0.00     0.040 A 
ATOM     44  C   UNL A   1      43.902  33.932  33.567  1.00  0.00     0.040 A 
ATOM     45  F   UNL A   1      43.456  31.640  33.800  1.00  0.00    -0.206 F 
ATOM     46  C   UNL A   1      44.270  35.019  32.777  1.00  0.00     0.006 A 
ENDBRANCH  25  39
BRANCH  26  47
ATOM     47  C   UNL A   1      42.528  23.600  27.456  1.00  0.00     0.057 A 
ATOM     48  C   UNL A   1      42.257  22.450  28.208  1.00  0.00     0.134 A 
ATOM     49  C   UNL A   1      42.650  23.450  26.071  1.00  0.00     0.134 A 
ATOM     50  F   UNL A   1      42.163  22.522  29.544  1.00  0.00    -0.206 F 
ATOM     51  C   UNL A   1      42.136  21.194  27.606  1.00  0.00     0.040 A 
ATOM     52  C   UNL A   1      42.502  22.207  25.453  1.00  0.00     0.040 A 
ATOM     53  F   UNL A   1      42.915  24.512  25.296  1.00  0.00    -0.206 F 
ATOM     54  C   UNL A   1      42.253  21.074  26.223  1.00  0.00     0.006 A 
ENDBRANCH  26  47
BRANCH  38  55
ATOM     55  C   UNL A   1      48.129  26.640  30.228  1.00  0.00     0.057 A 
ATOM     56  C   UNL A   1      49.122  26.923  29.281  1.00  0.00     0.134 A 
ATOM     57  C   UNL A   1      48.516  25.923  31.369  1.00  0.00     0.134 A 
ATOM     58  F   UNL A   1      48.819  27.594  28.160  1.00  0.00    -0.206 F 
ATOM     59  C   UNL A   1      50.438  26.485  29.447  1.00  0.00     0.040 A 
ATOM     60  C   UNL A   1      49.834  25.502  31.559  1.00  0.00     0.040 A 
ATOM     61  F   UNL A   1      47.620  25.624  32.322  1.00  0.00    -0.206 F 
ATOM     62  C   UNL A   1      50.798  25.776  30.591  1.00  0.00     0.006 A 
ENDBRANCH  38  55
ENDBRANCH  12  13
ENDBRANCH   5   7
ENDBRANCH   2   3
ENDBRANCH   1   2
BRANCH   1  63
ATOM     63  C   UNL A   1      31.515  26.942  26.107  1.00  0.00     0.117 C 
BRANCH  63  64
ATOM     64  N   UNL A   1      31.103  25.594  26.541  1.00  0.00    -0.355 N 
ATOM     65  C   UNL A   1      31.600  24.317  26.657  1.00  0.00     0.231 C 
ATOM     66  H   UNL A   1      30.168  25.615  26.849  1.00  0.00     0.163 HD
ATOM     67  O   UNL A   1      30.916  23.577  27.379  1.00  0.00    -0.274 OA
BRANCH  65  68
ATOM     68  C   UNL A   1      32.836  23.740  25.929  1.00  0.00     0.098 C 
ATOM     69  C   UNL A   1      32.718  23.633  24.377  1.00  0.00     0.028 C 
ATOM     70  C   UNL A   1      33.040  22.302  26.492  1.00  0.00     0.277 C 
ATOM     71  C   UNL A   1      31.864  22.503  23.825  1.00  0.00     0.063 C 
ATOM     72  N   UNL A   1      32.070  21.323  25.973  1.00  0.00    -0.345 N 
ATOM     73  C   UNL A   1      32.137  21.184  24.522  1.00  0.00     0.260 C 
ATOM     74  H   UNL A   1      32.261  20.416  26.399  1.00  0.00     0.346 HD
ATOM     75  H   UNL A   1      31.135  21.658  26.209  1.00  0.00     0.346 HD
BRANCH  68  76
ATOM     76  C   UNL A   1      34.051  24.648  26.165  1.00  0.00     0.028 C 
BRANCH  76  77
ATOM     77  C   UNL A   1      35.353  24.419  25.327  1.00  0.00     0.038 C 
BRANCH  77  78
ATOM     78  C   UNL A   1      36.439  23.355  25.420  1.00  0.00    -0.030 A 
ATOM     79  C   UNL A   1      37.632  23.724  26.063  1.00  0.00     0.007 A 
ATOM     80  C   UNL A   1      36.439  22.043  24.969  1.00  0.00     0.114 A 
ATOM     81  C   UNL A   1      38.706  22.837  26.188  1.00  0.00     0.020 A 
ATOM     82  N   UNL A   1      37.479  21.169  25.021  1.00  0.00    -0.264 NA
ATOM     83  C   UNL A   1      38.591  21.579  25.637  1.00  0.00     0.111 A 
ENDBRANCH  77  78
ENDBRANCH  76  77
ENDBRANCH  68  76
ENDBRANCH  65  68
ENDBRANCH  63  64
ENDBRANCH   1  63
TORSDOF 13
ENDMDL
MODEL 2
REMARK VINA RESULT:     -11.0      2.521      7.429
REMARK SMILES O=C(NCCCNC(=O)[C@]1(CCc2cccnc2)CCC[NH2+]C1)c1ccc(-c2c3nc(c(-c4c(F)cccc4F)c4ccc([nH]4)c(-c4c(F)cccc4F)c4nc(c(-c5c(F)cccc5F)c5ccc2[nH]5)C=C4)C=C3)cc1
REMARK SMILES IDX 5 1 4 2 3 3 1 4 2 5 24 7 25 8 77 9 26 10 76 11 27 12 28 13
REMARK SMILES IDX 29 14 70 15 30 16 75 17 69 18 71 19 31 20 74 21 68 22 67 23
REMARK SMILES IDX 32 25 58 26 41 27 57 28 42 29 45 30 56 31 72 32 43 33 44 34
REMARK SMILES IDX 55 36 73 37 46 38 33 39 34 40 39 41 35 42 36 43 38 44 40 45
REMARK SMILES IDX 37 46 59 47 60 48 65 49 61 50 62 51 64 52 66 53 63 54 47 55
REMARK SMILES IDX 48 56 53 57 49 58 50 59 52 60 54 61 51 62 6 63 7 64 8 65
REMARK SMILES IDX 9 67 10 68 19 69 23 70 20 71 22 72 21 73 11 76 12 77 13 78
REMARK SMILES IDX 14 79 18 80 15 81 17 82 16 83
REMARK H PARENT 3 6 71 24 45 35 7 66 22 74 22 75
REMARK Flexibility Score: inf
ROOT
ATOM      1  C   UNL A   1      37.675  19.688  25.007  1.00  0.00     0.042 C 
ENDROOT
BRANCH   1   2
ATOM      2  C   UNL A   1      38.942  20.152  25.747  1.00  0.00     0.118 C 
BRANCH   2   3
ATOM      3  N   UNL A   1      40.039  19.203  25.751  1.00  0.00    -0.352 N 
ATOM      4  O   UNL A   1      42.118  18.405  26.036  1.00  0.00    -0.269 OA
ATOM      5  C   UNL A   1      41.365  19.374  26.095  1.00  0.00     0.251 C 
ATOM      6  H   UNL A   1      39.800  18.292  25.462  1.00  0.00     0.163 HD
BRANCH   5   7
ATOM      7  C   UNL A   1      41.943  20.688  26.509  1.00  0.00     0.039 A 
ATOM      8  C   UNL A   1      42.328  21.669  25.594  1.00  0.00     0.014 A 
ATOM      9  C   UNL A   1      41.931  21.018  27.873  1.00  0.00     0.014 A 
ATOM     10  C   UNL A   1      42.738  22.944  26.042  1.00  0.00     0.010 A 
ATOM     11  C   UNL A   1      42.319  22.296  28.317  1.00  0.00     0.010 A 
ATOM     12  C   UNL A   1      42.737  23.282  27.409  1.00  0.00    -0.014 A 
BRANCH  12  13
ATOM     13  C   UNL A   1      43.111  24.657  27.890  1.00  0.00     0.031 A 
ATOM     14  C   UNL A   1      42.058  25.702  28.186  1.00  0.00     0.074 A 
ATOM     15  C   UNL A   1      44.407  25.012  28.026  1.00  0.00     0.049 A 
ATOM     16  N   UNL A   1      42.206  26.956  28.552  1.00  0.00    -0.248 NA
ATOM     17  C   UNL A   1      40.655  25.287  28.051  1.00  0.00     0.031 C 
ATOM     18  C   UNL A   1      45.554  24.146  27.757  1.00  0.00     0.029 A 
ATOM     19  N   UNL A   1      44.981  26.206  28.414  1.00  0.00    -0.354 N 
ATOM     20  C   UNL A   1      40.924  27.479  28.681  1.00  0.00     0.074 A 
ATOM     21  C   UNL A   1      40.008  26.413  28.326  1.00  0.00     0.031 C 
ATOM     22  C   UNL A   1      46.687  24.827  27.998  1.00  0.00     0.029 A 
ATOM     23  C   UNL A   1      46.356  26.193  28.396  1.00  0.00     0.049 A 
ATOM     24  H   UNL A   1      44.453  26.994  28.678  1.00  0.00     0.167 HD
ATOM     25  C   UNL A   1      40.535  28.722  29.067  1.00  0.00     0.037 A 
ATOM     26  C   UNL A   1      47.258  27.166  28.649  1.00  0.00     0.037 A 
ATOM     27  C   UNL A   1      41.424  29.798  29.432  1.00  0.00     0.049 A 
ATOM     28  C   UNL A   1      46.801  28.548  29.036  1.00  0.00     0.074 A 
ATOM     29  C   UNL A   1      41.097  31.071  29.875  1.00  0.00     0.029 A 
ATOM     30  N   UNL A   1      42.806  29.740  29.391  1.00  0.00    -0.354 N 
ATOM     31  N   UNL A   1      45.584  29.003  29.202  1.00  0.00    -0.248 NA
ATOM     32  C   UNL A   1      47.850  29.554  29.271  1.00  0.00     0.031 C 
ATOM     33  C   UNL A   1      42.279  31.797  30.059  1.00  0.00     0.029 A 
ATOM     34  C   UNL A   1      43.345  30.959  29.778  1.00  0.00     0.049 A 
ATOM     35  H   UNL A   1      43.331  28.950  29.126  1.00  0.00     0.167 HD
ATOM     36  C   UNL A   1      45.722  30.333  29.580  1.00  0.00     0.074 A 
ATOM     37  C   UNL A   1      47.140  30.610  29.643  1.00  0.00     0.031 C 
ATOM     38  C   UNL A   1      44.754  31.244  29.848  1.00  0.00     0.037 A 
BRANCH  25  39
ATOM     39  C   UNL A   1      39.060  29.006  29.125  1.00  0.00     0.057 A 
ATOM     40  C   UNL A   1      38.332  28.878  30.314  1.00  0.00     0.134 A 
ATOM     41  C   UNL A   1      38.380  29.498  28.002  1.00  0.00     0.134 A 
ATOM     42  F   UNL A   1      38.922  28.410  31.425  1.00  0.00    -0.206 F 
ATOM     43  C   UNL A   1      36.978  29.214  30.382  1.00  0.00     0.040 A 
ATOM     44  C   UNL A   1      37.033  29.861  28.064  1.00  0.00     0.040 A 
ATOM     45  F   UNL A   1      39.022  29.662  26.835  1.00  0.00    -0.206 F 
ATOM     46  C   UNL A   1      36.328  29.716  29.256  1.00  0.00     0.006 A 
ENDBRANCH  25  39
BRANCH  26  47
ATOM     47  C   UNL A   1      48.713  26.883  28.533  1.00  0.00     0.057 A 
ATOM     48  C   UNL A   1      49.407  27.134  27.342  1.00  0.00     0.134 A 
ATOM     49  C   UNL A   1      49.432  26.312  29.589  1.00  0.00     0.134 A 
ATOM     50  F   UNL A   1      48.766  27.647  26.282  1.00  0.00    -0.206 F 
ATOM     51  C   UNL A   1      50.758  26.808  27.200  1.00  0.00     0.040 A 
ATOM     52  C   UNL A   1      50.789  26.008  29.472  1.00  0.00     0.040 A 
ATOM     53  F   UNL A   1      48.823  26.041  30.753  1.00  0.00    -0.206 F 
ATOM     54  C   UNL A   1      51.453  26.249  28.271  1.00  0.00     0.006 A 
ENDBRANCH  26  47
BRANCH  38  55
ATOM     55  C   UNL A   1      45.193  32.618  30.269  1.00  0.00     0.057 A 
ATOM     56  C   UNL A   1      45.371  33.656  29.345  1.00  0.00     0.134 A 
ATOM     57  C   UNL A   1      45.425  32.914  31.620  1.00  0.00     0.134 A 
ATOM     58  F   UNL A   1      45.179  33.440  28.036  1.00  0.00    -0.206 F 
ATOM     59  C   UNL A   1      45.792  34.927  29.744  1.00  0.00     0.040 A 
ATOM     60  C   UNL A   1      45.821  34.188  32.034  1.00  0.00     0.040 A 
ATOM     61  F   UNL A   1      45.266  31.970  32.561  1.00  0.00    -0.206 F 
ATOM     62  C   UNL A   1      46.014  35.196  31.093  1.00  0.00     0.006 A 
ENDBRANCH  38  55
ENDBRANCH  12  13
ENDBRANCH   5   7
ENDBRANCH   2   3
ENDBRANCH   1   2
BRANCH   1  63
ATOM     63  C   UNL A   1      36.432  20.612  24.835  1.00  0.00     0.117 C 
BRANCH  63  64
ATOM     64  N   UNL A   1      35.564  21.015  25.958  1.00  0.00    -0.355 N 
ATOM     65  C   UNL A   1      34.297  21.488  26.206  1.00  0.00     0.231 C 
ATOM     66  H   UNL A   1      36.051  20.910  26.808  1.00  0.00     0.163 HD
ATOM     67  O   UNL A   1      33.946  21.385  27.390  1.00  0.00    -0.274 OA
BRANCH  65  68
ATOM     68  C   UNL A   1      33.357  22.179  25.190  1.00  0.00     0.098 C 
ATOM     69  C   UNL A   1      33.915  23.476  24.526  1.00  0.00     0.028 C 
ATOM     70  C   UNL A   1      32.071  22.563  25.980  1.00  0.00     0.277 C 
ATOM     71  C   UNL A   1      33.927  24.736  25.375  1.00  0.00     0.063 C 
ATOM     72  N   UNL A   1      32.248  23.728  26.863  1.00  0.00    -0.345 N 
ATOM     73  C   UNL A   1      32.626  24.933  26.130  1.00  0.00     0.260 C 
ATOM     74  H   UNL A   1      31.370  23.905  27.352  1.00  0.00     0.346 HD
ATOM     75  H   UNL A   1      33.003  23.512  27.515  1.00  0.00     0.346 HD
BRANCH  68  76
ATOM     76  C   UNL A   1      33.073  21.232  24.016  1.00  0.00     0.028 C 
BRANCH  76  77
ATOM     77  C   UNL A   1      32.281  19.906  24.276  1.00  0.00     0.038 C 
BRANCH  77  78
ATOM     78  C   UNL A   1      32.757  18.481  24.532  1.00  0.00    -0.030 A 
ATOM     79  C   UNL A   1      33.543  17.888  23.531  1.00  0.00     0.007 A 
ATOM     80  C   UNL A   1      32.539  17.656  25.625  1.00  0.00     0.114 A 
ATOM     81  C   UNL A   1      34.016  16.577  23.648  1.00  0.00     0.020 A 
ATOM     82  N   UNL A   1      32.933  16.360  25.752  1.00  0.00    -0.264 NA
ATOM     83  C   UNL A   1      33.671  15.847  24.764  1.00  0.00     0.111 A 
ENDBRANCH  77  78
ENDBRANCH  76  77
ENDBRANCH  68  76
ENDBRANCH  65  68
ENDBRANCH  63  64
ENDBRANCH   1  63
TORSDOF 13
ENDMDL
MODEL 3
REMARK VINA RESULT:     -11.0      2.381      7.550
REMARK SMILES O=C(NCCCNC(=O)[C@]1(CCc2cccnc2)CCC[NH2+]C1)c1ccc(-c2c3nc(c(-c4c(F)cccc4F)c4ccc([nH]4)c(-c4c(F)cccc4F)c4nc(c(-c5c(F)cccc5F)c5ccc2[nH]5)C=C4)C=C3)cc1
REMARK SMILES IDX 5 1 4 2 3 3 1 4 2 5 24 7 25 8 77 9 26 10 76 11 27 12 28 13
REMARK SMILES IDX 29 14 70 15 30 16 75 17 69 18 71 19 31 20 74 21 68 22 67 23
REMARK SMILES IDX 32 25 58 26 41 27 57 28 42 29 45 30 56 31 72 32 43 33 44 34
REMARK SMILES IDX 55 36 73 37 46 38 33 39 34 40 39 41 35 42 36 43 38 44 40 45
REMARK SMILES IDX 37 46 59 47 60 48 65 49 61 50 62 51 64 52 66 53 63 54 47 55
REMARK SMILES IDX 48 56 53 57 49 58 50 59 52 60 54 61 51 62 6 63 7 64 8 65
REMARK SMILES IDX 9 67 10 68 19 69 23 70 20 71 22 72 21 73 11 76 12 77 13 78
REMARK SMILES IDX 14 79 18 80 15 81 17 82 16 83
REMARK H PARENT 3 6 71 24 45 35 7 66 22 74 22 75
REMARK Flexibility Score: inf
ROOT
ATOM      1  C   UNL A   1      37.557  19.583  24.966  1.00  0.00     0.042 C 
ENDROOT
BRANCH   1   2
ATOM      2  C   UNL A   1      38.813  20.102  25.688  1.00  0.00     0.118 C 
BRANCH   2   3
ATOM      3  N   UNL A   1      39.950  19.201  25.678  1.00  0.00    -0.352 N 
ATOM      4  O   UNL A   1      42.056  18.482  25.973  1.00  0.00    -0.269 OA
ATOM      5  C   UNL A   1      41.261  19.415  26.053  1.00  0.00     0.251 C 
ATOM      6  H   UNL A   1      39.756  18.293  25.351  1.00  0.00     0.163 HD
BRANCH   5   7
ATOM      7  C   UNL A   1      41.774  20.736  26.527  1.00  0.00     0.039 A 
ATOM      8  C   UNL A   1      42.247  21.721  25.658  1.00  0.00     0.014 A 
ATOM      9  C   UNL A   1      41.606  21.067  27.879  1.00  0.00     0.014 A 
ATOM     10  C   UNL A   1      42.591  23.001  26.146  1.00  0.00     0.010 A 
ATOM     11  C   UNL A   1      41.929  22.350  28.361  1.00  0.00     0.010 A 
ATOM     12  C   UNL A   1      42.434  23.340  27.504  1.00  0.00    -0.014 A 
BRANCH  12  13
ATOM     13  C   UNL A   1      42.736  24.719  28.021  1.00  0.00     0.031 A 
ATOM     14  C   UNL A   1      44.134  25.112  28.448  1.00  0.00     0.074 A 
ATOM     15  C   UNL A   1      41.755  25.636  28.162  1.00  0.00     0.049 A 
ATOM     16  N   UNL A   1      44.561  26.239  28.972  1.00  0.00    -0.248 NA
ATOM     17  C   UNL A   1      45.191  24.106  28.267  1.00  0.00     0.031 C 
ATOM     18  C   UNL A   1      40.347  25.423  27.830  1.00  0.00     0.029 A 
ATOM     19  N   UNL A   1      41.789  26.931  28.637  1.00  0.00    -0.354 N 
ATOM     20  C   UNL A   1      45.925  26.076  29.190  1.00  0.00     0.074 A 
ATOM     21  C   UNL A   1      46.251  24.729  28.767  1.00  0.00     0.031 C 
ATOM     22  C   UNL A   1      39.657  26.545  28.097  1.00  0.00     0.029 A 
ATOM     23  C   UNL A   1      40.558  27.546  28.661  1.00  0.00     0.049 A 
ATOM     24  H   UNL A   1      42.617  27.373  28.931  1.00  0.00     0.167 HD
ATOM     25  C   UNL A   1      46.830  26.960  29.684  1.00  0.00     0.037 A 
ATOM     26  C   UNL A   1      40.183  28.765  29.103  1.00  0.00     0.037 A 
ATOM     27  C   UNL A   1      46.536  28.308  30.105  1.00  0.00     0.049 A 
ATOM     28  C   UNL A   1      41.199  29.713  29.685  1.00  0.00     0.074 A 
ATOM     29  C   UNL A   1      47.414  29.274  30.576  1.00  0.00     0.029 A 
ATOM     30  N   UNL A   1      45.276  28.883  30.119  1.00  0.00    -0.354 N 
ATOM     31  N   UNL A   1      42.491  29.555  29.831  1.00  0.00    -0.248 NA
ATOM     32  C   UNL A   1      40.699  31.013  30.163  1.00  0.00     0.031 C 
ATOM     33  C   UNL A   1      46.679  30.416  30.915  1.00  0.00     0.029 A 
ATOM     34  C   UNL A   1      45.351  30.179  30.610  1.00  0.00     0.049 A 
ATOM     35  H   UNL A   1      44.449  28.437  29.823  1.00  0.00     0.167 HD
ATOM     36  C   UNL A   1      42.958  30.737  30.395  1.00  0.00     0.074 A 
ATOM     37  C   UNL A   1      41.818  31.614  30.543  1.00  0.00     0.031 C 
ATOM     38  C   UNL A   1      44.223  31.061  30.758  1.00  0.00     0.037 A 
BRANCH  25  39
ATOM     39  C   UNL A   1      48.258  26.506  29.801  1.00  0.00     0.057 A 
ATOM     40  C   UNL A   1      49.206  26.794  28.810  1.00  0.00     0.134 A 
ATOM     41  C   UNL A   1      48.711  25.853  30.956  1.00  0.00     0.134 A 
ATOM     42  F   UNL A   1      48.838  27.414  27.679  1.00  0.00    -0.206 F 
ATOM     43  C   UNL A   1      50.548  26.435  28.956  1.00  0.00     0.040 A 
ATOM     44  C   UNL A   1      50.055  25.512  31.124  1.00  0.00     0.040 A 
ATOM     45  F   UNL A   1      47.860  25.563  31.952  1.00  0.00    -0.206 F 
ATOM     46  C   UNL A   1      50.976  25.801  30.120  1.00  0.00     0.006 A 
ENDBRANCH  25  39
BRANCH  26  47
ATOM     47  C   UNL A   1      38.756  29.178  29.031  1.00  0.00     0.057 A 
ATOM     48  C   UNL A   1      37.921  29.096  30.153  1.00  0.00     0.134 A 
ATOM     49  C   UNL A   1      38.182  29.616  27.832  1.00  0.00     0.134 A 
ATOM     50  F   UNL A   1      38.402  28.650  31.322  1.00  0.00    -0.206 F 
ATOM     51  C   UNL A   1      36.563  29.416  30.079  1.00  0.00     0.040 A 
ATOM     52  C   UNL A   1      36.834  29.968  27.751  1.00  0.00     0.040 A 
ATOM     53  F   UNL A   1      38.927  29.711  26.721  1.00  0.00    -0.206 F 
ATOM     54  C   UNL A   1      36.019  29.859  28.875  1.00  0.00     0.006 A 
ENDBRANCH  26  47
BRANCH  38  55
ATOM     55  C   UNL A   1      44.452  32.436  31.321  1.00  0.00     0.057 A 
ATOM     56  C   UNL A   1      44.399  32.693  32.697  1.00  0.00     0.134 A 
ATOM     57  C   UNL A   1      44.744  33.516  30.477  1.00  0.00     0.134 A 
ATOM     58  F   UNL A   1      44.112  31.708  33.561  1.00  0.00    -0.206 F 
ATOM     59  C   UNL A   1      44.600  33.977  33.210  1.00  0.00     0.040 A 
ATOM     60  C   UNL A   1      44.973  34.799  30.980  1.00  0.00     0.040 A 
ATOM     61  F   UNL A   1      44.819  33.342  29.148  1.00  0.00    -0.206 F 
ATOM     62  C   UNL A   1      44.892  35.033  32.350  1.00  0.00     0.006 A 
ENDBRANCH  38  55
ENDBRANCH  12  13
ENDBRANCH   5   7
ENDBRANCH   2   3
ENDBRANCH   1   2
BRANCH   1  63
ATOM     63  C   UNL A   1      36.263  20.442  24.835  1.00  0.00     0.117 C 
BRANCH  63  64
ATOM     64  N   UNL A   1      35.518  20.962  25.997  1.00  0.00    -0.355 N 
ATOM     65  C   UNL A   1      34.293  21.495  26.324  1.00  0.00     0.231 C 
ATOM     66  H   UNL A   1      36.082  20.910  26.803  1.00  0.00     0.163 HD
ATOM     67  O   UNL A   1      34.056  21.499  27.540  1.00  0.00    -0.274 OA
BRANCH  65  68
ATOM     68  C   UNL A   1      33.277  22.132  25.347  1.00  0.00     0.098 C 
ATOM     69  C   UNL A   1      33.866  22.640  23.994  1.00  0.00     0.028 C 
ATOM     70  C   UNL A   1      32.668  23.356  26.092  1.00  0.00     0.277 C 
ATOM     71  C   UNL A   1      34.652  23.940  24.028  1.00  0.00     0.063 C 
ATOM     72  N   UNL A   1      33.576  24.513  26.164  1.00  0.00    -0.345 N 
ATOM     73  C   UNL A   1      33.955  25.011  24.846  1.00  0.00     0.260 C 
ATOM     74  H   UNL A   1      33.111  25.263  26.677  1.00  0.00     0.346 HD
ATOM     75  H   UNL A   1      34.428  24.209  26.637  1.00  0.00     0.346 HD
BRANCH  68  76
ATOM     76  C   UNL A   1      32.220  21.094  24.945  1.00  0.00     0.028 C 
BRANCH  76  77
ATOM     77  C   UNL A   1      32.597  19.975  23.916  1.00  0.00     0.038 C 
BRANCH  77  78
ATOM     78  C   UNL A   1      32.911  18.496  24.105  1.00  0.00    -0.030 A 
ATOM     79  C   UNL A   1      32.727  17.971  25.394  1.00  0.00     0.007 A 
ATOM     80  C   UNL A   1      33.353  17.557  23.185  1.00  0.00     0.114 A 
ATOM     81  C   UNL A   1      33.005  16.633  25.690  1.00  0.00     0.020 A 
ATOM     82  N   UNL A   1      33.687  16.265  23.443  1.00  0.00    -0.264 NA
ATOM     83  C   UNL A   1      33.499  15.824  24.690  1.00  0.00     0.111 A 
ENDBRANCH  77  78
ENDBRANCH  76  77
ENDBRANCH  68  76
ENDBRANCH  65  68
ENDBRANCH  63  64
ENDBRANCH   1  63
TORSDOF 13
ENDMDL
