MODEL 1
REMARK VINA RESULT:     -11.8      0.000      0.000
REMARK SMILES COc1cccc(C(=O)N[C@H]2C=C[C@@H](C(=O)NCCCNC(=O)c3ccc(-c4c5nc(c(-c6c(F)cccc6F)c6ccc([nH]6)c(-c6c(F)cccc6F)c6nc(c(-c7c(F)cccc7F)c7ccc4[nH]7)C=C6)C=C5)cc3)C2)c1
REMARK SMILES IDX 18 1 17 2 15 3 16 4 14 6 11 7 12 8 78 9 13 10 10 11 8 12
REMARK SMILES IDX 9 13 7 15 3 16 4 17 79 18 5 19 6 20 2 21 1 22 19 23 20 24
REMARK SMILES IDX 21 25 22 26 23 28 24 29 25 30 77 31 26 32 76 33 27 34 28 35
REMARK SMILES IDX 29 36 70 37 30 38 75 39 69 40 71 41 31 42 74 43 68 44 67 45
REMARK SMILES IDX 32 47 58 48 41 49 57 50 42 51 45 52 56 53 72 54 43 55 44 56
REMARK SMILES IDX 55 58 73 59 46 60 33 61 34 62 39 63 35 64 36 65 38 66 40 67
REMARK SMILES IDX 37 68 59 69 60 70 65 71 61 72 62 73 64 74 66 75 63 76 47 77
REMARK SMILES IDX 48 78 53 79 49 80 50 81 52 82 54 83 51 84
REMARK H PARENT 17 5 10 14 21 27 71 46 45 57
REMARK Flexibility Score: inf
ROOT
ATOM      1  C   UNL A   1      37.403  21.352  24.266  1.00  0.00     0.117 C 
ENDROOT
BRANCH   1   2
ATOM      2  N   UNL A   1      36.760  22.280  25.161  1.00  0.00    -0.356 N 
ATOM      3  C   UNL A   1      35.491  22.265  25.645  1.00  0.00     0.227 C 
ATOM      4  O   UNL A   1      35.282  22.962  26.647  1.00  0.00    -0.274 OA
ATOM      5  H   UNL A   1      37.319  23.031  25.464  1.00  0.00     0.163 HD
BRANCH   3   6
ATOM      6  C   UNL A   1      34.341  21.424  25.060  1.00  0.00     0.103 C 
ATOM      7  C   UNL A   1      31.887  21.353  25.296  1.00  0.00     0.106 C 
ATOM      8  C   UNL A   1      32.292  22.031  24.049  1.00  0.00    -0.006 C 
ATOM      9  C   UNL A   1      33.205  20.898  25.947  1.00  0.00     0.047 C 
ATOM     10  C   UNL A   1      33.623  22.094  23.924  1.00  0.00    -0.016 C 
BRANCH   7  11
ATOM     11  N   UNL A   1      30.937  22.090  26.126  1.00  0.00    -0.346 N 
ATOM     12  C   UNL A   1      30.566  23.337  26.550  1.00  0.00     0.251 C 
ATOM     13  O   UNL A   1      29.716  23.329  27.450  1.00  0.00    -0.269 OA
ATOM     14  H   UNL A   1      30.327  21.437  26.539  1.00  0.00     0.164 HD
BRANCH  12  15
ATOM     15  C   UNL A   1      31.078  24.675  26.121  1.00  0.00     0.043 A 
ATOM     16  C   UNL A   1      30.963  26.836  25.002  1.00  0.00     0.119 A 
ATOM     17  C   UNL A   1      32.332  27.022  25.199  1.00  0.00     0.046 A 
ATOM     18  C   UNL A   1      30.336  25.685  25.500  1.00  0.00     0.060 A 
ATOM     19  C   UNL A   1      33.072  26.078  25.897  1.00  0.00     0.005 A 
ATOM     20  C   UNL A   1      32.451  24.912  26.346  1.00  0.00     0.014 A 
BRANCH  16  21
ATOM     21  O   UNL A   1      30.371  27.824  24.264  1.00  0.00    -0.497 OA
ATOM     22  C   UNL A   1      31.028  29.082  24.205  1.00  0.00     0.278 C 
ENDBRANCH  16  21
ENDBRANCH  12  15
ENDBRANCH   7  11
ENDBRANCH   3   6
ENDBRANCH   1   2
BRANCH   1  23
ATOM     23  C   UNL A   1      37.855  20.056  24.917  1.00  0.00     0.042 C 
BRANCH  23  24
ATOM     24  C   UNL A   1      38.940  20.251  25.958  1.00  0.00     0.118 C 
BRANCH  24  25
ATOM     25  N   UNL A   1      39.953  19.203  25.929  1.00  0.00    -0.352 N 
ATOM     26  C   UNL A   1      41.319  19.280  26.062  1.00  0.00     0.251 C 
ATOM     27  H   UNL A   1      39.604  18.293  25.791  1.00  0.00     0.163 HD
ATOM     28  O   UNL A   1      42.004  18.280  25.859  1.00  0.00    -0.269 OA
BRANCH  26  29
ATOM     29  C   UNL A   1      41.975  20.563  26.407  1.00  0.00     0.039 A 
ATOM     30  C   UNL A   1      42.347  21.432  25.376  1.00  0.00     0.014 A 
ATOM     31  C   UNL A   1      42.223  20.921  27.733  1.00  0.00     0.014 A 
ATOM     32  C   UNL A   1      42.882  22.686  25.681  1.00  0.00     0.010 A 
ATOM     33  C   UNL A   1      42.645  22.211  28.038  1.00  0.00     0.010 A 
ATOM     34  C   UNL A   1      42.989  23.107  27.017  1.00  0.00    -0.014 A 
BRANCH  34  35
ATOM     35  C   UNL A   1      43.467  24.470  27.369  1.00  0.00     0.031 A 
ATOM     36  C   UNL A   1      42.487  25.526  27.808  1.00  0.00     0.074 A 
ATOM     37  C   UNL A   1      44.770  24.781  27.228  1.00  0.00     0.049 A 
ATOM     38  N   UNL A   1      42.697  26.789  28.082  1.00  0.00    -0.248 NA
ATOM     39  C   UNL A   1      41.078  25.116  27.920  1.00  0.00     0.031 C 
ATOM     40  C   UNL A   1      45.817  23.867  26.765  1.00  0.00     0.029 A 
ATOM     41  N   UNL A   1      45.439  25.959  27.455  1.00  0.00    -0.354 N 
ATOM     42  C   UNL A   1      41.449  27.321  28.384  1.00  0.00     0.074 A 
ATOM     43  C   UNL A   1      40.480  26.266  28.189  1.00  0.00     0.031 C 
ATOM     44  C   UNL A   1      46.997  24.505  26.778  1.00  0.00     0.029 A 
ATOM     45  C   UNL A   1      46.788  25.885  27.205  1.00  0.00     0.049 A 
ATOM     46  H   UNL A   1      44.993  26.779  27.769  1.00  0.00     0.167 HD
ATOM     47  C   UNL A   1      41.139  28.568  28.814  1.00  0.00     0.037 A 
ATOM     48  C   UNL A   1      47.748  26.824  27.306  1.00  0.00     0.037 A 
ATOM     49  C   UNL A   1      42.106  29.612  29.028  1.00  0.00     0.049 A 
ATOM     50  C   UNL A   1      47.375  28.208  27.763  1.00  0.00     0.074 A 
ATOM     51  C   UNL A   1      41.901  30.892  29.510  1.00  0.00     0.029 A 
ATOM     52  N   UNL A   1      43.463  29.495  28.769  1.00  0.00    -0.354 N 
ATOM     53  N   UNL A   1      46.202  28.679  28.108  1.00  0.00    -0.248 NA
ATOM     54  C   UNL A   1      48.466  29.190  27.849  1.00  0.00     0.031 C 
ATOM     55  C   UNL A   1      43.127  31.566  29.495  1.00  0.00     0.029 A 
ATOM     56  C   UNL A   1      44.104  30.688  29.059  1.00  0.00     0.049 A 
ATOM     57  H   UNL A   1      43.906  28.684  28.429  1.00  0.00     0.167 HD
ATOM     58  C   UNL A   1      46.417  29.999  28.486  1.00  0.00     0.074 A 
ATOM     59  C   UNL A   1      47.836  30.249  28.338  1.00  0.00     0.031 C 
ATOM     60  C   UNL A   1      45.520  30.921  28.917  1.00  0.00     0.037 A 
BRANCH  47  61
ATOM     61  C   UNL A   1      39.690  28.863  29.086  1.00  0.00     0.057 A 
ATOM     62  C   UNL A   1      39.132  28.717  30.364  1.00  0.00     0.134 A 
ATOM     63  C   UNL A   1      38.846  29.312  28.062  1.00  0.00     0.134 A 
ATOM     64  F   UNL A   1      39.880  28.278  31.387  1.00  0.00    -0.206 F 
ATOM     65  C   UNL A   1      37.780  28.970  30.605  1.00  0.00     0.040 A 
ATOM     66  C   UNL A   1      37.500  29.600  28.299  1.00  0.00     0.040 A 
ATOM     67  F   UNL A   1      39.313  29.482  26.817  1.00  0.00    -0.206 F 
ATOM     68  C   UNL A   1      36.962  29.420  29.571  1.00  0.00     0.006 A 
ENDBRANCH  47  61
BRANCH  48  69
ATOM     69  C   UNL A   1      49.161  26.484  26.998  1.00  0.00     0.057 A 
ATOM     70  C   UNL A   1      49.656  26.584  25.691  1.00  0.00     0.134 A 
ATOM     71  C   UNL A   1      50.045  26.039  27.989  1.00  0.00     0.134 A 
ATOM     72  F   UNL A   1      48.852  26.985  24.695  1.00  0.00    -0.206 F 
ATOM     73  C   UNL A   1      50.970  26.234  25.377  1.00  0.00     0.040 A 
ATOM     74  C   UNL A   1      51.370  25.713  27.693  1.00  0.00     0.040 A 
ATOM     75  F   UNL A   1      49.636  25.928  29.261  1.00  0.00    -0.206 F 
ATOM     76  C   UNL A   1      51.833  25.802  26.381  1.00  0.00     0.006 A 
ENDBRANCH  48  69
BRANCH  60  77
ATOM     77  C   UNL A   1      46.053  32.269  29.304  1.00  0.00     0.057 A 
ATOM     78  C   UNL A   1      46.142  33.325  28.389  1.00  0.00     0.134 A 
ATOM     79  C   UNL A   1      46.451  32.523  30.624  1.00  0.00     0.134 A 
ATOM     80  F   UNL A   1      45.789  33.146  27.107  1.00  0.00    -0.206 F 
ATOM     81  C   UNL A   1      46.632  34.578  28.765  1.00  0.00     0.040 A 
ATOM     82  C   UNL A   1      46.913  33.778  31.019  1.00  0.00     0.040 A 
ATOM     83  F   UNL A   1      46.383  31.558  31.554  1.00  0.00    -0.206 F 
ATOM     84  C   UNL A   1      47.012  34.808  30.086  1.00  0.00     0.006 A 
ENDBRANCH  60  77
ENDBRANCH  34  35
ENDBRANCH  26  29
ENDBRANCH  24  25
ENDBRANCH  23  24
ENDBRANCH   1  23
TORSDOF 13
ENDMDL
MODEL 2
REMARK VINA RESULT:     -11.7      5.468     10.590
REMARK SMILES COc1cccc(C(=O)N[C@H]2C=C[C@@H](C(=O)NCCCNC(=O)c3ccc(-c4c5nc(c(-c6c(F)cccc6F)c6ccc([nH]6)c(-c6c(F)cccc6F)c6nc(c(-c7c(F)cccc7F)c7ccc4[nH]7)C=C6)C=C5)cc3)C2)c1
REMARK SMILES IDX 18 1 17 2 15 3 16 4 14 6 11 7 12 8 78 9 13 10 10 11 8 12
REMARK SMILES IDX 9 13 7 15 3 16 4 17 79 18 5 19 6 20 2 21 1 22 19 23 20 24
REMARK SMILES IDX 21 25 22 26 23 28 24 29 25 30 77 31 26 32 76 33 27 34 28 35
REMARK SMILES IDX 29 36 70 37 30 38 75 39 69 40 71 41 31 42 74 43 68 44 67 45
REMARK SMILES IDX 32 47 58 48 41 49 57 50 42 51 45 52 56 53 72 54 43 55 44 56
REMARK SMILES IDX 55 58 73 59 46 60 33 61 34 62 39 63 35 64 36 65 38 66 40 67
REMARK SMILES IDX 37 68 59 69 60 70 65 71 61 72 62 73 64 74 66 75 63 76 47 77
REMARK SMILES IDX 48 78 53 79 49 80 50 81 52 82 54 83 51 84
REMARK H PARENT 17 5 10 14 21 27 71 46 45 57
REMARK Flexibility Score: inf
ROOT
ATOM      1  C   UNL A   1      31.532  30.615  26.864  1.00  0.00     0.117 C 
ENDROOT
BRANCH   1   2
ATOM      2  N   UNL A   1      32.606  29.924  26.198  1.00  0.00    -0.356 N 
ATOM      3  C   UNL A   1      32.606  29.298  24.993  1.00  0.00     0.227 C 
ATOM      4  O   UNL A   1      33.716  29.081  24.491  1.00  0.00    -0.274 OA
ATOM      5  H   UNL A   1      33.461  29.903  26.685  1.00  0.00     0.163 HD
BRANCH   3   6
ATOM      6  C   UNL A   1      31.337  28.889  24.220  1.00  0.00     0.103 C 
ATOM      7  C   UNL A   1      30.810  27.413  22.315  1.00  0.00     0.106 C 
ATOM      8  C   UNL A   1      30.471  26.778  23.604  1.00  0.00    -0.006 C 
ATOM      9  C   UNL A   1      31.327  28.814  22.687  1.00  0.00     0.047 C 
ATOM     10  C   UNL A   1      30.774  27.563  24.644  1.00  0.00    -0.016 C 
BRANCH   7  11
ATOM     11  N   UNL A   1      31.629  26.602  21.417  1.00  0.00    -0.346 N 
ATOM     12  C   UNL A   1      32.625  25.665  21.364  1.00  0.00     0.251 C 
ATOM     13  O   UNL A   1      33.053  25.453  20.222  1.00  0.00    -0.269 OA
ATOM     14  H   UNL A   1      31.359  26.810  20.494  1.00  0.00     0.164 HD
BRANCH  12  15
ATOM     15  C   UNL A   1      33.287  24.920  22.479  1.00  0.00     0.043 A 
ATOM     16  C   UNL A   1      33.881  22.950  23.782  1.00  0.00     0.119 A 
ATOM     17  C   UNL A   1      34.387  23.760  24.798  1.00  0.00     0.046 A 
ATOM     18  C   UNL A   1      33.372  23.532  22.611  1.00  0.00     0.060 A 
ATOM     19  C   UNL A   1      34.401  25.141  24.649  1.00  0.00     0.005 A 
ATOM     20  C   UNL A   1      33.848  25.714  23.503  1.00  0.00     0.014 A 
BRANCH  16  21
ATOM     21  O   UNL A   1      33.893  21.615  24.082  1.00  0.00    -0.497 OA
ATOM     22  C   UNL A   1      33.369  21.221  25.341  1.00  0.00     0.278 C 
ENDBRANCH  16  21
ENDBRANCH  12  15
ENDBRANCH   7  11
ENDBRANCH   3   6
ENDBRANCH   1   2
BRANCH   1  23
ATOM     23  C   UNL A   1      31.510  32.117  26.639  1.00  0.00     0.042 C 
BRANCH  23  24
ATOM     24  C   UNL A   1      32.704  32.834  27.239  1.00  0.00     0.118 C 
BRANCH  24  25
ATOM     25  N   UNL A   1      32.408  34.208  27.627  1.00  0.00    -0.352 N 
ATOM     26  C   UNL A   1      32.979  35.004  28.591  1.00  0.00     0.251 C 
ATOM     27  H   UNL A   1      31.682  34.634  27.118  1.00  0.00     0.163 HD
ATOM     28  O   UNL A   1      32.475  36.094  28.852  1.00  0.00    -0.269 OA
BRANCH  26  29
ATOM     29  C   UNL A   1      34.170  34.546  29.344  1.00  0.00     0.039 A 
ATOM     30  C   UNL A   1      34.004  34.075  30.650  1.00  0.00     0.014 A 
ATOM     31  C   UNL A   1      35.445  34.569  28.777  1.00  0.00     0.014 A 
ATOM     32  C   UNL A   1      35.097  33.552  31.346  1.00  0.00     0.010 A 
ATOM     33  C   UNL A   1      36.505  33.943  29.423  1.00  0.00     0.010 A 
ATOM     34  C   UNL A   1      36.349  33.434  30.719  1.00  0.00    -0.014 A 
BRANCH  34  35
ATOM     35  C   UNL A   1      37.506  32.797  31.401  1.00  0.00     0.031 A 
ATOM     36  C   UNL A   1      38.183  31.601  30.785  1.00  0.00     0.074 A 
ATOM     37  C   UNL A   1      37.906  33.248  32.606  1.00  0.00     0.049 A 
ATOM     38  N   UNL A   1      39.153  30.862  31.260  1.00  0.00    -0.248 NA
ATOM     39  C   UNL A   1      37.678  31.156  29.476  1.00  0.00     0.031 C 
ATOM     40  C   UNL A   1      37.306  34.366  33.337  1.00  0.00     0.029 A 
ATOM     41  N   UNL A   1      38.912  32.814  33.434  1.00  0.00    -0.354 N 
ATOM     42  C   UNL A   1      39.362  29.863  30.317  1.00  0.00     0.074 A 
ATOM     43  C   UNL A   1      38.372  30.046  29.280  1.00  0.00     0.031 C 
ATOM     44  C   UNL A   1      37.977  34.554  34.484  1.00  0.00     0.029 A 
ATOM     45  C   UNL A   1      39.024  33.544  34.594  1.00  0.00     0.049 A 
ATOM     46  H   UNL A   1      39.497  32.053  33.218  1.00  0.00     0.167 HD
ATOM     47  C   UNL A   1      40.311  28.896  30.299  1.00  0.00     0.037 A 
ATOM     48  C   UNL A   1      39.873  33.411  35.631  1.00  0.00     0.037 A 
ATOM     49  C   UNL A   1      41.310  28.727  31.321  1.00  0.00     0.049 A 
ATOM     50  C   UNL A   1      40.904  32.315  35.599  1.00  0.00     0.074 A 
ATOM     51  C   UNL A   1      42.347  27.813  31.372  1.00  0.00     0.029 A 
ATOM     52  N   UNL A   1      41.394  29.490  32.476  1.00  0.00    -0.354 N 
ATOM     53  N   UNL A   1      41.132  31.418  34.671  1.00  0.00    -0.248 NA
ATOM     54  C   UNL A   1      41.800  32.218  36.761  1.00  0.00     0.031 C 
ATOM     55  C   UNL A   1      43.027  27.989  32.581  1.00  0.00     0.029 A 
ATOM     56  C   UNL A   1      42.451  29.051  33.257  1.00  0.00     0.049 A 
ATOM     57  H   UNL A   1      40.791  30.234  32.708  1.00  0.00     0.167 HD
ATOM     58  C   UNL A   1      42.217  30.674  35.117  1.00  0.00     0.074 A 
ATOM     59  C   UNL A   1      42.608  31.234  36.395  1.00  0.00     0.031 C 
ATOM     60  C   UNL A   1      42.835  29.623  34.523  1.00  0.00     0.037 A 
BRANCH  47  61
ATOM     61  C   UNL A   1      40.312  27.952  29.129  1.00  0.00     0.057 A 
ATOM     62  C   UNL A   1      41.072  28.202  27.977  1.00  0.00     0.134 A 
ATOM     63  C   UNL A   1      39.557  26.773  29.158  1.00  0.00     0.134 A 
ATOM     64  F   UNL A   1      41.807  29.320  27.876  1.00  0.00    -0.206 F 
ATOM     65  C   UNL A   1      41.050  27.334  26.884  1.00  0.00     0.040 A 
ATOM     66  C   UNL A   1      39.554  25.880  28.085  1.00  0.00     0.040 A 
ATOM     67  F   UNL A   1      38.813  26.466  30.231  1.00  0.00    -0.206 F 
ATOM     68  C   UNL A   1      40.295  26.165  26.940  1.00  0.00     0.006 A 
ENDBRANCH  47  61
BRANCH  48  69
ATOM     69  C   UNL A   1      39.809  34.356  36.775  1.00  0.00     0.057 A 
ATOM     70  C   UNL A   1      39.114  34.023  37.944  1.00  0.00     0.134 A 
ATOM     71  C   UNL A   1      40.423  35.613  36.727  1.00  0.00     0.134 A 
ATOM     72  F   UNL A   1      38.489  32.839  38.043  1.00  0.00    -0.206 F 
ATOM     73  C   UNL A   1      39.013  34.912  39.016  1.00  0.00     0.040 A 
ATOM     74  C   UNL A   1      40.353  36.502  37.801  1.00  0.00     0.040 A 
ATOM     75  F   UNL A   1      41.109  35.992  35.639  1.00  0.00    -0.206 F 
ATOM     76  C   UNL A   1      39.638  36.155  38.947  1.00  0.00     0.006 A 
ENDBRANCH  48  69
BRANCH  60  77
ATOM     77  C   UNL A   1      44.027  29.040  35.225  1.00  0.00     0.057 A 
ATOM     78  C   UNL A   1      43.904  28.019  36.175  1.00  0.00     0.134 A 
ATOM     79  C   UNL A   1      45.320  29.484  34.917  1.00  0.00     0.134 A 
ATOM     80  F   UNL A   1      42.695  27.557  36.525  1.00  0.00    -0.206 F 
ATOM     81  C   UNL A   1      45.023  27.480  36.815  1.00  0.00     0.040 A 
ATOM     82  C   UNL A   1      46.447  28.932  35.526  1.00  0.00     0.040 A 
ATOM     83  F   UNL A   1      45.509  30.453  34.008  1.00  0.00    -0.206 F 
ATOM     84  C   UNL A   1      46.299  27.932  36.484  1.00  0.00     0.006 A 
ENDBRANCH  60  77
ENDBRANCH  34  35
ENDBRANCH  26  29
ENDBRANCH  24  25
ENDBRANCH  23  24
ENDBRANCH   1  23
TORSDOF 13
ENDMDL
MODEL 3
REMARK VINA RESULT:     -11.7      5.154      9.542
REMARK SMILES COc1cccc(C(=O)N[C@H]2C=C[C@@H](C(=O)NCCCNC(=O)c3ccc(-c4c5nc(c(-c6c(F)cccc6F)c6ccc([nH]6)c(-c6c(F)cccc6F)c6nc(c(-c7c(F)cccc7F)c7ccc4[nH]7)C=C6)C=C5)cc3)C2)c1
REMARK SMILES IDX 18 1 17 2 15 3 16 4 14 6 11 7 12 8 78 9 13 10 10 11 8 12
REMARK SMILES IDX 9 13 7 15 3 16 4 17 79 18 5 19 6 20 2 21 1 22 19 23 20 24
REMARK SMILES IDX 21 25 22 26 23 28 24 29 25 30 77 31 26 32 76 33 27 34 28 35
REMARK SMILES IDX 29 36 70 37 30 38 75 39 69 40 71 41 31 42 74 43 68 44 67 45
REMARK SMILES IDX 32 47 58 48 41 49 57 50 42 51 45 52 56 53 72 54 43 55 44 56
REMARK SMILES IDX 55 58 73 59 46 60 33 61 34 62 39 63 35 64 36 65 38 66 40 67
REMARK SMILES IDX 37 68 59 69 60 70 65 71 61 72 62 73 64 74 66 75 63 76 47 77
REMARK SMILES IDX 48 78 53 79 49 80 50 81 52 82 54 83 51 84
REMARK H PARENT 17 5 10 14 21 27 71 46 45 57
REMARK Flexibility Score: inf
ROOT
ATOM      1  C   UNL A   1      31.420  30.679  26.840  1.00  0.00     0.117 C 
ENDROOT
BRANCH   1   2
ATOM      2  N   UNL A   1      32.512  29.992  26.198  1.00  0.00    -0.356 N 
ATOM      3  C   UNL A   1      32.534  29.338  25.008  1.00  0.00     0.227 C 
ATOM      4  O   UNL A   1      33.652  29.130  24.521  1.00  0.00    -0.274 OA
ATOM      5  H   UNL A   1      33.363  29.997  26.693  1.00  0.00     0.163 HD
BRANCH   3   6
ATOM      6  C   UNL A   1      31.279  28.891  24.234  1.00  0.00     0.103 C 
ATOM      7  C   UNL A   1      30.799  27.392  22.334  1.00  0.00     0.106 C 
ATOM      8  C   UNL A   1      30.475  26.753  23.625  1.00  0.00    -0.006 C 
ATOM      9  C   UNL A   1      31.275  28.809  22.701  1.00  0.00     0.047 C 
ATOM     10  C   UNL A   1      30.753  27.551  24.662  1.00  0.00    -0.016 C 
BRANCH   7  11
ATOM     11  N   UNL A   1      31.643  26.600  21.442  1.00  0.00    -0.346 N 
ATOM     12  C   UNL A   1      32.647  25.671  21.397  1.00  0.00     0.251 C 
ATOM     13  O   UNL A   1      33.102  25.480  20.261  1.00  0.00    -0.269 OA
ATOM     14  H   UNL A   1      31.392  26.820  20.516  1.00  0.00     0.164 HD
BRANCH  12  15
ATOM     15  C   UNL A   1      33.291  24.915  22.515  1.00  0.00     0.043 A 
ATOM     16  C   UNL A   1      33.858  22.932  23.810  1.00  0.00     0.119 A 
ATOM     17  C   UNL A   1      34.355  23.733  24.839  1.00  0.00     0.046 A 
ATOM     18  C   UNL A   1      33.367  23.525  22.638  1.00  0.00     0.060 A 
ATOM     19  C   UNL A   1      34.379  25.114  24.700  1.00  0.00     0.005 A 
ATOM     20  C   UNL A   1      33.844  25.698  23.551  1.00  0.00     0.014 A 
BRANCH  16  21
ATOM     21  O   UNL A   1      33.859  21.595  24.101  1.00  0.00    -0.497 OA
ATOM     22  C   UNL A   1      34.549  21.178  25.270  1.00  0.00     0.278 C 
ENDBRANCH  16  21
ENDBRANCH  12  15
ENDBRANCH   7  11
ENDBRANCH   3   6
ENDBRANCH   1   2
BRANCH   1  23
ATOM     23  C   UNL A   1      31.409  32.183  26.629  1.00  0.00     0.042 C 
BRANCH  23  24
ATOM     24  C   UNL A   1      32.683  32.866  27.086  1.00  0.00     0.118 C 
BRANCH  24  25
ATOM     25  N   UNL A   1      32.454  34.200  27.627  1.00  0.00    -0.352 N 
ATOM     26  C   UNL A   1      33.070  34.859  28.663  1.00  0.00     0.251 C 
ATOM     27  H   UNL A   1      31.742  34.711  27.179  1.00  0.00     0.163 HD
ATOM     28  O   UNL A   1      32.619  35.935  29.049  1.00  0.00    -0.269 OA
BRANCH  26  29
ATOM     29  C   UNL A   1      34.247  34.270  29.343  1.00  0.00     0.039 A 
ATOM     30  C   UNL A   1      34.043  33.434  30.446  1.00  0.00     0.014 A 
ATOM     31  C   UNL A   1      35.547  34.526  28.904  1.00  0.00     0.014 A 
ATOM     32  C   UNL A   1      35.130  32.794  31.045  1.00  0.00     0.010 A 
ATOM     33  C   UNL A   1      36.612  33.799  29.424  1.00  0.00     0.010 A 
ATOM     34  C   UNL A   1      36.421  32.930  30.507  1.00  0.00    -0.014 A 
BRANCH  34  35
ATOM     35  C   UNL A   1      37.581  32.189  31.066  1.00  0.00     0.031 A 
ATOM     36  C   UNL A   1      38.134  32.556  32.418  1.00  0.00     0.074 A 
ATOM     37  C   UNL A   1      38.183  31.232  30.332  1.00  0.00     0.049 A 
ATOM     38  N   UNL A   1      39.183  32.081  33.041  1.00  0.00    -0.248 NA
ATOM     39  C   UNL A   1      37.435  33.623  33.152  1.00  0.00     0.031 C 
ATOM     40  C   UNL A   1      37.780  30.814  28.988  1.00  0.00     0.029 A 
ATOM     41  N   UNL A   1      39.271  30.442  30.611  1.00  0.00    -0.354 N 
ATOM     42  C   UNL A   1      39.274  32.800  34.227  1.00  0.00     0.074 A 
ATOM     43  C   UNL A   1      38.220  33.789  34.205  1.00  0.00     0.031 C 
ATOM     44  C   UNL A   1      38.583  29.820  28.577  1.00  0.00     0.029 A 
ATOM     45  C   UNL A   1      39.586  29.561  29.604  1.00  0.00     0.049 A 
ATOM     46  H   UNL A   1      39.777  30.501  31.454  1.00  0.00     0.167 HD
ATOM     47  C   UNL A   1      40.137  32.633  35.258  1.00  0.00     0.037 A 
ATOM     48  C   UNL A   1      40.574  28.651  29.518  1.00  0.00     0.037 A 
ATOM     49  C   UNL A   1      41.173  31.635  35.289  1.00  0.00     0.049 A 
ATOM     50  C   UNL A   1      41.536  28.500  30.666  1.00  0.00     0.074 A 
ATOM     51  C   UNL A   1      42.067  31.350  36.306  1.00  0.00     0.029 A 
ATOM     52  N   UNL A   1      41.456  30.758  34.252  1.00  0.00    -0.354 N 
ATOM     53  N   UNL A   1      41.569  29.141  31.808  1.00  0.00    -0.248 NA
ATOM     54  C   UNL A   1      42.595  27.493  30.511  1.00  0.00     0.031 C 
ATOM     55  C   UNL A   1      42.922  30.335  35.866  1.00  0.00     0.029 A 
ATOM     56  C   UNL A   1      42.525  29.948  34.597  1.00  0.00     0.049 A 
ATOM     57  H   UNL A   1      40.968  30.717  33.398  1.00  0.00     0.167 HD
ATOM     58  C   UNL A   1      42.627  28.592  32.523  1.00  0.00     0.074 A 
ATOM     59  C   UNL A   1      43.201  27.558  31.687  1.00  0.00     0.031 C 
ATOM     60  C   UNL A   1      43.081  28.915  33.759  1.00  0.00     0.037 A 
BRANCH  47  61
ATOM     61  C   UNL A   1      39.988  33.553  36.438  1.00  0.00     0.057 A 
ATOM     62  C   UNL A   1      39.146  33.244  37.515  1.00  0.00     0.134 A 
ATOM     63  C   UNL A   1      40.706  34.753  36.506  1.00  0.00     0.134 A 
ATOM     64  F   UNL A   1      38.419  32.116  37.509  1.00  0.00    -0.206 F 
ATOM     65  C   UNL A   1      38.994  34.113  38.598  1.00  0.00     0.040 A 
ATOM     66  C   UNL A   1      40.587  35.614  37.599  1.00  0.00     0.040 A 
ATOM     67  F   UNL A   1      41.537  35.110  35.515  1.00  0.00    -0.206 F 
ATOM     68  C   UNL A   1      39.722  35.299  38.644  1.00  0.00     0.006 A 
ENDBRANCH  47  61
BRANCH  48  69
ATOM     69  C   UNL A   1      40.691  27.787  28.315  1.00  0.00     0.057 A 
ATOM     70  C   UNL A   1      41.430  28.203  27.200  1.00  0.00     0.134 A 
ATOM     71  C   UNL A   1      40.061  26.539  28.240  1.00  0.00     0.134 A 
ATOM     72  F   UNL A   1      42.041  29.397  27.204  1.00  0.00    -0.206 F 
ATOM     73  C   UNL A   1      41.521  27.420  26.048  1.00  0.00     0.040 A 
ATOM     74  C   UNL A   1      40.166  25.734  27.105  1.00  0.00     0.040 A 
ATOM     75  F   UNL A   1      39.343  26.079  29.275  1.00  0.00    -0.206 F 
ATOM     76  C   UNL A   1      40.891  26.179  26.000  1.00  0.00     0.006 A 
ENDBRANCH  48  69
BRANCH  60  77
ATOM     77  C   UNL A   1      44.226  28.110  34.302  1.00  0.00     0.057 A 
ATOM     78  C   UNL A   1      44.028  26.910  34.996  1.00  0.00     0.134 A 
ATOM     79  C   UNL A   1      45.548  28.526  34.095  1.00  0.00     0.134 A 
ATOM     80  F   UNL A   1      42.787  26.461  35.239  1.00  0.00    -0.206 F 
ATOM     81  C   UNL A   1      45.103  26.167  35.489  1.00  0.00     0.040 A 
ATOM     82  C   UNL A   1      46.631  27.777  34.556  1.00  0.00     0.040 A 
ATOM     83  F   UNL A   1      45.809  29.661  33.430  1.00  0.00    -0.206 F 
ATOM     84  C   UNL A   1      46.409  26.597  35.263  1.00  0.00     0.006 A 
ENDBRANCH  60  77
ENDBRANCH  34  35
ENDBRANCH  26  29
ENDBRANCH  24  25
ENDBRANCH  23  24
ENDBRANCH   1  23
TORSDOF 13
ENDMDL
