MODEL 1
REMARK VINA RESULT:     -13.7      0.000      0.000
REMARK SMILES O=C(NCCCNC(=O)[C@@H](Cc1ccccc1)N1C(=O)/C(=C/c2ccc3ncccc3c2)SC1=S)c1ccc(-c2c3nc(c(-c4c(F)cccc4F)c4ccc([nH]4)c(-c4c(F)cccc4F)c4nc(c(-c5c(F)cccc5F)c5ccc2[nH]5)C=C4)C=C3)cc1
REMARK SMILES IDX 5 1 4 2 3 3 1 4 2 5 36 7 37 8 89 9 38 10 88 11 39 12 40 13
REMARK SMILES IDX 41 14 82 15 42 16 87 17 81 18 83 19 43 20 86 21 80 22 79 23
REMARK SMILES IDX 44 25 70 26 53 27 69 28 54 29 57 30 68 31 84 32 55 33 56 34
REMARK SMILES IDX 67 36 85 37 58 38 45 39 46 40 51 41 47 42 48 43 50 44 52 45
REMARK SMILES IDX 49 46 71 47 72 48 77 49 73 50 74 51 76 52 78 53 75 54 59 55
REMARK SMILES IDX 60 56 65 57 61 58 62 59 64 60 66 61 63 62 6 63 7 64 8 65
REMARK SMILES IDX 9 67 10 68 11 69 12 70 13 71 17 72 14 73 16 74 15 75 18 76
REMARK SMILES IDX 19 77 34 78 20 79 21 80 33 81 35 82 22 83 23 84 24 85 32 86
REMARK SMILES IDX 25 87 31 88 26 89 30 90 27 91 29 92 28 93
REMARK H PARENT 3 6 83 24 57 35 7 66
REMARK Flexibility Score: inf
ROOT
ATOM      1  C   UNL A   1      36.947  23.084  24.602  1.00  0.00     0.042 C 
ENDROOT
BRANCH   1   2
ATOM      2  C   UNL A   1      37.614  23.686  25.826  1.00  0.00     0.118 C 
BRANCH   2   3
ATOM      3  N   UNL A   1      39.043  23.420  25.876  1.00  0.00    -0.352 N 
ATOM      4  O   UNL A   1      41.236  23.655  26.142  1.00  0.00    -0.269 OA
ATOM      5  C   UNL A   1      40.115  24.068  26.442  1.00  0.00     0.251 C 
ATOM      6  H   UNL A   1      39.299  22.597  25.401  1.00  0.00     0.163 HD
BRANCH   5   7
ATOM      7  C   UNL A   1      40.009  25.226  27.376  1.00  0.00     0.039 A 
ATOM      8  C   UNL A   1      39.276  25.205  28.560  1.00  0.00     0.014 A 
ATOM      9  C   UNL A   1      40.780  26.370  27.103  1.00  0.00     0.014 A 
ATOM     10  C   UNL A   1      39.190  26.338  29.370  1.00  0.00     0.010 A 
ATOM     11  C   UNL A   1      40.795  27.466  27.983  1.00  0.00     0.010 A 
ATOM     12  C   UNL A   1      39.979  27.470  29.119  1.00  0.00    -0.014 A 
BRANCH  12  13
ATOM     13  C   UNL A   1      39.985  28.579  30.113  1.00  0.00     0.031 A 
ATOM     14  C   UNL A   1      38.964  29.683  30.074  1.00  0.00     0.074 A 
ATOM     15  C   UNL A   1      40.901  28.556  31.104  1.00  0.00     0.049 A 
ATOM     16  N   UNL A   1      38.791  30.672  30.916  1.00  0.00    -0.248 NA
ATOM     17  C   UNL A   1      38.024  29.690  28.944  1.00  0.00     0.031 C 
ATOM     18  C   UNL A   1      41.974  27.565  31.237  1.00  0.00     0.029 A 
ATOM     19  N   UNL A   1      41.058  29.359  32.207  1.00  0.00    -0.354 N 
ATOM     20  C   UNL A   1      37.744  31.430  30.408  1.00  0.00     0.074 A 
ATOM     21  C   UNL A   1      37.332  30.798  29.172  1.00  0.00     0.031 C 
ATOM     22  C   UNL A   1      42.619  27.766  32.394  1.00  0.00     0.029 A 
ATOM     23  C   UNL A   1      42.052  28.934  33.057  1.00  0.00     0.049 A 
ATOM     24  H   UNL A   1      40.512  30.161  32.373  1.00  0.00     0.167 HD
ATOM     25  C   UNL A   1      37.173  32.543  30.927  1.00  0.00     0.037 A 
ATOM     26  C   UNL A   1      42.465  29.425  34.240  1.00  0.00     0.037 A 
ATOM     27  C   UNL A   1      37.558  33.158  32.172  1.00  0.00     0.049 A 
ATOM     28  C   UNL A   1      41.796  30.642  34.804  1.00  0.00     0.074 A 
ATOM     29  C   UNL A   1      37.008  34.267  32.793  1.00  0.00     0.029 A 
ATOM     30  N   UNL A   1      38.587  32.714  32.987  1.00  0.00    -0.354 N 
ATOM     31  N   UNL A   1      40.790  31.326  34.320  1.00  0.00    -0.248 NA
ATOM     32  C   UNL A   1      42.329  31.162  36.071  1.00  0.00     0.031 C 
ATOM     33  C   UNL A   1      37.724  34.510  33.971  1.00  0.00     0.029 A 
ATOM     34  C   UNL A   1      38.698  33.534  34.099  1.00  0.00     0.049 A 
ATOM     35  H   UNL A   1      39.155  31.930  32.805  1.00  0.00     0.167 HD
ATOM     36  C   UNL A   1      40.569  32.359  35.220  1.00  0.00     0.074 A 
ATOM     37  C   UNL A   1      41.526  32.194  36.295  1.00  0.00     0.031 C 
ATOM     38  C   UNL A   1      39.661  33.362  35.154  1.00  0.00     0.037 A 
BRANCH  25  39
ATOM     39  C   UNL A   1      36.065  33.183  30.143  1.00  0.00     0.057 A 
ATOM     40  C   UNL A   1      34.723  33.043  30.516  1.00  0.00     0.134 A 
ATOM     41  C   UNL A   1      36.351  33.990  29.035  1.00  0.00     0.134 A 
ATOM     42  F   UNL A   1      34.383  32.275  31.561  1.00  0.00    -0.206 F 
ATOM     43  C   UNL A   1      33.700  33.673  29.803  1.00  0.00     0.040 A 
ATOM     44  C   UNL A   1      35.339  34.639  28.326  1.00  0.00     0.040 A 
ATOM     45  F   UNL A   1      37.617  34.170  28.630  1.00  0.00    -0.206 F 
ATOM     46  C   UNL A   1      34.008  34.479  28.707  1.00  0.00     0.006 A 
ENDBRANCH  25  39
BRANCH  26  47
ATOM     47  C   UNL A   1      43.567  28.754  34.973  1.00  0.00     0.057 A 
ATOM     48  C   UNL A   1      44.903  29.093  34.736  1.00  0.00     0.134 A 
ATOM     49  C   UNL A   1      43.309  27.772  35.937  1.00  0.00     0.134 A 
ATOM     50  F   UNL A   1      45.213  30.013  33.811  1.00  0.00    -0.206 F 
ATOM     51  C   UNL A   1      45.946  28.476  35.428  1.00  0.00     0.040 A 
ATOM     52  C   UNL A   1      44.340  27.163  36.653  1.00  0.00     0.040 A 
ATOM     53  F   UNL A   1      42.047  27.410  36.212  1.00  0.00    -0.206 F 
ATOM     54  C   UNL A   1      45.664  27.512  36.395  1.00  0.00     0.006 A 
ENDBRANCH  26  47
BRANCH  38  55
ATOM     55  C   UNL A   1      39.666  34.353  36.277  1.00  0.00     0.057 A 
ATOM     56  C   UNL A   1      38.915  34.144  37.440  1.00  0.00     0.134 A 
ATOM     57  C   UNL A   1      40.438  35.518  36.201  1.00  0.00     0.134 A 
ATOM     58  F   UNL A   1      38.144  33.053  37.564  1.00  0.00    -0.206 F 
ATOM     59  C   UNL A   1      38.918  35.070  38.484  1.00  0.00     0.040 A 
ATOM     60  C   UNL A   1      40.462  36.442  37.246  1.00  0.00     0.040 A 
ATOM     61  F   UNL A   1      41.180  35.774  35.114  1.00  0.00    -0.206 F 
ATOM     62  C   UNL A   1      39.696  36.221  38.390  1.00  0.00     0.006 A 
ENDBRANCH  38  55
ENDBRANCH  12  13
ENDBRANCH   5   7
ENDBRANCH   2   3
ENDBRANCH   1   2
BRANCH   1  63
ATOM     63  C   UNL A   1      36.248  21.749  24.857  1.00  0.00     0.117 C 
BRANCH  63  64
ATOM     64  N   UNL A   1      35.450  21.846  26.062  1.00  0.00    -0.354 N 
ATOM     65  C   UNL A   1      34.186  22.297  26.265  1.00  0.00     0.243 C 
ATOM     66  H   UNL A   1      35.904  21.531  26.877  1.00  0.00     0.163 HD
ATOM     67  O   UNL A   1      33.937  22.708  27.406  1.00  0.00    -0.273 OA
BRANCH  65  68
ATOM     68  C   UNL A   1      33.104  22.410  25.166  1.00  0.00     0.185 C 
BRANCH  68  69
ATOM     69  C   UNL A   1      32.369  21.030  25.048  1.00  0.00     0.071 C 
BRANCH  69  70
ATOM     70  C   UNL A   1      32.895  19.771  24.366  1.00  0.00    -0.045 A 
ATOM     71  C   UNL A   1      33.935  18.952  24.825  1.00  0.00     0.004 A 
ATOM     72  C   UNL A   1      32.199  19.324  23.226  1.00  0.00     0.004 A 
ATOM     73  C   UNL A   1      34.285  17.761  24.175  1.00  0.00     0.000 A 
ATOM     74  C   UNL A   1      32.545  18.137  22.569  1.00  0.00     0.000 A 
ATOM     75  C   UNL A   1      33.590  17.354  23.044  1.00  0.00     0.000 A 
ENDBRANCH  69  70
ENDBRANCH  68  69
BRANCH  68  76
ATOM     76  N   UNL A   1      32.305  23.653  25.149  1.00  0.00    -0.280 N 
ATOM     77  C   UNL A   1      32.929  24.846  24.866  1.00  0.00     0.266 C 
ATOM     78  C   UNL A   1      31.132  23.851  25.862  1.00  0.00     0.149 C 
ATOM     79  O   UNL A   1      34.135  25.065  24.825  1.00  0.00    -0.268 OA
ATOM     80  C   UNL A   1      31.937  25.926  24.732  1.00  0.00     0.081 C 
ATOM     81  S   UNL A   1      30.526  25.495  25.583  1.00  0.00    -0.054 SA
ATOM     82  S   UNL A   1      30.308  22.813  26.875  1.00  0.00    -0.052 S 
ATOM     83  C   UNL A   1      32.231  27.024  24.032  1.00  0.00     0.029 C 
BRANCH  83  84
ATOM     84  C   UNL A   1      31.432  28.240  24.012  1.00  0.00    -0.024 A 
ATOM     85  C   UNL A   1      31.633  29.309  24.881  1.00  0.00     0.010 A 
ATOM     86  C   UNL A   1      30.398  28.292  23.076  1.00  0.00     0.018 A 
ATOM     87  C   UNL A   1      30.782  30.420  24.810  1.00  0.00     0.029 A 
ATOM     88  C   UNL A   1      29.554  29.403  23.014  1.00  0.00     0.001 A 
ATOM     89  C   UNL A   1      29.738  30.490  23.893  1.00  0.00     0.070 A 
ATOM     90  C   UNL A   1      28.511  29.451  22.086  1.00  0.00     0.012 A 
ATOM     91  N   UNL A   1      28.931  31.565  23.862  1.00  0.00    -0.256 NA
ATOM     92  C   UNL A   1      27.679  30.558  22.054  1.00  0.00     0.021 A 
ATOM     93  C   UNL A   1      27.927  31.579  22.954  1.00  0.00     0.112 A 
ENDBRANCH  83  84
ENDBRANCH  68  76
ENDBRANCH  65  68
ENDBRANCH  63  64
ENDBRANCH   1  63
TORSDOF 14
ENDMDL
MODEL 2
REMARK VINA RESULT:     -13.7      5.064     10.637
REMARK SMILES O=C(NCCCNC(=O)[C@@H](Cc1ccccc1)N1C(=O)/C(=C/c2ccc3ncccc3c2)SC1=S)c1ccc(-c2c3nc(c(-c4c(F)cccc4F)c4ccc([nH]4)c(-c4c(F)cccc4F)c4nc(c(-c5c(F)cccc5F)c5ccc2[nH]5)C=C4)C=C3)cc1
REMARK SMILES IDX 5 1 4 2 3 3 1 4 2 5 36 7 37 8 89 9 38 10 88 11 39 12 40 13
REMARK SMILES IDX 41 14 82 15 42 16 87 17 81 18 83 19 43 20 86 21 80 22 79 23
REMARK SMILES IDX 44 25 70 26 53 27 69 28 54 29 57 30 68 31 84 32 55 33 56 34
REMARK SMILES IDX 67 36 85 37 58 38 45 39 46 40 51 41 47 42 48 43 50 44 52 45
REMARK SMILES IDX 49 46 71 47 72 48 77 49 73 50 74 51 76 52 78 53 75 54 59 55
REMARK SMILES IDX 60 56 65 57 61 58 62 59 64 60 66 61 63 62 6 63 7 64 8 65
REMARK SMILES IDX 9 67 10 68 11 69 12 70 13 71 17 72 14 73 16 74 15 75 18 76
REMARK SMILES IDX 19 77 34 78 20 79 21 80 33 81 35 82 22 83 23 84 24 85 32 86
REMARK SMILES IDX 25 87 31 88 26 89 30 90 27 91 29 92 28 93
REMARK H PARENT 3 6 83 24 57 35 7 66
REMARK Flexibility Score: inf
ROOT
ATOM      1  C   UNL A   1      32.778  28.935  27.085  1.00  0.00     0.042 C 
ENDROOT
BRANCH   1   2
ATOM      2  C   UNL A   1      34.253  29.279  27.195  1.00  0.00     0.118 C 
BRANCH   2   3
ATOM      3  N   UNL A   1      34.526  30.261  28.232  1.00  0.00    -0.352 N 
ATOM      4  O   UNL A   1      35.457  31.351  29.930  1.00  0.00    -0.269 OA
ATOM      5  C   UNL A   1      35.623  30.551  29.007  1.00  0.00     0.251 C 
ATOM      6  H   UNL A   1      33.757  30.846  28.421  1.00  0.00     0.163 HD
BRANCH   5   7
ATOM      7  C   UNL A   1      36.979  29.963  28.810  1.00  0.00     0.039 A 
ATOM      8  C   UNL A   1      37.703  30.059  27.624  1.00  0.00     0.014 A 
ATOM      9  C   UNL A   1      37.612  29.371  29.918  1.00  0.00     0.014 A 
ATOM     10  C   UNL A   1      38.954  29.452  27.497  1.00  0.00     0.010 A 
ATOM     11  C   UNL A   1      38.922  28.871  29.828  1.00  0.00     0.010 A 
ATOM     12  C   UNL A   1      39.601  28.887  28.605  1.00  0.00    -0.014 A 
BRANCH  12  13
ATOM     13  C   UNL A   1      41.006  28.416  28.455  1.00  0.00     0.031 A 
ATOM     14  C   UNL A   1      41.330  26.995  28.082  1.00  0.00     0.074 A 
ATOM     15  C   UNL A   1      42.008  29.308  28.608  1.00  0.00     0.049 A 
ATOM     16  N   UNL A   1      42.499  26.456  27.837  1.00  0.00    -0.248 NA
ATOM     17  C   UNL A   1      40.205  26.054  27.982  1.00  0.00     0.031 C 
ATOM     18  C   UNL A   1      41.836  30.708  29.009  1.00  0.00     0.029 A 
ATOM     19  N   UNL A   1      43.361  29.188  28.408  1.00  0.00    -0.354 N 
ATOM     20  C   UNL A   1      42.256  25.114  27.578  1.00  0.00     0.074 A 
ATOM     21  C   UNL A   1      40.829  24.913  27.716  1.00  0.00     0.031 C 
ATOM     22  C   UNL A   1      43.018  31.335  28.942  1.00  0.00     0.029 A 
ATOM     23  C   UNL A   1      44.044  30.373  28.556  1.00  0.00     0.049 A 
ATOM     24  H   UNL A   1      43.800  28.337  28.180  1.00  0.00     0.167 HD
ATOM     25  C   UNL A   1      43.139  24.141  27.249  1.00  0.00     0.037 A 
ATOM     26  C   UNL A   1      45.349  30.660  28.399  1.00  0.00     0.037 A 
ATOM     27  C   UNL A   1      44.555  24.342  27.080  1.00  0.00     0.049 A 
ATOM     28  C   UNL A   1      46.299  29.569  28.006  1.00  0.00     0.074 A 
ATOM     29  C   UNL A   1      45.520  23.419  26.709  1.00  0.00     0.029 A 
ATOM     30  N   UNL A   1      45.211  25.549  27.267  1.00  0.00    -0.354 N 
ATOM     31  N   UNL A   1      46.043  28.312  27.740  1.00  0.00    -0.248 NA
ATOM     32  C   UNL A   1      47.719  29.933  27.904  1.00  0.00     0.031 C 
ATOM     33  C   UNL A   1      46.763  24.063  26.699  1.00  0.00     0.029 A 
ATOM     34  C   UNL A   1      46.567  25.393  27.033  1.00  0.00     0.049 A 
ATOM     35  H   UNL A   1      44.776  26.393  27.526  1.00  0.00     0.167 HD
ATOM     36  C   UNL A   1      47.269  27.733  27.442  1.00  0.00     0.074 A 
ATOM     37  C   UNL A   1      48.263  28.783  27.530  1.00  0.00     0.031 C 
ATOM     38  C   UNL A   1      47.545  26.444  27.134  1.00  0.00     0.037 A 
BRANCH  25  39
ATOM     39  C   UNL A   1      42.600  22.755  27.052  1.00  0.00     0.057 A 
ATOM     40  C   UNL A   1      42.458  22.192  25.778  1.00  0.00     0.134 A 
ATOM     41  C   UNL A   1      42.268  21.956  28.155  1.00  0.00     0.134 A 
ATOM     42  F   UNL A   1      42.748  22.909  24.682  1.00  0.00    -0.206 F 
ATOM     43  C   UNL A   1      41.990  20.888  25.606  1.00  0.00     0.040 A 
ATOM     44  C   UNL A   1      41.818  20.645  27.996  1.00  0.00     0.040 A 
ATOM     45  F   UNL A   1      42.388  22.434  29.403  1.00  0.00    -0.206 F 
ATOM     46  C   UNL A   1      41.674  20.108  26.718  1.00  0.00     0.006 A 
ENDBRANCH  25  39
BRANCH  26  47
ATOM     47  C   UNL A   1      45.829  32.048  28.607  1.00  0.00     0.057 A 
ATOM     48  C   UNL A   1      45.839  32.974  27.559  1.00  0.00     0.134 A 
ATOM     49  C   UNL A   1      46.271  32.485  29.862  1.00  0.00     0.134 A 
ATOM     50  F   UNL A   1      45.445  32.608  26.331  1.00  0.00    -0.206 F 
ATOM     51  C   UNL A   1      46.278  34.285  27.747  1.00  0.00     0.040 A 
ATOM     52  C   UNL A   1      46.690  33.800  30.071  1.00  0.00     0.040 A 
ATOM     53  F   UNL A   1      46.278  31.645  30.908  1.00  0.00    -0.206 F 
ATOM     54  C   UNL A   1      46.699  34.703  29.009  1.00  0.00     0.006 A 
ENDBRANCH  26  47
BRANCH  38  55
ATOM     55  C   UNL A   1      48.980  26.104  26.873  1.00  0.00     0.057 A 
ATOM     56  C   UNL A   1      49.553  26.276  25.607  1.00  0.00     0.134 A 
ATOM     57  C   UNL A   1      49.798  25.614  27.897  1.00  0.00     0.134 A 
ATOM     58  F   UNL A   1      48.815  26.728  24.583  1.00  0.00    -0.206 F 
ATOM     59  C   UNL A   1      50.890  25.956  25.364  1.00  0.00     0.040 A 
ATOM     60  C   UNL A   1      51.141  25.307  27.670  1.00  0.00     0.040 A 
ATOM     61  F   UNL A   1      49.308  25.429  29.132  1.00  0.00    -0.206 F 
ATOM     62  C   UNL A   1      51.688  25.474  26.399  1.00  0.00     0.006 A 
ENDBRANCH  38  55
ENDBRANCH  12  13
ENDBRANCH   5   7
ENDBRANCH   2   3
ENDBRANCH   1   2
BRANCH   1  63
ATOM     63  C   UNL A   1      32.059  29.609  25.916  1.00  0.00     0.117 C 
BRANCH  63  64
ATOM     64  N   UNL A   1      32.841  29.442  24.708  1.00  0.00    -0.354 N 
ATOM     65  C   UNL A   1      32.928  28.407  23.834  1.00  0.00     0.243 C 
ATOM     66  H   UNL A   1      33.408  30.213  24.481  1.00  0.00     0.163 HD
ATOM     67  O   UNL A   1      33.984  28.331  23.193  1.00  0.00    -0.273 OA
BRANCH  65  68
ATOM     68  C   UNL A   1      31.859  27.302  23.669  1.00  0.00     0.185 C 
BRANCH  68  69
ATOM     69  C   UNL A   1      30.745  27.829  22.700  1.00  0.00     0.071 C 
BRANCH  69  70
ATOM     70  C   UNL A   1      29.604  28.779  23.051  1.00  0.00    -0.045 A 
ATOM     71  C   UNL A   1      29.713  30.160  23.269  1.00  0.00     0.004 A 
ATOM     72  C   UNL A   1      28.302  28.243  23.048  1.00  0.00     0.004 A 
ATOM     73  C   UNL A   1      28.589  30.966  23.496  1.00  0.00     0.000 A 
ATOM     74  C   UNL A   1      27.175  29.042  23.277  1.00  0.00     0.000 A 
ATOM     75  C   UNL A   1      27.319  30.405  23.501  1.00  0.00     0.000 A 
ENDBRANCH  69  70
ENDBRANCH  68  69
BRANCH  68  76
ATOM     76  N   UNL A   1      32.356  25.920  23.506  1.00  0.00    -0.280 N 
ATOM     77  C   UNL A   1      33.039  25.328  24.544  1.00  0.00     0.266 C 
ATOM     78  C   UNL A   1      32.666  25.325  22.292  1.00  0.00     0.149 C 
ATOM     79  O   UNL A   1      33.490  25.873  25.546  1.00  0.00    -0.268 OA
ATOM     80  C   UNL A   1      33.294  23.908  24.248  1.00  0.00     0.081 C 
ATOM     81  S   UNL A   1      33.263  23.677  22.561  1.00  0.00    -0.054 SA
ATOM     82  S   UNL A   1      32.563  25.940  20.745  1.00  0.00    -0.052 S 
ATOM     83  C   UNL A   1      33.512  23.044  25.242  1.00  0.00     0.029 C 
BRANCH  83  84
ATOM     84  C   UNL A   1      33.991  21.680  25.073  1.00  0.00    -0.024 A 
ATOM     85  C   UNL A   1      35.323  21.306  25.227  1.00  0.00     0.010 A 
ATOM     86  C   UNL A   1      33.040  20.727  24.708  1.00  0.00     0.018 A 
ATOM     87  C   UNL A   1      35.692  19.974  25.000  1.00  0.00     0.029 A 
ATOM     88  C   UNL A   1      33.417  19.400  24.483  1.00  0.00     0.001 A 
ATOM     89  C   UNL A   1      34.763  19.006  24.626  1.00  0.00     0.070 A 
ATOM     90  C   UNL A   1      32.469  18.446  24.107  1.00  0.00     0.012 A 
ATOM     91  N   UNL A   1      35.154  17.740  24.403  1.00  0.00    -0.256 NA
ATOM     92  C   UNL A   1      32.871  17.141  23.876  1.00  0.00     0.021 A 
ATOM     93  C   UNL A   1      34.212  16.841  24.035  1.00  0.00     0.112 A 
ENDBRANCH  83  84
ENDBRANCH  68  76
ENDBRANCH  65  68
ENDBRANCH  63  64
ENDBRANCH   1  63
TORSDOF 14
ENDMDL
MODEL 3
REMARK VINA RESULT:     -13.4      3.752      7.481
REMARK SMILES O=C(NCCCNC(=O)[C@@H](Cc1ccccc1)N1C(=O)/C(=C/c2ccc3ncccc3c2)SC1=S)c1ccc(-c2c3nc(c(-c4c(F)cccc4F)c4ccc([nH]4)c(-c4c(F)cccc4F)c4nc(c(-c5c(F)cccc5F)c5ccc2[nH]5)C=C4)C=C3)cc1
REMARK SMILES IDX 5 1 4 2 3 3 1 4 2 5 36 7 37 8 89 9 38 10 88 11 39 12 40 13
REMARK SMILES IDX 41 14 82 15 42 16 87 17 81 18 83 19 43 20 86 21 80 22 79 23
REMARK SMILES IDX 44 25 70 26 53 27 69 28 54 29 57 30 68 31 84 32 55 33 56 34
REMARK SMILES IDX 67 36 85 37 58 38 45 39 46 40 51 41 47 42 48 43 50 44 52 45
REMARK SMILES IDX 49 46 71 47 72 48 77 49 73 50 74 51 76 52 78 53 75 54 59 55
REMARK SMILES IDX 60 56 65 57 61 58 62 59 64 60 66 61 63 62 6 63 7 64 8 65
REMARK SMILES IDX 9 67 10 68 11 69 12 70 13 71 17 72 14 73 16 74 15 75 18 76
REMARK SMILES IDX 19 77 34 78 20 79 21 80 33 81 35 82 22 83 23 84 24 85 32 86
REMARK SMILES IDX 25 87 31 88 26 89 30 90 27 91 29 92 28 93
REMARK H PARENT 3 6 83 24 57 35 7 66
REMARK Flexibility Score: inf
ROOT
ATOM      1  C   UNL A   1      36.969  19.939  25.108  1.00  0.00     0.042 C 
ENDROOT
BRANCH   1   2
ATOM      2  C   UNL A   1      38.357  20.544  24.987  1.00  0.00     0.118 C 
BRANCH   2   3
ATOM      3  N   UNL A   1      39.410  19.614  25.362  1.00  0.00    -0.352 N 
ATOM      4  O   UNL A   1      41.373  18.760  25.957  1.00  0.00    -0.269 OA
ATOM      5  C   UNL A   1      40.651  19.758  25.935  1.00  0.00     0.251 C 
ATOM      6  H   UNL A   1      39.186  18.676  25.161  1.00  0.00     0.163 HD
BRANCH   5   7
ATOM      7  C   UNL A   1      41.174  21.029  26.516  1.00  0.00     0.039 A 
ATOM      8  C   UNL A   1      41.603  22.112  25.754  1.00  0.00     0.014 A 
ATOM      9  C   UNL A   1      41.129  21.186  27.913  1.00  0.00     0.014 A 
ATOM     10  C   UNL A   1      42.116  23.259  26.364  1.00  0.00     0.010 A 
ATOM     11  C   UNL A   1      41.526  22.387  28.523  1.00  0.00     0.010 A 
ATOM     12  C   UNL A   1      42.047  23.432  27.753  1.00  0.00    -0.014 A 
BRANCH  12  13
ATOM     13  C   UNL A   1      42.441  24.746  28.335  1.00  0.00     0.031 A 
ATOM     14  C   UNL A   1      43.879  25.091  28.612  1.00  0.00     0.074 A 
ATOM     15  C   UNL A   1      41.480  25.665  28.568  1.00  0.00     0.049 A 
ATOM     16  N   UNL A   1      44.385  26.221  29.041  1.00  0.00    -0.248 NA
ATOM     17  C   UNL A   1      44.877  24.034  28.393  1.00  0.00     0.031 C 
ATOM     18  C   UNL A   1      40.042  25.448  28.381  1.00  0.00     0.029 A 
ATOM     19  N   UNL A   1      41.564  26.976  28.970  1.00  0.00    -0.354 N 
ATOM     20  C   UNL A   1      45.751  26.007  29.166  1.00  0.00     0.074 A 
ATOM     21  C   UNL A   1      45.995  24.630  28.787  1.00  0.00     0.031 C 
ATOM     22  C   UNL A   1      39.391  26.601  28.584  1.00  0.00     0.029 A 
ATOM     23  C   UNL A   1      40.352  27.625  28.976  1.00  0.00     0.049 A 
ATOM     24  H   UNL A   1      42.410  27.408  29.229  1.00  0.00     0.167 HD
ATOM     25  C   UNL A   1      46.713  26.878  29.553  1.00  0.00     0.037 A 
ATOM     26  C   UNL A   1      40.042  28.903  29.262  1.00  0.00     0.037 A 
ATOM     27  C   UNL A   1      46.480  28.255  29.902  1.00  0.00     0.049 A 
ATOM     28  C   UNL A   1      41.131  29.852  29.660  1.00  0.00     0.074 A 
ATOM     29  C   UNL A   1      47.403  29.221  30.268  1.00  0.00     0.029 A 
ATOM     30  N   UNL A   1      45.236  28.866  29.922  1.00  0.00    -0.354 N 
ATOM     31  N   UNL A   1      42.420  29.636  29.745  1.00  0.00    -0.248 NA
ATOM     32  C   UNL A   1      40.723  31.219  30.014  1.00  0.00     0.031 C 
ATOM     33  C   UNL A   1      46.714  30.408  30.538  1.00  0.00     0.029 A 
ATOM     34  C   UNL A   1      45.365  30.190  30.309  1.00  0.00     0.049 A 
ATOM     35  H   UNL A   1      44.386  28.425  29.695  1.00  0.00     0.167 HD
ATOM     36  C   UNL A   1      42.978  30.835  30.165  1.00  0.00     0.074 A 
ATOM     37  C   UNL A   1      41.890  31.785  30.287  1.00  0.00     0.031 C 
ATOM     38  C   UNL A   1      44.274  31.120  30.435  1.00  0.00     0.037 A 
BRANCH  25  39
ATOM     39  C   UNL A   1      48.121  26.364  29.629  1.00  0.00     0.057 A 
ATOM     40  C   UNL A   1      48.628  25.769  30.790  1.00  0.00     0.134 A 
ATOM     41  C   UNL A   1      48.960  26.419  28.509  1.00  0.00     0.134 A 
ATOM     42  F   UNL A   1      47.878  25.696  31.900  1.00  0.00    -0.206 F 
ATOM     43  C   UNL A   1      49.927  25.259  30.840  1.00  0.00     0.040 A 
ATOM     44  C   UNL A   1      50.254  25.895  28.541  1.00  0.00     0.040 A 
ATOM     45  F   UNL A   1      48.533  26.970  27.363  1.00  0.00    -0.206 F 
ATOM     46  C   UNL A   1      50.743  25.316  29.710  1.00  0.00     0.006 A 
ENDBRANCH  25  39
BRANCH  26  47
ATOM     47  C   UNL A   1      38.632  29.358  29.172  1.00  0.00     0.057 A 
ATOM     48  C   UNL A   1      37.815  29.403  30.307  1.00  0.00     0.134 A 
ATOM     49  C   UNL A   1      38.077  29.774  27.957  1.00  0.00     0.134 A 
ATOM     50  F   UNL A   1      38.286  28.999  31.495  1.00  0.00    -0.206 F 
ATOM     51  C   UNL A   1      36.491  29.839  30.235  1.00  0.00     0.040 A 
ATOM     52  C   UNL A   1      36.762  30.235  27.874  1.00  0.00     0.040 A 
ATOM     53  F   UNL A   1      38.814  29.760  26.836  1.00  0.00    -0.206 F 
ATOM     54  C   UNL A   1      35.964  30.264  29.016  1.00  0.00     0.006 A 
ENDBRANCH  26  47
BRANCH  38  55
ATOM     55  C   UNL A   1      44.578  32.514  30.890  1.00  0.00     0.057 A 
ATOM     56  C   UNL A   1      44.599  32.850  32.249  1.00  0.00     0.134 A 
ATOM     57  C   UNL A   1      44.867  33.523  29.965  1.00  0.00     0.134 A 
ATOM     58  F   UNL A   1      44.315  31.928  33.182  1.00  0.00    -0.206 F 
ATOM     59  C   UNL A   1      44.879  34.150  32.673  1.00  0.00     0.040 A 
ATOM     60  C   UNL A   1      45.166  34.822  30.378  1.00  0.00     0.040 A 
ATOM     61  F   UNL A   1      44.865  33.263  28.650  1.00  0.00    -0.206 F 
ATOM     62  C   UNL A   1      45.167  35.139  31.735  1.00  0.00     0.006 A 
ENDBRANCH  38  55
ENDBRANCH  12  13
ENDBRANCH   5   7
ENDBRANCH   2   3
ENDBRANCH   1   2
BRANCH   1  63
ATOM     63  C   UNL A   1      35.829  20.912  24.806  1.00  0.00     0.117 C 
BRANCH  63  64
ATOM     64  N   UNL A   1      35.068  21.152  26.016  1.00  0.00    -0.354 N 
ATOM     65  C   UNL A   1      33.878  21.771  26.217  1.00  0.00     0.243 C 
ATOM     66  H   UNL A   1      35.490  20.807  26.836  1.00  0.00     0.163 HD
ATOM     67  O   UNL A   1      33.702  22.249  27.345  1.00  0.00    -0.273 OA
BRANCH  65  68
ATOM     68  C   UNL A   1      32.803  21.988  25.126  1.00  0.00     0.185 C 
BRANCH  68  69
ATOM     69  C   UNL A   1      31.973  20.667  24.976  1.00  0.00     0.071 C 
BRANCH  69  70
ATOM     70  C   UNL A   1      32.511  19.286  24.617  1.00  0.00    -0.045 A 
ATOM     71  C   UNL A   1      32.864  18.273  25.519  1.00  0.00     0.004 A 
ATOM     72  C   UNL A   1      32.556  18.953  23.249  1.00  0.00     0.004 A 
ATOM     73  C   UNL A   1      33.263  17.001  25.088  1.00  0.00     0.000 A 
ATOM     74  C   UNL A   1      32.956  17.685  22.811  1.00  0.00     0.000 A 
ATOM     75  C   UNL A   1      33.311  16.707  23.732  1.00  0.00     0.000 A 
ENDBRANCH  69  70
ENDBRANCH  68  69
BRANCH  68  76
ATOM     76  N   UNL A   1      32.093  23.284  25.145  1.00  0.00    -0.280 N 
ATOM     77  C   UNL A   1      32.779  24.428  24.809  1.00  0.00     0.266 C 
ATOM     78  C   UNL A   1      30.984  23.570  25.928  1.00  0.00     0.149 C 
ATOM     79  O   UNL A   1      33.993  24.562  24.689  1.00  0.00    -0.268 OA
ATOM     80  C   UNL A   1      31.858  25.574  24.725  1.00  0.00     0.081 C 
ATOM     81  S   UNL A   1      30.478  25.250  25.669  1.00  0.00    -0.054 SA
ATOM     82  S   UNL A   1      30.157  22.599  27.004  1.00  0.00    -0.052 S 
ATOM     83  C   UNL A   1      32.182  26.644  23.995  1.00  0.00     0.029 C 
BRANCH  83  84
ATOM     84  C   UNL A   1      31.470  27.913  24.012  1.00  0.00    -0.024 A 
ATOM     85  C   UNL A   1      31.821  28.983  24.829  1.00  0.00     0.010 A 
ATOM     86  C   UNL A   1      30.363  28.018  23.169  1.00  0.00     0.018 A 
ATOM     87  C   UNL A   1      31.046  30.150  24.803  1.00  0.00     0.029 A 
ATOM     88  C   UNL A   1      29.595  29.184  23.150  1.00  0.00     0.001 A 
ATOM     89  C   UNL A   1      29.931  30.274  23.979  1.00  0.00     0.070 A 
ATOM     90  C   UNL A   1      28.479  29.287  22.317  1.00  0.00     0.012 A 
ATOM     91  N   UNL A   1      29.201  31.403  23.989  1.00  0.00    -0.256 NA
ATOM     92  C   UNL A   1      27.726  30.449  22.327  1.00  0.00     0.021 A 
ATOM     93  C   UNL A   1      28.123  31.469  23.173  1.00  0.00     0.112 A 
ENDBRANCH  83  84
ENDBRANCH  68  76
ENDBRANCH  65  68
ENDBRANCH  63  64
ENDBRANCH   1  63
TORSDOF 14
ENDMDL
