MODEL 1
REMARK VINA RESULT:     -13.0      0.000      0.000
REMARK SMILES Cc1ccc([C@H](C)Nc2ccc(C(=O)NCCCNC(=O)c3ccc(-c4c5nc(c(-c6c(F)cccc6F)c6ccc([nH]6)c(-c6c(F)cccc6F)c6nc(c(-c7c(F)cccc7F)c7ccc4[nH]7)C=C6)C=C5)cc3)cc2Cl)cc1F
REMARK SMILES IDX 16 1 15 2 13 3 14 4 12 6 9 7 10 8 77 9 11 10 76 11 78 12
REMARK SMILES IDX 8 13 6 15 7 16 5 17 1 18 2 19 3 20 80 21 4 22 79 23 81 24
REMARK SMILES IDX 17 25 18 26 19 27 20 28 21 30 22 31 23 32 75 33 24 34 74 35
REMARK SMILES IDX 25 36 26 37 27 38 68 39 28 40 73 41 67 42 69 43 29 44 72 45
REMARK SMILES IDX 66 46 65 47 30 49 56 50 39 51 55 52 40 53 43 54 54 55 70 56
REMARK SMILES IDX 41 57 42 58 53 60 71 61 44 62 31 63 32 64 37 65 33 66 34 67
REMARK SMILES IDX 36 68 38 69 35 70 57 71 58 72 63 73 59 74 60 75 62 76 64 77
REMARK SMILES IDX 61 78 45 79 46 80 51 81 47 82 48 83 50 84 52 85 49 86
REMARK H PARENT 15 5 8 14 19 29 69 48 43 59
REMARK Flexibility Score: inf
ROOT
ATOM      1  C   UNL A   1      35.572  21.739  26.000  1.00  0.00     0.118 C 
ENDROOT
BRANCH   1   2
ATOM      2  N   UNL A   1      34.999  20.556  25.368  1.00  0.00    -0.352 N 
ATOM      3  C   UNL A   1      33.808  20.360  24.701  1.00  0.00     0.251 C 
ATOM      4  O   UNL A   1      33.598  19.253  24.206  1.00  0.00    -0.269 OA
ATOM      5  H   UNL A   1      35.565  19.752  25.429  1.00  0.00     0.163 HD
BRANCH   3   6
ATOM      6  C   UNL A   1      32.793  21.439  24.526  1.00  0.00     0.041 A 
ATOM      7  C   UNL A   1      30.913  23.578  24.238  1.00  0.00     0.053 A 
ATOM      8  C   UNL A   1      31.786  23.192  23.195  1.00  0.00     0.028 A 
ATOM      9  C   UNL A   1      31.033  22.873  25.434  1.00  0.00     0.065 A 
ATOM     10  C   UNL A   1      32.732  22.160  23.341  1.00  0.00     0.016 A 
ATOM     11  C   UNL A   1      31.883  21.779  25.510  1.00  0.00     0.036 A 
ATOM     12  Cl  UNL A   1      30.198  23.174  26.924  1.00  0.00    -0.082 Cl
BRANCH   7  13
ATOM     13  N   UNL A   1      30.051  24.625  23.988  1.00  0.00    -0.377 N 
ATOM     14  H   UNL A   1      29.088  24.424  24.033  1.00  0.00     0.161 HD
BRANCH  13  15
ATOM     15  C   UNL A   1      30.417  25.997  23.665  1.00  0.00     0.106 C 
ATOM     16  C   UNL A   1      29.096  26.763  23.499  1.00  0.00     0.036 C 
BRANCH  15  17
ATOM     17  C   UNL A   1      31.427  26.533  24.677  1.00  0.00    -0.023 A 
ATOM     18  C   UNL A   1      34.081  28.795  27.268  1.00  0.00     0.047 C 
ATOM     19  C   UNL A   1      33.189  27.959  26.404  1.00  0.00    -0.015 A 
ATOM     20  C   UNL A   1      32.007  27.394  26.892  1.00  0.00     0.007 A 
ATOM     21  C   UNL A   1      33.502  27.770  25.065  1.00  0.00     0.126 A 
ATOM     22  C   UNL A   1      31.136  26.697  26.038  1.00  0.00     0.006 A 
ATOM     23  C   UNL A   1      32.661  27.045  24.227  1.00  0.00     0.045 A 
ATOM     24  F   UNL A   1      34.612  28.319  24.551  1.00  0.00    -0.207 F 
ENDBRANCH  15  17
ENDBRANCH  13  15
ENDBRANCH   7  13
ENDBRANCH   3   6
ENDBRANCH   1   2
BRANCH   1  25
ATOM     25  C   UNL A   1      36.272  22.646  24.970  1.00  0.00     0.042 C 
BRANCH  25  26
ATOM     26  C   UNL A   1      37.376  23.439  25.596  1.00  0.00     0.118 C 
BRANCH  26  27
ATOM     27  N   UNL A   1      38.421  22.573  26.136  1.00  0.00    -0.352 N 
ATOM     28  C   UNL A   1      39.620  22.968  26.693  1.00  0.00     0.251 C 
ATOM     29  H   UNL A   1      38.252  21.603  26.099  1.00  0.00     0.163 HD
ATOM     30  O   UNL A   1      40.534  22.180  26.882  1.00  0.00    -0.269 OA
BRANCH  28  31
ATOM     31  C   UNL A   1      39.750  24.378  27.079  1.00  0.00     0.039 A 
ATOM     32  C   UNL A   1      40.305  25.342  26.231  1.00  0.00     0.014 A 
ATOM     33  C   UNL A   1      39.305  24.715  28.351  1.00  0.00     0.014 A 
ATOM     34  C   UNL A   1      40.423  26.651  26.694  1.00  0.00     0.010 A 
ATOM     35  C   UNL A   1      39.167  26.021  28.691  1.00  0.00     0.010 A 
ATOM     36  C   UNL A   1      39.865  26.961  27.937  1.00  0.00    -0.014 A 
BRANCH  36  37
ATOM     37  C   UNL A   1      40.098  28.171  28.699  1.00  0.00     0.031 A 
ATOM     38  C   UNL A   1      39.097  29.229  28.766  1.00  0.00     0.074 A 
ATOM     39  C   UNL A   1      41.151  28.088  29.543  1.00  0.00     0.049 A 
ATOM     40  N   UNL A   1      39.340  30.417  29.185  1.00  0.00    -0.248 NA
ATOM     41  C   UNL A   1      37.712  29.021  28.368  1.00  0.00     0.031 C 
ATOM     42  C   UNL A   1      41.477  28.859  30.728  1.00  0.00     0.029 A 
ATOM     43  N   UNL A   1      42.247  27.224  29.394  1.00  0.00    -0.354 N 
ATOM     44  C   UNL A   1      38.126  31.012  29.443  1.00  0.00     0.074 A 
ATOM     45  C   UNL A   1      37.151  30.154  28.807  1.00  0.00     0.031 C 
ATOM     46  C   UNL A   1      42.780  28.667  31.015  1.00  0.00     0.029 A 
ATOM     47  C   UNL A   1      43.355  27.891  29.922  1.00  0.00     0.049 A 
ATOM     48  H   UNL A   1      42.236  26.324  28.995  1.00  0.00     0.167 HD
ATOM     49  C   UNL A   1      38.093  32.059  30.319  1.00  0.00     0.037 A 
ATOM     50  C   UNL A   1      44.299  28.333  29.038  1.00  0.00     0.037 A 
ATOM     51  C   UNL A   1      39.453  32.372  30.783  1.00  0.00     0.049 A 
ATOM     52  C   UNL A   1      44.329  29.842  28.980  1.00  0.00     0.074 A 
ATOM     53  C   UNL A   1      40.145  32.036  31.937  1.00  0.00     0.029 A 
ATOM     54  N   UNL A   1      40.415  32.785  29.863  1.00  0.00    -0.354 N 
ATOM     55  N   UNL A   1      43.321  30.610  29.296  1.00  0.00    -0.248 NA
ATOM     56  C   UNL A   1      45.524  30.600  28.632  1.00  0.00     0.031 C 
ATOM     57  C   UNL A   1      41.536  32.162  31.670  1.00  0.00     0.029 A 
ATOM     58  C   UNL A   1      41.691  32.596  30.363  1.00  0.00     0.049 A 
ATOM     59  H   UNL A   1      40.214  33.160  28.975  1.00  0.00     0.167 HD
ATOM     60  C   UNL A   1      43.708  31.922  29.249  1.00  0.00     0.074 A 
ATOM     61  C   UNL A   1      45.098  31.861  28.828  1.00  0.00     0.031 C 
ATOM     62  C   UNL A   1      42.865  32.950  29.572  1.00  0.00     0.037 A 
BRANCH  49  63
ATOM     63  C   UNL A   1      36.830  32.560  30.992  1.00  0.00     0.057 A 
ATOM     64  C   UNL A   1      36.092  33.632  30.449  1.00  0.00     0.134 A 
ATOM     65  C   UNL A   1      36.303  32.060  32.197  1.00  0.00     0.134 A 
ATOM     66  F   UNL A   1      36.392  34.163  29.257  1.00  0.00    -0.206 F 
ATOM     67  C   UNL A   1      34.997  34.221  31.100  1.00  0.00     0.040 A 
ATOM     68  C   UNL A   1      35.241  32.669  32.884  1.00  0.00     0.040 A 
ATOM     69  F   UNL A   1      36.747  30.918  32.736  1.00  0.00    -0.206 F 
ATOM     70  C   UNL A   1      34.588  33.762  32.340  1.00  0.00     0.006 A 
ENDBRANCH  49  63
BRANCH  50  71
ATOM     71  C   UNL A   1      44.470  27.390  27.883  1.00  0.00     0.057 A 
ATOM     72  C   UNL A   1      43.943  27.781  26.633  1.00  0.00     0.134 A 
ATOM     73  C   UNL A   1      45.471  26.411  27.857  1.00  0.00     0.134 A 
ATOM     74  F   UNL A   1      42.983  28.718  26.574  1.00  0.00    -0.206 F 
ATOM     75  C   UNL A   1      44.478  27.332  25.420  1.00  0.00     0.040 A 
ATOM     76  C   UNL A   1      46.003  25.940  26.645  1.00  0.00     0.040 A 
ATOM     77  F   UNL A   1      46.038  25.983  28.994  1.00  0.00    -0.206 F 
ATOM     78  C   UNL A   1      45.540  26.435  25.425  1.00  0.00     0.006 A 
ENDBRANCH  50  71
BRANCH  62  79
ATOM     79  C   UNL A   1      43.098  34.408  29.248  1.00  0.00     0.057 A 
ATOM     80  C   UNL A   1      43.199  35.422  30.211  1.00  0.00     0.134 A 
ATOM     81  C   UNL A   1      43.409  34.809  27.928  1.00  0.00     0.134 A 
ATOM     82  F   UNL A   1      43.052  35.174  31.518  1.00  0.00    -0.206 F 
ATOM     83  C   UNL A   1      43.526  36.743  29.881  1.00  0.00     0.040 A 
ATOM     84  C   UNL A   1      43.807  36.106  27.598  1.00  0.00     0.040 A 
ATOM     85  F   UNL A   1      43.375  33.952  26.897  1.00  0.00    -0.206 F 
ATOM     86  C   UNL A   1      43.851  37.085  28.576  1.00  0.00     0.006 A 
ENDBRANCH  62  79
ENDBRANCH  36  37
ENDBRANCH  28  31
ENDBRANCH  26  27
ENDBRANCH  25  26
ENDBRANCH   1  25
TORSDOF 13
ENDMDL
MODEL 2
REMARK VINA RESULT:     -12.9      3.449      8.312
REMARK SMILES Cc1ccc([C@H](C)Nc2ccc(C(=O)NCCCNC(=O)c3ccc(-c4c5nc(c(-c6c(F)cccc6F)c6ccc([nH]6)c(-c6c(F)cccc6F)c6nc(c(-c7c(F)cccc7F)c7ccc4[nH]7)C=C6)C=C5)cc3)cc2Cl)cc1F
REMARK SMILES IDX 16 1 15 2 13 3 14 4 12 6 9 7 10 8 77 9 11 10 76 11 78 12
REMARK SMILES IDX 8 13 6 15 7 16 5 17 1 18 2 19 3 20 80 21 4 22 79 23 81 24
REMARK SMILES IDX 17 25 18 26 19 27 20 28 21 30 22 31 23 32 75 33 24 34 74 35
REMARK SMILES IDX 25 36 26 37 27 38 68 39 28 40 73 41 67 42 69 43 29 44 72 45
REMARK SMILES IDX 66 46 65 47 30 49 56 50 39 51 55 52 40 53 43 54 54 55 70 56
REMARK SMILES IDX 41 57 42 58 53 60 71 61 44 62 31 63 32 64 37 65 33 66 34 67
REMARK SMILES IDX 36 68 38 69 35 70 57 71 58 72 63 73 59 74 60 75 62 76 64 77
REMARK SMILES IDX 61 78 45 79 46 80 51 81 47 82 48 83 50 84 52 85 49 86
REMARK H PARENT 15 5 8 14 19 29 69 48 43 59
REMARK Flexibility Score: inf
ROOT
ATOM      1  C   UNL A   1      32.813  29.283  25.261  1.00  0.00     0.118 C 
ENDROOT
BRANCH   1   2
ATOM      2  N   UNL A   1      31.550  29.703  24.664  1.00  0.00    -0.352 N 
ATOM      3  C   UNL A   1      30.614  29.013  23.923  1.00  0.00     0.251 C 
ATOM      4  O   UNL A   1      29.590  29.608  23.587  1.00  0.00    -0.269 OA
ATOM      5  H   UNL A   1      31.325  30.649  24.819  1.00  0.00     0.163 HD
BRANCH   3   6
ATOM      6  C   UNL A   1      30.779  27.579  23.547  1.00  0.00     0.041 A 
ATOM      7  C   UNL A   1      31.190  24.828  22.872  1.00  0.00     0.053 A 
ATOM      8  C   UNL A   1      30.469  25.226  24.021  1.00  0.00     0.028 A 
ATOM      9  C   UNL A   1      31.717  25.855  22.090  1.00  0.00     0.065 A 
ATOM     10  C   UNL A   1      30.288  26.576  24.373  1.00  0.00     0.016 A 
ATOM     11  C   UNL A   1      31.417  27.175  22.389  1.00  0.00     0.036 A 
ATOM     12  Cl  UNL A   1      32.736  25.700  20.695  1.00  0.00    -0.082 Cl
BRANCH   7  13
ATOM     13  N   UNL A   1      31.329  23.475  22.648  1.00  0.00    -0.377 N 
ATOM     14  H   UNL A   1      30.956  23.127  21.806  1.00  0.00     0.161 HD
BRANCH  13  15
ATOM     15  C   UNL A   1      31.971  22.507  23.527  1.00  0.00     0.106 C 
ATOM     16  C   UNL A   1      31.947  21.167  22.777  1.00  0.00     0.036 C 
BRANCH  15  17
ATOM     17  C   UNL A   1      33.324  23.031  24.002  1.00  0.00    -0.023 A 
ATOM     18  C   UNL A   1      37.324  23.739  25.543  1.00  0.00     0.047 C 
ATOM     19  C   UNL A   1      35.941  23.561  24.998  1.00  0.00    -0.015 A 
ATOM     20  C   UNL A   1      35.684  23.553  23.624  1.00  0.00     0.007 A 
ATOM     21  C   UNL A   1      34.878  23.346  25.865  1.00  0.00     0.126 A 
ATOM     22  C   UNL A   1      34.395  23.285  23.134  1.00  0.00     0.006 A 
ATOM     23  C   UNL A   1      33.594  23.121  25.382  1.00  0.00     0.045 A 
ATOM     24  F   UNL A   1      35.087  23.317  27.189  1.00  0.00    -0.207 F 
ENDBRANCH  15  17
ENDBRANCH  13  15
ENDBRANCH   7  13
ENDBRANCH   3   6
ENDBRANCH   1   2
BRANCH   1  25
ATOM     25  C   UNL A   1      32.621  28.815  26.716  1.00  0.00     0.042 C 
BRANCH  25  26
ATOM     26  C   UNL A   1      33.836  29.088  27.547  1.00  0.00     0.118 C 
BRANCH  26  27
ATOM     27  N   UNL A   1      33.998  30.517  27.807  1.00  0.00    -0.352 N 
ATOM     28  C   UNL A   1      35.012  31.120  28.522  1.00  0.00     0.251 C 
ATOM     29  H   UNL A   1      33.310  31.114  27.432  1.00  0.00     0.163 HD
ATOM     30  O   UNL A   1      34.934  32.278  28.903  1.00  0.00    -0.269 OA
BRANCH  28  31
ATOM     31  C   UNL A   1      36.215  30.321  28.788  1.00  0.00     0.039 A 
ATOM     32  C   UNL A   1      36.399  29.612  29.980  1.00  0.00     0.014 A 
ATOM     33  C   UNL A   1      37.185  30.311  27.794  1.00  0.00     0.014 A 
ATOM     34  C   UNL A   1      37.588  28.909  30.163  1.00  0.00     0.010 A 
ATOM     35  C   UNL A   1      38.202  29.417  27.855  1.00  0.00     0.010 A 
ATOM     36  C   UNL A   1      38.483  28.844  29.093  1.00  0.00    -0.014 A 
BRANCH  36  37
ATOM     37  C   UNL A   1      39.859  28.393  29.158  1.00  0.00     0.031 A 
ATOM     38  C   UNL A   1      40.241  27.058  28.715  1.00  0.00     0.074 A 
ATOM     39  C   UNL A   1      40.748  29.390  29.370  1.00  0.00     0.049 A 
ATOM     40  N   UNL A   1      41.366  26.507  28.993  1.00  0.00    -0.248 NA
ATOM     41  C   UNL A   1      39.369  26.226  27.897  1.00  0.00     0.031 C 
ATOM     42  C   UNL A   1      42.174  29.459  29.106  1.00  0.00     0.029 A 
ATOM     43  N   UNL A   1      40.464  30.616  29.991  1.00  0.00    -0.354 N 
ATOM     44  C   UNL A   1      41.517  25.440  28.137  1.00  0.00     0.074 A 
ATOM     45  C   UNL A   1      40.204  25.236  27.565  1.00  0.00     0.031 C 
ATOM     46  C   UNL A   1      42.688  30.485  29.811  1.00  0.00     0.029 A 
ATOM     47  C   UNL A   1      41.625  30.998  30.667  1.00  0.00     0.049 A 
ATOM     48  H   UNL A   1      39.612  31.109  29.956  1.00  0.00     0.167 HD
ATOM     49  C   UNL A   1      42.780  24.984  27.888  1.00  0.00     0.037 A 
ATOM     50  C   UNL A   1      41.601  30.940  32.033  1.00  0.00     0.037 A 
ATOM     51  C   UNL A   1      43.756  25.749  28.679  1.00  0.00     0.049 A 
ATOM     52  C   UNL A   1      42.524  29.863  32.551  1.00  0.00     0.074 A 
ATOM     53  C   UNL A   1      44.582  26.817  28.362  1.00  0.00     0.029 A 
ATOM     54  N   UNL A   1      43.694  25.711  30.072  1.00  0.00    -0.354 N 
ATOM     55  N   UNL A   1      42.893  28.818  31.861  1.00  0.00    -0.248 NA
ATOM     56  C   UNL A   1      43.157  29.922  33.862  1.00  0.00     0.031 C 
ATOM     57  C   UNL A   1      44.939  27.474  29.571  1.00  0.00     0.029 A 
ATOM     58  C   UNL A   1      44.351  26.795  30.625  1.00  0.00     0.049 A 
ATOM     59  H   UNL A   1      43.243  25.006  30.591  1.00  0.00     0.167 HD
ATOM     60  C   UNL A   1      43.819  28.100  32.570  1.00  0.00     0.074 A 
ATOM     61  C   UNL A   1      43.950  28.836  33.816  1.00  0.00     0.031 C 
ATOM     62  C   UNL A   1      44.413  26.973  32.073  1.00  0.00     0.037 A 
BRANCH  49  63
ATOM     63  C   UNL A   1      43.147  24.102  26.711  1.00  0.00     0.057 A 
ATOM     64  C   UNL A   1      42.941  22.708  26.755  1.00  0.00     0.134 A 
ATOM     65  C   UNL A   1      43.740  24.552  25.518  1.00  0.00     0.134 A 
ATOM     66  F   UNL A   1      42.296  22.121  27.771  1.00  0.00    -0.206 F 
ATOM     67  C   UNL A   1      43.384  21.833  25.752  1.00  0.00     0.040 A 
ATOM     68  C   UNL A   1      44.233  23.686  24.529  1.00  0.00     0.040 A 
ATOM     69  F   UNL A   1      43.814  25.854  25.218  1.00  0.00    -0.206 F 
ATOM     70  C   UNL A   1      44.065  22.317  24.648  1.00  0.00     0.006 A 
ENDBRANCH  49  63
BRANCH  50  71
ATOM     71  C   UNL A   1      40.254  31.306  32.586  1.00  0.00     0.057 A 
ATOM     72  C   UNL A   1      39.454  30.265  33.105  1.00  0.00     0.134 A 
ATOM     73  C   UNL A   1      39.949  32.602  33.020  1.00  0.00     0.134 A 
ATOM     74  F   UNL A   1      39.686  28.994  32.740  1.00  0.00    -0.206 F 
ATOM     75  C   UNL A   1      38.501  30.483  34.108  1.00  0.00     0.040 A 
ATOM     76  C   UNL A   1      38.982  32.832  34.013  1.00  0.00     0.040 A 
ATOM     77  F   UNL A   1      40.660  33.653  32.588  1.00  0.00    -0.206 F 
ATOM     78  C   UNL A   1      38.289  31.768  34.592  1.00  0.00     0.006 A 
ENDBRANCH  50  71
BRANCH  62  79
ATOM     79  C   UNL A   1      45.185  25.960  32.886  1.00  0.00     0.057 A 
ATOM     80  C   UNL A   1      46.579  25.811  32.842  1.00  0.00     0.134 A 
ATOM     81  C   UNL A   1      44.540  25.206  33.894  1.00  0.00     0.134 A 
ATOM     82  F   UNL A   1      47.343  26.545  32.024  1.00  0.00    -0.206 F 
ATOM     83  C   UNL A   1      47.270  24.939  33.691  1.00  0.00     0.040 A 
ATOM     84  C   UNL A   1      45.227  24.389  34.794  1.00  0.00     0.040 A 
ATOM     85  F   UNL A   1      43.211  25.252  34.077  1.00  0.00    -0.206 F 
ATOM     86  C   UNL A   1      46.598  24.239  34.684  1.00  0.00     0.006 A 
ENDBRANCH  62  79
ENDBRANCH  36  37
ENDBRANCH  28  31
ENDBRANCH  26  27
ENDBRANCH  25  26
ENDBRANCH   1  25
TORSDOF 13
ENDMDL
MODEL 3
REMARK VINA RESULT:     -12.8      3.470      8.318
REMARK SMILES Cc1ccc([C@H](C)Nc2ccc(C(=O)NCCCNC(=O)c3ccc(-c4c5nc(c(-c6c(F)cccc6F)c6ccc([nH]6)c(-c6c(F)cccc6F)c6nc(c(-c7c(F)cccc7F)c7ccc4[nH]7)C=C6)C=C5)cc3)cc2Cl)cc1F
REMARK SMILES IDX 16 1 15 2 13 3 14 4 12 6 9 7 10 8 77 9 11 10 76 11 78 12
REMARK SMILES IDX 8 13 6 15 7 16 5 17 1 18 2 19 3 20 80 21 4 22 79 23 81 24
REMARK SMILES IDX 17 25 18 26 19 27 20 28 21 30 22 31 23 32 75 33 24 34 74 35
REMARK SMILES IDX 25 36 26 37 27 38 68 39 28 40 73 41 67 42 69 43 29 44 72 45
REMARK SMILES IDX 66 46 65 47 30 49 56 50 39 51 55 52 40 53 43 54 54 55 70 56
REMARK SMILES IDX 41 57 42 58 53 60 71 61 44 62 31 63 32 64 37 65 33 66 34 67
REMARK SMILES IDX 36 68 38 69 35 70 57 71 58 72 63 73 59 74 60 75 62 76 64 77
REMARK SMILES IDX 61 78 45 79 46 80 51 81 47 82 48 83 50 84 52 85 49 86
REMARK H PARENT 15 5 8 14 19 29 69 48 43 59
REMARK Flexibility Score: inf
ROOT
ATOM      1  C   UNL A   1      32.767  29.330  24.762  1.00  0.00     0.118 C 
ENDROOT
BRANCH   1   2
ATOM      2  N   UNL A   1      31.404  29.587  24.312  1.00  0.00    -0.352 N 
ATOM      3  C   UNL A   1      30.461  28.766  23.731  1.00  0.00     0.251 C 
ATOM      4  O   UNL A   1      29.347  29.237  23.501  1.00  0.00    -0.269 OA
ATOM      5  H   UNL A   1      31.102  30.515  24.448  1.00  0.00     0.163 HD
BRANCH   3   6
ATOM      6  C   UNL A   1      30.726  27.334  23.408  1.00  0.00     0.041 A 
ATOM      7  C   UNL A   1      31.329  24.595  22.837  1.00  0.00     0.053 A 
ATOM      8  C   UNL A   1      30.540  24.982  23.945  1.00  0.00     0.028 A 
ATOM      9  C   UNL A   1      31.823  25.628  22.043  1.00  0.00     0.065 A 
ATOM     10  C   UNL A   1      30.264  26.328  24.247  1.00  0.00     0.016 A 
ATOM     11  C   UNL A   1      31.432  26.936  22.288  1.00  0.00     0.036 A 
ATOM     12  Cl  UNL A   1      32.903  25.496  20.692  1.00  0.00    -0.082 Cl
BRANCH   7  13
ATOM     13  N   UNL A   1      31.557  23.247  22.662  1.00  0.00    -0.377 N 
ATOM     14  H   UNL A   1      31.287  22.863  21.796  1.00  0.00     0.161 HD
BRANCH  13  15
ATOM     15  C   UNL A   1      32.158  22.332  23.623  1.00  0.00     0.106 C 
ATOM     16  C   UNL A   1      32.153  20.948  22.957  1.00  0.00     0.036 C 
BRANCH  15  17
ATOM     17  C   UNL A   1      33.497  22.879  24.115  1.00  0.00    -0.023 A 
ATOM     18  C   UNL A   1      37.445  23.659  25.751  1.00  0.00     0.047 C 
ATOM     19  C   UNL A   1      36.080  23.455  25.170  1.00  0.00    -0.015 A 
ATOM     20  C   UNL A   1      35.870  23.376  23.790  1.00  0.00     0.007 A 
ATOM     21  C   UNL A   1      34.989  23.288  26.010  1.00  0.00     0.126 A 
ATOM     22  C   UNL A   1      34.597  23.085  23.271  1.00  0.00     0.006 A 
ATOM     23  C   UNL A   1      33.720  23.040  25.497  1.00  0.00     0.045 A 
ATOM     24  F   UNL A   1      35.152  23.328  27.341  1.00  0.00    -0.207 F 
ENDBRANCH  15  17
ENDBRANCH  13  15
ENDBRANCH   7  13
ENDBRANCH   3   6
ENDBRANCH   1   2
BRANCH   1  25
ATOM     25  C   UNL A   1      32.795  28.834  26.221  1.00  0.00     0.042 C 
BRANCH  25  26
ATOM     26  C   UNL A   1      34.106  29.132  26.878  1.00  0.00     0.118 C 
BRANCH  26  27
ATOM     27  N   UNL A   1      34.243  30.555  27.183  1.00  0.00    -0.352 N 
ATOM     28  C   UNL A   1      35.166  31.137  28.027  1.00  0.00     0.251 C 
ATOM     29  H   UNL A   1      33.609  31.163  26.738  1.00  0.00     0.163 HD
ATOM     30  O   UNL A   1      35.047  32.288  28.417  1.00  0.00    -0.269 OA
BRANCH  28  31
ATOM     31  C   UNL A   1      36.324  30.324  28.421  1.00  0.00     0.039 A 
ATOM     32  C   UNL A   1      36.399  29.674  29.657  1.00  0.00     0.014 A 
ATOM     33  C   UNL A   1      37.363  30.242  27.504  1.00  0.00     0.014 A 
ATOM     34  C   UNL A   1      37.552  28.953  29.963  1.00  0.00     0.010 A 
ATOM     35  C   UNL A   1      38.349  29.328  27.686  1.00  0.00     0.010 A 
ATOM     36  C   UNL A   1      38.522  28.813  28.968  1.00  0.00    -0.014 A 
BRANCH  36  37
ATOM     37  C   UNL A   1      39.876  28.333  29.158  1.00  0.00     0.031 A 
ATOM     38  C   UNL A   1      40.270  26.991  28.747  1.00  0.00     0.074 A 
ATOM     39  C   UNL A   1      40.762  29.311  29.457  1.00  0.00     0.049 A 
ATOM     40  N   UNL A   1      41.354  26.417  29.126  1.00  0.00    -0.248 NA
ATOM     41  C   UNL A   1      39.462  26.180  27.849  1.00  0.00     0.031 C 
ATOM     42  C   UNL A   1      42.207  29.352  29.326  1.00  0.00     0.029 A 
ATOM     43  N   UNL A   1      40.446  30.541  30.054  1.00  0.00    -0.354 N 
ATOM     44  C   UNL A   1      41.562  25.349  28.284  1.00  0.00     0.074 A 
ATOM     45  C   UNL A   1      40.305  25.174  27.591  1.00  0.00     0.031 C 
ATOM     46  C   UNL A   1      42.673  30.366  30.081  1.00  0.00     0.029 A 
ATOM     47  C   UNL A   1      41.546  30.898  30.837  1.00  0.00     0.049 A 
ATOM     48  H   UNL A   1      39.611  31.051  29.942  1.00  0.00     0.167 HD
ATOM     49  C   UNL A   1      42.834  24.869  28.151  1.00  0.00     0.037 A 
ATOM     50  C   UNL A   1      41.394  30.838  32.194  1.00  0.00     0.037 A 
ATOM     51  C   UNL A   1      43.747  25.612  29.033  1.00  0.00     0.049 A 
ATOM     52  C   UNL A   1      42.243  29.740  32.791  1.00  0.00     0.074 A 
ATOM     53  C   UNL A   1      44.620  26.663  28.798  1.00  0.00     0.029 A 
ATOM     54  N   UNL A   1      43.555  25.571  30.413  1.00  0.00    -0.354 N 
ATOM     55  N   UNL A   1      42.654  28.689  32.133  1.00  0.00    -0.248 NA
ATOM     56  C   UNL A   1      42.753  29.783  34.155  1.00  0.00     0.031 C 
ATOM     57  C   UNL A   1      44.877  27.310  30.038  1.00  0.00     0.029 A 
ATOM     58  C   UNL A   1      44.179  26.640  31.030  1.00  0.00     0.049 A 
ATOM     59  H   UNL A   1      43.043  24.875  30.885  1.00  0.00     0.167 HD
ATOM     60  C   UNL A   1      43.495  27.951  32.922  1.00  0.00     0.074 A 
ATOM     61  C   UNL A   1      43.524  28.681  34.179  1.00  0.00     0.031 C 
ATOM     62  C   UNL A   1      44.110  26.813  32.478  1.00  0.00     0.037 A 
BRANCH  49  63
ATOM     63  C   UNL A   1      43.290  23.982  27.010  1.00  0.00     0.057 A 
ATOM     64  C   UNL A   1      43.833  24.534  25.831  1.00  0.00     0.134 A 
ATOM     65  C   UNL A   1      43.190  22.579  26.987  1.00  0.00     0.134 A 
ATOM     66  F   UNL A   1      44.093  25.843  25.720  1.00  0.00    -0.206 F 
ATOM     67  C   UNL A   1      44.145  23.770  24.696  1.00  0.00     0.040 A 
ATOM     68  C   UNL A   1      43.451  21.807  25.843  1.00  0.00     0.040 A 
ATOM     69  F   UNL A   1      42.900  21.878  28.089  1.00  0.00    -0.206 F 
ATOM     70  C   UNL A   1      43.921  22.404  24.686  1.00  0.00     0.006 A 
ENDBRANCH  49  63
BRANCH  50  71
ATOM     71  C   UNL A   1      40.009  31.229  32.621  1.00  0.00     0.057 A 
ATOM     72  C   UNL A   1      39.152  30.208  33.083  1.00  0.00     0.134 A 
ATOM     73  C   UNL A   1      39.686  32.536  33.008  1.00  0.00     0.134 A 
ATOM     74  F   UNL A   1      39.397  28.928  32.759  1.00  0.00    -0.206 F 
ATOM     75  C   UNL A   1      38.118  30.453  33.995  1.00  0.00     0.040 A 
ATOM     76  C   UNL A   1      38.639  32.794  33.908  1.00  0.00     0.040 A 
ATOM     77  F   UNL A   1      40.447  33.570  32.624  1.00  0.00    -0.206 F 
ATOM     78  C   UNL A   1      37.883  31.749  34.440  1.00  0.00     0.006 A 
ENDBRANCH  50  71
BRANCH  62  79
ATOM     79  C   UNL A   1      44.783  25.783  33.355  1.00  0.00     0.057 A 
ATOM     80  C   UNL A   1      44.099  24.920  34.224  1.00  0.00     0.134 A 
ATOM     81  C   UNL A   1      46.163  25.509  33.210  1.00  0.00     0.134 A 
ATOM     82  F   UNL A   1      42.771  24.975  34.376  1.00  0.00    -0.206 F 
ATOM     83  C   UNL A   1      44.746  23.904  34.938  1.00  0.00     0.040 A 
ATOM     84  C   UNL A   1      46.804  24.452  33.861  1.00  0.00     0.040 A 
ATOM     85  F   UNL A   1      46.952  26.233  32.403  1.00  0.00    -0.206 F 
ATOM     86  C   UNL A   1      46.097  23.654  34.744  1.00  0.00     0.006 A 
ENDBRANCH  62  79
ENDBRANCH  36  37
ENDBRANCH  28  31
ENDBRANCH  26  27
ENDBRANCH  25  26
ENDBRANCH   1  25
TORSDOF 13
ENDMDL
