MODEL 1
REMARK VINA RESULT:     -13.1      0.000      0.000
REMARK SMILES O=C(NCCCNC(=O)[C@H]1C[C@](O)(c2ccc(F)cc2)[C@@H](c2ccc(F)cc2)O1)c1ccc(-c2c3nc(c(-c4c(F)cccc4F)c4ccc([nH]4)c(-c4c(F)cccc4F)c4nc(c(-c5c(F)cccc5F)c5ccc2[nH]5)C=C4)C=C3)cc1
REMARK SMILES IDX 4 1 3 2 1 3 2 4 30 6 31 7 83 8 32 9 82 10 33 11 34 12 35 13
REMARK SMILES IDX 76 14 36 15 81 16 75 17 77 18 37 19 80 20 74 21 73 22 38 24
REMARK SMILES IDX 64 25 47 26 63 27 48 28 51 29 62 30 78 31 49 32 50 33 61 35
REMARK SMILES IDX 79 36 52 37 39 38 40 39 45 40 41 41 42 42 44 43 46 44 43 45
REMARK SMILES IDX 65 46 66 47 71 48 67 49 68 50 70 51 72 52 69 53 53 54 54 55
REMARK SMILES IDX 59 56 55 57 56 58 58 59 60 60 57 61 5 62 6 63 7 64 8 65 9 67
REMARK SMILES IDX 10 68 11 69 29 70 12 71 21 72 14 73 15 74 20 75 16 76 19 77
REMARK SMILES IDX 17 78 18 79 13 80 22 82 23 83 28 84 24 85 27 86 25 87 26 88
REMARK H PARENT 3 5 77 23 51 34 7 66 13 81
REMARK Flexibility Score: inf
ROOT
ATOM      1  C   UNL A   1      42.237  21.790  26.480  1.00  0.00     0.118 C 
ENDROOT
BRANCH   1   2
ATOM      2  N   UNL A   1      43.071  22.542  25.551  1.00  0.00    -0.352 N 
ATOM      3  O   UNL A   1      43.988  24.314  24.516  1.00  0.00    -0.269 OA
ATOM      4  C   UNL A   1      43.376  23.878  25.492  1.00  0.00     0.251 C 
ATOM      5  H   UNL A   1      43.487  21.997  24.845  1.00  0.00     0.163 HD
BRANCH   4   6
ATOM      6  C   UNL A   1      42.962  24.806  26.563  1.00  0.00     0.039 A 
ATOM      7  C   UNL A   1      41.973  24.460  27.485  1.00  0.00     0.014 A 
ATOM      8  C   UNL A   1      43.622  26.034  26.679  1.00  0.00     0.014 A 
ATOM      9  C   UNL A   1      41.545  25.388  28.431  1.00  0.00     0.010 A 
ATOM     10  C   UNL A   1      43.249  26.934  27.680  1.00  0.00     0.010 A 
ATOM     11  C   UNL A   1      42.189  26.630  28.546  1.00  0.00    -0.014 A 
BRANCH  11  12
ATOM     12  C   UNL A   1      41.795  27.585  29.611  1.00  0.00     0.031 A 
ATOM     13  C   UNL A   1      42.506  27.597  30.933  1.00  0.00     0.074 A 
ATOM     14  C   UNL A   1      40.763  28.420  29.392  1.00  0.00     0.049 A 
ATOM     15  N   UNL A   1      42.238  28.296  32.006  1.00  0.00    -0.248 NA
ATOM     16  C   UNL A   1      43.664  26.701  31.072  1.00  0.00     0.031 C 
ATOM     17  C   UNL A   1      39.999  28.501  28.146  1.00  0.00     0.029 A 
ATOM     18  N   UNL A   1      40.171  29.350  30.208  1.00  0.00    -0.354 N 
ATOM     19  C   UNL A   1      43.173  27.907  32.956  1.00  0.00     0.074 A 
ATOM     20  C   UNL A   1      44.005  26.896  32.340  1.00  0.00     0.031 C 
ATOM     21  C   UNL A   1      39.051  29.439  28.274  1.00  0.00     0.029 A 
ATOM     22  C   UNL A   1      39.094  29.976  29.630  1.00  0.00     0.049 A 
ATOM     23  H   UNL A   1      40.486  29.549  31.119  1.00  0.00     0.167 HD
ATOM     24  C   UNL A   1      43.321  28.358  34.225  1.00  0.00     0.037 A 
ATOM     25  C   UNL A   1      38.211  30.856  30.140  1.00  0.00     0.037 A 
ATOM     26  C   UNL A   1      42.494  29.376  34.820  1.00  0.00     0.049 A 
ATOM     27  C   UNL A   1      38.361  31.305  31.563  1.00  0.00     0.074 A 
ATOM     28  C   UNL A   1      42.604  29.944  36.077  1.00  0.00     0.029 A 
ATOM     29  N   UNL A   1      41.397  29.967  34.208  1.00  0.00    -0.354 N 
ATOM     30  N   UNL A   1      39.272  30.959  32.440  1.00  0.00    -0.248 NA
ATOM     31  C   UNL A   1      37.364  32.255  32.074  1.00  0.00     0.031 C 
ATOM     32  C   UNL A   1      41.535  30.825  36.253  1.00  0.00     0.029 A 
ATOM     33  C   UNL A   1      40.798  30.862  35.079  1.00  0.00     0.049 A 
ATOM     34  H   UNL A   1      41.092  29.779  33.291  1.00  0.00     0.167 HD
ATOM     35  C   UNL A   1      38.973  31.662  33.599  1.00  0.00     0.074 A 
ATOM     36  C   UNL A   1      37.795  32.456  33.314  1.00  0.00     0.031 C 
ATOM     37  C   UNL A   1      39.626  31.651  34.786  1.00  0.00     0.037 A 
BRANCH  24  38
ATOM     38  C   UNL A   1      44.394  27.736  35.071  1.00  0.00     0.057 A 
ATOM     39  C   UNL A   1      45.697  28.255  35.060  1.00  0.00     0.134 A 
ATOM     40  C   UNL A   1      44.165  26.595  35.851  1.00  0.00     0.134 A 
ATOM     41  F   UNL A   1      45.991  29.340  34.327  1.00  0.00    -0.206 F 
ATOM     42  C   UNL A   1      46.728  27.662  35.788  1.00  0.00     0.040 A 
ATOM     43  C   UNL A   1      45.183  26.009  36.607  1.00  0.00     0.040 A 
ATOM     44  F   UNL A   1      42.941  26.049  35.913  1.00  0.00    -0.206 F 
ATOM     45  C   UNL A   1      46.471  26.538  36.571  1.00  0.00     0.006 A 
ENDBRANCH  24  38
BRANCH  25  46
ATOM     46  C   UNL A   1      37.118  31.351  29.271  1.00  0.00     0.057 A 
ATOM     47  C   UNL A   1      37.140  32.648  28.741  1.00  0.00     0.134 A 
ATOM     48  C   UNL A   1      35.976  30.578  29.041  1.00  0.00     0.134 A 
ATOM     49  F   UNL A   1      38.203  33.442  28.939  1.00  0.00    -0.206 F 
ATOM     50  C   UNL A   1      36.049  33.174  28.048  1.00  0.00     0.040 A 
ATOM     51  C   UNL A   1      34.885  31.083  28.330  1.00  0.00     0.040 A 
ATOM     52  F   UNL A   1      35.901  29.326  29.514  1.00  0.00    -0.206 F 
ATOM     53  C   UNL A   1      34.915  32.391  27.845  1.00  0.00     0.006 A 
ENDBRANCH  25  46
BRANCH  37  54
ATOM     54  C   UNL A   1      39.114  32.536  35.883  1.00  0.00     0.057 A 
ATOM     55  C   UNL A   1      39.583  33.851  36.010  1.00  0.00     0.134 A 
ATOM     56  C   UNL A   1      38.270  32.049  36.887  1.00  0.00     0.134 A 
ATOM     57  F   UNL A   1      40.403  34.372  35.085  1.00  0.00    -0.206 F 
ATOM     58  C   UNL A   1      39.263  34.635  37.117  1.00  0.00     0.040 A 
ATOM     59  C   UNL A   1      37.922  32.834  37.988  1.00  0.00     0.040 A 
ATOM     60  F   UNL A   1      37.778  30.803  36.817  1.00  0.00    -0.206 F 
ATOM     61  C   UNL A   1      38.433  34.126  38.113  1.00  0.00     0.006 A 
ENDBRANCH  37  54
ENDBRANCH  11  12
ENDBRANCH   4   6
ENDBRANCH   1   2
BRANCH   1  62
ATOM     62  C   UNL A   1      41.034  21.126  25.817  1.00  0.00     0.042 C 
BRANCH  62  63
ATOM     63  C   UNL A   1      39.694  21.381  26.491  1.00  0.00     0.117 C 
BRANCH  63  64
ATOM     64  N   UNL A   1      39.106  22.667  26.180  1.00  0.00    -0.354 N 
ATOM     65  C   UNL A   1      37.843  22.952  25.755  1.00  0.00     0.249 C 
ATOM     66  H   UNL A   1      39.701  23.443  26.291  1.00  0.00     0.163 HD
ATOM     67  O   UNL A   1      37.440  24.101  25.953  1.00  0.00    -0.272 OA
BRANCH  65  68
ATOM     68  C   UNL A   1      36.999  21.889  25.019  1.00  0.00     0.211 C 
ATOM     69  C   UNL A   1      35.888  21.324  25.901  1.00  0.00     0.085 C 
ATOM     70  O   UNL A   1      36.401  22.482  23.860  1.00  0.00    -0.357 OA
ATOM     71  C   UNL A   1      34.600  21.413  25.080  1.00  0.00     0.123 C 
ATOM     72  C   UNL A   1      34.962  22.457  23.982  1.00  0.00     0.186 C 
BRANCH  71  73
ATOM     73  C   UNL A   1      34.155  20.010  24.626  1.00  0.00    -0.013 A 
ATOM     74  C   UNL A   1      35.115  18.968  24.626  1.00  0.00     0.010 A 
ATOM     75  C   UNL A   1      32.841  19.667  24.267  1.00  0.00     0.010 A 
ATOM     76  C   UNL A   1      34.780  17.655  24.287  1.00  0.00     0.039 A 
ATOM     77  C   UNL A   1      32.500  18.347  23.940  1.00  0.00     0.039 A 
ATOM     78  C   UNL A   1      33.470  17.355  23.954  1.00  0.00     0.123 A 
ATOM     79  F   UNL A   1      33.134  16.094  23.649  1.00  0.00    -0.207 F 
ENDBRANCH  71  73
BRANCH  71  80
ATOM     80  O   UNL A   1      33.521  21.854  25.919  1.00  0.00    -0.382 OA
ATOM     81  H   UNL A   1      33.325  22.786  25.732  1.00  0.00     0.212 HD
ENDBRANCH  71  80
BRANCH  72  82
ATOM     82  C   UNL A   1      34.455  23.890  24.135  1.00  0.00    -0.016 A 
ATOM     83  C   UNL A   1      34.426  24.560  25.367  1.00  0.00     0.009 A 
ATOM     84  C   UNL A   1      34.028  24.595  22.993  1.00  0.00     0.009 A 
ATOM     85  C   UNL A   1      34.031  25.898  25.456  1.00  0.00     0.039 A 
ATOM     86  C   UNL A   1      33.626  25.931  23.081  1.00  0.00     0.039 A 
ATOM     87  C   UNL A   1      33.643  26.574  24.311  1.00  0.00     0.123 A 
ATOM     88  F   UNL A   1      33.282  27.861  24.393  1.00  0.00    -0.207 F 
ENDBRANCH  72  82
ENDBRANCH  65  68
ENDBRANCH  63  64
ENDBRANCH  62  63
ENDBRANCH   1  62
TORSDOF 13
ENDMDL
MODEL 2
REMARK VINA RESULT:     -13.1      1.599      7.150
REMARK SMILES O=C(NCCCNC(=O)[C@H]1C[C@](O)(c2ccc(F)cc2)[C@@H](c2ccc(F)cc2)O1)c1ccc(-c2c3nc(c(-c4c(F)cccc4F)c4ccc([nH]4)c(-c4c(F)cccc4F)c4nc(c(-c5c(F)cccc5F)c5ccc2[nH]5)C=C4)C=C3)cc1
REMARK SMILES IDX 4 1 3 2 1 3 2 4 30 6 31 7 83 8 32 9 82 10 33 11 34 12 35 13
REMARK SMILES IDX 76 14 36 15 81 16 75 17 77 18 37 19 80 20 74 21 73 22 38 24
REMARK SMILES IDX 64 25 47 26 63 27 48 28 51 29 62 30 78 31 49 32 50 33 61 35
REMARK SMILES IDX 79 36 52 37 39 38 40 39 45 40 41 41 42 42 44 43 46 44 43 45
REMARK SMILES IDX 65 46 66 47 71 48 67 49 68 50 70 51 72 52 69 53 53 54 54 55
REMARK SMILES IDX 59 56 55 57 56 58 58 59 60 60 57 61 5 62 6 63 7 64 8 65 9 67
REMARK SMILES IDX 10 68 11 69 29 70 12 71 21 72 14 73 15 74 20 75 16 76 19 77
REMARK SMILES IDX 17 78 18 79 13 80 22 82 23 83 28 84 24 85 27 86 25 87 26 88
REMARK H PARENT 3 5 77 23 51 34 7 66 13 81
REMARK Flexibility Score: inf
ROOT
ATOM      1  C   UNL A   1      41.751  23.263  27.503  1.00  0.00     0.118 C 
ENDROOT
BRANCH   1   2
ATOM      2  N   UNL A   1      41.809  24.080  26.298  1.00  0.00    -0.352 N 
ATOM      3  O   UNL A   1      41.525  25.858  24.953  1.00  0.00    -0.269 OA
ATOM      4  C   UNL A   1      41.559  25.414  26.101  1.00  0.00     0.251 C 
ATOM      5  H   UNL A   1      42.073  23.590  25.486  1.00  0.00     0.163 HD
BRANCH   4   6
ATOM      6  C   UNL A   1      41.303  26.322  27.238  1.00  0.00     0.039 A 
ATOM      7  C   UNL A   1      42.088  27.456  27.455  1.00  0.00     0.014 A 
ATOM      8  C   UNL A   1      40.214  26.059  28.074  1.00  0.00     0.014 A 
ATOM      9  C   UNL A   1      41.875  28.246  28.582  1.00  0.00     0.010 A 
ATOM     10  C   UNL A   1      39.949  26.898  29.159  1.00  0.00     0.010 A 
ATOM     11  C   UNL A   1      40.795  27.982  29.438  1.00  0.00    -0.014 A 
BRANCH  11  12
ATOM     12  C   UNL A   1      40.513  28.876  30.588  1.00  0.00     0.031 A 
ATOM     13  C   UNL A   1      39.427  29.909  30.510  1.00  0.00     0.074 A 
ATOM     14  C   UNL A   1      41.269  28.773  31.697  1.00  0.00     0.049 A 
ATOM     15  N   UNL A   1      39.103  30.831  31.379  1.00  0.00    -0.248 NA
ATOM     16  C   UNL A   1      38.603  29.915  29.292  1.00  0.00     0.031 C 
ATOM     17  C   UNL A   1      42.349  27.805  31.889  1.00  0.00     0.029 A 
ATOM     18  N   UNL A   1      41.255  29.495  32.863  1.00  0.00    -0.354 N 
ATOM     19  C   UNL A   1      38.059  31.544  30.806  1.00  0.00     0.074 A 
ATOM     20  C   UNL A   1      37.814  30.961  29.504  1.00  0.00     0.031 C 
ATOM     21  C   UNL A   1      42.883  27.981  33.105  1.00  0.00     0.029 A 
ATOM     22  C   UNL A   1      42.233  29.117  33.750  1.00  0.00     0.049 A 
ATOM     23  H   UNL A   1      40.608  30.213  33.047  1.00  0.00     0.167 HD
ATOM     24  C   UNL A   1      37.368  32.588  31.325  1.00  0.00     0.037 A 
ATOM     25  C   UNL A   1      42.596  29.644  34.935  1.00  0.00     0.037 A 
ATOM     26  C   UNL A   1      37.613  33.149  32.628  1.00  0.00     0.049 A 
ATOM     27  C   UNL A   1      41.853  30.832  35.469  1.00  0.00     0.074 A 
ATOM     28  C   UNL A   1      36.927  34.167  33.267  1.00  0.00     0.029 A 
ATOM     29  N   UNL A   1      38.631  32.753  33.485  1.00  0.00    -0.354 N 
ATOM     30  N   UNL A   1      40.842  31.474  34.935  1.00  0.00    -0.248 NA
ATOM     31  C   UNL A   1      42.299  31.376  36.758  1.00  0.00     0.031 C 
ATOM     32  C   UNL A   1      37.570  34.434  34.477  1.00  0.00     0.029 A 
ATOM     33  C   UNL A   1      38.615  33.535  34.628  1.00  0.00     0.049 A 
ATOM     34  H   UNL A   1      39.267  32.023  33.307  1.00  0.00     0.167 HD
ATOM     35  C   UNL A   1      40.516  32.484  35.830  1.00  0.00     0.074 A 
ATOM     36  C   UNL A   1      41.437  32.370  36.942  1.00  0.00     0.031 C 
ATOM     37  C   UNL A   1      39.535  33.413  35.733  1.00  0.00     0.037 A 
BRANCH  24  38
ATOM     38  C   UNL A   1      36.302  33.217  30.474  1.00  0.00     0.057 A 
ATOM     39  C   UNL A   1      34.949  32.928  30.703  1.00  0.00     0.134 A 
ATOM     40  C   UNL A   1      36.605  34.061  29.397  1.00  0.00     0.134 A 
ATOM     41  F   UNL A   1      34.587  32.119  31.710  1.00  0.00    -0.206 F 
ATOM     42  C   UNL A   1      33.941  33.448  29.891  1.00  0.00     0.040 A 
ATOM     43  C   UNL A   1      35.603  34.612  28.596  1.00  0.00     0.040 A 
ATOM     44  F   UNL A   1      37.878  34.385  29.125  1.00  0.00    -0.206 F 
ATOM     45  C   UNL A   1      34.267  34.300  28.837  1.00  0.00     0.006 A 
ENDBRANCH  24  38
BRANCH  25  46
ATOM     46  C   UNL A   1      43.725  29.027  35.670  1.00  0.00     0.057 A 
ATOM     47  C   UNL A   1      45.047  29.443  35.458  1.00  0.00     0.134 A 
ATOM     48  C   UNL A   1      43.520  27.934  36.518  1.00  0.00     0.134 A 
ATOM     49  F   UNL A   1      45.308  30.478  34.644  1.00  0.00    -0.206 F 
ATOM     50  C   UNL A   1      46.126  28.770  36.030  1.00  0.00     0.040 A 
ATOM     51  C   UNL A   1      44.590  27.265  37.116  1.00  0.00     0.040 A 
ATOM     52  F   UNL A   1      42.278  27.497  36.767  1.00  0.00    -0.206 F 
ATOM     53  C   UNL A   1      45.898  27.674  36.860  1.00  0.00     0.006 A 
ENDBRANCH  25  46
BRANCH  37  54
ATOM     54  C   UNL A   1      39.368  34.384  36.864  1.00  0.00     0.057 A 
ATOM     55  C   UNL A   1      39.971  35.648  36.808  1.00  0.00     0.134 A 
ATOM     56  C   UNL A   1      38.734  34.021  38.058  1.00  0.00     0.134 A 
ATOM     57  F   UNL A   1      40.602  36.051  35.695  1.00  0.00    -0.206 F 
ATOM     58  C   UNL A   1      39.983  36.500  37.911  1.00  0.00     0.040 A 
ATOM     59  C   UNL A   1      38.719  34.875  39.161  1.00  0.00     0.040 A 
ATOM     60  F   UNL A   1      38.129  32.829  38.171  1.00  0.00    -0.206 F 
ATOM     61  C   UNL A   1      39.359  36.112  39.095  1.00  0.00     0.006 A 
ENDBRANCH  37  54
ENDBRANCH  11  12
ENDBRANCH   4   6
ENDBRANCH   1   2
BRANCH   1  62
ATOM     62  C   UNL A   1      40.550  22.322  27.543  1.00  0.00     0.042 C 
BRANCH  62  63
ATOM     63  C   UNL A   1      39.359  22.747  26.696  1.00  0.00     0.117 C 
BRANCH  63  64
ATOM     64  N   UNL A   1      38.794  21.688  25.888  1.00  0.00    -0.354 N 
ATOM     65  C   UNL A   1      37.592  21.646  25.248  1.00  0.00     0.249 C 
ATOM     66  H   UNL A   1      39.356  20.886  25.787  1.00  0.00     0.163 HD
ATOM     67  O   UNL A   1      37.496  20.858  24.304  1.00  0.00    -0.272 OA
BRANCH  65  68
ATOM     68  C   UNL A   1      36.410  22.514  25.730  1.00  0.00     0.211 C 
ATOM     69  C   UNL A   1      35.766  23.297  24.589  1.00  0.00     0.085 C 
ATOM     70  O   UNL A   1      35.415  21.669  26.319  1.00  0.00    -0.357 OA
ATOM     71  C   UNL A   1      34.262  23.035  24.682  1.00  0.00     0.123 C 
ATOM     72  C   UNL A   1      34.189  21.749  25.559  1.00  0.00     0.186 C 
BRANCH  71  73
ATOM     73  C   UNL A   1      33.528  24.294  25.182  1.00  0.00    -0.013 A 
ATOM     74  C   UNL A   1      32.253  24.135  25.779  1.00  0.00     0.010 A 
ATOM     75  C   UNL A   1      34.059  25.594  25.148  1.00  0.00     0.010 A 
ATOM     76  C   UNL A   1      31.548  25.216  26.313  1.00  0.00     0.039 A 
ATOM     77  C   UNL A   1      33.359  26.678  25.696  1.00  0.00     0.039 A 
ATOM     78  C   UNL A   1      32.113  26.479  26.273  1.00  0.00     0.123 A 
ATOM     79  F   UNL A   1      31.455  27.519  26.803  1.00  0.00    -0.207 F 
ENDBRANCH  71  73
BRANCH  71  80
ATOM     80  O   UNL A   1      33.723  22.831  23.366  1.00  0.00    -0.382 OA
ATOM     81  H   UNL A   1      32.763  22.704  23.426  1.00  0.00     0.212 HD
ENDBRANCH  71  80
BRANCH  72  82
ATOM     82  C   UNL A   1      33.945  20.406  24.873  1.00  0.00    -0.016 A 
ATOM     83  C   UNL A   1      34.883  19.362  24.886  1.00  0.00     0.009 A 
ATOM     84  C   UNL A   1      32.716  20.177  24.225  1.00  0.00     0.009 A 
ATOM     85  C   UNL A   1      34.592  18.119  24.317  1.00  0.00     0.039 A 
ATOM     86  C   UNL A   1      32.426  18.937  23.648  1.00  0.00     0.039 A 
ATOM     87  C   UNL A   1      33.363  17.915  23.711  1.00  0.00     0.123 A 
ATOM     88  F   UNL A   1      33.077  16.718  23.181  1.00  0.00    -0.207 F 
ENDBRANCH  72  82
ENDBRANCH  65  68
ENDBRANCH  63  64
ENDBRANCH  62  63
ENDBRANCH   1  62
TORSDOF 13
ENDMDL
MODEL 3
REMARK VINA RESULT:     -12.8      1.313      6.378
REMARK SMILES O=C(NCCCNC(=O)[C@H]1C[C@](O)(c2ccc(F)cc2)[C@@H](c2ccc(F)cc2)O1)c1ccc(-c2c3nc(c(-c4c(F)cccc4F)c4ccc([nH]4)c(-c4c(F)cccc4F)c4nc(c(-c5c(F)cccc5F)c5ccc2[nH]5)C=C4)C=C3)cc1
REMARK SMILES IDX 4 1 3 2 1 3 2 4 30 6 31 7 83 8 32 9 82 10 33 11 34 12 35 13
REMARK SMILES IDX 76 14 36 15 81 16 75 17 77 18 37 19 80 20 74 21 73 22 38 24
REMARK SMILES IDX 64 25 47 26 63 27 48 28 51 29 62 30 78 31 49 32 50 33 61 35
REMARK SMILES IDX 79 36 52 37 39 38 40 39 45 40 41 41 42 42 44 43 46 44 43 45
REMARK SMILES IDX 65 46 66 47 71 48 67 49 68 50 70 51 72 52 69 53 53 54 54 55
REMARK SMILES IDX 59 56 55 57 56 58 58 59 60 60 57 61 5 62 6 63 7 64 8 65 9 67
REMARK SMILES IDX 10 68 11 69 29 70 12 71 21 72 14 73 15 74 20 75 16 76 19 77
REMARK SMILES IDX 17 78 18 79 13 80 22 82 23 83 28 84 24 85 27 86 25 87 26 88
REMARK H PARENT 3 5 77 23 51 34 7 66 13 81
REMARK Flexibility Score: inf
ROOT
ATOM      1  C   UNL A   1      41.667  22.997  27.556  1.00  0.00     0.118 C 
ENDROOT
BRANCH   1   2
ATOM      2  N   UNL A   1      41.887  23.806  26.364  1.00  0.00    -0.352 N 
ATOM      3  O   UNL A   1      41.856  25.599  25.009  1.00  0.00    -0.269 OA
ATOM      4  C   UNL A   1      41.762  25.155  26.154  1.00  0.00     0.251 C 
ATOM      5  H   UNL A   1      42.175  23.295  25.573  1.00  0.00     0.163 HD
BRANCH   4   6
ATOM      6  C   UNL A   1      41.490  26.082  27.271  1.00  0.00     0.039 A 
ATOM      7  C   UNL A   1      42.288  27.206  27.494  1.00  0.00     0.014 A 
ATOM      8  C   UNL A   1      40.374  25.848  28.080  1.00  0.00     0.014 A 
ATOM      9  C   UNL A   1      42.057  28.014  28.605  1.00  0.00     0.010 A 
ATOM     10  C   UNL A   1      40.094  26.706  29.146  1.00  0.00     0.010 A 
ATOM     11  C   UNL A   1      40.950  27.780  29.434  1.00  0.00    -0.014 A 
BRANCH  11  12
ATOM     12  C   UNL A   1      40.651  28.694  30.564  1.00  0.00     0.031 A 
ATOM     13  C   UNL A   1      39.566  29.726  30.452  1.00  0.00     0.074 A 
ATOM     14  C   UNL A   1      41.390  28.611  31.686  1.00  0.00     0.049 A 
ATOM     15  N   UNL A   1      39.230  30.663  31.300  1.00  0.00    -0.248 NA
ATOM     16  C   UNL A   1      38.760  29.710  29.222  1.00  0.00     0.031 C 
ATOM     17  C   UNL A   1      42.467  27.646  31.911  1.00  0.00     0.029 A 
ATOM     18  N   UNL A   1      41.359  29.353  32.839  1.00  0.00    -0.354 N 
ATOM     19  C   UNL A   1      38.195  31.365  30.700  1.00  0.00     0.074 A 
ATOM     20  C   UNL A   1      37.969  30.759  29.405  1.00  0.00     0.031 C 
ATOM     21  C   UNL A   1      42.984  27.843  33.131  1.00  0.00     0.029 A 
ATOM     22  C   UNL A   1      42.324  28.990  33.746  1.00  0.00     0.049 A 
ATOM     23  H   UNL A   1      40.710  30.074  33.000  1.00  0.00     0.167 HD
ATOM     24  C   UNL A   1      37.497  32.419  31.189  1.00  0.00     0.037 A 
ATOM     25  C   UNL A   1      42.670  29.538  34.927  1.00  0.00     0.037 A 
ATOM     26  C   UNL A   1      37.723  33.003  32.486  1.00  0.00     0.049 A 
ATOM     27  C   UNL A   1      41.920  30.736  35.429  1.00  0.00     0.074 A 
ATOM     28  C   UNL A   1      37.028  34.031  33.097  1.00  0.00     0.029 A 
ATOM     29  N   UNL A   1      38.727  32.621  33.365  1.00  0.00    -0.354 N 
ATOM     30  N   UNL A   1      40.917  31.368  34.869  1.00  0.00    -0.248 NA
ATOM     31  C   UNL A   1      42.347  31.303  36.715  1.00  0.00     0.031 C 
ATOM     32  C   UNL A   1      37.653  34.319  34.312  1.00  0.00     0.029 A 
ATOM     33  C   UNL A   1      38.696  33.423  34.494  1.00  0.00     0.049 A 
ATOM     34  H   UNL A   1      39.366  31.888  33.209  1.00  0.00     0.167 HD
ATOM     35  C   UNL A   1      40.578  32.393  35.741  1.00  0.00     0.074 A 
ATOM     36  C   UNL A   1      41.483  32.299  36.869  1.00  0.00     0.031 C 
ATOM     37  C   UNL A   1      39.599  33.321  35.614  1.00  0.00     0.037 A 
BRANCH  24  38
ATOM     38  C   UNL A   1      36.444  33.033  30.312  1.00  0.00     0.057 A 
ATOM     39  C   UNL A   1      35.089  32.732  30.514  1.00  0.00     0.134 A 
ATOM     40  C   UNL A   1      36.762  33.873  29.237  1.00  0.00     0.134 A 
ATOM     41  F   UNL A   1      34.712  31.926  31.518  1.00  0.00    -0.206 F 
ATOM     42  C   UNL A   1      34.094  33.239  29.678  1.00  0.00     0.040 A 
ATOM     43  C   UNL A   1      35.772  34.409  28.411  1.00  0.00     0.040 A 
ATOM     44  F   UNL A   1      38.037  34.207  28.990  1.00  0.00    -0.206 F 
ATOM     45  C   UNL A   1      34.434  34.086  28.625  1.00  0.00     0.006 A 
ENDBRANCH  24  38
BRANCH  25  46
ATOM     46  C   UNL A   1      43.788  28.934  35.690  1.00  0.00     0.057 A 
ATOM     47  C   UNL A   1      43.561  27.929  36.639  1.00  0.00     0.134 A 
ATOM     48  C   UNL A   1      45.091  29.426  35.567  1.00  0.00     0.134 A 
ATOM     49  F   UNL A   1      42.329  27.427  36.813  1.00  0.00    -0.206 F 
ATOM     50  C   UNL A   1      44.582  27.461  37.468  1.00  0.00     0.040 A 
ATOM     51  C   UNL A   1      46.127  28.951  36.374  1.00  0.00     0.040 A 
ATOM     52  F   UNL A   1      45.371  30.380  34.669  1.00  0.00    -0.206 F 
ATOM     53  C   UNL A   1      45.870  27.976  37.338  1.00  0.00     0.006 A 
ENDBRANCH  25  46
BRANCH  37  54
ATOM     54  C   UNL A   1      39.416  34.312  36.725  1.00  0.00     0.057 A 
ATOM     55  C   UNL A   1      40.039  35.566  36.666  1.00  0.00     0.134 A 
ATOM     56  C   UNL A   1      38.745  33.976  37.906  1.00  0.00     0.134 A 
ATOM     57  F   UNL A   1      40.705  35.942  35.565  1.00  0.00    -0.206 F 
ATOM     58  C   UNL A   1      40.033  36.435  37.756  1.00  0.00     0.040 A 
ATOM     59  C   UNL A   1      38.712  34.848  38.996  1.00  0.00     0.040 A 
ATOM     60  F   UNL A   1      38.119  32.795  38.021  1.00  0.00    -0.206 F 
ATOM     61  C   UNL A   1      39.372  36.074  38.928  1.00  0.00     0.006 A 
ENDBRANCH  37  54
ENDBRANCH  11  12
ENDBRANCH   4   6
ENDBRANCH   1   2
BRANCH   1  62
ATOM     62  C   UNL A   1      40.816  21.756  27.301  1.00  0.00     0.042 C 
BRANCH  62  63
ATOM     63  C   UNL A   1      39.864  21.849  26.117  1.00  0.00     0.117 C 
BRANCH  63  64
ATOM     64  N   UNL A   1      39.016  23.022  26.126  1.00  0.00    -0.354 N 
ATOM     65  C   UNL A   1      37.667  23.106  25.952  1.00  0.00     0.249 C 
ATOM     66  H   UNL A   1      39.478  23.878  26.280  1.00  0.00     0.163 HD
ATOM     67  O   UNL A   1      37.113  24.110  26.405  1.00  0.00    -0.272 OA
BRANCH  65  68
ATOM     68  C   UNL A   1      36.901  22.011  25.178  1.00  0.00     0.211 C 
ATOM     69  C   UNL A   1      35.729  21.451  25.980  1.00  0.00     0.085 C 
ATOM     70  O   UNL A   1      36.393  22.565  23.959  1.00  0.00    -0.357 OA
ATOM     71  C   UNL A   1      34.512  21.499  25.055  1.00  0.00     0.123 C 
ATOM     72  C   UNL A   1      34.949  22.520  23.962  1.00  0.00     0.186 C 
BRANCH  71  73
ATOM     73  C   UNL A   1      34.126  20.078  24.603  1.00  0.00    -0.013 A 
ATOM     74  C   UNL A   1      35.095  19.051  24.715  1.00  0.00     0.010 A 
ATOM     75  C   UNL A   1      32.852  19.705  24.141  1.00  0.00     0.010 A 
ATOM     76  C   UNL A   1      34.807  17.724  24.385  1.00  0.00     0.039 A 
ATOM     77  C   UNL A   1      32.557  18.373  23.823  1.00  0.00     0.039 A 
ATOM     78  C   UNL A   1      33.535  17.396  23.949  1.00  0.00     0.123 A 
ATOM     79  F   UNL A   1      33.242  16.123  23.651  1.00  0.00    -0.207 F 
ENDBRANCH  71  73
BRANCH  71  80
ATOM     80  O   UNL A   1      33.361  21.943  25.790  1.00  0.00    -0.382 OA
ATOM     81  H   UNL A   1      33.487  22.866  26.060  1.00  0.00     0.212 HD
ENDBRANCH  71  80
BRANCH  72  82
ATOM     82  C   UNL A   1      34.412  23.948  24.035  1.00  0.00    -0.016 A 
ATOM     83  C   UNL A   1      34.421  24.707  25.216  1.00  0.00     0.009 A 
ATOM     84  C   UNL A   1      33.913  24.557  22.867  1.00  0.00     0.009 A 
ATOM     85  C   UNL A   1      33.995  26.037  25.226  1.00  0.00     0.039 A 
ATOM     86  C   UNL A   1      33.480  25.886  22.877  1.00  0.00     0.039 A 
ATOM     87  C   UNL A   1      33.536  26.618  24.055  1.00  0.00     0.123 A 
ATOM     88  F   UNL A   1      33.145  27.899  24.060  1.00  0.00    -0.207 F 
ENDBRANCH  72  82
ENDBRANCH  65  68
ENDBRANCH  63  64
ENDBRANCH  62  63
ENDBRANCH   1  62
TORSDOF 13
ENDMDL
