MODEL 1
REMARK VINA RESULT:     -11.5      0.000      0.000
REMARK SMILES O=C(NCCCNC(=O)c1cc2ccccc2cc1OCCO)c1ccc(-c2c3nc(c(-c4c(F)cccc4F)c4ccc([nH]4)c(-c4c(F)cccc4F)c4nc(c(-c5c(F)cccc5F)c5ccc2[nH]5)C=C4)C=C3)cc1
REMARK SMILES IDX 6 1 5 2 4 3 3 4 1 5 2 6 24 8 25 9 77 10 26 11 76 12 27 13
REMARK SMILES IDX 28 14 29 15 70 16 30 17 75 18 69 19 71 20 31 21 74 22 68 23
REMARK SMILES IDX 67 24 32 26 58 27 41 28 57 29 42 30 45 31 56 32 72 33 43 34
REMARK SMILES IDX 44 35 55 37 73 38 46 39 33 40 34 41 39 42 35 43 36 44 38 45
REMARK SMILES IDX 40 46 37 47 59 48 60 49 65 50 61 51 62 52 64 53 66 54 63 55
REMARK SMILES IDX 47 56 48 57 53 58 49 59 50 60 52 61 54 62 51 63 7 64 8 65
REMARK SMILES IDX 9 67 10 68 11 69 19 70 12 71 18 72 13 73 17 74 14 75 16 76
REMARK SMILES IDX 15 77 20 78 21 79 22 80 23 81
REMARK H PARENT 3 7 71 25 45 36 7 66 23 82
REMARK Flexibility Score: inf
ROOT
ATOM      1  C   UNL A   1      36.765  22.864  25.207  1.00  0.00     0.118 C 
ENDROOT
BRANCH   1   2
ATOM      2  C   UNL A   1      37.645  21.668  24.912  1.00  0.00     0.042 C 
BRANCH   2   3
ATOM      3  C   UNL A   1      38.680  21.360  25.979  1.00  0.00     0.118 C 
BRANCH   3   4
ATOM      4  N   UNL A   1      39.497  20.180  25.723  1.00  0.00    -0.352 N 
ATOM      5  O   UNL A   1      41.407  18.952  25.674  1.00  0.00    -0.269 OA
ATOM      6  C   UNL A   1      40.842  19.997  25.975  1.00  0.00     0.251 C 
ATOM      7  H   UNL A   1      39.029  19.414  25.318  1.00  0.00     0.163 HD
BRANCH   6   8
ATOM      8  C   UNL A   1      41.606  21.115  26.577  1.00  0.00     0.039 A 
ATOM      9  C   UNL A   1      41.694  21.230  27.965  1.00  0.00     0.014 A 
ATOM     10  C   UNL A   1      42.126  22.115  25.751  1.00  0.00     0.014 A 
ATOM     11  C   UNL A   1      42.083  22.442  28.522  1.00  0.00     0.010 A 
ATOM     12  C   UNL A   1      42.611  23.297  26.322  1.00  0.00     0.010 A 
ATOM     13  C   UNL A   1      42.518  23.501  27.707  1.00  0.00    -0.014 A 
BRANCH  13  14
ATOM     14  C   UNL A   1      42.806  24.818  28.335  1.00  0.00     0.031 A 
ATOM     15  C   UNL A   1      44.222  25.247  28.621  1.00  0.00     0.074 A 
ATOM     16  C   UNL A   1      41.792  25.675  28.558  1.00  0.00     0.049 A 
ATOM     17  N   UNL A   1      44.659  26.392  29.089  1.00  0.00    -0.248 NA
ATOM     18  C   UNL A   1      45.290  24.269  28.355  1.00  0.00     0.031 C 
ATOM     19  C   UNL A   1      40.377  25.386  28.320  1.00  0.00     0.029 A 
ATOM     20  N   UNL A   1      41.798  26.977  28.988  1.00  0.00    -0.354 N 
ATOM     21  C   UNL A   1      46.036  26.255  29.213  1.00  0.00     0.074 A 
ATOM     22  C   UNL A   1      46.368  24.917  28.776  1.00  0.00     0.031 C 
ATOM     23  C   UNL A   1      39.660  26.499  28.533  1.00  0.00     0.029 A 
ATOM     24  C   UNL A   1      40.557  27.564  28.969  1.00  0.00     0.049 A 
ATOM     25  H   UNL A   1      42.613  27.445  29.282  1.00  0.00     0.167 HD
ATOM     26  C   UNL A   1      46.944  27.163  29.644  1.00  0.00     0.037 A 
ATOM     27  C   UNL A   1      40.181  28.823  29.259  1.00  0.00     0.037 A 
ATOM     28  C   UNL A   1      46.632  28.516  30.023  1.00  0.00     0.049 A 
ATOM     29  C   UNL A   1      41.211  29.821  29.695  1.00  0.00     0.074 A 
ATOM     30  C   UNL A   1      47.493  29.518  30.436  1.00  0.00     0.029 A 
ATOM     31  N   UNL A   1      45.358  29.060  30.022  1.00  0.00    -0.354 N 
ATOM     32  N   UNL A   1      42.507  29.672  29.808  1.00  0.00    -0.248 NA
ATOM     33  C   UNL A   1      40.722  31.158  30.056  1.00  0.00     0.031 C 
ATOM     34  C   UNL A   1      46.736  30.665  30.702  1.00  0.00     0.029 A 
ATOM     35  C   UNL A   1      45.407  30.381  30.434  1.00  0.00     0.049 A 
ATOM     36  H   UNL A   1      44.538  28.578  29.765  1.00  0.00     0.167 HD
ATOM     37  C   UNL A   1      42.990  30.894  30.250  1.00  0.00     0.074 A 
ATOM     38  C   UNL A   1      41.851  31.782  30.365  1.00  0.00     0.031 C 
ATOM     39  C   UNL A   1      44.264  31.247  30.544  1.00  0.00     0.037 A 
BRANCH  26  40
ATOM     40  C   UNL A   1      48.373  26.719  29.747  1.00  0.00     0.057 A 
ATOM     41  C   UNL A   1      48.869  26.078  30.887  1.00  0.00     0.134 A 
ATOM     42  C   UNL A   1      49.250  26.899  28.670  1.00  0.00     0.134 A 
ATOM     43  F   UNL A   1      48.082  25.889  31.958  1.00  0.00    -0.206 F 
ATOM     44  C   UNL A   1      50.193  25.640  30.958  1.00  0.00     0.040 A 
ATOM     45  C   UNL A   1      50.571  26.452  28.722  1.00  0.00     0.040 A 
ATOM     46  F   UNL A   1      48.833  27.503  27.547  1.00  0.00    -0.206 F 
ATOM     47  C   UNL A   1      51.046  25.821  29.870  1.00  0.00     0.006 A 
ENDBRANCH  26  40
BRANCH  27  48
ATOM     48  C   UNL A   1      38.758  29.209  29.121  1.00  0.00     0.057 A 
ATOM     49  C   UNL A   1      38.240  29.615  27.886  1.00  0.00     0.134 A 
ATOM     50  C   UNL A   1      37.879  29.152  30.208  1.00  0.00     0.134 A 
ATOM     51  F   UNL A   1      39.042  29.703  26.815  1.00  0.00    -0.206 F 
ATOM     52  C   UNL A   1      36.896  29.955  27.737  1.00  0.00     0.040 A 
ATOM     53  C   UNL A   1      36.528  29.471  30.070  1.00  0.00     0.040 A 
ATOM     54  F   UNL A   1      38.319  28.763  31.414  1.00  0.00    -0.206 F 
ATOM     55  C   UNL A   1      36.034  29.877  28.831  1.00  0.00     0.006 A 
ENDBRANCH  27  48
BRANCH  39  56
ATOM     56  C   UNL A   1      44.485  32.651  31.012  1.00  0.00     0.057 A 
ATOM     57  C   UNL A   1      44.438  32.981  32.372  1.00  0.00     0.134 A 
ATOM     58  C   UNL A   1      44.763  33.676  30.100  1.00  0.00     0.134 A 
ATOM     59  F   UNL A   1      44.163  32.043  33.290  1.00  0.00    -0.206 F 
ATOM     60  C   UNL A   1      44.643  34.291  32.809  1.00  0.00     0.040 A 
ATOM     61  C   UNL A   1      44.983  34.986  30.527  1.00  0.00     0.040 A 
ATOM     62  F   UNL A   1      44.823  33.419  28.786  1.00  0.00    -0.206 F 
ATOM     63  C   UNL A   1      44.919  35.297  31.884  1.00  0.00     0.006 A 
ENDBRANCH  39  56
ENDBRANCH  13  14
ENDBRANCH   6   8
ENDBRANCH   3   4
ENDBRANCH   2   3
ENDBRANCH   1   2
BRANCH   1  64
ATOM     64  N   UNL A   1      35.988  22.743  26.430  1.00  0.00    -0.352 N 
ATOM     65  C   UNL A   1      34.874  21.965  26.617  1.00  0.00     0.255 C 
ATOM     66  H   UNL A   1      36.294  23.274  27.202  1.00  0.00     0.163 HD
ATOM     67  O   UNL A   1      34.318  21.884  27.708  1.00  0.00    -0.269 OA
BRANCH  65  68
ATOM     68  C   UNL A   1      34.301  21.276  25.449  1.00  0.00     0.082 A 
ATOM     69  C   UNL A   1      34.772  19.977  25.226  1.00  0.00     0.026 A 
ATOM     70  C   UNL A   1      33.224  21.788  24.717  1.00  0.00     0.132 A 
ATOM     71  C   UNL A   1      34.093  19.124  24.350  1.00  0.00    -0.017 A 
ATOM     72  C   UNL A   1      32.544  20.937  23.842  1.00  0.00     0.056 A 
ATOM     73  C   UNL A   1      34.498  17.790  24.185  1.00  0.00     0.009 A 
ATOM     74  C   UNL A   1      32.950  19.600  23.667  1.00  0.00    -0.015 A 
ATOM     75  C   UNL A   1      33.765  16.923  23.376  1.00  0.00     0.001 A 
ATOM     76  C   UNL A   1      32.227  18.712  22.855  1.00  0.00     0.009 A 
ATOM     77  C   UNL A   1      32.628  17.381  22.718  1.00  0.00     0.001 A 
BRANCH  70  78
ATOM     78  O   UNL A   1      32.644  23.013  24.924  1.00  0.00    -0.490 OA
BRANCH  78  79
ATOM     79  C   UNL A   1      31.215  23.002  25.071  1.00  0.00     0.257 C 
BRANCH  79  80
ATOM     80  C   UNL A   1      30.851  22.707  26.533  1.00  0.00     0.197 C 
BRANCH  80  81
ATOM     81  O   UNL A   1      29.551  22.125  26.649  1.00  0.00    -0.393 OA
ATOM     82  H   UNL A   1      29.422  21.801  27.554  1.00  0.00     0.210 HD
ENDBRANCH  80  81
ENDBRANCH  79  80
ENDBRANCH  78  79
ENDBRANCH  70  78
ENDBRANCH  65  68
ENDBRANCH   1  64
TORSDOF 14
ENDMDL
MODEL 2
REMARK VINA RESULT:     -11.5      3.689      8.117
REMARK SMILES O=C(NCCCNC(=O)c1cc2ccccc2cc1OCCO)c1ccc(-c2c3nc(c(-c4c(F)cccc4F)c4ccc([nH]4)c(-c4c(F)cccc4F)c4nc(c(-c5c(F)cccc5F)c5ccc2[nH]5)C=C4)C=C3)cc1
REMARK SMILES IDX 6 1 5 2 4 3 3 4 1 5 2 6 24 8 25 9 77 10 26 11 76 12 27 13
REMARK SMILES IDX 28 14 29 15 70 16 30 17 75 18 69 19 71 20 31 21 74 22 68 23
REMARK SMILES IDX 67 24 32 26 58 27 41 28 57 29 42 30 45 31 56 32 72 33 43 34
REMARK SMILES IDX 44 35 55 37 73 38 46 39 33 40 34 41 39 42 35 43 36 44 38 45
REMARK SMILES IDX 40 46 37 47 59 48 60 49 65 50 61 51 62 52 64 53 66 54 63 55
REMARK SMILES IDX 47 56 48 57 53 58 49 59 50 60 52 61 54 62 51 63 7 64 8 65
REMARK SMILES IDX 9 67 10 68 11 69 19 70 12 71 18 72 13 73 17 74 14 75 16 76
REMARK SMILES IDX 15 77 20 78 21 79 22 80 23 81
REMARK H PARENT 3 7 71 25 45 36 7 66 23 82
REMARK Flexibility Score: inf
ROOT
ATOM      1  C   UNL A   1      32.396  29.839  25.941  1.00  0.00     0.118 C 
ENDROOT
BRANCH   1   2
ATOM      2  C   UNL A   1      33.098  29.184  27.112  1.00  0.00     0.042 C 
BRANCH   2   3
ATOM      3  C   UNL A   1      34.540  29.613  27.313  1.00  0.00     0.118 C 
BRANCH   3   4
ATOM      4  N   UNL A   1      34.756  30.557  28.404  1.00  0.00    -0.352 N 
ATOM      5  O   UNL A   1      35.915  31.554  30.082  1.00  0.00    -0.269 OA
ATOM      6  C   UNL A   1      35.890  30.737  29.169  1.00  0.00     0.251 C 
ATOM      7  H   UNL A   1      33.994  31.140  28.623  1.00  0.00     0.163 HD
BRANCH   6   8
ATOM      8  C   UNL A   1      37.071  29.885  28.895  1.00  0.00     0.039 A 
ATOM      9  C   UNL A   1      37.669  29.169  29.933  1.00  0.00     0.014 A 
ATOM     10  C   UNL A   1      37.653  29.905  27.625  1.00  0.00     0.014 A 
ATOM     11  C   UNL A   1      38.956  28.677  29.765  1.00  0.00     0.010 A 
ATOM     12  C   UNL A   1      38.909  29.320  27.433  1.00  0.00     0.010 A 
ATOM     13  C   UNL A   1      39.605  28.772  28.521  1.00  0.00    -0.014 A 
BRANCH  13  14
ATOM     14  C   UNL A   1      41.026  28.344  28.419  1.00  0.00     0.031 A 
ATOM     15  C   UNL A   1      41.384  26.935  28.021  1.00  0.00     0.074 A 
ATOM     16  C   UNL A   1      42.000  29.258  28.588  1.00  0.00     0.049 A 
ATOM     17  N   UNL A   1      42.569  26.415  27.804  1.00  0.00    -0.248 NA
ATOM     18  C   UNL A   1      40.277  25.981  27.847  1.00  0.00     0.031 C 
ATOM     19  C   UNL A   1      41.788  30.655  28.968  1.00  0.00     0.029 A 
ATOM     20  N   UNL A   1      43.357  29.162  28.415  1.00  0.00    -0.354 N 
ATOM     21  C   UNL A   1      42.352  25.074  27.515  1.00  0.00     0.074 A 
ATOM     22  C   UNL A   1      40.924  24.853  27.586  1.00  0.00     0.031 C 
ATOM     23  C   UNL A   1      42.961  31.304  28.925  1.00  0.00     0.029 A 
ATOM     24  C   UNL A   1      44.012  30.359  28.564  1.00  0.00     0.049 A 
ATOM     25  H   UNL A   1      43.817  28.317  28.205  1.00  0.00     0.167 HD
ATOM     26  C   UNL A   1      43.257  24.114  27.210  1.00  0.00     0.037 A 
ATOM     27  C   UNL A   1      45.313  30.668  28.416  1.00  0.00     0.037 A 
ATOM     28  C   UNL A   1      44.673  24.337  27.077  1.00  0.00     0.049 A 
ATOM     29  C   UNL A   1      46.290  29.596  28.038  1.00  0.00     0.074 A 
ATOM     30  C   UNL A   1      45.661  23.431  26.733  1.00  0.00     0.029 A 
ATOM     31  N   UNL A   1      45.299  25.557  27.270  1.00  0.00    -0.354 N 
ATOM     32  N   UNL A   1      46.066  28.333  27.770  1.00  0.00    -0.248 NA
ATOM     33  C   UNL A   1      47.703  29.990  27.955  1.00  0.00     0.031 C 
ATOM     34  C   UNL A   1      46.891  24.101  26.736  1.00  0.00     0.029 A 
ATOM     35  C   UNL A   1      46.662  25.428  27.061  1.00  0.00     0.049 A 
ATOM     36  H   UNL A   1      44.843  26.393  27.518  1.00  0.00     0.167 HD
ATOM     37  C   UNL A   1      47.306  27.782  27.485  1.00  0.00     0.074 A 
ATOM     38  C   UNL A   1      48.277  28.852  27.590  1.00  0.00     0.031 C 
ATOM     39  C   UNL A   1      47.613  26.501  27.172  1.00  0.00     0.037 A 
BRANCH  26  40
ATOM     40  C   UNL A   1      42.747  22.718  27.012  1.00  0.00     0.057 A 
ATOM     41  C   UNL A   1      42.671  22.130  25.744  1.00  0.00     0.134 A 
ATOM     42  C   UNL A   1      42.368  21.938  28.112  1.00  0.00     0.134 A 
ATOM     43  F   UNL A   1      43.006  22.829  24.649  1.00  0.00    -0.206 F 
ATOM     44  C   UNL A   1      42.225  20.818  25.575  1.00  0.00     0.040 A 
ATOM     45  C   UNL A   1      41.935  20.621  27.959  1.00  0.00     0.040 A 
ATOM     46  F   UNL A   1      42.422  22.444  29.354  1.00  0.00    -0.206 F 
ATOM     47  C   UNL A   1      41.861  20.057  26.687  1.00  0.00     0.006 A 
ENDBRANCH  26  40
BRANCH  27  48
ATOM     48  C   UNL A   1      45.757  32.068  28.606  1.00  0.00     0.057 A 
ATOM     49  C   UNL A   1      46.201  32.518  29.854  1.00  0.00     0.134 A 
ATOM     50  C   UNL A   1      45.775  32.977  27.542  1.00  0.00     0.134 A 
ATOM     51  F   UNL A   1      46.190  31.693  30.911  1.00  0.00    -0.206 F 
ATOM     52  C   UNL A   1      46.647  33.826  30.039  1.00  0.00     0.040 A 
ATOM     53  C   UNL A   1      46.235  34.283  27.708  1.00  0.00     0.040 A 
ATOM     54  F   UNL A   1      45.366  32.598  26.322  1.00  0.00    -0.206 F 
ATOM     55  C   UNL A   1      46.671  34.711  28.961  1.00  0.00     0.006 A 
ENDBRANCH  27  48
BRANCH  39  56
ATOM     56  C   UNL A   1      49.055  26.195  26.920  1.00  0.00     0.057 A 
ATOM     57  C   UNL A   1      49.916  25.830  27.962  1.00  0.00     0.134 A 
ATOM     58  C   UNL A   1      49.584  26.248  25.624  1.00  0.00     0.134 A 
ATOM     59  F   UNL A   1      49.468  25.775  29.225  1.00  0.00    -0.206 F 
ATOM     60  C   UNL A   1      51.262  25.546  27.727  1.00  0.00     0.040 A 
ATOM     61  C   UNL A   1      50.925  25.953  25.376  1.00  0.00     0.040 A 
ATOM     62  F   UNL A   1      48.808  26.589  24.586  1.00  0.00    -0.206 F 
ATOM     63  C   UNL A   1      51.768  25.605  26.429  1.00  0.00     0.006 A 
ENDBRANCH  39  56
ENDBRANCH  13  14
ENDBRANCH   6   8
ENDBRANCH   3   4
ENDBRANCH   2   3
ENDBRANCH   1   2
BRANCH   1  64
ATOM     64  N   UNL A   1      33.133  29.765  24.690  1.00  0.00    -0.352 N 
ATOM     65  C   UNL A   1      33.206  28.685  23.847  1.00  0.00     0.255 C 
ATOM     66  H   UNL A   1      33.629  30.572  24.420  1.00  0.00     0.163 HD
ATOM     67  O   UNL A   1      33.809  28.737  22.780  1.00  0.00    -0.269 OA
BRANCH  65  68
ATOM     68  C   UNL A   1      32.604  27.415  24.288  1.00  0.00     0.082 A 
ATOM     69  C   UNL A   1      33.509  26.440  24.724  1.00  0.00     0.026 A 
ATOM     70  C   UNL A   1      31.226  27.243  24.452  1.00  0.00     0.132 A 
ATOM     71  C   UNL A   1      33.054  25.329  25.442  1.00  0.00    -0.017 A 
ATOM     72  C   UNL A   1      30.769  26.135  25.171  1.00  0.00     0.056 A 
ATOM     73  C   UNL A   1      33.957  24.390  25.964  1.00  0.00     0.009 A 
ATOM     74  C   UNL A   1      31.670  25.186  25.691  1.00  0.00    -0.015 A 
ATOM     75  C   UNL A   1      33.503  23.333  26.751  1.00  0.00     0.001 A 
ATOM     76  C   UNL A   1      31.232  24.114  26.484  1.00  0.00     0.009 A 
ATOM     77  C   UNL A   1      32.144  23.199  27.017  1.00  0.00     0.001 A 
BRANCH  70  78
ATOM     78  O   UNL A   1      30.274  28.178  24.134  1.00  0.00    -0.490 OA
BRANCH  78  79
ATOM     79  C   UNL A   1      29.933  28.262  22.741  1.00  0.00     0.257 C 
BRANCH  79  80
ATOM     80  C   UNL A   1      29.784  29.735  22.336  1.00  0.00     0.197 C 
BRANCH  80  81
ATOM     81  O   UNL A   1      30.650  30.078  21.253  1.00  0.00    -0.393 OA
ATOM     82  H   UNL A   1      30.366  30.920  20.866  1.00  0.00     0.210 HD
ENDBRANCH  80  81
ENDBRANCH  79  80
ENDBRANCH  78  79
ENDBRANCH  70  78
ENDBRANCH  65  68
ENDBRANCH   1  64
TORSDOF 14
ENDMDL
MODEL 3
REMARK VINA RESULT:     -11.5      3.322      7.790
REMARK SMILES O=C(NCCCNC(=O)c1cc2ccccc2cc1OCCO)c1ccc(-c2c3nc(c(-c4c(F)cccc4F)c4ccc([nH]4)c(-c4c(F)cccc4F)c4nc(c(-c5c(F)cccc5F)c5ccc2[nH]5)C=C4)C=C3)cc1
REMARK SMILES IDX 6 1 5 2 4 3 3 4 1 5 2 6 24 8 25 9 77 10 26 11 76 12 27 13
REMARK SMILES IDX 28 14 29 15 70 16 30 17 75 18 69 19 71 20 31 21 74 22 68 23
REMARK SMILES IDX 67 24 32 26 58 27 41 28 57 29 42 30 45 31 56 32 72 33 43 34
REMARK SMILES IDX 44 35 55 37 73 38 46 39 33 40 34 41 39 42 35 43 36 44 38 45
REMARK SMILES IDX 40 46 37 47 59 48 60 49 65 50 61 51 62 52 64 53 66 54 63 55
REMARK SMILES IDX 47 56 48 57 53 58 49 59 50 60 52 61 54 62 51 63 7 64 8 65
REMARK SMILES IDX 9 67 10 68 11 69 19 70 12 71 18 72 13 73 17 74 14 75 16 76
REMARK SMILES IDX 15 77 20 78 21 79 22 80 23 81
REMARK H PARENT 3 7 71 25 45 36 7 66 23 82
REMARK Flexibility Score: inf
ROOT
ATOM      1  C   UNL A   1      33.033  28.632  25.536  1.00  0.00     0.118 C 
ENDROOT
BRANCH   1   2
ATOM      2  C   UNL A   1      33.534  29.780  26.386  1.00  0.00     0.042 C 
BRANCH   2   3
ATOM      3  C   UNL A   1      34.384  29.369  27.575  1.00  0.00     0.118 C 
BRANCH   3   4
ATOM      4  N   UNL A   1      34.660  30.433  28.534  1.00  0.00    -0.352 N 
ATOM      5  O   UNL A   1      35.924  31.638  29.985  1.00  0.00    -0.269 OA
ATOM      6  C   UNL A   1      35.848  30.724  29.173  1.00  0.00     0.251 C 
ATOM      7  H   UNL A   1      33.901  31.020  28.753  1.00  0.00     0.163 HD
BRANCH   6   8
ATOM      8  C   UNL A   1      37.028  29.873  28.893  1.00  0.00     0.039 A 
ATOM      9  C   UNL A   1      37.625  29.148  29.925  1.00  0.00     0.014 A 
ATOM     10  C   UNL A   1      37.612  29.904  27.623  1.00  0.00     0.014 A 
ATOM     11  C   UNL A   1      38.913  28.656  29.754  1.00  0.00     0.010 A 
ATOM     12  C   UNL A   1      38.868  29.319  27.427  1.00  0.00     0.010 A 
ATOM     13  C   UNL A   1      39.562  28.761  28.512  1.00  0.00    -0.014 A 
BRANCH  13  14
ATOM     14  C   UNL A   1      40.983  28.333  28.407  1.00  0.00     0.031 A 
ATOM     15  C   UNL A   1      41.341  26.921  28.019  1.00  0.00     0.074 A 
ATOM     16  C   UNL A   1      41.958  29.249  28.565  1.00  0.00     0.049 A 
ATOM     17  N   UNL A   1      42.525  26.401  27.802  1.00  0.00    -0.248 NA
ATOM     18  C   UNL A   1      40.233  25.965  27.857  1.00  0.00     0.031 C 
ATOM     19  C   UNL A   1      41.746  30.649  28.935  1.00  0.00     0.029 A 
ATOM     20  N   UNL A   1      43.314  29.152  28.388  1.00  0.00    -0.354 N 
ATOM     21  C   UNL A   1      42.307  25.057  27.523  1.00  0.00     0.074 A 
ATOM     22  C   UNL A   1      40.880  24.836  27.602  1.00  0.00     0.031 C 
ATOM     23  C   UNL A   1      42.919  31.298  28.883  1.00  0.00     0.029 A 
ATOM     24  C   UNL A   1      43.969  30.351  28.525  1.00  0.00     0.049 A 
ATOM     25  H   UNL A   1      43.773  28.306  28.183  1.00  0.00     0.167 HD
ATOM     26  C   UNL A   1      43.212  24.095  27.223  1.00  0.00     0.037 A 
ATOM     27  C   UNL A   1      45.269  30.659  28.369  1.00  0.00     0.037 A 
ATOM     28  C   UNL A   1      44.626  24.317  27.083  1.00  0.00     0.049 A 
ATOM     29  C   UNL A   1      46.245  29.584  27.996  1.00  0.00     0.074 A 
ATOM     30  C   UNL A   1      45.614  23.409  26.742  1.00  0.00     0.029 A 
ATOM     31  N   UNL A   1      45.253  25.539  27.263  1.00  0.00    -0.354 N 
ATOM     32  N   UNL A   1      46.021  28.320  27.739  1.00  0.00    -0.248 NA
ATOM     33  C   UNL A   1      47.657  29.978  27.904  1.00  0.00     0.031 C 
ATOM     34  C   UNL A   1      46.843  24.079  26.735  1.00  0.00     0.029 A 
ATOM     35  C   UNL A   1      46.615  25.409  27.050  1.00  0.00     0.049 A 
ATOM     36  H   UNL A   1      44.797  26.377  27.507  1.00  0.00     0.167 HD
ATOM     37  C   UNL A   1      47.259  27.767  27.453  1.00  0.00     0.074 A 
ATOM     38  C   UNL A   1      48.231  28.838  27.546  1.00  0.00     0.031 C 
ATOM     39  C   UNL A   1      47.566  26.483  27.149  1.00  0.00     0.037 A 
BRANCH  26  40
ATOM     40  C   UNL A   1      42.701  22.697  27.037  1.00  0.00     0.057 A 
ATOM     41  C   UNL A   1      42.319  21.898  28.121  1.00  0.00     0.134 A 
ATOM     42  C   UNL A   1      42.548  22.163  25.752  1.00  0.00     0.134 A 
ATOM     43  F   UNL A   1      42.454  22.347  29.378  1.00  0.00    -0.206 F 
ATOM     44  C   UNL A   1      41.815  20.610  27.933  1.00  0.00     0.040 A 
ATOM     45  C   UNL A   1      42.030  20.883  25.550  1.00  0.00     0.040 A 
ATOM     46  F   UNL A   1      42.893  22.881  24.672  1.00  0.00    -0.206 F 
ATOM     47  C   UNL A   1      41.663  20.101  26.643  1.00  0.00     0.006 A 
ENDBRANCH  26  40
BRANCH  27  48
ATOM     48  C   UNL A   1      45.713  32.061  28.546  1.00  0.00     0.057 A 
ATOM     49  C   UNL A   1      45.753  32.944  27.462  1.00  0.00     0.134 A 
ATOM     50  C   UNL A   1      46.076  32.556  29.803  1.00  0.00     0.134 A 
ATOM     51  F   UNL A   1      45.431  32.518  26.232  1.00  0.00    -0.206 F 
ATOM     52  C   UNL A   1      46.143  34.274  27.621  1.00  0.00     0.040 A 
ATOM     53  C   UNL A   1      46.449  33.888  29.981  1.00  0.00     0.040 A 
ATOM     54  F   UNL A   1      46.049  31.756  30.880  1.00  0.00    -0.206 F 
ATOM     55  C   UNL A   1      46.486  34.751  28.886  1.00  0.00     0.006 A 
ENDBRANCH  27  48
BRANCH  39  56
ATOM     56  C   UNL A   1      49.008  26.176  26.893  1.00  0.00     0.057 A 
ATOM     57  C   UNL A   1      49.549  26.243  25.604  1.00  0.00     0.134 A 
ATOM     58  C   UNL A   1      49.865  25.828  27.944  1.00  0.00     0.134 A 
ATOM     59  F   UNL A   1      48.772  26.558  24.557  1.00  0.00    -0.206 F 
ATOM     60  C   UNL A   1      50.894  25.955  25.365  1.00  0.00     0.040 A 
ATOM     61  C   UNL A   1      51.214  25.552  27.719  1.00  0.00     0.040 A 
ATOM     62  F   UNL A   1      49.404  25.750  29.201  1.00  0.00    -0.206 F 
ATOM     63  C   UNL A   1      51.730  25.611  26.426  1.00  0.00     0.006 A 
ENDBRANCH  39  56
ENDBRANCH  13  14
ENDBRANCH   6   8
ENDBRANCH   3   4
ENDBRANCH   2   3
ENDBRANCH   1   2
BRANCH   1  64
ATOM     64  N   UNL A   1      32.116  27.738  26.225  1.00  0.00    -0.352 N 
ATOM     65  C   UNL A   1      32.112  26.367  26.167  1.00  0.00     0.255 C 
ATOM     66  H   UNL A   1      31.429  28.160  26.791  1.00  0.00     0.163 HD
ATOM     67  O   UNL A   1      31.331  25.695  26.833  1.00  0.00    -0.269 OA
BRANCH  65  68
ATOM     68  C   UNL A   1      33.025  25.707  25.219  1.00  0.00     0.082 A 
ATOM     69  C   UNL A   1      34.275  25.349  25.737  1.00  0.00     0.026 A 
ATOM     70  C   UNL A   1      32.625  25.286  23.946  1.00  0.00     0.132 A 
ATOM     71  C   UNL A   1      35.097  24.459  25.039  1.00  0.00    -0.017 A 
ATOM     72  C   UNL A   1      33.444  24.395  23.247  1.00  0.00     0.056 A 
ATOM     73  C   UNL A   1      36.311  24.019  25.587  1.00  0.00     0.009 A 
ATOM     74  C   UNL A   1      34.667  23.955  23.789  1.00  0.00    -0.015 A 
ATOM     75  C   UNL A   1      37.083  23.066  24.923  1.00  0.00     0.001 A 
ATOM     76  C   UNL A   1      35.459  22.999  23.135  1.00  0.00     0.009 A 
ATOM     77  C   UNL A   1      36.655  22.552  23.704  1.00  0.00     0.001 A 
BRANCH  70  78
ATOM     78  O   UNL A   1      31.392  25.517  23.393  1.00  0.00    -0.490 OA
BRANCH  78  79
ATOM     79  C   UNL A   1      31.374  26.431  22.284  1.00  0.00     0.257 C 
BRANCH  79  80
ATOM     80  C   UNL A   1      30.796  27.779  22.737  1.00  0.00     0.197 C 
BRANCH  80  81
ATOM     81  O   UNL A   1      30.416  28.593  21.626  1.00  0.00    -0.393 OA
ATOM     82  H   UNL A   1      30.901  28.310  20.837  1.00  0.00     0.210 HD
ENDBRANCH  80  81
ENDBRANCH  79  80
ENDBRANCH  78  79
ENDBRANCH  70  78
ENDBRANCH  65  68
ENDBRANCH   1  64
TORSDOF 14
ENDMDL
