MODEL 1
REMARK VINA RESULT:     -11.3      0.000      0.000
REMARK SMILES CCCCCNC(=O)Oc1cccc(-c2ccc([C@@H](C)C(=O)NCCCNC(=O)c3ccc(-c4c5nc(c(-c6c(F)cccc6F)c6ccc([nH]6)c(-c6c(F)cccc6F)c6nc(c(-c7c(F)cccc7F)c7ccc4[nH]7)C=C6)C=C5)cc3)cc2F)c1
REMARK SMILES IDX 19 1 20 2 18 3 15 4 16 5 85 6 17 7 84 8 86 9 14 10 10 11
REMARK SMILES IDX 11 12 87 13 12 14 13 15 9 16 7 17 6 18 8 20 5 21 4 22 3 23
REMARK SMILES IDX 2 24 1 25 21 26 22 27 23 28 24 30 25 31 26 32 27 33 28 34
REMARK SMILES IDX 29 36 30 37 31 38 83 39 32 40 82 41 33 42 34 43 35 44 76 45
REMARK SMILES IDX 36 46 81 47 75 48 77 49 37 50 80 51 74 52 73 53 38 55 64 56
REMARK SMILES IDX 47 57 63 58 48 59 51 60 62 61 78 62 49 63 50 64 61 66 79 67
REMARK SMILES IDX 52 68 39 69 40 70 45 71 41 72 42 73 44 74 46 75 43 76 65 77
REMARK SMILES IDX 66 78 71 79 67 80 68 81 70 82 72 83 69 84 53 85 54 86 59 87
REMARK SMILES IDX 55 88 56 89 58 90 60 91 57 92
REMARK H PARENT 6 19 23 29 27 35 77 54 51 65
REMARK Flexibility Score: inf
ROOT
ATOM      1  C   UNL A   1      34.188  23.594  24.295  1.00  0.00     0.105 C 
ATOM      2  C   UNL A   1      33.286  22.491  23.747  1.00  0.00     0.023 C 
ENDROOT
BRANCH   1   3
ATOM      3  C   UNL A   1      35.598  23.170  24.677  1.00  0.00    -0.033 A 
ATOM      4  C   UNL A   1      38.153  22.347  25.665  1.00  0.00     0.018 A 
ATOM      5  C   UNL A   1      37.382  21.517  24.834  1.00  0.00     0.012 A 
ATOM      6  C   UNL A   1      37.636  23.624  25.927  1.00  0.00     0.131 A 
ATOM      7  C   UNL A   1      36.145  21.934  24.323  1.00  0.00     0.005 A 
ATOM      8  C   UNL A   1      36.380  24.024  25.465  1.00  0.00     0.044 A 
ATOM      9  F   UNL A   1      38.338  24.509  26.653  1.00  0.00    -0.206 F 
BRANCH   4  10
ATOM     10  C   UNL A   1      39.415  21.857  26.263  1.00  0.00    -0.012 A 
ATOM     11  C   UNL A   1      41.254  20.261  26.317  1.00  0.00     0.133 A 
ATOM     12  C   UNL A   1      41.883  20.965  27.338  1.00  0.00     0.047 A 
ATOM     13  C   UNL A   1      40.034  20.687  25.789  1.00  0.00     0.056 A 
ATOM     14  C   UNL A   1      41.288  22.123  27.825  1.00  0.00     0.004 A 
ATOM     15  C   UNL A   1      40.067  22.559  27.296  1.00  0.00     0.009 A 
BRANCH  11  16
ATOM     16  O   UNL A   1      41.832  19.044  25.924  1.00  0.00    -0.410 OA
BRANCH  16  17
ATOM     17  C   UNL A   1      42.838  18.516  26.720  1.00  0.00     0.412 C 
ATOM     18  N   UNL A   1      44.046  18.455  26.083  1.00  0.00    -0.321 N 
ATOM     19  H   UNL A   1      44.796  18.073  26.594  1.00  0.00     0.167 HD
ATOM     20  O   UNL A   1      42.713  18.122  27.874  1.00  0.00    -0.224 OA
BRANCH  18  21
ATOM     21  C   UNL A   1      44.337  18.894  24.734  1.00  0.00     0.119 C 
BRANCH  21  22
ATOM     22  C   UNL A   1      45.267  20.108  24.713  1.00  0.00     0.021 C 
BRANCH  22  23
ATOM     23  C   UNL A   1      44.590  21.448  25.028  1.00  0.00     0.002 C 
BRANCH  23  24
ATOM     24  C   UNL A   1      44.926  22.600  24.076  1.00  0.00    -0.003 C 
ATOM     25  C   UNL A   1      46.345  23.123  24.234  1.00  0.00     0.004 C 
ENDBRANCH  23  24
ENDBRANCH  22  23
ENDBRANCH  21  22
ENDBRANCH  18  21
ENDBRANCH  16  17
ENDBRANCH  11  16
ENDBRANCH   4  10
ENDBRANCH   1   3
BRANCH   1  26
ATOM     26  C   UNL A   1      33.526  24.503  25.344  1.00  0.00     0.227 C 
ATOM     27  O   UNL A   1      33.111  24.018  26.404  1.00  0.00    -0.274 OA
ATOM     28  N   UNL A   1      33.353  25.843  25.191  1.00  0.00    -0.356 N 
ATOM     29  H   UNL A   1      32.953  26.287  25.973  1.00  0.00     0.163 HD
BRANCH  28  30
ATOM     30  C   UNL A   1      33.648  26.740  24.092  1.00  0.00     0.117 C 
BRANCH  30  31
ATOM     31  C   UNL A   1      33.135  28.157  24.338  1.00  0.00     0.042 C 
BRANCH  31  32
ATOM     32  C   UNL A   1      32.935  28.506  25.808  1.00  0.00     0.118 C 
BRANCH  32  33
ATOM     33  N   UNL A   1      32.603  29.909  26.000  1.00  0.00    -0.352 N 
ATOM     34  C   UNL A   1      33.135  30.862  26.830  1.00  0.00     0.251 C 
ATOM     35  H   UNL A   1      31.866  30.233  25.433  1.00  0.00     0.163 HD
ATOM     36  O   UNL A   1      32.536  31.929  26.956  1.00  0.00    -0.269 OA
BRANCH  34  37
ATOM     37  C   UNL A   1      34.397  30.645  27.581  1.00  0.00     0.039 A 
ATOM     38  C   UNL A   1      35.280  31.724  27.706  1.00  0.00     0.014 A 
ATOM     39  C   UNL A   1      34.767  29.395  28.086  1.00  0.00     0.014 A 
ATOM     40  C   UNL A   1      36.505  31.558  28.356  1.00  0.00     0.010 A 
ATOM     41  C   UNL A   1      35.952  29.251  28.810  1.00  0.00     0.010 A 
ATOM     42  C   UNL A   1      36.845  30.324  28.936  1.00  0.00    -0.014 A 
BRANCH  42  43
ATOM     43  C   UNL A   1      38.134  30.165  29.658  1.00  0.00     0.031 A 
ATOM     44  C   UNL A   1      38.309  30.701  31.055  1.00  0.00     0.074 A 
ATOM     45  C   UNL A   1      39.161  29.544  29.043  1.00  0.00     0.049 A 
ATOM     46  N   UNL A   1      39.346  30.611  31.850  1.00  0.00    -0.248 NA
ATOM     47  C   UNL A   1      37.184  31.456  31.630  1.00  0.00     0.031 C 
ATOM     48  C   UNL A   1      39.144  29.045  27.665  1.00  0.00     0.029 A 
ATOM     49  N   UNL A   1      40.416  29.222  29.495  1.00  0.00    -0.354 N 
ATOM     50  C   UNL A   1      39.007  31.309  33.003  1.00  0.00     0.074 A 
ATOM     51  C   UNL A   1      37.685  31.855  32.791  1.00  0.00     0.031 C 
ATOM     52  C   UNL A   1      40.318  28.448  27.399  1.00  0.00     0.029 A 
ATOM     53  C   UNL A   1      41.179  28.547  28.573  1.00  0.00     0.049 A 
ATOM     54  H   UNL A   1      40.741  29.455  30.396  1.00  0.00     0.167 HD
ATOM     55  C   UNL A   1      39.722  31.461  34.143  1.00  0.00     0.037 A 
ATOM     56  C   UNL A   1      42.427  28.054  28.666  1.00  0.00     0.037 A 
ATOM     57  C   UNL A   1      41.020  30.881  34.369  1.00  0.00     0.049 A 
ATOM     58  C   UNL A   1      43.177  28.201  29.961  1.00  0.00     0.074 A 
ATOM     59  C   UNL A   1      41.785  30.902  35.523  1.00  0.00     0.029 A 
ATOM     60  N   UNL A   1      41.747  30.178  33.421  1.00  0.00    -0.354 N 
ATOM     61  N   UNL A   1      42.797  28.771  31.078  1.00  0.00    -0.248 NA
ATOM     62  C   UNL A   1      44.526  27.618  30.013  1.00  0.00     0.031 C 
ATOM     63  C   UNL A   1      42.994  30.251  35.260  1.00  0.00     0.029 A 
ATOM     64  C   UNL A   1      42.961  29.782  33.957  1.00  0.00     0.049 A 
ATOM     65  H   UNL A   1      41.445  29.989  32.503  1.00  0.00     0.167 HD
ATOM     66  C   UNL A   1      43.847  28.595  31.970  1.00  0.00     0.074 A 
ATOM     67  C   UNL A   1      44.866  27.840  31.273  1.00  0.00     0.031 C 
ATOM     68  C   UNL A   1      43.963  29.027  33.250  1.00  0.00     0.037 A 
BRANCH  55  69
ATOM     69  C   UNL A   1      39.119  32.280  35.249  1.00  0.00     0.057 A 
ATOM     70  C   UNL A   1      38.342  31.700  36.259  1.00  0.00     0.134 A 
ATOM     71  C   UNL A   1      39.383  33.652  35.345  1.00  0.00     0.134 A 
ATOM     72  F   UNL A   1      38.044  30.392  36.221  1.00  0.00    -0.206 F 
ATOM     73  C   UNL A   1      37.839  32.456  37.320  1.00  0.00     0.040 A 
ATOM     74  C   UNL A   1      38.906  34.414  36.413  1.00  0.00     0.040 A 
ATOM     75  F   UNL A   1      40.126  34.270  34.414  1.00  0.00    -0.206 F 
ATOM     76  C   UNL A   1      38.130  33.817  37.403  1.00  0.00     0.006 A 
ENDBRANCH  55  69
BRANCH  56  77
ATOM     77  C   UNL A   1      43.048  27.351  27.513  1.00  0.00     0.057 A 
ATOM     78  C   UNL A   1      43.815  28.046  26.568  1.00  0.00     0.134 A 
ATOM     79  C   UNL A   1      42.858  25.981  27.305  1.00  0.00     0.134 A 
ATOM     80  F   UNL A   1      44.018  29.365  26.703  1.00  0.00    -0.206 F 
ATOM     81  C   UNL A   1      44.337  27.412  25.440  1.00  0.00     0.040 A 
ATOM     82  C   UNL A   1      43.398  25.327  26.196  1.00  0.00     0.040 A 
ATOM     83  F   UNL A   1      42.142  25.256  28.176  1.00  0.00    -0.206 F 
ATOM     84  C   UNL A   1      44.130  26.047  25.252  1.00  0.00     0.006 A 
ENDBRANCH  56  77
BRANCH  68  85
ATOM     85  C   UNL A   1      45.224  28.662  33.978  1.00  0.00     0.057 A 
ATOM     86  C   UNL A   1      45.340  27.468  34.703  1.00  0.00     0.134 A 
ATOM     87  C   UNL A   1      46.334  29.515  33.954  1.00  0.00     0.134 A 
ATOM     88  F   UNL A   1      44.308  26.614  34.775  1.00  0.00    -0.206 F 
ATOM     89  C   UNL A   1      46.501  27.156  35.410  1.00  0.00     0.040 A 
ATOM     90  C   UNL A   1      47.510  29.199  34.633  1.00  0.00     0.040 A 
ATOM     91  F   UNL A   1      46.294  30.669  33.270  1.00  0.00    -0.206 F 
ATOM     92  C   UNL A   1      47.592  28.021  35.374  1.00  0.00     0.006 A 
ENDBRANCH  68  85
ENDBRANCH  42  43
ENDBRANCH  34  37
ENDBRANCH  32  33
ENDBRANCH  31  32
ENDBRANCH  30  31
ENDBRANCH  28  30
ENDBRANCH   1  26
TORSDOF 18
ENDMDL
MODEL 2
REMARK VINA RESULT:     -11.3      4.293      7.676
REMARK SMILES CCCCCNC(=O)Oc1cccc(-c2ccc([C@@H](C)C(=O)NCCCNC(=O)c3ccc(-c4c5nc(c(-c6c(F)cccc6F)c6ccc([nH]6)c(-c6c(F)cccc6F)c6nc(c(-c7c(F)cccc7F)c7ccc4[nH]7)C=C6)C=C5)cc3)cc2F)c1
REMARK SMILES IDX 19 1 20 2 18 3 15 4 16 5 85 6 17 7 84 8 86 9 14 10 10 11
REMARK SMILES IDX 11 12 87 13 12 14 13 15 9 16 7 17 6 18 8 20 5 21 4 22 3 23
REMARK SMILES IDX 2 24 1 25 21 26 22 27 23 28 24 30 25 31 26 32 27 33 28 34
REMARK SMILES IDX 29 36 30 37 31 38 83 39 32 40 82 41 33 42 34 43 35 44 76 45
REMARK SMILES IDX 36 46 81 47 75 48 77 49 37 50 80 51 74 52 73 53 38 55 64 56
REMARK SMILES IDX 47 57 63 58 48 59 51 60 62 61 78 62 49 63 50 64 61 66 79 67
REMARK SMILES IDX 52 68 39 69 40 70 45 71 41 72 42 73 44 74 46 75 43 76 65 77
REMARK SMILES IDX 66 78 71 79 67 80 68 81 70 82 72 83 69 84 53 85 54 86 59 87
REMARK SMILES IDX 55 88 56 89 58 90 60 91 57 92
REMARK H PARENT 6 19 23 29 27 35 77 54 51 65
REMARK Flexibility Score: inf
ROOT
ATOM      1  C   UNL A   1      34.138  32.516  28.763  1.00  0.00     0.105 C 
ATOM      2  C   UNL A   1      34.766  32.275  30.133  1.00  0.00     0.023 C 
ENDROOT
BRANCH   1   3
ATOM      3  C   UNL A   1      33.969  31.287  27.884  1.00  0.00    -0.033 A 
ATOM      4  C   UNL A   1      33.683  29.149  26.004  1.00  0.00     0.018 A 
ATOM      5  C   UNL A   1      34.818  29.263  26.823  1.00  0.00     0.012 A 
ATOM      6  C   UNL A   1      32.669  30.097  26.204  1.00  0.00     0.131 A 
ATOM      7  C   UNL A   1      34.943  30.292  27.767  1.00  0.00     0.005 A 
ATOM      8  C   UNL A   1      32.811  31.155  27.106  1.00  0.00     0.044 A 
ATOM      9  F   UNL A   1      31.519  30.023  25.515  1.00  0.00    -0.206 F 
BRANCH   4  10
ATOM     10  C   UNL A   1      33.607  28.108  24.954  1.00  0.00    -0.012 A 
ATOM     11  C   UNL A   1      33.036  25.847  24.252  1.00  0.00     0.133 A 
ATOM     12  C   UNL A   1      33.367  26.135  22.933  1.00  0.00     0.047 A 
ATOM     13  C   UNL A   1      33.161  26.810  25.255  1.00  0.00     0.056 A 
ATOM     14  C   UNL A   1      33.814  27.412  22.611  1.00  0.00     0.004 A 
ATOM     15  C   UNL A   1      33.937  28.383  23.612  1.00  0.00     0.009 A 
BRANCH  11  16
ATOM     16  O   UNL A   1      32.688  24.522  24.554  1.00  0.00    -0.410 OA
BRANCH  16  17
ATOM     17  C   UNL A   1      31.728  24.309  25.533  1.00  0.00     0.412 C 
ATOM     18  N   UNL A   1      30.458  24.581  25.103  1.00  0.00    -0.321 N 
ATOM     19  H   UNL A   1      29.735  24.465  25.761  1.00  0.00     0.167 HD
ATOM     20  O   UNL A   1      31.937  23.928  26.678  1.00  0.00    -0.224 OA
BRANCH  18  21
ATOM     21  C   UNL A   1      30.068  25.023  23.781  1.00  0.00     0.119 C 
BRANCH  21  22
ATOM     22  C   UNL A   1      29.197  26.279  23.828  1.00  0.00     0.021 C 
BRANCH  22  23
ATOM     23  C   UNL A   1      29.970  27.604  23.823  1.00  0.00     0.002 C 
BRANCH  23  24
ATOM     24  C   UNL A   1      29.684  28.534  22.640  1.00  0.00    -0.003 C 
ATOM     25  C   UNL A   1      28.328  29.218  22.720  1.00  0.00     0.004 C 
ENDBRANCH  23  24
ENDBRANCH  22  23
ENDBRANCH  21  22
ENDBRANCH  18  21
ENDBRANCH  16  17
ENDBRANCH  11  16
ENDBRANCH   4  10
ENDBRANCH   1   3
BRANCH   1  26
ATOM     26  C   UNL A   1      34.701  33.728  28.003  1.00  0.00     0.227 C 
ATOM     27  O   UNL A   1      35.704  33.596  27.291  1.00  0.00    -0.274 OA
ATOM     28  N   UNL A   1      34.166  34.978  28.056  1.00  0.00    -0.356 N 
ATOM     29  H   UNL A   1      34.618  35.632  27.477  1.00  0.00     0.163 HD
BRANCH  28  30
ATOM     30  C   UNL A   1      33.054  35.525  28.807  1.00  0.00     0.117 C 
BRANCH  30  31
ATOM     31  C   UNL A   1      33.275  36.983  29.202  1.00  0.00     0.042 C 
BRANCH  31  32
ATOM     32  C   UNL A   1      33.579  37.195  30.680  1.00  0.00     0.118 C 
BRANCH  32  33
ATOM     33  N   UNL A   1      32.563  36.608  31.540  1.00  0.00    -0.352 N 
ATOM     34  C   UNL A   1      32.591  35.505  32.354  1.00  0.00     0.251 C 
ATOM     35  H   UNL A   1      31.704  37.089  31.539  1.00  0.00     0.163 HD
ATOM     36  O   UNL A   1      31.528  35.095  32.820  1.00  0.00    -0.269 OA
BRANCH  34  37
ATOM     37  C   UNL A   1      33.850  34.792  32.681  1.00  0.00     0.039 A 
ATOM     38  C   UNL A   1      35.055  35.355  32.245  1.00  0.00     0.014 A 
ATOM     39  C   UNL A   1      33.868  33.552  33.326  1.00  0.00     0.014 A 
ATOM     40  C   UNL A   1      36.265  34.697  32.480  1.00  0.00     0.010 A 
ATOM     41  C   UNL A   1      35.083  32.937  33.637  1.00  0.00     0.010 A 
ATOM     42  C   UNL A   1      36.294  33.491  33.200  1.00  0.00    -0.014 A 
BRANCH  42  43
ATOM     43  C   UNL A   1      37.588  32.814  33.478  1.00  0.00     0.031 A 
ATOM     44  C   UNL A   1      38.368  33.124  34.728  1.00  0.00     0.074 A 
ATOM     45  C   UNL A   1      38.069  31.924  32.587  1.00  0.00     0.049 A 
ATOM     46  N   UNL A   1      39.489  32.596  35.154  1.00  0.00    -0.248 NA
ATOM     47  C   UNL A   1      37.837  34.178  35.607  1.00  0.00     0.031 C 
ATOM     48  C   UNL A   1      37.447  31.589  31.304  1.00  0.00     0.029 A 
ATOM     49  N   UNL A   1      39.190  31.133  32.627  1.00  0.00    -0.354 N 
ATOM     50  C   UNL A   1      39.804  33.263  36.332  1.00  0.00     0.074 A 
ATOM     51  C   UNL A   1      38.781  34.265  36.534  1.00  0.00     0.031 C 
ATOM     52  C   UNL A   1      38.173  30.636  30.697  1.00  0.00     0.029 A 
ATOM     53  C   UNL A   1      39.326  30.314  31.531  1.00  0.00     0.049 A 
ATOM     54  H   UNL A   1      39.838  31.151  33.369  1.00  0.00     0.167 HD
ATOM     55  C   UNL A   1      40.838  33.046  37.179  1.00  0.00     0.037 A 
ATOM     56  C   UNL A   1      40.268  29.398  31.237  1.00  0.00     0.037 A 
ATOM     57  C   UNL A   1      41.832  32.020  36.998  1.00  0.00     0.049 A 
ATOM     58  C   UNL A   1      41.378  29.149  32.220  1.00  0.00     0.074 A 
ATOM     59  C   UNL A   1      42.865  31.661  37.846  1.00  0.00     0.029 A 
ATOM     60  N   UNL A   1      41.918  31.190  35.891  1.00  0.00    -0.354 N 
ATOM     61  N   UNL A   1      41.599  29.715  33.381  1.00  0.00    -0.248 NA
ATOM     62  C   UNL A   1      42.362  28.118  31.858  1.00  0.00     0.031 C 
ATOM     63  C   UNL A   1      43.604  30.644  37.233  1.00  0.00     0.029 A 
ATOM     64  C   UNL A   1      43.001  30.337  36.024  1.00  0.00     0.049 A 
ATOM     65  H   UNL A   1      41.301  31.205  35.123  1.00  0.00     0.167 HD
ATOM     66  C   UNL A   1      42.729  29.095  33.898  1.00  0.00     0.074 A 
ATOM     67  C   UNL A   1      43.130  28.089  32.937  1.00  0.00     0.031 C 
ATOM     68  C   UNL A   1      43.384  29.339  35.060  1.00  0.00     0.037 A 
BRANCH  55  69
ATOM     69  C   UNL A   1      40.952  33.924  38.392  1.00  0.00     0.057 A 
ATOM     70  C   UNL A   1      41.723  35.093  38.388  1.00  0.00     0.134 A 
ATOM     71  C   UNL A   1      40.222  33.635  39.552  1.00  0.00     0.134 A 
ATOM     72  F   UNL A   1      42.453  35.423  37.312  1.00  0.00    -0.206 F 
ATOM     73  C   UNL A   1      41.773  35.939  39.498  1.00  0.00     0.040 A 
ATOM     74  C   UNL A   1      40.245  34.485  40.659  1.00  0.00     0.040 A 
ATOM     75  F   UNL A   1      39.458  32.534  39.621  1.00  0.00    -0.206 F 
ATOM     76  C   UNL A   1      41.024  35.640  40.635  1.00  0.00     0.006 A 
ENDBRANCH  55  69
BRANCH  56  77
ATOM     77  C   UNL A   1      40.198  28.625  29.970  1.00  0.00     0.057 A 
ATOM     78  C   UNL A   1      39.450  27.444  29.881  1.00  0.00     0.134 A 
ATOM     79  C   UNL A   1      40.908  29.023  28.833  1.00  0.00     0.134 A 
ATOM     80  F   UNL A   1      38.762  27.001  30.944  1.00  0.00    -0.206 F 
ATOM     81  C   UNL A   1      39.441  26.669  28.721  1.00  0.00     0.040 A 
ATOM     82  C   UNL A   1      40.885  28.274  27.655  1.00  0.00     0.040 A 
ATOM     83  F   UNL A   1      41.637  30.149  28.848  1.00  0.00    -0.206 F 
ATOM     84  C   UNL A   1      40.159  27.085  27.603  1.00  0.00     0.006 A 
ENDBRANCH  56  77
BRANCH  68  85
ATOM     85  C   UNL A   1      44.578  28.481  35.359  1.00  0.00     0.057 A 
ATOM     86  C   UNL A   1      44.464  27.272  36.057  1.00  0.00     0.134 A 
ATOM     87  C   UNL A   1      45.857  28.870  34.944  1.00  0.00     0.134 A 
ATOM     88  F   UNL A   1      43.267  26.849  36.493  1.00  0.00    -0.206 F 
ATOM     89  C   UNL A   1      45.584  26.501  36.367  1.00  0.00     0.040 A 
ATOM     90  C   UNL A   1      46.982  28.093  35.222  1.00  0.00     0.040 A 
ATOM     91  F   UNL A   1      46.037  30.012  34.262  1.00  0.00    -0.206 F 
ATOM     92  C   UNL A   1      46.848  26.910  35.946  1.00  0.00     0.006 A 
ENDBRANCH  68  85
ENDBRANCH  42  43
ENDBRANCH  34  37
ENDBRANCH  32  33
ENDBRANCH  31  32
ENDBRANCH  30  31
ENDBRANCH  28  30
ENDBRANCH   1  26
TORSDOF 18
ENDMDL
MODEL 3
REMARK VINA RESULT:     -11.3      4.146      7.045
REMARK SMILES CCCCCNC(=O)Oc1cccc(-c2ccc([C@@H](C)C(=O)NCCCNC(=O)c3ccc(-c4c5nc(c(-c6c(F)cccc6F)c6ccc([nH]6)c(-c6c(F)cccc6F)c6nc(c(-c7c(F)cccc7F)c7ccc4[nH]7)C=C6)C=C5)cc3)cc2F)c1
REMARK SMILES IDX 19 1 20 2 18 3 15 4 16 5 85 6 17 7 84 8 86 9 14 10 10 11
REMARK SMILES IDX 11 12 87 13 12 14 13 15 9 16 7 17 6 18 8 20 5 21 4 22 3 23
REMARK SMILES IDX 2 24 1 25 21 26 22 27 23 28 24 30 25 31 26 32 27 33 28 34
REMARK SMILES IDX 29 36 30 37 31 38 83 39 32 40 82 41 33 42 34 43 35 44 76 45
REMARK SMILES IDX 36 46 81 47 75 48 77 49 37 50 80 51 74 52 73 53 38 55 64 56
REMARK SMILES IDX 47 57 63 58 48 59 51 60 62 61 78 62 49 63 50 64 61 66 79 67
REMARK SMILES IDX 52 68 39 69 40 70 45 71 41 72 42 73 44 74 46 75 43 76 65 77
REMARK SMILES IDX 66 78 71 79 67 80 68 81 70 82 72 83 69 84 53 85 54 86 59 87
REMARK SMILES IDX 55 88 56 89 58 90 60 91 57 92
REMARK H PARENT 6 19 23 29 27 35 77 54 51 65
REMARK Flexibility Score: inf
ROOT
ATOM      1  C   UNL A   1      34.166  32.314  28.747  1.00  0.00     0.105 C 
ATOM      2  C   UNL A   1      34.792  32.068  30.118  1.00  0.00     0.023 C 
ENDROOT
BRANCH   1   3
ATOM      3  C   UNL A   1      34.003  31.089  27.862  1.00  0.00    -0.033 A 
ATOM      4  C   UNL A   1      33.745  28.958  25.970  1.00  0.00     0.018 A 
ATOM      5  C   UNL A   1      34.844  29.042  26.841  1.00  0.00     0.012 A 
ATOM      6  C   UNL A   1      32.749  29.934  26.124  1.00  0.00     0.131 A 
ATOM      7  C   UNL A   1      34.954  30.068  27.790  1.00  0.00     0.005 A 
ATOM      8  C   UNL A   1      32.879  30.989  27.032  1.00  0.00     0.044 A 
ATOM      9  F   UNL A   1      31.631  29.891  25.384  1.00  0.00    -0.206 F 
BRANCH   4  10
ATOM     10  C   UNL A   1      33.688  27.919  24.919  1.00  0.00    -0.012 A 
ATOM     11  C   UNL A   1      33.417  25.591  24.255  1.00  0.00     0.133 A 
ATOM     12  C   UNL A   1      33.482  25.930  22.908  1.00  0.00     0.047 A 
ATOM     13  C   UNL A   1      33.529  26.562  25.251  1.00  0.00     0.056 A 
ATOM     14  C   UNL A   1      33.643  27.265  22.555  1.00  0.00     0.004 A 
ATOM     15  C   UNL A   1      33.750  28.245  23.550  1.00  0.00     0.009 A 
BRANCH  11  16
ATOM     16  O   UNL A   1      33.358  24.225  24.572  1.00  0.00    -0.410 OA
BRANCH  16  17
ATOM     17  C   UNL A   1      32.147  23.570  24.397  1.00  0.00     0.412 C 
ATOM     18  N   UNL A   1      32.256  22.211  24.503  1.00  0.00    -0.321 N 
ATOM     19  H   UNL A   1      31.431  21.690  24.371  1.00  0.00     0.167 HD
ATOM     20  O   UNL A   1      31.067  24.099  24.162  1.00  0.00    -0.224 OA
BRANCH  18  21
ATOM     21  C   UNL A   1      33.460  21.458  24.789  1.00  0.00     0.119 C 
BRANCH  21  22
ATOM     22  C   UNL A   1      33.151  20.052  25.302  1.00  0.00     0.021 C 
BRANCH  22  23
ATOM     23  C   UNL A   1      33.082  18.967  24.220  1.00  0.00     0.002 C 
BRANCH  23  24
ATOM     24  C   UNL A   1      34.267  17.999  24.176  1.00  0.00    -0.003 C 
ATOM     25  C   UNL A   1      33.995  16.741  23.365  1.00  0.00     0.004 C 
ENDBRANCH  23  24
ENDBRANCH  22  23
ENDBRANCH  21  22
ENDBRANCH  18  21
ENDBRANCH  16  17
ENDBRANCH  11  16
ENDBRANCH   4  10
ENDBRANCH   1   3
BRANCH   1  26
ATOM     26  C   UNL A   1      34.726  33.533  27.996  1.00  0.00     0.227 C 
ATOM     27  O   UNL A   1      35.761  33.420  27.327  1.00  0.00    -0.274 OA
ATOM     28  N   UNL A   1      34.154  34.767  28.010  1.00  0.00    -0.356 N 
ATOM     29  H   UNL A   1      34.612  35.427  27.441  1.00  0.00     0.163 HD
BRANCH  28  30
ATOM     30  C   UNL A   1      32.997  35.292  28.708  1.00  0.00     0.117 C 
BRANCH  30  31
ATOM     31  C   UNL A   1      33.109  36.789  28.983  1.00  0.00     0.042 C 
BRANCH  31  32
ATOM     32  C   UNL A   1      33.451  37.139  30.427  1.00  0.00     0.118 C 
BRANCH  32  33
ATOM     33  N   UNL A   1      32.518  36.547  31.372  1.00  0.00    -0.352 N 
ATOM     34  C   UNL A   1      32.643  35.478  32.221  1.00  0.00     0.251 C 
ATOM     35  H   UNL A   1      31.641  36.994  31.410  1.00  0.00     0.163 HD
ATOM     36  O   UNL A   1      31.630  35.046  32.770  1.00  0.00    -0.269 OA
BRANCH  34  37
ATOM     37  C   UNL A   1      33.948  34.827  32.490  1.00  0.00     0.039 A 
ATOM     38  C   UNL A   1      33.947  33.623  33.205  1.00  0.00     0.014 A 
ATOM     39  C   UNL A   1      35.168  35.409  32.134  1.00  0.00     0.014 A 
ATOM     40  C   UNL A   1      35.152  32.998  33.531  1.00  0.00     0.010 A 
ATOM     41  C   UNL A   1      36.368  34.741  32.384  1.00  0.00     0.010 A 
ATOM     42  C   UNL A   1      36.377  33.538  33.104  1.00  0.00    -0.014 A 
BRANCH  42  43
ATOM     43  C   UNL A   1      37.654  32.848  33.423  1.00  0.00     0.031 A 
ATOM     44  C   UNL A   1      38.403  33.158  34.692  1.00  0.00     0.074 A 
ATOM     45  C   UNL A   1      38.149  31.945  32.553  1.00  0.00     0.049 A 
ATOM     46  N   UNL A   1      39.505  32.620  35.153  1.00  0.00    -0.248 NA
ATOM     47  C   UNL A   1      37.860  34.225  35.548  1.00  0.00     0.031 C 
ATOM     48  C   UNL A   1      37.559  31.608  31.255  1.00  0.00     0.029 A 
ATOM     49  N   UNL A   1      39.259  31.141  32.629  1.00  0.00    -0.354 N 
ATOM     50  C   UNL A   1      39.795  33.292  36.335  1.00  0.00     0.074 A 
ATOM     51  C   UNL A   1      38.779  34.308  36.501  1.00  0.00     0.031 C 
ATOM     52  C   UNL A   1      38.291  30.643  30.675  1.00  0.00     0.029 A 
ATOM     53  C   UNL A   1      39.415  30.312  31.544  1.00  0.00     0.049 A 
ATOM     54  H   UNL A   1      39.886  31.157  33.389  1.00  0.00     0.167 HD
ATOM     55  C   UNL A   1      40.801  33.069  37.212  1.00  0.00     0.037 A 
ATOM     56  C   UNL A   1      40.354  29.383  31.284  1.00  0.00     0.037 A 
ATOM     57  C   UNL A   1      41.788  32.029  37.067  1.00  0.00     0.049 A 
ATOM     58  C   UNL A   1      41.433  29.128  32.299  1.00  0.00     0.074 A 
ATOM     59  C   UNL A   1      42.792  31.664  37.947  1.00  0.00     0.029 A 
ATOM     60  N   UNL A   1      41.895  31.191  35.968  1.00  0.00    -0.354 N 
ATOM     61  N   UNL A   1      41.628  29.701  33.462  1.00  0.00    -0.248 NA
ATOM     62  C   UNL A   1      42.413  28.083  31.972  1.00  0.00     0.031 C 
ATOM     63  C   UNL A   1      43.535  30.635  37.361  1.00  0.00     0.029 A 
ATOM     64  C   UNL A   1      42.963  30.326  36.138  1.00  0.00     0.049 A 
ATOM     65  H   UNL A   1      41.299  31.207  35.184  1.00  0.00     0.167 HD
ATOM     66  C   UNL A   1      42.736  29.070  34.014  1.00  0.00     0.074 A 
ATOM     67  C   UNL A   1      43.150  28.053  33.072  1.00  0.00     0.031 C 
ATOM     68  C   UNL A   1      43.360  29.316  35.192  1.00  0.00     0.037 A 
BRANCH  55  69
ATOM     69  C   UNL A   1      40.892  33.954  38.421  1.00  0.00     0.057 A 
ATOM     70  C   UNL A   1      41.670  35.119  38.428  1.00  0.00     0.134 A 
ATOM     71  C   UNL A   1      40.133  33.679  39.566  1.00  0.00     0.134 A 
ATOM     72  F   UNL A   1      42.428  35.436  37.368  1.00  0.00    -0.206 F 
ATOM     73  C   UNL A   1      41.700  35.972  39.533  1.00  0.00     0.040 A 
ATOM     74  C   UNL A   1      40.136  34.536  40.668  1.00  0.00     0.040 A 
ATOM     75  F   UNL A   1      39.361  32.582  39.624  1.00  0.00    -0.206 F 
ATOM     76  C   UNL A   1      40.922  35.686  40.654  1.00  0.00     0.006 A 
ENDBRANCH  55  69
BRANCH  56  77
ATOM     77  C   UNL A   1      40.310  28.602  30.021  1.00  0.00     0.057 A 
ATOM     78  C   UNL A   1      41.030  29.011  28.890  1.00  0.00     0.134 A 
ATOM     79  C   UNL A   1      39.519  27.455  29.898  1.00  0.00     0.134 A 
ATOM     80  F   UNL A   1      41.793  30.113  28.939  1.00  0.00    -0.206 F 
ATOM     81  C   UNL A   1      40.935  28.329  27.676  1.00  0.00     0.040 A 
ATOM     82  C   UNL A   1      39.437  26.746  28.699  1.00  0.00     0.040 A 
ATOM     83  F   UNL A   1      38.811  27.005  30.945  1.00  0.00    -0.206 F 
ATOM     84  C   UNL A   1      40.137  27.192  27.578  1.00  0.00     0.006 A 
ENDBRANCH  56  77
BRANCH  68  85
ATOM     85  C   UNL A   1      44.535  28.446  35.531  1.00  0.00     0.057 A 
ATOM     86  C   UNL A   1      45.840  28.786  35.150  1.00  0.00     0.134 A 
ATOM     87  C   UNL A   1      44.359  27.255  36.246  1.00  0.00     0.134 A 
ATOM     88  F   UNL A   1      46.075  29.908  34.452  1.00  0.00    -0.206 F 
ATOM     89  C   UNL A   1      46.922  27.952  35.432  1.00  0.00     0.040 A 
ATOM     90  C   UNL A   1      45.438  26.428  36.560  1.00  0.00     0.040 A 
ATOM     91  F   UNL A   1      43.138  26.876  36.650  1.00  0.00    -0.206 F 
ATOM     92  C   UNL A   1      46.723  26.769  36.143  1.00  0.00     0.006 A 
ENDBRANCH  68  85
ENDBRANCH  42  43
ENDBRANCH  34  37
ENDBRANCH  32  33
ENDBRANCH  31  32
ENDBRANCH  30  31
ENDBRANCH  28  30
ENDBRANCH   1  26
TORSDOF 18
ENDMDL
