MODEL 1
REMARK VINA RESULT:     -11.5      0.000      0.000
REMARK SMILES Cc1nc(C[C@@H](C(=O)NCCCNC(=O)c2ccc(-c3c4nc(c(-c5c(F)cccc5F)c5ccc([nH]5)c(-c5c(F)cccc5F)c5nc(c(-c6c(F)cccc6F)c6ccc3[nH]6)C=C5)C=C4)cc2)[C@@H]2CCS(=O)(=O)C2)sc1C
REMARK SMILES IDX 11 1 10 2 9 3 7 4 8 5 6 7 5 8 4 9 1 10 2 11 3 12 78 13 77 14
REMARK SMILES IDX 79 15 70 16 71 17 76 18 72 19 73 20 74 21 75 22 12 23 13 24
REMARK SMILES IDX 14 25 15 27 16 28 17 29 69 30 18 31 68 32 19 33 20 34 21 35
REMARK SMILES IDX 62 36 22 37 67 38 61 39 63 40 23 41 66 42 60 43 59 44 24 46
REMARK SMILES IDX 50 47 33 48 49 49 34 50 37 51 48 52 64 53 35 54 36 55 47 57
REMARK SMILES IDX 65 58 38 59 25 60 26 61 31 62 27 63 28 64 30 65 32 66 29 67
REMARK SMILES IDX 51 68 52 69 57 70 53 71 54 72 56 73 58 74 55 75 39 76 40 77
REMARK SMILES IDX 45 78 41 79 42 80 44 81 46 82 43 83
REMARK H PARENT 9 6 13 26 63 45 37 56
REMARK Flexibility Score: inf
ROOT
ATOM      1  C   UNL A   1      31.171  31.896  26.115  1.00  0.00     0.042 C 
ENDROOT
BRANCH   1   2
ATOM      2  C   UNL A   1      31.171  30.485  25.503  1.00  0.00     0.117 C 
BRANCH   2   3
ATOM      3  N   UNL A   1      32.513  30.091  25.090  1.00  0.00    -0.356 N 
ATOM      4  C   UNL A   1      33.060  28.908  25.509  1.00  0.00     0.223 C 
ATOM      5  O   UNL A   1      33.923  28.926  26.384  1.00  0.00    -0.275 OA
ATOM      6  H   UNL A   1      33.034  30.685  24.502  1.00  0.00     0.163 HD
BRANCH   4   7
ATOM      7  C   UNL A   1      32.678  27.633  24.766  1.00  0.00     0.089 C 
BRANCH   7   8
ATOM      8  C   UNL A   1      33.622  26.466  25.155  1.00  0.00     0.081 C 
BRANCH   8   9
ATOM      9  C   UNL A   1      32.911  25.296  25.783  1.00  0.00     0.094 A 
ATOM     10  C   UNL A   1      33.149  22.267  27.716  1.00  0.00     0.068 C 
ATOM     11  C   UNL A   1      32.625  23.387  26.891  1.00  0.00     0.051 A 
ATOM     12  N   UNL A   1      33.528  24.290  26.354  1.00  0.00    -0.246 NA
ATOM     13  C   UNL A   1      31.301  23.669  26.618  1.00  0.00     0.024 A 
ATOM     14  S   UNL A   1      31.193  25.157  25.767  1.00  0.00    -0.124 S 
ATOM     15  C   UNL A   1      30.102  22.879  27.004  1.00  0.00     0.058 C 
ENDBRANCH   8   9
ENDBRANCH   7   8
BRANCH   7  16
ATOM     16  C   UNL A   1      32.730  27.864  23.209  1.00  0.00     0.018 C 
ATOM     17  C   UNL A   1      31.395  27.829  22.427  1.00  0.00     0.021 C 
ATOM     18  C   UNL A   1      33.698  26.945  22.453  1.00  0.00     0.141 C 
ATOM     19  C   UNL A   1      31.157  26.446  21.812  1.00  0.00     0.137 C 
ATOM     20  S   UNL A   1      32.745  25.660  21.677  1.00  0.00     0.150 S 
ATOM     21  O   UNL A   1      32.779  24.490  22.526  1.00  0.00    -0.229 OA
ATOM     22  O   UNL A   1      33.118  25.603  20.275  1.00  0.00    -0.229 OA
ENDBRANCH   7  16
ENDBRANCH   4   7
ENDBRANCH   2   3
ENDBRANCH   1   2
BRANCH   1  23
ATOM     23  C   UNL A   1      32.415  32.285  26.903  1.00  0.00     0.118 C 
BRANCH  23  24
ATOM     24  N   UNL A   1      32.386  33.624  27.471  1.00  0.00    -0.352 N 
ATOM     25  C   UNL A   1      33.168  34.329  28.349  1.00  0.00     0.251 C 
ATOM     26  H   UNL A   1      31.620  34.152  27.146  1.00  0.00     0.163 HD
ATOM     27  O   UNL A   1      32.780  35.455  28.664  1.00  0.00    -0.269 OA
BRANCH  25  28
ATOM     28  C   UNL A   1      34.410  33.809  28.981  1.00  0.00     0.039 A 
ATOM     29  C   UNL A   1      34.280  32.755  29.905  1.00  0.00     0.014 A 
ATOM     30  C   UNL A   1      35.679  34.334  28.758  1.00  0.00     0.014 A 
ATOM     31  C   UNL A   1      35.403  32.208  30.542  1.00  0.00     0.010 A 
ATOM     32  C   UNL A   1      36.808  33.725  29.312  1.00  0.00     0.010 A 
ATOM     33  C   UNL A   1      36.687  32.663  30.220  1.00  0.00    -0.014 A 
BRANCH  33  34
ATOM     34  C   UNL A   1      37.917  32.086  30.830  1.00  0.00     0.031 A 
ATOM     35  C   UNL A   1      38.670  30.992  30.115  1.00  0.00     0.074 A 
ATOM     36  C   UNL A   1      38.310  32.466  32.063  1.00  0.00     0.049 A 
ATOM     37  N   UNL A   1      39.637  30.225  30.551  1.00  0.00    -0.248 NA
ATOM     38  C   UNL A   1      38.253  30.702  28.733  1.00  0.00     0.031 C 
ATOM     39  C   UNL A   1      37.668  33.499  32.877  1.00  0.00     0.029 A 
ATOM     40  N   UNL A   1      39.329  32.004  32.860  1.00  0.00    -0.354 N 
ATOM     41  C   UNL A   1      39.916  29.342  29.515  1.00  0.00     0.074 A 
ATOM     42  C   UNL A   1      38.988  29.637  28.447  1.00  0.00     0.031 C 
ATOM     43  C   UNL A   1      38.311  33.597  34.051  1.00  0.00     0.029 A 
ATOM     44  C   UNL A   1      39.372  32.596  34.099  1.00  0.00     0.049 A 
ATOM     45  H   UNL A   1      39.968  31.313  32.570  1.00  0.00     0.167 HD
ATOM     46  C   UNL A   1      40.871  28.382  29.451  1.00  0.00     0.037 A 
ATOM     47  C   UNL A   1      40.153  32.342  35.167  1.00  0.00     0.037 A 
ATOM     48  C   UNL A   1      41.817  28.111  30.501  1.00  0.00     0.049 A 
ATOM     49  C   UNL A   1      41.183  31.247  35.086  1.00  0.00     0.074 A 
ATOM     50  C   UNL A   1      42.862  27.202  30.506  1.00  0.00     0.029 A 
ATOM     51  N   UNL A   1      41.833  28.745  31.734  1.00  0.00    -0.354 N 
ATOM     52  N   UNL A   1      41.468  30.451  34.083  1.00  0.00    -0.248 NA
ATOM     53  C   UNL A   1      41.998  31.011  36.287  1.00  0.00     0.031 C 
ATOM     54  C   UNL A   1      43.475  27.247  31.761  1.00  0.00     0.029 A 
ATOM     55  C   UNL A   1      42.851  28.227  32.518  1.00  0.00     0.049 A 
ATOM     56  H   UNL A   1      41.214  29.458  32.011  1.00  0.00     0.167 HD
ATOM     57  C   UNL A   1      42.511  29.644  34.521  1.00  0.00     0.074 A 
ATOM     58  C   UNL A   1      42.818  30.055  35.875  1.00  0.00     0.031 C 
ATOM     59  C   UNL A   1      43.155  28.651  33.861  1.00  0.00     0.037 A 
BRANCH  46  60
ATOM     60  C   UNL A   1      40.939  27.548  28.202  1.00  0.00     0.057 A 
ATOM     61  C   UNL A   1      40.229  26.347  28.071  1.00  0.00     0.134 A 
ATOM     62  C   UNL A   1      41.693  27.973  27.101  1.00  0.00     0.134 A 
ATOM     63  F   UNL A   1      39.494  25.877  29.090  1.00  0.00    -0.206 F 
ATOM     64  C   UNL A   1      40.292  25.583  26.904  1.00  0.00     0.040 A 
ATOM     65  C   UNL A   1      41.739  27.234  25.916  1.00  0.00     0.040 A 
ATOM     66  F   UNL A   1      42.389  29.118  27.151  1.00  0.00    -0.206 F 
ATOM     67  C   UNL A   1      41.043  26.031  25.820  1.00  0.00     0.006 A 
ENDBRANCH  46  60
BRANCH  47  68
ATOM     68  C   UNL A   1      39.994  33.134  36.414  1.00  0.00     0.057 A 
ATOM     69  C   UNL A   1      39.085  32.745  37.404  1.00  0.00     0.134 A 
ATOM     70  C   UNL A   1      40.733  34.302  36.642  1.00  0.00     0.134 A 
ATOM     71  F   UNL A   1      38.332  31.648  37.236  1.00  0.00    -0.206 F 
ATOM     72  C   UNL A   1      38.899  33.498  38.566  1.00  0.00     0.040 A 
ATOM     73  C   UNL A   1      40.579  35.049  37.811  1.00  0.00     0.040 A 
ATOM     74  F   UNL A   1      41.625  34.729  35.735  1.00  0.00    -0.206 F 
ATOM     75  C   UNL A   1      39.653  34.651  38.774  1.00  0.00     0.006 A 
ENDBRANCH  47  68
BRANCH  59  76
ATOM     76  C   UNL A   1      44.284  27.962  34.573  1.00  0.00     0.057 A 
ATOM     77  C   UNL A   1      45.592  28.460  34.544  1.00  0.00     0.134 A 
ATOM     78  C   UNL A   1      44.044  26.819  35.346  1.00  0.00     0.134 A 
ATOM     79  F   UNL A   1      45.892  29.543  33.811  1.00  0.00    -0.206 F 
ATOM     80  C   UNL A   1      46.625  27.836  35.246  1.00  0.00     0.040 A 
ATOM     81  C   UNL A   1      45.062  26.203  36.075  1.00  0.00     0.040 A 
ATOM     82  F   UNL A   1      42.812  26.295  35.425  1.00  0.00    -0.206 F 
ATOM     83  C   UNL A   1      46.359  26.710  36.023  1.00  0.00     0.006 A 
ENDBRANCH  59  76
ENDBRANCH  33  34
ENDBRANCH  25  28
ENDBRANCH  23  24
ENDBRANCH   1  23
TORSDOF 13
ENDMDL
MODEL 2
REMARK VINA RESULT:     -11.4      4.102      9.015
REMARK SMILES Cc1nc(C[C@@H](C(=O)NCCCNC(=O)c2ccc(-c3c4nc(c(-c5c(F)cccc5F)c5ccc([nH]5)c(-c5c(F)cccc5F)c5nc(c(-c6c(F)cccc6F)c6ccc3[nH]6)C=C5)C=C4)cc2)[C@@H]2CCS(=O)(=O)C2)sc1C
REMARK SMILES IDX 11 1 10 2 9 3 7 4 8 5 6 7 5 8 4 9 1 10 2 11 3 12 78 13 77 14
REMARK SMILES IDX 79 15 70 16 71 17 76 18 72 19 73 20 74 21 75 22 12 23 13 24
REMARK SMILES IDX 14 25 15 27 16 28 17 29 69 30 18 31 68 32 19 33 20 34 21 35
REMARK SMILES IDX 62 36 22 37 67 38 61 39 63 40 23 41 66 42 60 43 59 44 24 46
REMARK SMILES IDX 50 47 33 48 49 49 34 50 37 51 48 52 64 53 35 54 36 55 47 57
REMARK SMILES IDX 65 58 38 59 25 60 26 61 31 62 27 63 28 64 30 65 32 66 29 67
REMARK SMILES IDX 51 68 52 69 57 70 53 71 54 72 56 73 58 74 55 75 39 76 40 77
REMARK SMILES IDX 45 78 41 79 42 80 44 81 46 82 43 83
REMARK H PARENT 9 6 13 26 63 45 37 56
REMARK Flexibility Score: inf
ROOT
ATOM      1  C   UNL A   1      34.154  21.526  27.151  1.00  0.00     0.042 C 
ENDROOT
BRANCH   1   2
ATOM      2  C   UNL A   1      33.051  22.430  27.726  1.00  0.00     0.117 C 
BRANCH   2   3
ATOM      3  N   UNL A   1      31.926  22.537  26.805  1.00  0.00    -0.356 N 
ATOM      4  C   UNL A   1      31.284  23.730  26.613  1.00  0.00     0.223 C 
ATOM      5  O   UNL A   1      30.180  23.904  27.124  1.00  0.00    -0.275 OA
ATOM      6  H   UNL A   1      31.623  21.739  26.314  1.00  0.00     0.163 HD
BRANCH   4   7
ATOM      7  C   UNL A   1      31.905  24.737  25.650  1.00  0.00     0.089 C 
BRANCH   7   8
ATOM      8  C   UNL A   1      31.082  26.051  25.623  1.00  0.00     0.081 C 
BRANCH   8   9
ATOM      9  C   UNL A   1      31.879  27.271  26.005  1.00  0.00     0.094 A 
ATOM     10  C   UNL A   1      31.899  30.809  26.676  1.00  0.00     0.068 C 
ATOM     11  C   UNL A   1      32.331  29.405  26.452  1.00  0.00     0.051 A 
ATOM     12  N   UNL A   1      31.390  28.488  26.011  1.00  0.00    -0.246 NA
ATOM     13  C   UNL A   1      33.586  28.876  26.675  1.00  0.00     0.024 A 
ATOM     14  S   UNL A   1      33.546  27.176  26.431  1.00  0.00    -0.124 S 
ATOM     15  C   UNL A   1      34.816  29.594  27.102  1.00  0.00     0.058 C 
ENDBRANCH   8   9
ENDBRANCH   7   8
BRANCH   7  16
ATOM     16  C   UNL A   1      31.991  24.133  24.199  1.00  0.00     0.018 C 
ATOM     17  C   UNL A   1      33.289  23.391  23.799  1.00  0.00     0.021 C 
ATOM     18  C   UNL A   1      31.696  25.127  23.068  1.00  0.00     0.141 C 
ATOM     19  C   UNL A   1      34.239  24.321  23.038  1.00  0.00     0.137 C 
ATOM     20  S   UNL A   1      33.247  25.628  22.357  1.00  0.00     0.150 S 
ATOM     21  O   UNL A   1      33.636  26.888  22.951  1.00  0.00    -0.229 OA
ATOM     22  O   UNL A   1      33.165  25.450  20.919  1.00  0.00    -0.229 OA
ENDBRANCH   7  16
ENDBRANCH   4   7
ENDBRANCH   2   3
ENDBRANCH   1   2
BRANCH   1  23
ATOM     23  C   UNL A   1      35.327  22.237  26.490  1.00  0.00     0.118 C 
BRANCH  23  24
ATOM     24  N   UNL A   1      36.320  21.355  25.895  1.00  0.00    -0.352 N 
ATOM     25  C   UNL A   1      37.681  21.393  25.724  1.00  0.00     0.251 C 
ATOM     26  H   UNL A   1      35.920  20.534  25.528  1.00  0.00     0.163 HD
ATOM     27  O   UNL A   1      38.189  20.469  25.087  1.00  0.00    -0.269 OA
BRANCH  25  28
ATOM     28  C   UNL A   1      38.564  22.490  26.203  1.00  0.00     0.039 A 
ATOM     29  C   UNL A   1      38.235  23.805  25.825  1.00  0.00     0.014 A 
ATOM     30  C   UNL A   1      39.720  22.291  26.951  1.00  0.00     0.014 A 
ATOM     31  C   UNL A   1      39.016  24.893  26.238  1.00  0.00     0.010 A 
ATOM     32  C   UNL A   1      40.441  23.379  27.448  1.00  0.00     0.010 A 
ATOM     33  C   UNL A   1      40.108  24.694  27.090  1.00  0.00    -0.014 A 
BRANCH  33  34
ATOM     34  C   UNL A   1      40.944  25.818  27.597  1.00  0.00     0.031 A 
ATOM     35  C   UNL A   1      40.313  26.914  28.419  1.00  0.00     0.074 A 
ATOM     36  C   UNL A   1      42.242  25.915  27.245  1.00  0.00     0.049 A 
ATOM     37  N   UNL A   1      40.808  28.068  28.788  1.00  0.00    -0.248 NA
ATOM     38  C   UNL A   1      38.925  26.691  28.856  1.00  0.00     0.031 C 
ATOM     39  C   UNL A   1      42.979  24.939  26.441  1.00  0.00     0.029 A 
ATOM     40  N   UNL A   1      43.166  26.901  27.496  1.00  0.00    -0.354 N 
ATOM     41  C   UNL A   1      39.785  28.720  29.464  1.00  0.00     0.074 A 
ATOM     42  C   UNL A   1      38.628  27.854  29.416  1.00  0.00     0.031 C 
ATOM     43  C   UNL A   1      44.239  25.371  26.272  1.00  0.00     0.029 A 
ATOM     44  C   UNL A   1      44.385  26.678  26.902  1.00  0.00     0.049 A 
ATOM     45  H   UNL A   1      42.972  27.693  28.049  1.00  0.00     0.167 HD
ATOM     46  C   UNL A   1      39.809  29.925  30.085  1.00  0.00     0.037 A 
ATOM     47  C   UNL A   1      45.486  27.452  26.842  1.00  0.00     0.037 A 
ATOM     48  C   UNL A   1      40.970  30.772  30.162  1.00  0.00     0.049 A 
ATOM     49  C   UNL A   1      45.479  28.802  27.508  1.00  0.00     0.074 A 
ATOM     50  C   UNL A   1      41.113  31.980  30.822  1.00  0.00     0.029 A 
ATOM     51  N   UNL A   1      42.188  30.500  29.559  1.00  0.00    -0.354 N 
ATOM     52  N   UNL A   1      44.520  29.386  28.185  1.00  0.00    -0.248 NA
ATOM     53  C   UNL A   1      46.708  29.602  27.400  1.00  0.00     0.031 C 
ATOM     54  C   UNL A   1      42.399  32.466  30.572  1.00  0.00     0.029 A 
ATOM     55  C   UNL A   1      43.079  31.532  29.806  1.00  0.00     0.049 A 
ATOM     56  H   UNL A   1      42.391  29.692  29.033  1.00  0.00     0.167 HD
ATOM     57  C   UNL A   1      45.037  30.605  28.605  1.00  0.00     0.074 A 
ATOM     58  C   UNL A   1      46.400  30.671  28.120  1.00  0.00     0.031 C 
ATOM     59  C   UNL A   1      44.437  31.582  29.328  1.00  0.00     0.037 A 
BRANCH  46  60
ATOM     60  C   UNL A   1      38.537  30.404  30.728  1.00  0.00     0.057 A 
ATOM     61  C   UNL A   1      37.582  31.149  30.024  1.00  0.00     0.134 A 
ATOM     62  C   UNL A   1      38.247  30.082  32.060  1.00  0.00     0.134 A 
ATOM     63  F   UNL A   1      37.800  31.500  28.747  1.00  0.00    -0.206 F 
ATOM     64  C   UNL A   1      36.401  31.583  30.628  1.00  0.00     0.040 A 
ATOM     65  C   UNL A   1      37.054  30.482  32.667  1.00  0.00     0.040 A 
ATOM     66  F   UNL A   1      39.110  29.362  32.793  1.00  0.00    -0.206 F 
ATOM     67  C   UNL A   1      36.131  31.242  31.952  1.00  0.00     0.006 A 
ENDBRANCH  46  60
BRANCH  47  68
ATOM     68  C   UNL A   1      46.695  26.975  26.120  1.00  0.00     0.057 A 
ATOM     69  C   UNL A   1      47.658  26.191  26.766  1.00  0.00     0.134 A 
ATOM     70  C   UNL A   1      46.926  27.301  24.778  1.00  0.00     0.134 A 
ATOM     71  F   UNL A   1      47.505  25.863  28.057  1.00  0.00    -0.206 F 
ATOM     72  C   UNL A   1      48.815  25.765  26.111  1.00  0.00     0.040 A 
ATOM     73  C   UNL A   1      48.064  26.858  24.103  1.00  0.00     0.040 A 
ATOM     74  F   UNL A   1      46.041  28.046  24.099  1.00  0.00    -0.206 F 
ATOM     75  C   UNL A   1      49.017  26.094  24.773  1.00  0.00     0.006 A 
ENDBRANCH  47  68
BRANCH  59  76
ATOM     76  C   UNL A   1      45.256  32.792  29.675  1.00  0.00     0.057 A 
ATOM     77  C   UNL A   1      46.065  32.837  30.817  1.00  0.00     0.134 A 
ATOM     78  C   UNL A   1      45.279  33.903  28.821  1.00  0.00     0.134 A 
ATOM     79  F   UNL A   1      46.078  31.812  31.682  1.00  0.00    -0.206 F 
ATOM     80  C   UNL A   1      46.856  33.950  31.106  1.00  0.00     0.040 A 
ATOM     81  C   UNL A   1      46.088  35.010  29.085  1.00  0.00     0.040 A 
ATOM     82  F   UNL A   1      44.535  33.922  27.706  1.00  0.00    -0.206 F 
ATOM     83  C   UNL A   1      46.877  35.036  30.233  1.00  0.00     0.006 A 
ENDBRANCH  59  76
ENDBRANCH  33  34
ENDBRANCH  25  28
ENDBRANCH  23  24
ENDBRANCH   1  23
TORSDOF 13
ENDMDL
MODEL 3
REMARK VINA RESULT:     -11.4      4.578      9.306
REMARK SMILES Cc1nc(C[C@@H](C(=O)NCCCNC(=O)c2ccc(-c3c4nc(c(-c5c(F)cccc5F)c5ccc([nH]5)c(-c5c(F)cccc5F)c5nc(c(-c6c(F)cccc6F)c6ccc3[nH]6)C=C5)C=C4)cc2)[C@@H]2CCS(=O)(=O)C2)sc1C
REMARK SMILES IDX 11 1 10 2 9 3 7 4 8 5 6 7 5 8 4 9 1 10 2 11 3 12 78 13 77 14
REMARK SMILES IDX 79 15 70 16 71 17 76 18 72 19 73 20 74 21 75 22 12 23 13 24
REMARK SMILES IDX 14 25 15 27 16 28 17 29 69 30 18 31 68 32 19 33 20 34 21 35
REMARK SMILES IDX 62 36 22 37 67 38 61 39 63 40 23 41 66 42 60 43 59 44 24 46
REMARK SMILES IDX 50 47 33 48 49 49 34 50 37 51 48 52 64 53 35 54 36 55 47 57
REMARK SMILES IDX 65 58 38 59 25 60 26 61 31 62 27 63 28 64 30 65 32 66 29 67
REMARK SMILES IDX 51 68 52 69 57 70 53 71 54 72 56 73 58 74 55 75 39 76 40 77
REMARK SMILES IDX 45 78 41 79 42 80 44 81 46 82 43 83
REMARK H PARENT 9 6 13 26 63 45 37 56
REMARK Flexibility Score: inf
ROOT
ATOM      1  C   UNL A   1      38.178  21.124  24.877  1.00  0.00     0.042 C 
ENDROOT
BRANCH   1   2
ATOM      2  C   UNL A   1      37.973  22.476  25.581  1.00  0.00     0.117 C 
BRANCH   2   3
ATOM      3  N   UNL A   1      37.511  23.492  24.643  1.00  0.00    -0.356 N 
ATOM      4  C   UNL A   1      36.438  23.261  23.826  1.00  0.00     0.223 C 
ATOM      5  O   UNL A   1      36.633  23.028  22.635  1.00  0.00    -0.275 OA
ATOM      6  H   UNL A   1      37.978  24.358  24.597  1.00  0.00     0.163 HD
BRANCH   4   7
ATOM      7  C   UNL A   1      35.038  23.447  24.401  1.00  0.00     0.089 C 
BRANCH   7   8
ATOM      8  C   UNL A   1      34.868  24.874  24.983  1.00  0.00     0.081 C 
BRANCH   8   9
ATOM      9  C   UNL A   1      33.910  25.735  24.201  1.00  0.00     0.094 A 
ATOM     10  C   UNL A   1      31.840  26.109  21.278  1.00  0.00     0.068 C 
ATOM     11  C   UNL A   1      32.563  26.376  22.549  1.00  0.00     0.051 A 
ATOM     12  N   UNL A   1      33.469  25.432  23.004  1.00  0.00    -0.246 NA
ATOM     13  C   UNL A   1      32.409  27.469  23.378  1.00  0.00     0.024 A 
ATOM     14  S   UNL A   1      33.337  27.244  24.805  1.00  0.00    -0.124 S 
ATOM     15  C   UNL A   1      31.559  28.669  23.157  1.00  0.00     0.058 C 
ENDBRANCH   8   9
ENDBRANCH   7   8
BRANCH   7  16
ATOM     16  C   UNL A   1      34.757  22.378  25.523  1.00  0.00     0.018 C 
ATOM     17  C   UNL A   1      33.691  21.292  25.237  1.00  0.00     0.021 C 
ATOM     18  C   UNL A   1      34.419  22.963  26.901  1.00  0.00     0.141 C 
ATOM     19  C   UNL A   1      32.335  21.687  25.830  1.00  0.00     0.137 C 
ATOM     20  S   UNL A   1      32.658  22.858  27.127  1.00  0.00     0.150 S 
ATOM     21  O   UNL A   1      32.076  24.135  26.780  1.00  0.00    -0.229 OA
ATOM     22  O   UNL A   1      32.402  22.218  28.405  1.00  0.00    -0.229 OA
ENDBRANCH   7  16
ENDBRANCH   4   7
ENDBRANCH   2   3
ENDBRANCH   1   2
BRANCH   1  23
ATOM     23  C   UNL A   1      38.329  19.911  25.785  1.00  0.00     0.118 C 
BRANCH  23  24
ATOM     24  N   UNL A   1      39.606  19.222  25.678  1.00  0.00    -0.352 N 
ATOM     25  C   UNL A   1      40.908  19.526  25.986  1.00  0.00     0.251 C 
ATOM     26  H   UNL A   1      39.514  18.321  25.292  1.00  0.00     0.163 HD
ATOM     27  O   UNL A   1      41.763  18.694  25.677  1.00  0.00    -0.269 OA
BRANCH  25  28
ATOM     28  C   UNL A   1      41.355  20.799  26.611  1.00  0.00     0.039 A 
ATOM     29  C   UNL A   1      41.946  21.764  25.774  1.00  0.00     0.014 A 
ATOM     30  C   UNL A   1      41.275  21.071  27.973  1.00  0.00     0.014 A 
ATOM     31  C   UNL A   1      42.392  22.991  26.286  1.00  0.00     0.010 A 
ATOM     32  C   UNL A   1      41.623  22.330  28.469  1.00  0.00     0.010 A 
ATOM     33  C   UNL A   1      42.197  23.303  27.637  1.00  0.00    -0.014 A 
BRANCH  33  34
ATOM     34  C   UNL A   1      42.607  24.609  28.224  1.00  0.00     0.031 A 
ATOM     35  C   UNL A   1      41.579  25.689  28.450  1.00  0.00     0.074 A 
ATOM     36  C   UNL A   1      43.908  24.870  28.464  1.00  0.00     0.049 A 
ATOM     37  N   UNL A   1      41.750  26.949  28.761  1.00  0.00    -0.248 NA
ATOM     38  C   UNL A   1      40.170  25.303  28.269  1.00  0.00     0.031 C 
ATOM     39  C   UNL A   1      45.012  23.928  28.277  1.00  0.00     0.029 A 
ATOM     40  N   UNL A   1      44.526  26.020  28.893  1.00  0.00    -0.354 N 
ATOM     41  C   UNL A   1      40.478  27.511  28.775  1.00  0.00     0.074 A 
ATOM     42  C   UNL A   1      39.551  26.467  28.398  1.00  0.00     0.031 C 
ATOM     43  C   UNL A   1      46.167  24.534  28.594  1.00  0.00     0.029 A 
ATOM     44  C   UNL A   1      45.895  25.922  28.950  1.00  0.00     0.049 A 
ATOM     45  H   UNL A   1      44.033  26.838  29.135  1.00  0.00     0.167 HD
ATOM     46  C   UNL A   1      40.113  28.777  29.090  1.00  0.00     0.037 A 
ATOM     47  C   UNL A   1      46.831  26.851  29.226  1.00  0.00     0.037 A 
ATOM     48  C   UNL A   1      41.032  29.807  29.499  1.00  0.00     0.049 A 
ATOM     49  C   UNL A   1      46.404  28.260  29.539  1.00  0.00     0.074 A 
ATOM     50  C   UNL A   1      40.752  31.102  29.899  1.00  0.00     0.029 A 
ATOM     51  N   UNL A   1      42.409  29.659  29.557  1.00  0.00    -0.354 N 
ATOM     52  N   UNL A   1      45.196  28.766  29.595  1.00  0.00    -0.248 NA
ATOM     53  C   UNL A   1      47.473  29.231  29.823  1.00  0.00     0.031 C 
ATOM     54  C   UNL A   1      41.963  31.755  30.147  1.00  0.00     0.029 A 
ATOM     55  C   UNL A   1      42.995  30.848  29.959  1.00  0.00     0.049 A 
ATOM     56  H   UNL A   1      42.899  28.831  29.345  1.00  0.00     0.167 HD
ATOM     57  C   UNL A   1      45.357  30.101  29.948  1.00  0.00     0.074 A 
ATOM     58  C   UNL A   1      46.779  30.323  30.106  1.00  0.00     0.031 C 
ATOM     59  C   UNL A   1      44.411  31.056  30.124  1.00  0.00     0.037 A 
BRANCH  46  60
ATOM     60  C   UNL A   1      38.652  29.124  29.002  1.00  0.00     0.057 A 
ATOM     61  C   UNL A   1      37.801  29.044  30.112  1.00  0.00     0.134 A 
ATOM     62  C   UNL A   1      38.099  29.582  27.800  1.00  0.00     0.134 A 
ATOM     63  F   UNL A   1      38.264  28.605  31.293  1.00  0.00    -0.206 F 
ATOM     64  C   UNL A   1      36.448  29.376  30.023  1.00  0.00     0.040 A 
ATOM     65  C   UNL A   1      36.754  29.948  27.705  1.00  0.00     0.040 A 
ATOM     66  F   UNL A   1      38.857  29.694  26.698  1.00  0.00    -0.206 F 
ATOM     67  C   UNL A   1      35.924  29.837  28.818  1.00  0.00     0.006 A 
ENDBRANCH  46  60
BRANCH  47  68
ATOM     68  C   UNL A   1      48.272  26.485  29.218  1.00  0.00     0.057 A 
ATOM     69  C   UNL A   1      49.056  26.673  28.074  1.00  0.00     0.134 A 
ATOM     70  C   UNL A   1      48.896  25.930  30.342  1.00  0.00     0.134 A 
ATOM     71  F   UNL A   1      48.512  27.181  26.958  1.00  0.00    -0.206 F 
ATOM     72  C   UNL A   1      50.402  26.302  28.039  1.00  0.00     0.040 A 
ATOM     73  C   UNL A   1      50.247  25.581  30.331  1.00  0.00     0.040 A 
ATOM     74  F   UNL A   1      48.203  25.728  31.472  1.00  0.00    -0.206 F 
ATOM     75  C   UNL A   1      51.002  25.761  29.173  1.00  0.00     0.006 A 
ENDBRANCH  47  68
BRANCH  59  76
ATOM     76  C   UNL A   1      44.873  32.420  30.547  1.00  0.00     0.057 A 
ATOM     77  C   UNL A   1      45.131  33.437  29.619  1.00  0.00     0.134 A 
ATOM     78  C   UNL A   1      45.002  32.738  31.906  1.00  0.00     0.134 A 
ATOM     79  F   UNL A   1      45.039  33.195  28.302  1.00  0.00    -0.206 F 
ATOM     80  C   UNL A   1      45.518  34.715  30.026  1.00  0.00     0.040 A 
ATOM     81  C   UNL A   1      45.359  34.020  32.326  1.00  0.00     0.040 A 
ATOM     82  F   UNL A   1      44.761  31.814  32.847  1.00  0.00    -0.206 F 
ATOM     83  C   UNL A   1      45.622  35.012  31.384  1.00  0.00     0.006 A 
ENDBRANCH  59  76
ENDBRANCH  33  34
ENDBRANCH  25  28
ENDBRANCH  23  24
ENDBRANCH   1  23
TORSDOF 13
ENDMDL
