MODEL 1
REMARK VINA RESULT:      -9.6      0.000      0.000
REMARK SMILES C[C@H](SCCO)[C@@H](C)C(=O)NCCCNC(=O)c1ccc(-c2c3nc(c(-c4c(F)cccc4F)c4ccc([nH]4)c(-c4c(F)cccc4F)c4nc(c(-c5c(F)cccc5F)c5ccc2[nH]5)C=C4)C=C3)cc1
REMARK SMILES IDX 9 1 10 2 11 3 7 5 8 6 2 7 1 8 3 9 4 10 5 11 6 12 12 14 13 15
REMARK SMILES IDX 14 16 15 17 16 18 17 20 18 21 19 22 71 23 20 24 70 25 21 26
REMARK SMILES IDX 22 27 23 28 64 29 24 30 69 31 63 32 65 33 25 34 68 35 62 36
REMARK SMILES IDX 61 37 26 39 52 40 35 41 51 42 36 43 39 44 50 45 66 46 37 47
REMARK SMILES IDX 38 48 49 50 67 51 40 52 27 53 28 54 33 55 29 56 30 57 32 58
REMARK SMILES IDX 34 59 31 60 53 61 54 62 59 63 55 64 56 65 58 66 60 67 57 68
REMARK SMILES IDX 41 69 42 70 47 71 43 72 44 73 46 74 48 75 45 76
REMARK H PARENT 11 4 6 13 15 19 65 38 39 49
REMARK Flexibility Score: inf
ROOT
ATOM      1  C   UNL A   1      31.592  29.441  24.082  1.00  0.00     0.223 C 
ATOM      2  O   UNL A   1      30.939  29.298  23.045  1.00  0.00    -0.275 OA
ATOM      3  N   UNL A   1      31.074  30.268  25.030  1.00  0.00    -0.356 N 
ATOM      4  H   UNL A   1      30.206  30.665  24.793  1.00  0.00     0.163 HD
ENDROOT
BRANCH   1   5
ATOM      5  C   UNL A   1      32.916  28.700  24.271  1.00  0.00     0.088 C 
ATOM      6  C   UNL A   1      33.786  28.914  23.034  1.00  0.00     0.019 C 
BRANCH   5   7
ATOM      7  C   UNL A   1      32.711  27.251  24.775  1.00  0.00     0.055 C 
ATOM      8  C   UNL A   1      33.261  27.121  26.210  1.00  0.00     0.020 C 
BRANCH   7   9
ATOM      9  S   UNL A   1      33.567  25.921  23.809  1.00  0.00    -0.156 SA
BRANCH   9  10
ATOM     10  C   UNL A   1      32.288  25.273  22.667  1.00  0.00     0.098 C 
BRANCH  10  11
ATOM     11  C   UNL A   1      32.145  25.953  21.308  1.00  0.00     0.167 C 
BRANCH  11  12
ATOM     12  O   UNL A   1      31.246  27.050  21.328  1.00  0.00    -0.396 OA
ATOM     13  H   UNL A   1      31.744  27.876  21.441  1.00  0.00     0.210 HD
ENDBRANCH  11  12
ENDBRANCH  10  11
ENDBRANCH   9  10
ENDBRANCH   7   9
ENDBRANCH   5   7
ENDBRANCH   1   5
BRANCH   3  14
ATOM     14  C   UNL A   1      31.580  30.663  26.330  1.00  0.00     0.117 C 
BRANCH  14  15
ATOM     15  C   UNL A   1      31.442  32.164  26.561  1.00  0.00     0.042 C 
BRANCH  15  16
ATOM     16  C   UNL A   1      32.671  32.796  27.203  1.00  0.00     0.118 C 
BRANCH  16  17
ATOM     17  N   UNL A   1      32.436  34.172  27.617  1.00  0.00    -0.352 N 
ATOM     18  C   UNL A   1      33.008  34.906  28.626  1.00  0.00     0.251 C 
ATOM     19  H   UNL A   1      31.758  34.653  27.090  1.00  0.00     0.163 HD
ATOM     20  O   UNL A   1      32.528  35.992  28.935  1.00  0.00    -0.269 OA
BRANCH  18  21
ATOM     21  C   UNL A   1      34.187  34.390  29.354  1.00  0.00     0.039 A 
ATOM     22  C   UNL A   1      33.992  33.734  30.573  1.00  0.00     0.014 A 
ATOM     23  C   UNL A   1      35.480  34.573  28.858  1.00  0.00     0.014 A 
ATOM     24  C   UNL A   1      35.087  33.207  31.260  1.00  0.00     0.010 A 
ATOM     25  C   UNL A   1      36.560  33.973  29.499  1.00  0.00     0.010 A 
ATOM     26  C   UNL A   1      36.375  33.289  30.710  1.00  0.00    -0.014 A 
BRANCH  26  27
ATOM     27  C   UNL A   1      37.544  32.673  31.387  1.00  0.00     0.031 A 
ATOM     28  C   UNL A   1      38.230  31.482  30.776  1.00  0.00     0.074 A 
ATOM     29  C   UNL A   1      37.944  33.144  32.583  1.00  0.00     0.049 A 
ATOM     30  N   UNL A   1      39.214  30.761  31.251  1.00  0.00    -0.248 NA
ATOM     31  C   UNL A   1      37.726  31.023  29.471  1.00  0.00     0.031 C 
ATOM     32  C   UNL A   1      37.331  34.263  33.302  1.00  0.00     0.029 A 
ATOM     33  N   UNL A   1      38.957  32.733  33.414  1.00  0.00    -0.354 N 
ATOM     34  C   UNL A   1      39.433  29.759  30.314  1.00  0.00     0.074 A 
ATOM     35  C   UNL A   1      38.445  29.928  29.272  1.00  0.00     0.031 C 
ATOM     36  C   UNL A   1      37.994  34.465  34.451  1.00  0.00     0.029 A 
ATOM     37  C   UNL A   1      39.051  33.466  34.572  1.00  0.00     0.049 A 
ATOM     38  H   UNL A   1      39.559  31.985  33.199  1.00  0.00     0.167 HD
ATOM     39  C   UNL A   1      40.387  28.797  30.311  1.00  0.00     0.037 A 
ATOM     40  C   UNL A   1      39.888  33.339  35.619  1.00  0.00     0.037 A 
ATOM     41  C   UNL A   1      41.384  28.646  31.339  1.00  0.00     0.049 A 
ATOM     42  C   UNL A   1      40.932  32.258  35.596  1.00  0.00     0.074 A 
ATOM     43  C   UNL A   1      42.431  27.742  31.398  1.00  0.00     0.029 A 
ATOM     44  N   UNL A   1      41.456  29.418  32.488  1.00  0.00    -0.354 N 
ATOM     45  N   UNL A   1      41.172  31.360  34.671  1.00  0.00    -0.248 NA
ATOM     46  C   UNL A   1      41.827  32.177  36.758  1.00  0.00     0.031 C 
ATOM     47  C   UNL A   1      43.106  27.935  32.607  1.00  0.00     0.029 A 
ATOM     48  C   UNL A   1      42.515  28.995  33.275  1.00  0.00     0.049 A 
ATOM     49  H   UNL A   1      40.845  30.157  32.712  1.00  0.00     0.167 HD
ATOM     50  C   UNL A   1      42.261  30.628  35.125  1.00  0.00     0.074 A 
ATOM     51  C   UNL A   1      42.644  31.196  36.401  1.00  0.00     0.031 C 
ATOM     52  C   UNL A   1      42.888  29.578  34.539  1.00  0.00     0.037 A 
BRANCH  39  53
ATOM     53  C   UNL A   1      40.401  27.836  29.157  1.00  0.00     0.057 A 
ATOM     54  C   UNL A   1      39.642  26.657  29.167  1.00  0.00     0.134 A 
ATOM     55  C   UNL A   1      41.155  28.106  28.008  1.00  0.00     0.134 A 
ATOM     56  F   UNL A   1      38.906  26.332  30.241  1.00  0.00    -0.206 F 
ATOM     57  C   UNL A   1      39.655  25.770  28.089  1.00  0.00     0.040 A 
ATOM     58  C   UNL A   1      41.153  27.241  26.913  1.00  0.00     0.040 A 
ATOM     59  F   UNL A   1      41.900  29.219  27.928  1.00  0.00    -0.206 F 
ATOM     60  C   UNL A   1      40.407  26.066  26.954  1.00  0.00     0.006 A 
ENDBRANCH  39  53
BRANCH  40  61
ATOM     61  C   UNL A   1      39.788  34.274  36.769  1.00  0.00     0.057 A 
ATOM     62  C   UNL A   1      39.038  33.944  37.904  1.00  0.00     0.134 A 
ATOM     63  C   UNL A   1      40.426  35.520  36.759  1.00  0.00     0.134 A 
ATOM     64  F   UNL A   1      38.390  32.771  37.966  1.00  0.00    -0.206 F 
ATOM     65  C   UNL A   1      38.908  34.826  38.978  1.00  0.00     0.040 A 
ATOM     66  C   UNL A   1      40.327  36.401  37.837  1.00  0.00     0.040 A 
ATOM     67  F   UNL A   1      41.167  35.893  35.705  1.00  0.00    -0.206 F 
ATOM     68  C   UNL A   1      39.559  36.058  38.947  1.00  0.00     0.006 A 
ENDBRANCH  40  61
BRANCH  52  69
ATOM     69  C   UNL A   1      44.077  29.002  35.252  1.00  0.00     0.057 A 
ATOM     70  C   UNL A   1      43.952  27.971  36.190  1.00  0.00     0.134 A 
ATOM     71  C   UNL A   1      45.368  29.462  34.966  1.00  0.00     0.134 A 
ATOM     72  F   UNL A   1      42.741  27.494  36.520  1.00  0.00    -0.206 F 
ATOM     73  C   UNL A   1      45.066  27.433  36.836  1.00  0.00     0.040 A 
ATOM     74  C   UNL A   1      46.493  28.914  35.583  1.00  0.00     0.040 A 
ATOM     75  F   UNL A   1      45.560  30.443  34.069  1.00  0.00    -0.206 F 
ATOM     76  C   UNL A   1      46.342  27.900  36.526  1.00  0.00     0.006 A 
ENDBRANCH  52  69
ENDBRANCH  26  27
ENDBRANCH  18  21
ENDBRANCH  16  17
ENDBRANCH  15  16
ENDBRANCH  14  15
ENDBRANCH   3  14
TORSDOF 15
ENDMDL
MODEL 2
REMARK VINA RESULT:      -9.4      6.238     10.911
REMARK SMILES C[C@H](SCCO)[C@@H](C)C(=O)NCCCNC(=O)c1ccc(-c2c3nc(c(-c4c(F)cccc4F)c4ccc([nH]4)c(-c4c(F)cccc4F)c4nc(c(-c5c(F)cccc5F)c5ccc2[nH]5)C=C4)C=C3)cc1
REMARK SMILES IDX 9 1 10 2 11 3 7 5 8 6 2 7 1 8 3 9 4 10 5 11 6 12 12 14 13 15
REMARK SMILES IDX 14 16 15 17 16 18 17 20 18 21 19 22 71 23 20 24 70 25 21 26
REMARK SMILES IDX 22 27 23 28 64 29 24 30 69 31 63 32 65 33 25 34 68 35 62 36
REMARK SMILES IDX 61 37 26 39 52 40 35 41 51 42 36 43 39 44 50 45 66 46 37 47
REMARK SMILES IDX 38 48 49 50 67 51 40 52 27 53 28 54 33 55 29 56 30 57 32 58
REMARK SMILES IDX 34 59 31 60 53 61 54 62 59 63 55 64 56 65 58 66 60 67 57 68
REMARK SMILES IDX 41 69 42 70 47 71 43 72 44 73 46 74 48 75 45 76
REMARK H PARENT 11 4 6 13 15 19 65 38 39 49
REMARK Flexibility Score: inf
ROOT
ATOM      1  C   UNL A   1      34.197  20.724  25.650  1.00  0.00     0.223 C 
ATOM      2  O   UNL A   1      33.176  20.034  25.717  1.00  0.00    -0.275 OA
ATOM      3  N   UNL A   1      35.271  20.180  25.018  1.00  0.00    -0.356 N 
ATOM      4  H   UNL A   1      35.117  19.277  24.658  1.00  0.00     0.163 HD
ENDROOT
BRANCH   1   5
ATOM      5  C   UNL A   1      34.220  22.130  26.251  1.00  0.00     0.088 C 
ATOM      6  C   UNL A   1      33.736  22.061  27.698  1.00  0.00     0.019 C 
BRANCH   5   7
ATOM      7  C   UNL A   1      33.571  23.179  25.316  1.00  0.00     0.055 C 
ATOM      8  C   UNL A   1      32.040  23.160  25.505  1.00  0.00     0.020 C 
BRANCH   7   9
ATOM      9  S   UNL A   1      33.833  22.927  23.499  1.00  0.00    -0.156 SA
BRANCH   9  10
ATOM     10  C   UNL A   1      32.222  22.317  22.872  1.00  0.00     0.098 C 
BRANCH  10  11
ATOM     11  C   UNL A   1      32.149  20.865  22.407  1.00  0.00     0.167 C 
BRANCH  11  12
ATOM     12  O   UNL A   1      31.410  20.703  21.207  1.00  0.00    -0.396 OA
ATOM     13  H   UNL A   1      31.830  21.214  20.496  1.00  0.00     0.210 HD
ENDBRANCH  11  12
ENDBRANCH  10  11
ENDBRANCH   9  10
ENDBRANCH   7   9
ENDBRANCH   5   7
ENDBRANCH   1   5
BRANCH   3  14
ATOM     14  C   UNL A   1      36.603  20.701  24.783  1.00  0.00     0.117 C 
BRANCH  14  15
ATOM     15  C   UNL A   1      37.676  19.639  24.998  1.00  0.00     0.042 C 
BRANCH  15  16
ATOM     16  C   UNL A   1      38.954  20.185  25.622  1.00  0.00     0.118 C 
BRANCH  16  17
ATOM     17  N   UNL A   1      39.969  19.156  25.801  1.00  0.00    -0.352 N 
ATOM     18  C   UNL A   1      41.313  19.268  26.057  1.00  0.00     0.251 C 
ATOM     19  H   UNL A   1      39.639  18.231  25.725  1.00  0.00     0.163 HD
ATOM     20  O   UNL A   1      42.031  18.276  25.977  1.00  0.00    -0.269 OA
BRANCH  18  21
ATOM     21  C   UNL A   1      41.902  20.576  26.411  1.00  0.00     0.039 A 
ATOM     22  C   UNL A   1      42.248  21.459  25.383  1.00  0.00     0.014 A 
ATOM     23  C   UNL A   1      42.141  20.926  27.742  1.00  0.00     0.014 A 
ATOM     24  C   UNL A   1      42.773  22.715  25.695  1.00  0.00     0.010 A 
ATOM     25  C   UNL A   1      42.583  22.208  28.054  1.00  0.00     0.010 A 
ATOM     26  C   UNL A   1      42.909  23.114  27.033  1.00  0.00    -0.014 A 
BRANCH  26  27
ATOM     27  C   UNL A   1      43.396  24.471  27.389  1.00  0.00     0.031 A 
ATOM     28  C   UNL A   1      42.425  25.532  27.826  1.00  0.00     0.074 A 
ATOM     29  C   UNL A   1      44.704  24.764  27.253  1.00  0.00     0.049 A 
ATOM     30  N   UNL A   1      42.647  26.792  28.103  1.00  0.00    -0.248 NA
ATOM     31  C   UNL A   1      41.013  25.133  27.940  1.00  0.00     0.031 C 
ATOM     32  C   UNL A   1      45.738  23.835  26.792  1.00  0.00     0.029 A 
ATOM     33  N   UNL A   1      45.387  25.933  27.478  1.00  0.00    -0.354 N 
ATOM     34  C   UNL A   1      41.405  27.336  28.407  1.00  0.00     0.074 A 
ATOM     35  C   UNL A   1      40.427  26.286  28.225  1.00  0.00     0.031 C 
ATOM     36  C   UNL A   1      46.924  24.461  26.793  1.00  0.00     0.029 A 
ATOM     37  C   UNL A   1      46.732  25.845  27.212  1.00  0.00     0.049 A 
ATOM     38  H   UNL A   1      44.954  26.756  27.801  1.00  0.00     0.167 HD
ATOM     39  C   UNL A   1      41.110  28.590  28.823  1.00  0.00     0.037 A 
ATOM     40  C   UNL A   1      47.699  26.779  27.288  1.00  0.00     0.037 A 
ATOM     41  C   UNL A   1      42.089  29.626  29.025  1.00  0.00     0.049 A 
ATOM     42  C   UNL A   1      47.343  28.167  27.743  1.00  0.00     0.074 A 
ATOM     43  C   UNL A   1      41.899  30.912  29.500  1.00  0.00     0.029 A 
ATOM     44  N   UNL A   1      43.444  29.493  28.760  1.00  0.00    -0.354 N 
ATOM     45  N   UNL A   1      46.175  28.649  28.093  1.00  0.00    -0.248 NA
ATOM     46  C   UNL A   1      48.441  29.140  27.820  1.00  0.00     0.031 C 
ATOM     47  C   UNL A   1      43.131  31.573  29.477  1.00  0.00     0.029 A 
ATOM     48  C   UNL A   1      44.098  30.682  29.039  1.00  0.00     0.049 A 
ATOM     49  H   UNL A   1      43.876  28.675  28.423  1.00  0.00     0.167 HD
ATOM     50  C   UNL A   1      46.402  29.969  28.459  1.00  0.00     0.074 A 
ATOM     51  C   UNL A   1      47.822  30.208  28.303  1.00  0.00     0.031 C 
ATOM     52  C   UNL A   1      45.514  30.900  28.887  1.00  0.00     0.037 A 
BRANCH  39  53
ATOM     53  C   UNL A   1      39.667  28.911  29.091  1.00  0.00     0.057 A 
ATOM     54  C   UNL A   1      39.111  28.803  30.374  1.00  0.00     0.134 A 
ATOM     55  C   UNL A   1      38.831  29.365  28.063  1.00  0.00     0.134 A 
ATOM     56  F   UNL A   1      39.854  28.363  31.401  1.00  0.00    -0.206 F 
ATOM     57  C   UNL A   1      37.771  29.108  30.617  1.00  0.00     0.040 A 
ATOM     58  C   UNL A   1      37.497  29.700  28.301  1.00  0.00     0.040 A 
ATOM     59  F   UNL A   1      39.298  29.498  26.813  1.00  0.00    -0.206 F 
ATOM     60  C   UNL A   1      36.961  29.565  29.579  1.00  0.00     0.006 A 
ENDBRANCH  39  53
BRANCH  40  61
ATOM     61  C   UNL A   1      49.100  26.429  26.945  1.00  0.00     0.057 A 
ATOM     62  C   UNL A   1      49.979  25.932  27.916  1.00  0.00     0.134 A 
ATOM     63  C   UNL A   1      49.601  26.591  25.647  1.00  0.00     0.134 A 
ATOM     64  F   UNL A   1      49.563  25.770  29.181  1.00  0.00    -0.206 F 
ATOM     65  C   UNL A   1      51.307  25.629  27.616  1.00  0.00     0.040 A 
ATOM     66  C   UNL A   1      50.919  26.266  25.327  1.00  0.00     0.040 A 
ATOM     67  F   UNL A   1      48.809  27.053  24.669  1.00  0.00    -0.206 F 
ATOM     68  C   UNL A   1      51.780  25.792  26.314  1.00  0.00     0.006 A 
ENDBRANCH  40  61
BRANCH  52  69
ATOM     69  C   UNL A   1      46.058  32.251  29.253  1.00  0.00     0.057 A 
ATOM     70  C   UNL A   1      46.449  32.564  30.560  1.00  0.00     0.134 A 
ATOM     71  C   UNL A   1      46.226  33.238  28.274  1.00  0.00     0.134 A 
ATOM     72  F   UNL A   1      46.301  31.667  31.547  1.00  0.00    -0.206 F 
ATOM     73  C   UNL A   1      46.967  33.818  30.886  1.00  0.00     0.040 A 
ATOM     74  C   UNL A   1      46.769  34.486  28.581  1.00  0.00     0.040 A 
ATOM     75  F   UNL A   1      45.880  33.001  26.999  1.00  0.00    -0.206 F 
ATOM     76  C   UNL A   1      47.136  34.781  29.892  1.00  0.00     0.006 A 
ENDBRANCH  52  69
ENDBRANCH  26  27
ENDBRANCH  18  21
ENDBRANCH  16  17
ENDBRANCH  15  16
ENDBRANCH  14  15
ENDBRANCH   3  14
TORSDOF 15
ENDMDL
MODEL 3
REMARK VINA RESULT:      -9.4      5.964     10.920
REMARK SMILES C[C@H](SCCO)[C@@H](C)C(=O)NCCCNC(=O)c1ccc(-c2c3nc(c(-c4c(F)cccc4F)c4ccc([nH]4)c(-c4c(F)cccc4F)c4nc(c(-c5c(F)cccc5F)c5ccc2[nH]5)C=C4)C=C3)cc1
REMARK SMILES IDX 9 1 10 2 11 3 7 5 8 6 2 7 1 8 3 9 4 10 5 11 6 12 12 14 13 15
REMARK SMILES IDX 14 16 15 17 16 18 17 20 18 21 19 22 71 23 20 24 70 25 21 26
REMARK SMILES IDX 22 27 23 28 64 29 24 30 69 31 63 32 65 33 25 34 68 35 62 36
REMARK SMILES IDX 61 37 26 39 52 40 35 41 51 42 36 43 39 44 50 45 66 46 37 47
REMARK SMILES IDX 38 48 49 50 67 51 40 52 27 53 28 54 33 55 29 56 30 57 32 58
REMARK SMILES IDX 34 59 31 60 53 61 54 62 59 63 55 64 56 65 58 66 60 67 57 68
REMARK SMILES IDX 41 69 42 70 47 71 43 72 44 73 46 74 48 75 45 76
REMARK H PARENT 11 4 6 13 15 19 65 38 39 49
REMARK Flexibility Score: inf
ROOT
ATOM      1  C   UNL A   1      34.135  20.848  25.240  1.00  0.00     0.223 C 
ATOM      2  O   UNL A   1      33.147  20.151  25.489  1.00  0.00    -0.275 OA
ATOM      3  N   UNL A   1      35.322  20.205  25.083  1.00  0.00    -0.356 N 
ATOM      4  H   UNL A   1      35.270  19.226  25.172  1.00  0.00     0.163 HD
ENDROOT
BRANCH   1   5
ATOM      5  C   UNL A   1      33.997  22.366  25.107  1.00  0.00     0.088 C 
ATOM      6  C   UNL A   1      34.265  23.010  26.466  1.00  0.00     0.019 C 
BRANCH   5   7
ATOM      7  C   UNL A   1      32.710  22.774  24.350  1.00  0.00     0.055 C 
ATOM      8  C   UNL A   1      32.902  22.529  22.838  1.00  0.00     0.020 C 
BRANCH   7   9
ATOM      9  S   UNL A   1      32.209  24.553  24.488  1.00  0.00    -0.156 SA
BRANCH   9  10
ATOM     10  C   UNL A   1      33.588  25.489  23.725  1.00  0.00     0.098 C 
BRANCH  10  11
ATOM     11  C   UNL A   1      33.280  26.301  22.469  1.00  0.00     0.167 C 
BRANCH  11  12
ATOM     12  O   UNL A   1      33.645  25.630  21.273  1.00  0.00    -0.396 OA
ATOM     13  H   UNL A   1      32.934  25.724  20.619  1.00  0.00     0.210 HD
ENDBRANCH  11  12
ENDBRANCH  10  11
ENDBRANCH   9  10
ENDBRANCH   7   9
ENDBRANCH   5   7
ENDBRANCH   1   5
BRANCH   3  14
ATOM     14  C   UNL A   1      36.652  20.712  24.806  1.00  0.00     0.117 C 
BRANCH  14  15
ATOM     15  C   UNL A   1      37.720  19.641  24.997  1.00  0.00     0.042 C 
BRANCH  15  16
ATOM     16  C   UNL A   1      38.953  20.139  25.743  1.00  0.00     0.118 C 
BRANCH  16  17
ATOM     17  N   UNL A   1      39.993  19.124  25.837  1.00  0.00    -0.352 N 
ATOM     18  C   UNL A   1      41.346  19.254  26.028  1.00  0.00     0.251 C 
ATOM     19  H   UNL A   1      39.675  18.196  25.749  1.00  0.00     0.163 HD
ATOM     20  O   UNL A   1      42.076  18.279  25.881  1.00  0.00    -0.269 OA
BRANCH  18  21
ATOM     21  C   UNL A   1      41.930  20.562  26.392  1.00  0.00     0.039 A 
ATOM     22  C   UNL A   1      42.295  21.444  25.371  1.00  0.00     0.014 A 
ATOM     23  C   UNL A   1      42.145  20.912  27.728  1.00  0.00     0.014 A 
ATOM     24  C   UNL A   1      42.816  22.699  25.692  1.00  0.00     0.010 A 
ATOM     25  C   UNL A   1      42.582  22.193  28.047  1.00  0.00     0.010 A 
ATOM     26  C   UNL A   1      42.928  23.098  27.032  1.00  0.00    -0.014 A 
BRANCH  26  27
ATOM     27  C   UNL A   1      43.410  24.455  27.396  1.00  0.00     0.031 A 
ATOM     28  C   UNL A   1      42.433  25.514  27.828  1.00  0.00     0.074 A 
ATOM     29  C   UNL A   1      44.718  24.751  27.273  1.00  0.00     0.049 A 
ATOM     30  N   UNL A   1      42.651  26.773  28.111  1.00  0.00    -0.248 NA
ATOM     31  C   UNL A   1      41.021  25.112  27.927  1.00  0.00     0.031 C 
ATOM     32  C   UNL A   1      45.758  23.824  26.819  1.00  0.00     0.029 A 
ATOM     33  N   UNL A   1      45.397  25.920  27.509  1.00  0.00    -0.354 N 
ATOM     34  C   UNL A   1      41.406  27.314  28.405  1.00  0.00     0.074 A 
ATOM     35  C   UNL A   1      40.431  26.264  28.211  1.00  0.00     0.031 C 
ATOM     36  C   UNL A   1      46.943  24.452  26.833  1.00  0.00     0.029 A 
ATOM     37  C   UNL A   1      46.746  25.835  27.255  1.00  0.00     0.049 A 
ATOM     38  H   UNL A   1      44.960  26.741  27.829  1.00  0.00     0.167 HD
ATOM     39  C   UNL A   1      41.104  28.567  28.821  1.00  0.00     0.037 A 
ATOM     40  C   UNL A   1      47.710  26.770  27.342  1.00  0.00     0.037 A 
ATOM     41  C   UNL A   1      42.080  29.603  29.036  1.00  0.00     0.049 A 
ATOM     42  C   UNL A   1      47.348  28.156  27.798  1.00  0.00     0.074 A 
ATOM     43  C   UNL A   1      41.884  30.887  29.513  1.00  0.00     0.029 A 
ATOM     44  N   UNL A   1      43.437  29.473  28.782  1.00  0.00    -0.354 N 
ATOM     45  N   UNL A   1      46.176  28.635  28.138  1.00  0.00    -0.248 NA
ATOM     46  C   UNL A   1      48.444  29.130  27.888  1.00  0.00     0.031 C 
ATOM     47  C   UNL A   1      43.116  31.550  29.504  1.00  0.00     0.029 A 
ATOM     48  C   UNL A   1      44.087  30.662  29.072  1.00  0.00     0.049 A 
ATOM     49  H   UNL A   1      43.874  28.657  28.447  1.00  0.00     0.167 HD
ATOM     50  C   UNL A   1      46.397  29.954  28.511  1.00  0.00     0.074 A 
ATOM     51  C   UNL A   1      47.819  30.195  28.368  1.00  0.00     0.031 C 
ATOM     52  C   UNL A   1      45.505  30.883  28.933  1.00  0.00     0.037 A 
BRANCH  39  53
ATOM     53  C   UNL A   1      39.658  28.885  29.077  1.00  0.00     0.057 A 
ATOM     54  C   UNL A   1      38.807  29.329  28.056  1.00  0.00     0.134 A 
ATOM     55  C   UNL A   1      39.102  28.715  30.351  1.00  0.00     0.134 A 
ATOM     56  F   UNL A   1      39.278  29.525  26.815  1.00  0.00    -0.206 F 
ATOM     57  C   UNL A   1      37.463  29.618  28.299  1.00  0.00     0.040 A 
ATOM     58  C   UNL A   1      37.753  28.973  30.599  1.00  0.00     0.040 A 
ATOM     59  F   UNL A   1      39.858  28.287  31.374  1.00  0.00    -0.206 F 
ATOM     60  C   UNL A   1      36.931  29.432  29.574  1.00  0.00     0.006 A 
ENDBRANCH  39  53
BRANCH  40  61
ATOM     61  C   UNL A   1      49.115  26.422  27.011  1.00  0.00     0.057 A 
ATOM     62  C   UNL A   1      49.594  26.523  25.699  1.00  0.00     0.134 A 
ATOM     63  C   UNL A   1      50.010  25.970  27.989  1.00  0.00     0.134 A 
ATOM     64  F   UNL A   1      48.780  26.934  24.714  1.00  0.00    -0.206 F 
ATOM     65  C   UNL A   1      50.902  26.168  25.367  1.00  0.00     0.040 A 
ATOM     66  C   UNL A   1      51.328  25.638  27.676  1.00  0.00     0.040 A 
ATOM     67  F   UNL A   1      49.616  25.860  29.266  1.00  0.00    -0.206 F 
ATOM     68  C   UNL A   1      51.775  25.728  26.360  1.00  0.00     0.006 A 
ENDBRANCH  40  61
BRANCH  52  69
ATOM     69  C   UNL A   1      46.043  32.233  29.308  1.00  0.00     0.057 A 
ATOM     70  C   UNL A   1      46.125  33.282  28.385  1.00  0.00     0.134 A 
ATOM     71  C   UNL A   1      46.449  32.495  30.623  1.00  0.00     0.134 A 
ATOM     72  F   UNL A   1      45.765  33.093  27.107  1.00  0.00    -0.206 F 
ATOM     73  C   UNL A   1      46.614  34.537  28.749  1.00  0.00     0.040 A 
ATOM     74  C   UNL A   1      46.912  33.754  31.007  1.00  0.00     0.040 A 
ATOM     75  F   UNL A   1      46.387  31.536  31.560  1.00  0.00    -0.206 F 
ATOM     76  C   UNL A   1      47.001  34.778  30.067  1.00  0.00     0.006 A 
ENDBRANCH  52  69
ENDBRANCH  26  27
ENDBRANCH  18  21
ENDBRANCH  16  17
ENDBRANCH  15  16
ENDBRANCH  14  15
ENDBRANCH   3  14
TORSDOF 15
ENDMDL
