MODEL 1
REMARK VINA RESULT:     -12.7      0.000      0.000
REMARK SMILES CCn1ncc(-c2cc(C(F)(F)F)nc(-n3ccc(C(=O)NCCCNC(=O)c4ccc(-c5c6nc(c(-c7c(F)cccc7F)c7ccc([nH]7)c(-c7c(F)cccc7F)c7nc(c(-c8c(F)cccc8F)c8ccc5[nH]8)C=C7)C=C6)cc4)n3)n2)c1C
REMARK SMILES IDX 23 1 22 2 20 3 21 4 19 6 16 7 17 8 83 9 18 10 15 11 7 12
REMARK SMILES IDX 8 13 84 14 9 15 14 16 6 17 3 18 4 19 85 20 5 21 86 22 2 23
REMARK SMILES IDX 1 24 10 25 11 26 12 27 13 28 24 29 25 30 26 31 27 32 28 34
REMARK SMILES IDX 29 35 30 36 82 37 31 38 81 39 32 40 33 41 34 42 75 43 35 44
REMARK SMILES IDX 80 45 74 46 76 47 36 48 79 49 73 50 72 51 37 53 63 54 46 55
REMARK SMILES IDX 62 56 47 57 50 58 61 59 77 60 48 61 49 62 60 64 78 65 51 66
REMARK SMILES IDX 38 67 39 68 44 69 40 70 41 71 43 72 45 73 42 74 64 75 65 76
REMARK SMILES IDX 70 77 66 78 67 79 69 80 71 81 68 82 52 83 53 84 58 85 54 86
REMARK SMILES IDX 55 87 57 88 59 89 56 90
REMARK H PARENT 22 5 26 33 76 52 50 63
REMARK Flexibility Score: inf
ROOT
ATOM      1  C   UNL A   1      40.731  20.394  27.541  1.00  0.00     0.118 C 
ENDROOT
BRANCH   1   2
ATOM      2  N   UNL A   1      40.404  21.767  27.174  1.00  0.00    -0.351 N 
ATOM      3  C   UNL A   1      39.387  22.288  26.400  1.00  0.00     0.271 C 
ATOM      4  O   UNL A   1      39.366  23.512  26.247  1.00  0.00    -0.267 OA
ATOM      5  H   UNL A   1      41.017  22.442  27.544  1.00  0.00     0.163 HD
BRANCH   3   6
ATOM      6  C   UNL A   1      38.403  21.421  25.726  1.00  0.00     0.150 A 
ATOM      7  N   UNL A   1      36.520  20.619  25.084  1.00  0.00    -0.205 N 
ATOM      8  C   UNL A   1      37.434  19.617  24.854  1.00  0.00     0.119 A 
ATOM      9  N   UNL A   1      37.124  21.759  25.501  1.00  0.00    -0.160 NA
ATOM     10  C   UNL A   1      38.661  20.120  25.211  1.00  0.00     0.056 A 
BRANCH   7  11
ATOM     11  C   UNL A   1      35.094  20.518  25.020  1.00  0.00     0.251 A 
ATOM     12  C   UNL A   1      33.029  21.348  25.560  1.00  0.00     0.080 A 
ATOM     13  C   UNL A   1      32.404  20.213  25.096  1.00  0.00     0.062 A 
ATOM     14  N   UNL A   1      34.363  21.493  25.590  1.00  0.00    -0.211 NA
ATOM     15  C   UNL A   1      33.223  19.241  24.550  1.00  0.00     0.150 A 
ATOM     16  N   UNL A   1      34.570  19.411  24.452  1.00  0.00    -0.207 NA
BRANCH  12  17
ATOM     17  C   UNL A   1      32.259  22.509  25.951  1.00  0.00     0.041 A 
ATOM     18  N   UNL A   1      30.962  24.288  25.828  1.00  0.00    -0.269 N 
ATOM     19  N   UNL A   1      31.151  24.079  27.155  1.00  0.00    -0.181 NA
ATOM     20  C   UNL A   1      31.607  23.349  25.053  1.00  0.00     0.045 A 
ATOM     21  C   UNL A   1      31.945  23.013  27.220  1.00  0.00     0.145 A 
ATOM     22  C   UNL A   1      31.601  23.252  23.568  1.00  0.00     0.067 C 
BRANCH  18  23
ATOM     23  C   UNL A   1      30.198  25.477  25.484  1.00  0.00     0.141 C 
ATOM     24  C   UNL A   1      30.942  26.750  25.116  1.00  0.00     0.029 C 
ENDBRANCH  18  23
ENDBRANCH  12  17
BRANCH  15  25
ATOM     25  C   UNL A   1      32.621  17.920  24.098  1.00  0.00     0.433 C 
ATOM     26  F   UNL A   1      31.973  17.254  25.092  1.00  0.00    -0.165 F 
ATOM     27  F   UNL A   1      31.711  18.084  23.095  1.00  0.00    -0.165 F 
ATOM     28  F   UNL A   1      33.549  17.046  23.610  1.00  0.00    -0.165 F 
ENDBRANCH  15  25
ENDBRANCH   7  11
ENDBRANCH   3   6
ENDBRANCH   1   2
BRANCH   1  29
ATOM     29  C   UNL A   1      42.137  19.969  27.103  1.00  0.00     0.042 C 
BRANCH  29  30
ATOM     30  C   UNL A   1      42.348  20.125  25.602  1.00  0.00     0.118 C 
BRANCH  30  31
ATOM     31  N   UNL A   1      43.703  19.756  25.174  1.00  0.00    -0.352 N 
ATOM     32  C   UNL A   1      44.761  20.586  24.842  1.00  0.00     0.251 C 
ATOM     33  H   UNL A   1      43.883  18.789  25.115  1.00  0.00     0.163 HD
ATOM     34  O   UNL A   1      45.722  20.172  24.223  1.00  0.00    -0.269 OA
BRANCH  32  35
ATOM     35  C   UNL A   1      44.687  21.999  25.252  1.00  0.00     0.039 A 
ATOM     36  C   UNL A   1      43.798  22.883  24.638  1.00  0.00     0.014 A 
ATOM     37  C   UNL A   1      45.476  22.405  26.322  1.00  0.00     0.014 A 
ATOM     38  C   UNL A   1      43.633  24.153  25.185  1.00  0.00     0.010 A 
ATOM     39  C   UNL A   1      45.192  23.586  26.956  1.00  0.00     0.010 A 
ATOM     40  C   UNL A   1      44.309  24.488  26.370  1.00  0.00    -0.014 A 
BRANCH  40  41
ATOM     41  C   UNL A   1      44.024  25.743  27.060  1.00  0.00     0.031 A 
ATOM     42  C   UNL A   1      44.946  26.872  26.746  1.00  0.00     0.074 A 
ATOM     43  C   UNL A   1      42.894  25.957  27.768  1.00  0.00     0.049 A 
ATOM     44  N   UNL A   1      45.773  27.463  27.544  1.00  0.00    -0.248 NA
ATOM     45  C   UNL A   1      45.035  27.335  25.352  1.00  0.00     0.031 C 
ATOM     46  C   UNL A   1      41.723  25.083  27.922  1.00  0.00     0.029 A 
ATOM     47  N   UNL A   1      42.512  27.081  28.432  1.00  0.00    -0.354 N 
ATOM     48  C   UNL A   1      46.353  28.497  26.811  1.00  0.00     0.074 A 
ATOM     49  C   UNL A   1      45.979  28.274  25.439  1.00  0.00     0.031 C 
ATOM     50  C   UNL A   1      40.688  25.795  28.418  1.00  0.00     0.029 A 
ATOM     51  C   UNL A   1      41.173  27.108  28.796  1.00  0.00     0.049 A 
ATOM     52  H   UNL A   1      43.134  27.815  28.638  1.00  0.00     0.167 HD
ATOM     53  C   UNL A   1      46.915  29.574  27.429  1.00  0.00     0.037 A 
ATOM     54  C   UNL A   1      40.505  28.142  29.358  1.00  0.00     0.037 A 
ATOM     55  C   UNL A   1      47.158  29.308  28.824  1.00  0.00     0.049 A 
ATOM     56  C   UNL A   1      41.516  29.044  29.960  1.00  0.00     0.074 A 
ATOM     57  C   UNL A   1      47.903  28.377  29.523  1.00  0.00     0.029 A 
ATOM     58  N   UNL A   1      46.280  29.836  29.739  1.00  0.00    -0.354 N 
ATOM     59  N   UNL A   1      42.249  28.728  30.991  1.00  0.00    -0.248 NA
ATOM     60  C   UNL A   1      42.030  30.126  29.136  1.00  0.00     0.031 C 
ATOM     61  C   UNL A   1      47.098  28.038  30.651  1.00  0.00     0.029 A 
ATOM     62  C   UNL A   1      45.949  28.828  30.607  1.00  0.00     0.049 A 
ATOM     63  H   UNL A   1      45.951  30.764  29.766  1.00  0.00     0.167 HD
ATOM     64  C   UNL A   1      43.502  29.249  30.704  1.00  0.00     0.074 A 
ATOM     65  C   UNL A   1      43.281  30.181  29.599  1.00  0.00     0.031 C 
ATOM     66  C   UNL A   1      44.638  28.670  31.193  1.00  0.00     0.037 A 
BRANCH  53  67
ATOM     67  C   UNL A   1      46.914  30.981  26.880  1.00  0.00     0.057 A 
ATOM     68  C   UNL A   1      48.103  31.736  26.916  1.00  0.00     0.134 A 
ATOM     69  C   UNL A   1      45.747  31.722  26.604  1.00  0.00     0.134 A 
ATOM     70  F   UNL A   1      49.283  31.152  27.178  1.00  0.00    -0.206 F 
ATOM     71  C   UNL A   1      48.116  33.129  26.772  1.00  0.00     0.040 A 
ATOM     72  C   UNL A   1      45.756  33.106  26.407  1.00  0.00     0.040 A 
ATOM     73  F   UNL A   1      44.529  31.168  26.610  1.00  0.00    -0.206 F 
ATOM     74  C   UNL A   1      46.937  33.820  26.527  1.00  0.00     0.006 A 
ENDBRANCH  53  67
BRANCH  54  75
ATOM     75  C   UNL A   1      39.096  28.542  29.166  1.00  0.00     0.057 A 
ATOM     76  C   UNL A   1      38.191  28.546  30.235  1.00  0.00     0.134 A 
ATOM     77  C   UNL A   1      38.675  29.198  27.996  1.00  0.00     0.134 A 
ATOM     78  F   UNL A   1      38.518  27.976  31.404  1.00  0.00    -0.206 F 
ATOM     79  C   UNL A   1      36.952  29.194  30.159  1.00  0.00     0.040 A 
ATOM     80  C   UNL A   1      37.438  29.845  27.904  1.00  0.00     0.040 A 
ATOM     81  F   UNL A   1      39.488  29.313  26.936  1.00  0.00    -0.206 F 
ATOM     82  C   UNL A   1      36.578  29.859  28.995  1.00  0.00     0.006 A 
ENDBRANCH  54  75
BRANCH  66  83
ATOM     83  C   UNL A   1      44.493  27.609  32.251  1.00  0.00     0.057 A 
ATOM     84  C   UNL A   1      44.365  26.238  31.983  1.00  0.00     0.134 A 
ATOM     85  C   UNL A   1      44.644  27.975  33.593  1.00  0.00     0.134 A 
ATOM     86  F   UNL A   1      44.314  25.776  30.729  1.00  0.00    -0.206 F 
ATOM     87  C   UNL A   1      44.347  25.282  33.005  1.00  0.00     0.040 A 
ATOM     88  C   UNL A   1      44.662  27.028  34.621  1.00  0.00     0.040 A 
ATOM     89  F   UNL A   1      44.829  29.263  33.925  1.00  0.00    -0.206 F 
ATOM     90  C   UNL A   1      44.502  25.676  34.329  1.00  0.00     0.006 A 
ENDBRANCH  66  83
ENDBRANCH  40  41
ENDBRANCH  32  35
ENDBRANCH  30  31
ENDBRANCH  29  30
ENDBRANCH   1  29
TORSDOF 14
ENDMDL
MODEL 2
REMARK VINA RESULT:     -12.6      2.831      7.585
REMARK SMILES CCn1ncc(-c2cc(C(F)(F)F)nc(-n3ccc(C(=O)NCCCNC(=O)c4ccc(-c5c6nc(c(-c7c(F)cccc7F)c7ccc([nH]7)c(-c7c(F)cccc7F)c7nc(c(-c8c(F)cccc8F)c8ccc5[nH]8)C=C7)C=C6)cc4)n3)n2)c1C
REMARK SMILES IDX 23 1 22 2 20 3 21 4 19 6 16 7 17 8 83 9 18 10 15 11 7 12
REMARK SMILES IDX 8 13 84 14 9 15 14 16 6 17 3 18 4 19 85 20 5 21 86 22 2 23
REMARK SMILES IDX 1 24 10 25 11 26 12 27 13 28 24 29 25 30 26 31 27 32 28 34
REMARK SMILES IDX 29 35 30 36 82 37 31 38 81 39 32 40 33 41 34 42 75 43 35 44
REMARK SMILES IDX 80 45 74 46 76 47 36 48 79 49 73 50 72 51 37 53 63 54 46 55
REMARK SMILES IDX 62 56 47 57 50 58 61 59 77 60 48 61 49 62 60 64 78 65 51 66
REMARK SMILES IDX 38 67 39 68 44 69 40 70 41 71 43 72 45 73 42 74 64 75 65 76
REMARK SMILES IDX 70 77 66 78 67 79 69 80 71 81 68 82 52 83 53 84 58 85 54 86
REMARK SMILES IDX 55 87 57 88 59 89 56 90
REMARK H PARENT 22 5 26 33 76 52 50 63
REMARK Flexibility Score: inf
ROOT
ATOM      1  C   UNL A   1      33.776  28.786  25.933  1.00  0.00     0.118 C 
ENDROOT
BRANCH   1   2
ATOM      2  N   UNL A   1      32.502  29.025  25.264  1.00  0.00    -0.351 N 
ATOM      3  C   UNL A   1      31.833  28.311  24.291  1.00  0.00     0.271 C 
ATOM      4  O   UNL A   1      30.759  28.769  23.895  1.00  0.00    -0.267 OA
ATOM      5  H   UNL A   1      32.036  29.841  25.560  1.00  0.00     0.163 HD
BRANCH   3   6
ATOM      6  C   UNL A   1      32.404  27.089  23.696  1.00  0.00     0.150 A 
ATOM      7  N   UNL A   1      33.281  25.138  23.537  1.00  0.00    -0.205 N 
ATOM      8  C   UNL A   1      33.513  25.735  22.320  1.00  0.00     0.119 A 
ATOM      9  N   UNL A   1      32.504  25.912  24.333  1.00  0.00    -0.160 NA
ATOM     10  C   UNL A   1      32.918  26.973  22.374  1.00  0.00     0.056 A 
BRANCH   7  11
ATOM     11  C   UNL A   1      33.843  23.912  24.016  1.00  0.00     0.251 A 
ATOM     12  C   UNL A   1      35.653  22.734  24.781  1.00  0.00     0.080 A 
ATOM     13  C   UNL A   1      34.964  21.545  24.708  1.00  0.00     0.062 A 
ATOM     14  N   UNL A   1      35.137  23.908  24.383  1.00  0.00    -0.211 NA
ATOM     15  C   UNL A   1      33.645  21.624  24.294  1.00  0.00     0.150 A 
ATOM     16  N   UNL A   1      33.056  22.815  24.004  1.00  0.00    -0.207 NA
BRANCH  12  17
ATOM     17  C   UNL A   1      36.958  22.796  25.401  1.00  0.00     0.041 A 
ATOM     18  N   UNL A   1      38.994  22.232  26.035  1.00  0.00    -0.269 N 
ATOM     19  N   UNL A   1      38.841  23.519  26.439  1.00  0.00    -0.181 NA
ATOM     20  C   UNL A   1      37.877  21.751  25.386  1.00  0.00     0.045 A 
ATOM     21  C   UNL A   1      37.607  23.847  26.063  1.00  0.00     0.145 A 
ATOM     22  C   UNL A   1      37.698  20.400  24.790  1.00  0.00     0.067 C 
BRANCH  18  23
ATOM     23  C   UNL A   1      40.244  21.599  26.424  1.00  0.00     0.141 C 
ATOM     24  C   UNL A   1      40.716  21.722  27.862  1.00  0.00     0.029 C 
ENDBRANCH  18  23
ENDBRANCH  12  17
BRANCH  15  25
ATOM     25  C   UNL A   1      32.842  20.347  24.102  1.00  0.00     0.433 C 
ATOM     26  F   UNL A   1      31.822  20.212  24.994  1.00  0.00    -0.165 F 
ATOM     27  F   UNL A   1      32.275  20.276  22.863  1.00  0.00    -0.165 F 
ATOM     28  F   UNL A   1      33.594  19.216  24.224  1.00  0.00    -0.165 F 
ENDBRANCH  15  25
ENDBRANCH   7  11
ENDBRANCH   3   6
ENDBRANCH   1   2
BRANCH   1  29
ATOM     29  C   UNL A   1      34.019  29.721  27.123  1.00  0.00     0.042 C 
BRANCH  29  30
ATOM     30  C   UNL A   1      35.417  29.565  27.708  1.00  0.00     0.118 C 
BRANCH  30  31
ATOM     31  N   UNL A   1      35.485  29.918  29.131  1.00  0.00    -0.352 N 
ATOM     32  C   UNL A   1      36.448  29.571  30.064  1.00  0.00     0.251 C 
ATOM     33  H   UNL A   1      34.747  30.477  29.466  1.00  0.00     0.163 HD
ATOM     34  O   UNL A   1      36.241  29.670  31.257  1.00  0.00    -0.269 OA
BRANCH  32  35
ATOM     35  C   UNL A   1      37.739  29.062  29.568  1.00  0.00     0.039 A 
ATOM     36  C   UNL A   1      38.399  29.682  28.505  1.00  0.00     0.014 A 
ATOM     37  C   UNL A   1      38.316  27.993  30.243  1.00  0.00     0.014 A 
ATOM     38  C   UNL A   1      39.697  29.280  28.199  1.00  0.00     0.010 A 
ATOM     39  C   UNL A   1      39.644  27.715  30.052  1.00  0.00     0.010 A 
ATOM     40  C   UNL A   1      40.331  28.317  29.002  1.00  0.00    -0.014 A 
BRANCH  40  41
ATOM     41  C   UNL A   1      41.744  28.004  28.815  1.00  0.00     0.031 A 
ATOM     42  C   UNL A   1      42.029  26.770  28.028  1.00  0.00     0.074 A 
ATOM     43  C   UNL A   1      42.739  28.861  29.131  1.00  0.00     0.049 A 
ATOM     44  N   UNL A   1      42.590  25.681  28.440  1.00  0.00    -0.248 NA
ATOM     45  C   UNL A   1      41.542  26.696  26.641  1.00  0.00     0.031 C 
ATOM     46  C   UNL A   1      42.646  30.245  29.612  1.00  0.00     0.029 A 
ATOM     47  N   UNL A   1      44.080  28.690  28.984  1.00  0.00    -0.354 N 
ATOM     48  C   UNL A   1      42.701  24.851  27.326  1.00  0.00     0.074 A 
ATOM     49  C   UNL A   1      41.906  25.461  26.292  1.00  0.00     0.031 C 
ATOM     50  C   UNL A   1      43.845  30.852  29.484  1.00  0.00     0.029 A 
ATOM     51  C   UNL A   1      44.826  29.855  29.103  1.00  0.00     0.049 A 
ATOM     52  H   UNL A   1      44.489  27.812  28.810  1.00  0.00     0.167 HD
ATOM     53  C   UNL A   1      43.617  23.842  27.283  1.00  0.00     0.037 A 
ATOM     54  C   UNL A   1      46.155  29.994  28.890  1.00  0.00     0.037 A 
ATOM     55  C   UNL A   1      44.120  23.538  28.598  1.00  0.00     0.049 A 
ATOM     56  C   UNL A   1      46.759  28.643  28.988  1.00  0.00     0.074 A 
ATOM     57  C   UNL A   1      43.551  23.122  29.787  1.00  0.00     0.029 A 
ATOM     58  N   UNL A   1      45.363  24.015  28.935  1.00  0.00    -0.354 N 
ATOM     59  N   UNL A   1      46.830  27.958  30.095  1.00  0.00    -0.248 NA
ATOM     60  C   UNL A   1      46.880  27.868  27.764  1.00  0.00     0.031 C 
ATOM     61  C   UNL A   1      44.255  23.838  30.800  1.00  0.00     0.029 A 
ATOM     62  C   UNL A   1      45.250  24.590  30.175  1.00  0.00     0.049 A 
ATOM     63  H   UNL A   1      46.180  23.956  28.389  1.00  0.00     0.167 HD
ATOM     64  C   UNL A   1      46.561  26.651  29.717  1.00  0.00     0.074 A 
ATOM     65  C   UNL A   1      46.697  26.642  28.262  1.00  0.00     0.031 C 
ATOM     66  C   UNL A   1      45.977  25.770  30.582  1.00  0.00     0.037 A 
BRANCH  53  67
ATOM     67  C   UNL A   1      44.328  23.376  26.035  1.00  0.00     0.057 A 
ATOM     68  C   UNL A   1      44.354  22.001  25.730  1.00  0.00     0.134 A 
ATOM     69  C   UNL A   1      45.233  24.166  25.298  1.00  0.00     0.134 A 
ATOM     70  F   UNL A   1      43.548  21.138  26.368  1.00  0.00    -0.206 F 
ATOM     71  C   UNL A   1      45.267  21.447  24.823  1.00  0.00     0.040 A 
ATOM     72  C   UNL A   1      46.113  23.630  24.354  1.00  0.00     0.040 A 
ATOM     73  F   UNL A   1      45.388  25.476  25.523  1.00  0.00    -0.206 F 
ATOM     74  C   UNL A   1      46.159  22.262  24.139  1.00  0.00     0.006 A 
ENDBRANCH  53  67
BRANCH  54  75
ATOM     75  C   UNL A   1      46.883  31.153  28.335  1.00  0.00     0.057 A 
ATOM     76  C   UNL A   1      46.664  31.585  27.020  1.00  0.00     0.134 A 
ATOM     77  C   UNL A   1      47.597  32.035  29.165  1.00  0.00     0.134 A 
ATOM     78  F   UNL A   1      45.963  30.828  26.165  1.00  0.00    -0.206 F 
ATOM     79  C   UNL A   1      47.100  32.836  26.565  1.00  0.00     0.040 A 
ATOM     80  C   UNL A   1      48.043  33.285  28.723  1.00  0.00     0.040 A 
ATOM     81  F   UNL A   1      47.805  31.752  30.460  1.00  0.00    -0.206 F 
ATOM     82  C   UNL A   1      47.779  33.697  27.422  1.00  0.00     0.006 A 
ENDBRANCH  54  75
BRANCH  66  83
ATOM     83  C   UNL A   1      45.861  26.170  32.029  1.00  0.00     0.057 A 
ATOM     84  C   UNL A   1      44.727  26.771  32.595  1.00  0.00     0.134 A 
ATOM     85  C   UNL A   1      46.878  25.790  32.912  1.00  0.00     0.134 A 
ATOM     86  F   UNL A   1      43.659  27.081  31.851  1.00  0.00    -0.206 F 
ATOM     87  C   UNL A   1      44.628  27.020  33.969  1.00  0.00     0.040 A 
ATOM     88  C   UNL A   1      46.777  26.002  34.291  1.00  0.00     0.040 A 
ATOM     89  F   UNL A   1      47.970  25.158  32.454  1.00  0.00    -0.206 F 
ATOM     90  C   UNL A   1      45.653  26.629  34.822  1.00  0.00     0.006 A 
ENDBRANCH  66  83
ENDBRANCH  40  41
ENDBRANCH  32  35
ENDBRANCH  30  31
ENDBRANCH  29  30
ENDBRANCH   1  29
TORSDOF 14
ENDMDL
MODEL 3
REMARK VINA RESULT:     -12.3      5.751     11.933
REMARK SMILES CCn1ncc(-c2cc(C(F)(F)F)nc(-n3ccc(C(=O)NCCCNC(=O)c4ccc(-c5c6nc(c(-c7c(F)cccc7F)c7ccc([nH]7)c(-c7c(F)cccc7F)c7nc(c(-c8c(F)cccc8F)c8ccc5[nH]8)C=C7)C=C6)cc4)n3)n2)c1C
REMARK SMILES IDX 23 1 22 2 20 3 21 4 19 6 16 7 17 8 83 9 18 10 15 11 7 12
REMARK SMILES IDX 8 13 84 14 9 15 14 16 6 17 3 18 4 19 85 20 5 21 86 22 2 23
REMARK SMILES IDX 1 24 10 25 11 26 12 27 13 28 24 29 25 30 26 31 27 32 28 34
REMARK SMILES IDX 29 35 30 36 82 37 31 38 81 39 32 40 33 41 34 42 75 43 35 44
REMARK SMILES IDX 80 45 74 46 76 47 36 48 79 49 73 50 72 51 37 53 63 54 46 55
REMARK SMILES IDX 62 56 47 57 50 58 61 59 77 60 48 61 49 62 60 64 78 65 51 66
REMARK SMILES IDX 38 67 39 68 44 69 40 70 41 71 43 72 45 73 42 74 64 75 65 76
REMARK SMILES IDX 70 77 66 78 67 79 69 80 71 81 68 82 52 83 53 84 58 85 54 86
REMARK SMILES IDX 55 87 57 88 59 89 56 90
REMARK H PARENT 22 5 26 33 76 52 50 63
REMARK Flexibility Score: inf
ROOT
ATOM      1  C   UNL A   1      33.146  35.530  29.257  1.00  0.00     0.118 C 
ENDROOT
BRANCH   1   2
ATOM      2  N   UNL A   1      32.972  36.650  30.177  1.00  0.00    -0.351 N 
ATOM      3  C   UNL A   1      33.344  36.815  31.495  1.00  0.00     0.271 C 
ATOM      4  O   UNL A   1      33.047  37.884  32.035  1.00  0.00    -0.267 OA
ATOM      5  H   UNL A   1      32.508  37.426  29.787  1.00  0.00     0.163 HD
BRANCH   3   6
ATOM      6  C   UNL A   1      34.006  35.738  32.255  1.00  0.00     0.150 A 
ATOM      7  N   UNL A   1      35.542  34.441  33.000  1.00  0.00    -0.205 N 
ATOM      8  C   UNL A   1      34.361  33.794  33.279  1.00  0.00     0.119 A 
ATOM      9  N   UNL A   1      35.326  35.676  32.487  1.00  0.00    -0.160 NA
ATOM     10  C   UNL A   1      33.353  34.626  32.856  1.00  0.00     0.056 A 
BRANCH   7  11
ATOM     11  C   UNL A   1      36.865  33.905  33.107  1.00  0.00     0.251 A 
ATOM     12  C   UNL A   1      38.970  33.652  32.239  1.00  0.00     0.080 A 
ATOM     13  C   UNL A   1      39.295  32.711  33.190  1.00  0.00     0.062 A 
ATOM     14  N   UNL A   1      37.752  34.208  32.143  1.00  0.00    -0.211 NA
ATOM     15  C   UNL A   1      38.322  32.429  34.133  1.00  0.00     0.150 A 
ATOM     16  N   UNL A   1      37.121  33.069  34.136  1.00  0.00    -0.207 NA
BRANCH  12  17
ATOM     17  C   UNL A   1      39.977  34.177  31.343  1.00  0.00     0.041 A 
ATOM     18  N   UNL A   1      41.897  34.962  30.595  1.00  0.00    -0.269 N 
ATOM     19  N   UNL A   1      41.124  34.805  29.490  1.00  0.00    -0.181 NA
ATOM     20  C   UNL A   1      41.245  34.580  31.748  1.00  0.00     0.045 A 
ATOM     21  C   UNL A   1      39.964  34.343  29.951  1.00  0.00     0.145 A 
ATOM     22  C   UNL A   1      41.789  34.591  33.133  1.00  0.00     0.067 C 
BRANCH  18  23
ATOM     23  C   UNL A   1      43.202  35.561  30.366  1.00  0.00     0.141 C 
ATOM     24  C   UNL A   1      44.391  34.655  30.095  1.00  0.00     0.029 C 
ENDBRANCH  18  23
ENDBRANCH  12  17
BRANCH  15  25
ATOM     25  C   UNL A   1      38.569  31.338  35.162  1.00  0.00     0.433 C 
ATOM     26  F   UNL A   1      38.264  30.091  34.710  1.00  0.00    -0.165 F 
ATOM     27  F   UNL A   1      39.872  31.289  35.560  1.00  0.00    -0.165 F 
ATOM     28  F   UNL A   1      37.844  31.505  36.306  1.00  0.00    -0.165 F 
ENDBRANCH  15  25
ENDBRANCH   7  11
ENDBRANCH   3   6
ENDBRANCH   1   2
BRANCH   1  29
ATOM     29  C   UNL A   1      34.525  35.505  28.589  1.00  0.00     0.042 C 
BRANCH  29  30
ATOM     30  C   UNL A   1      35.225  34.162  28.756  1.00  0.00     0.118 C 
BRANCH  30  31
ATOM     31  N   UNL A   1      34.308  33.022  28.643  1.00  0.00    -0.352 N 
ATOM     32  C   UNL A   1      34.597  31.709  28.305  1.00  0.00     0.251 C 
ATOM     33  H   UNL A   1      33.361  33.215  28.832  1.00  0.00     0.163 HD
ATOM     34  O   UNL A   1      33.725  30.937  27.957  1.00  0.00    -0.269 OA
BRANCH  32  35
ATOM     35  C   UNL A   1      36.003  31.273  28.369  1.00  0.00     0.039 A 
ATOM     36  C   UNL A   1      36.926  31.928  29.185  1.00  0.00     0.014 A 
ATOM     37  C   UNL A   1      36.361  30.139  27.649  1.00  0.00     0.014 A 
ATOM     38  C   UNL A   1      38.188  31.364  29.353  1.00  0.00     0.010 A 
ATOM     39  C   UNL A   1      37.537  29.499  27.944  1.00  0.00     0.010 A 
ATOM     40  C   UNL A   1      38.478  30.125  28.756  1.00  0.00    -0.014 A 
BRANCH  40  41
ATOM     41  C   UNL A   1      39.725  29.428  29.055  1.00  0.00     0.031 A 
ATOM     42  C   UNL A   1      39.960  29.121  30.495  1.00  0.00     0.074 A 
ATOM     43  C   UNL A   1      40.522  28.897  28.101  1.00  0.00     0.049 A 
ATOM     44  N   UNL A   1      40.886  29.592  31.263  1.00  0.00    -0.248 NA
ATOM     45  C   UNL A   1      38.988  28.265  31.195  1.00  0.00     0.031 C 
ATOM     46  C   UNL A   1      40.296  28.813  26.653  1.00  0.00     0.029 A 
ATOM     47  N   UNL A   1      41.687  28.214  28.258  1.00  0.00    -0.354 N 
ATOM     48  C   UNL A   1      40.736  28.954  32.493  1.00  0.00     0.074 A 
ATOM     49  C   UNL A   1      39.469  28.272  32.439  1.00  0.00     0.031 C 
ATOM     50  C   UNL A   1      41.154  27.923  26.110  1.00  0.00     0.029 A 
ATOM     51  C   UNL A   1      42.108  27.527  27.128  1.00  0.00     0.049 A 
ATOM     52  H   UNL A   1      42.191  28.207  29.103  1.00  0.00     0.167 HD
ATOM     53  C   UNL A   1      41.773  28.864  33.375  1.00  0.00     0.037 A 
ATOM     54  C   UNL A   1      43.161  26.682  27.036  1.00  0.00     0.037 A 
ATOM     55  C   UNL A   1      42.821  29.795  33.044  1.00  0.00     0.049 A 
ATOM     56  C   UNL A   1      44.063  26.978  28.175  1.00  0.00     0.074 A 
ATOM     57  C   UNL A   1      42.900  31.169  32.919  1.00  0.00     0.029 A 
ATOM     58  N   UNL A   1      43.937  29.305  32.411  1.00  0.00    -0.354 N 
ATOM     59  N   UNL A   1      44.739  28.085  28.298  1.00  0.00    -0.248 NA
ATOM     60  C   UNL A   1      43.864  26.227  29.405  1.00  0.00     0.031 C 
ATOM     61  C   UNL A   1      43.756  31.385  31.798  1.00  0.00     0.029 A 
ATOM     62  C   UNL A   1      44.198  30.139  31.354  1.00  0.00     0.049 A 
ATOM     63  H   UNL A   1      44.452  28.506  32.667  1.00  0.00     0.167 HD
ATOM     64  C   UNL A   1      44.667  28.393  29.649  1.00  0.00     0.074 A 
ATOM     65  C   UNL A   1      44.202  27.166  30.293  1.00  0.00     0.031 C 
ATOM     66  C   UNL A   1      44.715  29.687  30.083  1.00  0.00     0.037 A 
BRANCH  53  67
ATOM     67  C   UNL A   1      42.010  27.702  34.310  1.00  0.00     0.057 A 
ATOM     68  C   UNL A   1      41.694  27.842  35.676  1.00  0.00     0.134 A 
ATOM     69  C   UNL A   1      42.806  26.583  33.996  1.00  0.00     0.134 A 
ATOM     70  F   UNL A   1      40.951  28.872  36.110  1.00  0.00    -0.206 F 
ATOM     71  C   UNL A   1      42.200  26.982  36.659  1.00  0.00     0.040 A 
ATOM     72  C   UNL A   1      43.273  25.688  34.963  1.00  0.00     0.040 A 
ATOM     73  F   UNL A   1      43.257  26.350  32.758  1.00  0.00    -0.206 F 
ATOM     74  C   UNL A   1      43.002  25.906  36.304  1.00  0.00     0.006 A 
ENDBRANCH  53  67
BRANCH  54  75
ATOM     75  C   UNL A   1      43.297  25.465  26.209  1.00  0.00     0.057 A 
ATOM     76  C   UNL A   1      44.357  25.319  25.304  1.00  0.00     0.134 A 
ATOM     77  C   UNL A   1      42.556  24.304  26.488  1.00  0.00     0.134 A 
ATOM     78  F   UNL A   1      45.142  26.362  25.003  1.00  0.00    -0.206 F 
ATOM     79  C   UNL A   1      44.684  24.081  24.736  1.00  0.00     0.040 A 
ATOM     80  C   UNL A   1      42.868  23.063  25.923  1.00  0.00     0.040 A 
ATOM     81  F   UNL A   1      41.563  24.316  27.389  1.00  0.00    -0.206 F 
ATOM     82  C   UNL A   1      43.947  22.945  25.056  1.00  0.00     0.006 A 
ENDBRANCH  54  75
BRANCH  66  83
ATOM     83  C   UNL A   1      45.099  30.753  29.092  1.00  0.00     0.057 A 
ATOM     84  C   UNL A   1      46.421  31.100  28.775  1.00  0.00     0.134 A 
ATOM     85  C   UNL A   1      44.093  31.341  28.317  1.00  0.00     0.134 A 
ATOM     86  F   UNL A   1      47.459  30.519  29.389  1.00  0.00    -0.206 F 
ATOM     87  C   UNL A   1      46.725  32.019  27.765  1.00  0.00     0.040 A 
ATOM     88  C   UNL A   1      44.384  32.235  27.283  1.00  0.00     0.040 A 
ATOM     89  F   UNL A   1      42.807  31.017  28.521  1.00  0.00    -0.206 F 
ATOM     90  C   UNL A   1      45.704  32.585  27.011  1.00  0.00     0.006 A 
ENDBRANCH  66  83
ENDBRANCH  40  41
ENDBRANCH  32  35
ENDBRANCH  30  31
ENDBRANCH  29  30
ENDBRANCH   1  29
TORSDOF 14
ENDMDL
