MODEL 1
REMARK VINA RESULT:     -12.3      0.000      0.000
REMARK SMILES CSc1ccc(CNc2ccc(N3CCOCC3)c(C(=O)NCCCNC(=O)c3ccc(-c4c5nc(c(-c6c(F)cccc6F)c6ccc([nH]6)c(-c6c(F)cccc6F)c6nc(c(-c7c(F)cccc7F)c7ccc4[nH]7)C=C6)C=C5)cc3)c2)cc1
REMARK SMILES IDX 23 1 22 2 20 3 21 4 19 6 9 7 10 8 83 9 11 10 12 11 8 12 7 14
REMARK SMILES IDX 6 15 3 16 4 17 85 18 5 19 84 20 2 21 1 22 13 23 14 24 18 25
REMARK SMILES IDX 15 26 17 27 16 28 24 29 25 30 26 31 27 32 28 34 29 35 30 36
REMARK SMILES IDX 82 37 31 38 81 39 32 40 33 41 34 42 75 43 35 44 80 45 74 46
REMARK SMILES IDX 76 47 36 48 79 49 73 50 72 51 37 53 63 54 46 55 62 56 47 57
REMARK SMILES IDX 50 58 61 59 77 60 48 61 49 62 60 64 78 65 51 66 38 67 39 68
REMARK SMILES IDX 44 69 40 70 41 71 43 72 45 73 42 74 64 75 65 76 70 77 66 78
REMARK SMILES IDX 67 79 69 80 71 81 68 82 52 83 53 84 58 85 54 86 55 87 57 88
REMARK SMILES IDX 59 89 56 90
REMARK H PARENT 22 5 8 13 26 33 76 52 50 63
REMARK Flexibility Score: inf
ROOT
ATOM      1  C   UNL A   1      37.093  20.896  24.675  1.00  0.00     0.118 C 
ENDROOT
BRANCH   1   2
ATOM      2  N   UNL A   1      36.146  21.109  25.766  1.00  0.00    -0.352 N 
ATOM      3  C   UNL A   1      34.770  21.189  25.878  1.00  0.00     0.253 C 
ATOM      4  O   UNL A   1      34.352  21.314  27.029  1.00  0.00    -0.269 OA
ATOM      5  H   UNL A   1      36.597  21.223  26.634  1.00  0.00     0.163 HD
BRANCH   3   6
ATOM      6  C   UNL A   1      33.841  21.170  24.700  1.00  0.00     0.065 A 
ATOM      7  C   UNL A   1      32.723  22.519  22.974  1.00  0.00     0.035 A 
ATOM      8  C   UNL A   1      31.945  21.412  22.654  1.00  0.00     0.028 A 
ATOM      9  C   UNL A   1      33.716  22.333  23.932  1.00  0.00     0.041 A 
ATOM     10  C   UNL A   1      32.186  20.174  23.257  1.00  0.00     0.029 A 
ATOM     11  C   UNL A   1      33.150  20.017  24.272  1.00  0.00     0.050 A 
BRANCH   7  12
ATOM     12  N   UNL A   1      32.523  23.713  22.321  1.00  0.00    -0.381 N 
ATOM     13  H   UNL A   1      31.737  23.774  21.730  1.00  0.00     0.160 HD
BRANCH  12  14
ATOM     14  C   UNL A   1      33.365  24.893  22.422  1.00  0.00     0.148 C 
BRANCH  14  15
ATOM     15  C   UNL A   1      32.973  25.690  23.641  1.00  0.00    -0.029 A 
ATOM     16  C   UNL A   1      32.224  27.185  25.897  1.00  0.00     0.007 A 
ATOM     17  C   UNL A   1      31.317  26.987  24.855  1.00  0.00     0.015 A 
ATOM     18  C   UNL A   1      33.524  26.684  25.782  1.00  0.00     0.015 A 
ATOM     19  C   UNL A   1      31.690  26.250  23.734  1.00  0.00     0.007 A 
ATOM     20  C   UNL A   1      33.898  25.940  24.661  1.00  0.00     0.007 A 
BRANCH  16  21
ATOM     21  S   UNL A   1      31.743  28.063  27.369  1.00  0.00    -0.130 SA
ATOM     22  C   UNL A   1      31.989  29.758  26.774  1.00  0.00     0.091 C 
ENDBRANCH  16  21
ENDBRANCH  14  15
ENDBRANCH  12  14
ENDBRANCH   7  12
BRANCH  11  23
ATOM     23  N   UNL A   1      33.470  18.736  24.668  1.00  0.00    -0.366 N 
ATOM     24  C   UNL A   1      34.654  18.013  24.209  1.00  0.00     0.145 C 
ATOM     25  C   UNL A   1      32.720  18.124  25.768  1.00  0.00     0.145 C 
ATOM     26  C   UNL A   1      34.340  16.510  24.044  1.00  0.00     0.181 C 
ATOM     27  C   UNL A   1      32.445  16.655  25.432  1.00  0.00     0.181 C 
ATOM     28  O   UNL A   1      33.677  15.953  25.197  1.00  0.00    -0.378 OA
ENDBRANCH  11  23
ENDBRANCH   3   6
ENDBRANCH   1   2
BRANCH   1  29
ATOM     29  C   UNL A   1      38.083  19.767  24.910  1.00  0.00     0.042 C 
BRANCH  29  30
ATOM     30  C   UNL A   1      39.097  20.017  26.012  1.00  0.00     0.118 C 
BRANCH  30  31
ATOM     31  N   UNL A   1      40.300  19.208  25.875  1.00  0.00    -0.352 N 
ATOM     32  C   UNL A   1      41.631  19.518  26.016  1.00  0.00     0.251 C 
ATOM     33  H   UNL A   1      40.128  18.268  25.638  1.00  0.00     0.163 HD
ATOM     34  O   UNL A   1      42.474  18.701  25.655  1.00  0.00    -0.269 OA
BRANCH  32  35
ATOM     35  C   UNL A   1      42.071  20.820  26.570  1.00  0.00     0.039 A 
ATOM     36  C   UNL A   1      42.548  21.796  25.690  1.00  0.00     0.014 A 
ATOM     37  C   UNL A   1      42.072  21.074  27.943  1.00  0.00     0.014 A 
ATOM     38  C   UNL A   1      42.952  23.043  26.177  1.00  0.00     0.010 A 
ATOM     39  C   UNL A   1      42.379  22.347  28.418  1.00  0.00     0.010 A 
ATOM     40  C   UNL A   1      42.830  23.344  27.542  1.00  0.00    -0.014 A 
BRANCH  40  41
ATOM     41  C   UNL A   1      43.167  24.692  28.071  1.00  0.00     0.031 A 
ATOM     42  C   UNL A   1      42.083  25.705  28.326  1.00  0.00     0.074 A 
ATOM     43  C   UNL A   1      44.460  25.029  28.249  1.00  0.00     0.049 A 
ATOM     44  N   UNL A   1      42.191  26.952  28.714  1.00  0.00    -0.248 NA
ATOM     45  C   UNL A   1      40.696  25.276  28.081  1.00  0.00     0.031 C 
ATOM     46  C   UNL A   1      45.609  24.164  27.969  1.00  0.00     0.029 A 
ATOM     47  N   UNL A   1      45.028  26.198  28.692  1.00  0.00    -0.354 N 
ATOM     48  C   UNL A   1      40.897  27.457  28.731  1.00  0.00     0.074 A 
ATOM     49  C   UNL A   1      40.022  26.400  28.276  1.00  0.00     0.031 C 
ATOM     50  C   UNL A   1      46.740  24.823  28.265  1.00  0.00     0.029 A 
ATOM     51  C   UNL A   1      46.402  26.168  28.720  1.00  0.00     0.049 A 
ATOM     52  H   UNL A   1      44.501  26.984  28.965  1.00  0.00     0.167 HD
ATOM     53  C   UNL A   1      40.474  28.686  29.113  1.00  0.00     0.037 A 
ATOM     54  C   UNL A   1      47.290  27.119  29.066  1.00  0.00     0.037 A 
ATOM     55  C   UNL A   1      41.340  29.719  29.619  1.00  0.00     0.049 A 
ATOM     56  C   UNL A   1      46.788  28.457  29.530  1.00  0.00     0.074 A 
ATOM     57  C   UNL A   1      40.994  30.958  30.128  1.00  0.00     0.029 A 
ATOM     58  N   UNL A   1      42.721  29.631  29.680  1.00  0.00    -0.354 N 
ATOM     59  N   UNL A   1      45.554  28.887  29.632  1.00  0.00    -0.248 NA
ATOM     60  C   UNL A   1      47.802  29.441  29.938  1.00  0.00     0.031 C 
ATOM     61  C   UNL A   1      42.170  31.638  30.459  1.00  0.00     0.029 A 
ATOM     62  C   UNL A   1      43.245  30.804  30.196  1.00  0.00     0.049 A 
ATOM     63  H   UNL A   1      43.251  28.851  29.398  1.00  0.00     0.167 HD
ATOM     64  C   UNL A   1      45.642  30.178  30.134  1.00  0.00     0.074 A 
ATOM     65  C   UNL A   1      47.048  30.454  30.337  1.00  0.00     0.031 C 
ATOM     66  C   UNL A   1      44.647  31.060  30.398  1.00  0.00     0.037 A 
BRANCH  53  67
ATOM     67  C   UNL A   1      39.007  28.987  29.016  1.00  0.00     0.057 A 
ATOM     68  C   UNL A   1      38.160  28.901  30.127  1.00  0.00     0.134 A 
ATOM     69  C   UNL A   1      38.451  29.438  27.813  1.00  0.00     0.134 A 
ATOM     70  F   UNL A   1      38.629  28.466  31.308  1.00  0.00    -0.206 F 
ATOM     71  C   UNL A   1      36.808  29.241  30.044  1.00  0.00     0.040 A 
ATOM     72  C   UNL A   1      37.107  29.803  27.722  1.00  0.00     0.040 A 
ATOM     73  F   UNL A   1      39.209  29.549  26.711  1.00  0.00    -0.206 F 
ATOM     74  C   UNL A   1      36.281  29.703  28.839  1.00  0.00     0.006 A 
ENDBRANCH  53  67
BRANCH  54  75
ATOM     75  C   UNL A   1      48.748  26.842  28.999  1.00  0.00     0.057 A 
ATOM     76  C   UNL A   1      49.424  26.257  30.076  1.00  0.00     0.134 A 
ATOM     77  C   UNL A   1      49.504  27.179  27.869  1.00  0.00     0.134 A 
ATOM     78  F   UNL A   1      48.758  25.930  31.193  1.00  0.00    -0.206 F 
ATOM     79  C   UNL A   1      50.804  26.046  30.046  1.00  0.00     0.040 A 
ATOM     80  C   UNL A   1      50.879  26.948  27.815  1.00  0.00     0.040 A 
ATOM     81  F   UNL A   1      48.914  27.732  26.800  1.00  0.00    -0.206 F 
ATOM     82  C   UNL A   1      51.534  26.389  28.910  1.00  0.00     0.006 A 
ENDBRANCH  54  75
BRANCH  66  83
ATOM     83  C   UNL A   1      45.046  32.392  30.959  1.00  0.00     0.057 A 
ATOM     84  C   UNL A   1      45.327  33.485  30.131  1.00  0.00     0.134 A 
ATOM     85  C   UNL A   1      45.122  32.588  32.343  1.00  0.00     0.134 A 
ATOM     86  F   UNL A   1      45.284  33.356  28.796  1.00  0.00    -0.206 F 
ATOM     87  C   UNL A   1      45.695  34.723  30.661  1.00  0.00     0.040 A 
ATOM     88  C   UNL A   1      45.462  33.829  32.885  1.00  0.00     0.040 A 
ATOM     89  F   UNL A   1      44.856  31.583  33.191  1.00  0.00    -0.206 F 
ATOM     90  C   UNL A   1      45.757  34.899  32.042  1.00  0.00     0.006 A 
ENDBRANCH  66  83
ENDBRANCH  40  41
ENDBRANCH  32  35
ENDBRANCH  30  31
ENDBRANCH  29  30
ENDBRANCH   1  29
TORSDOF 15
ENDMDL
MODEL 2
REMARK VINA RESULT:     -12.1      4.945      9.969
REMARK SMILES CSc1ccc(CNc2ccc(N3CCOCC3)c(C(=O)NCCCNC(=O)c3ccc(-c4c5nc(c(-c6c(F)cccc6F)c6ccc([nH]6)c(-c6c(F)cccc6F)c6nc(c(-c7c(F)cccc7F)c7ccc4[nH]7)C=C6)C=C5)cc3)c2)cc1
REMARK SMILES IDX 23 1 22 2 20 3 21 4 19 6 9 7 10 8 83 9 11 10 12 11 8 12 7 14
REMARK SMILES IDX 6 15 3 16 4 17 85 18 5 19 84 20 2 21 1 22 13 23 14 24 18 25
REMARK SMILES IDX 15 26 17 27 16 28 24 29 25 30 26 31 27 32 28 34 29 35 30 36
REMARK SMILES IDX 82 37 31 38 81 39 32 40 33 41 34 42 75 43 35 44 80 45 74 46
REMARK SMILES IDX 76 47 36 48 79 49 73 50 72 51 37 53 63 54 46 55 62 56 47 57
REMARK SMILES IDX 50 58 61 59 77 60 48 61 49 62 60 64 78 65 51 66 38 67 39 68
REMARK SMILES IDX 44 69 40 70 41 71 43 72 45 73 42 74 64 75 65 76 70 77 66 78
REMARK SMILES IDX 67 79 69 80 71 81 68 82 52 83 53 84 58 85 54 86 55 87 57 88
REMARK SMILES IDX 59 89 56 90
REMARK H PARENT 22 5 8 13 26 33 76 52 50 63
REMARK Flexibility Score: inf
ROOT
ATOM      1  C   UNL A   1      31.791  30.397  26.612  1.00  0.00     0.118 C 
ENDROOT
BRANCH   1   2
ATOM      2  N   UNL A   1      32.463  30.072  25.358  1.00  0.00    -0.352 N 
ATOM      3  C   UNL A   1      32.192  29.259  24.273  1.00  0.00     0.253 C 
ATOM      4  O   UNL A   1      33.013  29.325  23.359  1.00  0.00    -0.269 OA
ATOM      5  H   UNL A   1      33.319  30.549  25.260  1.00  0.00     0.163 HD
BRANCH   3   6
ATOM      6  C   UNL A   1      31.015  28.330  24.210  1.00  0.00     0.065 A 
ATOM      7  C   UNL A   1      30.143  26.114  24.828  1.00  0.00     0.035 A 
ATOM      8  C   UNL A   1      29.054  26.344  23.994  1.00  0.00     0.028 A 
ATOM      9  C   UNL A   1      31.048  27.161  24.980  1.00  0.00     0.041 A 
ATOM     10  C   UNL A   1      28.881  27.583  23.372  1.00  0.00     0.029 A 
ATOM     11  C   UNL A   1      29.840  28.609  23.482  1.00  0.00     0.050 A 
BRANCH   7  12
ATOM     12  N   UNL A   1      30.262  24.915  25.491  1.00  0.00    -0.381 N 
ATOM     13  H   UNL A   1      29.932  24.882  26.419  1.00  0.00     0.160 HD
BRANCH  12  14
ATOM     14  C   UNL A   1      30.831  23.693  24.949  1.00  0.00     0.148 C 
BRANCH  14  15
ATOM     15  C   UNL A   1      32.325  23.698  25.152  1.00  0.00    -0.029 A 
ATOM     16  C   UNL A   1      35.104  23.710  25.556  1.00  0.00     0.007 A 
ATOM     17  C   UNL A   1      34.246  23.367  26.602  1.00  0.00     0.015 A 
ATOM     18  C   UNL A   1      34.568  24.102  24.326  1.00  0.00     0.015 A 
ATOM     19  C   UNL A   1      32.867  23.367  26.403  1.00  0.00     0.007 A 
ATOM     20  C   UNL A   1      33.186  24.096  24.123  1.00  0.00     0.007 A 
BRANCH  16  21
ATOM     21  S   UNL A   1      36.870  23.646  25.769  1.00  0.00    -0.130 SA
ATOM     22  C   UNL A   1      37.152  21.935  25.240  1.00  0.00     0.091 C 
ENDBRANCH  16  21
ENDBRANCH  14  15
ENDBRANCH  12  14
ENDBRANCH   7  12
BRANCH  11  23
ATOM     23  N   UNL A   1      29.503  29.861  23.014  1.00  0.00    -0.366 N 
ATOM     24  C   UNL A   1      29.188  30.997  23.879  1.00  0.00     0.145 C 
ATOM     25  C   UNL A   1      29.671  30.156  21.589  1.00  0.00     0.145 C 
ATOM     26  C   UNL A   1      28.082  31.868  23.246  1.00  0.00     0.181 C 
ATOM     27  C   UNL A   1      28.474  30.980  21.102  1.00  0.00     0.181 C 
ATOM     28  O   UNL A   1      28.352  32.191  21.866  1.00  0.00    -0.378 OA
ENDBRANCH  11  23
ENDBRANCH   3   6
ENDBRANCH   1   2
BRANCH   1  29
ATOM     29  C   UNL A   1      31.533  31.880  26.825  1.00  0.00     0.042 C 
BRANCH  29  30
ATOM     30  C   UNL A   1      32.777  32.749  26.878  1.00  0.00     0.118 C 
BRANCH  30  31
ATOM     31  N   UNL A   1      32.549  34.033  27.526  1.00  0.00    -0.352 N 
ATOM     32  C   UNL A   1      33.133  34.621  28.622  1.00  0.00     0.251 C 
ATOM     33  H   UNL A   1      31.848  34.579  27.101  1.00  0.00     0.163 HD
ATOM     34  O   UNL A   1      32.628  35.636  29.093  1.00  0.00    -0.269 OA
BRANCH  32  35
ATOM     35  C   UNL A   1      34.340  34.046  29.261  1.00  0.00     0.039 A 
ATOM     36  C   UNL A   1      34.174  33.086  30.264  1.00  0.00     0.014 A 
ATOM     37  C   UNL A   1      35.625  34.476  28.927  1.00  0.00     0.014 A 
ATOM     38  C   UNL A   1      35.293  32.508  30.873  1.00  0.00     0.010 A 
ATOM     39  C   UNL A   1      36.739  33.831  29.461  1.00  0.00     0.010 A 
ATOM     40  C   UNL A   1      36.586  32.845  30.446  1.00  0.00    -0.014 A 
BRANCH  40  41
ATOM     41  C   UNL A   1      37.787  32.179  31.014  1.00  0.00     0.031 A 
ATOM     42  C   UNL A   1      38.458  31.052  30.274  1.00  0.00     0.074 A 
ATOM     43  C   UNL A   1      38.229  32.539  32.236  1.00  0.00     0.049 A 
ATOM     44  N   UNL A   1      39.468  30.305  30.644  1.00  0.00    -0.248 NA
ATOM     45  C   UNL A   1      37.904  30.694  28.958  1.00  0.00     0.031 C 
ATOM     46  C   UNL A   1      37.623  33.565  33.088  1.00  0.00     0.029 A 
ATOM     47  N   UNL A   1      39.280  32.070  32.983  1.00  0.00    -0.354 N 
ATOM     48  C   UNL A   1      39.647  29.377  29.626  1.00  0.00     0.074 A 
ATOM     49  C   UNL A   1      38.619  29.625  28.640  1.00  0.00     0.031 C 
ATOM     50  C   UNL A   1      38.323  33.661  34.230  1.00  0.00     0.029 A 
ATOM     51  C   UNL A   1      39.403  32.680  34.208  1.00  0.00     0.049 A 
ATOM     52  H   UNL A   1      39.890  31.362  32.671  1.00  0.00     0.167 HD
ATOM     53  C   UNL A   1      40.597  28.418  29.514  1.00  0.00     0.037 A 
ATOM     54  C   UNL A   1      40.283  32.470  35.206  1.00  0.00     0.037 A 
ATOM     55  C   UNL A   1      41.652  28.208  30.469  1.00  0.00     0.049 A 
ATOM     56  C   UNL A   1      41.354  31.431  35.031  1.00  0.00     0.074 A 
ATOM     57  C   UNL A   1      42.721  27.332  30.392  1.00  0.00     0.029 A 
ATOM     58  N   UNL A   1      41.773  28.882  31.673  1.00  0.00    -0.354 N 
ATOM     59  N   UNL A   1      41.568  30.626  34.019  1.00  0.00    -0.248 NA
ATOM     60  C   UNL A   1      42.315  31.276  36.134  1.00  0.00     0.031 C 
ATOM     61  C   UNL A   1      43.466  27.446  31.569  1.00  0.00     0.029 A 
ATOM     62  C   UNL A   1      42.884  28.425  32.360  1.00  0.00     0.049 A 
ATOM     63  H   UNL A   1      41.159  29.583  31.993  1.00  0.00     0.167 HD
ATOM     64  C   UNL A   1      42.695  29.888  34.352  1.00  0.00     0.074 A 
ATOM     65  C   UNL A   1      43.134  30.355  35.649  1.00  0.00     0.031 C 
ATOM     66  C   UNL A   1      43.311  28.905  33.648  1.00  0.00     0.037 A 
BRANCH  53  67
ATOM     67  C   UNL A   1      40.555  27.524  28.309  1.00  0.00     0.057 A 
ATOM     68  C   UNL A   1      41.262  27.828  27.139  1.00  0.00     0.134 A 
ATOM     69  C   UNL A   1      39.857  26.311  28.346  1.00  0.00     0.134 A 
ATOM     70  F   UNL A   1      41.943  28.979  27.035  1.00  0.00    -0.206 F 
ATOM     71  C   UNL A   1      41.267  26.961  26.043  1.00  0.00     0.040 A 
ATOM     72  C   UNL A   1      39.873  25.426  27.267  1.00  0.00     0.040 A 
ATOM     73  F   UNL A   1      39.163  25.956  29.439  1.00  0.00    -0.206 F 
ATOM     74  C   UNL A   1      40.579  25.751  26.110  1.00  0.00     0.006 A 
ENDBRANCH  53  67
BRANCH  54  75
ATOM     75  C   UNL A   1      40.201  33.265  36.457  1.00  0.00     0.057 A 
ATOM     76  C   UNL A   1      39.340  32.893  37.496  1.00  0.00     0.134 A 
ATOM     77  C   UNL A   1      40.960  34.429  36.634  1.00  0.00     0.134 A 
ATOM     78  F   UNL A   1      38.574  31.799  37.378  1.00  0.00    -0.206 F 
ATOM     79  C   UNL A   1      39.213  33.665  38.653  1.00  0.00     0.040 A 
ATOM     80  C   UNL A   1      40.862  35.195  37.796  1.00  0.00     0.040 A 
ATOM     81  F   UNL A   1      41.811  34.834  35.681  1.00  0.00    -0.206 F 
ATOM     82  C   UNL A   1      39.979  34.818  38.805  1.00  0.00     0.006 A 
ENDBRANCH  54  75
BRANCH  66  83
ATOM     83  C   UNL A   1      44.536  28.293  34.258  1.00  0.00     0.057 A 
ATOM     84  C   UNL A   1      45.809  28.836  34.053  1.00  0.00     0.134 A 
ATOM     85  C   UNL A   1      44.435  27.166  35.083  1.00  0.00     0.134 A 
ATOM     86  F   UNL A   1      45.973  29.908  33.263  1.00  0.00    -0.206 F 
ATOM     87  C   UNL A   1      46.946  28.263  34.626  1.00  0.00     0.040 A 
ATOM     88  C   UNL A   1      45.561  26.600  35.683  1.00  0.00     0.040 A 
ATOM     89  F   UNL A   1      43.241  26.603  35.327  1.00  0.00    -0.206 F 
ATOM     90  C   UNL A   1      46.821  27.145  35.450  1.00  0.00     0.006 A 
ENDBRANCH  66  83
ENDBRANCH  40  41
ENDBRANCH  32  35
ENDBRANCH  30  31
ENDBRANCH  29  30
ENDBRANCH   1  29
TORSDOF 15
ENDMDL
MODEL 3
REMARK VINA RESULT:     -12.1      3.670      8.474
REMARK SMILES CSc1ccc(CNc2ccc(N3CCOCC3)c(C(=O)NCCCNC(=O)c3ccc(-c4c5nc(c(-c6c(F)cccc6F)c6ccc([nH]6)c(-c6c(F)cccc6F)c6nc(c(-c7c(F)cccc7F)c7ccc4[nH]7)C=C6)C=C5)cc3)c2)cc1
REMARK SMILES IDX 23 1 22 2 20 3 21 4 19 6 9 7 10 8 83 9 11 10 12 11 8 12 7 14
REMARK SMILES IDX 6 15 3 16 4 17 85 18 5 19 84 20 2 21 1 22 13 23 14 24 18 25
REMARK SMILES IDX 15 26 17 27 16 28 24 29 25 30 26 31 27 32 28 34 29 35 30 36
REMARK SMILES IDX 82 37 31 38 81 39 32 40 33 41 34 42 75 43 35 44 80 45 74 46
REMARK SMILES IDX 76 47 36 48 79 49 73 50 72 51 37 53 63 54 46 55 62 56 47 57
REMARK SMILES IDX 50 58 61 59 77 60 48 61 49 62 60 64 78 65 51 66 38 67 39 68
REMARK SMILES IDX 44 69 40 70 41 71 43 72 45 73 42 74 64 75 65 76 70 77 66 78
REMARK SMILES IDX 67 79 69 80 71 81 68 82 52 83 53 84 58 85 54 86 55 87 57 88
REMARK SMILES IDX 59 89 56 90
REMARK H PARENT 22 5 8 13 26 33 76 52 50 63
REMARK Flexibility Score: inf
ROOT
ATOM      1  C   UNL A   1      32.729  29.948  25.959  1.00  0.00     0.118 C 
ENDROOT
BRANCH   1   2
ATOM      2  N   UNL A   1      33.028  29.634  24.564  1.00  0.00    -0.352 N 
ATOM      3  C   UNL A   1      32.403  28.923  23.557  1.00  0.00     0.253 C 
ATOM      4  O   UNL A   1      32.974  28.960  22.468  1.00  0.00    -0.269 OA
ATOM      5  H   UNL A   1      33.882  30.025  24.270  1.00  0.00     0.163 HD
BRANCH   3   6
ATOM      6  C   UNL A   1      31.148  28.126  23.762  1.00  0.00     0.065 A 
ATOM      7  C   UNL A   1      30.200  26.003  24.566  1.00  0.00     0.035 A 
ATOM      8  C   UNL A   1      28.983  26.366  23.998  1.00  0.00     0.028 A 
ATOM      9  C   UNL A   1      31.224  26.944  24.508  1.00  0.00     0.041 A 
ATOM     10  C   UNL A   1      28.812  27.631  23.427  1.00  0.00     0.029 A 
ATOM     11  C   UNL A   1      29.878  28.546  23.317  1.00  0.00     0.050 A 
BRANCH   7  12
ATOM     12  N   UNL A   1      30.333  24.784  25.189  1.00  0.00    -0.381 N 
ATOM     13  H   UNL A   1      30.049  24.729  26.131  1.00  0.00     0.160 HD
BRANCH  12  14
ATOM     14  C   UNL A   1      30.854  23.570  24.584  1.00  0.00     0.148 C 
BRANCH  14  15
ATOM     15  C   UNL A   1      32.359  23.569  24.671  1.00  0.00    -0.029 A 
ATOM     16  C   UNL A   1      35.161  23.582  24.853  1.00  0.00     0.007 A 
ATOM     17  C   UNL A   1      34.386  23.954  25.953  1.00  0.00     0.015 A 
ATOM     18  C   UNL A   1      34.535  23.259  23.647  1.00  0.00     0.015 A 
ATOM     19  C   UNL A   1      32.997  23.954  25.860  1.00  0.00     0.007 A 
ATOM     20  C   UNL A   1      33.141  23.252  23.555  1.00  0.00     0.007 A 
BRANCH  16  21
ATOM     21  S   UNL A   1      36.936  23.508  24.974  1.00  0.00    -0.130 SA
ATOM     22  C   UNL A   1      37.179  21.794  24.434  1.00  0.00     0.091 C 
ENDBRANCH  16  21
ENDBRANCH  14  15
ENDBRANCH  12  14
ENDBRANCH   7  12
BRANCH  11  23
ATOM     23  N   UNL A   1      29.583  29.837  22.933  1.00  0.00    -0.366 N 
ATOM     24  C   UNL A   1      29.427  30.949  23.869  1.00  0.00     0.145 C 
ATOM     25  C   UNL A   1      29.637  30.185  21.511  1.00  0.00     0.145 C 
ATOM     26  C   UNL A   1      28.327  31.916  23.379  1.00  0.00     0.181 C 
ATOM     27  C   UNL A   1      28.458  31.104  21.174  1.00  0.00     0.181 C 
ATOM     28  O   UNL A   1      28.488  32.284  21.994  1.00  0.00    -0.378 OA
ENDBRANCH  11  23
ENDBRANCH   3   6
ENDBRANCH   1   2
BRANCH   1  29
ATOM     29  C   UNL A   1      33.198  28.901  26.956  1.00  0.00     0.042 C 
BRANCH  29  30
ATOM     30  C   UNL A   1      34.628  29.065  27.440  1.00  0.00     0.118 C 
BRANCH  30  31
ATOM     31  N   UNL A   1      34.769  30.088  28.468  1.00  0.00    -0.352 N 
ATOM     32  C   UNL A   1      35.835  30.454  29.253  1.00  0.00     0.251 C 
ATOM     33  H   UNL A   1      33.950  30.611  28.629  1.00  0.00     0.163 HD
ATOM     34  O   UNL A   1      35.647  31.223  30.192  1.00  0.00    -0.269 OA
BRANCH  32  35
ATOM     35  C   UNL A   1      37.197  29.924  29.009  1.00  0.00     0.039 A 
ATOM     36  C   UNL A   1      37.733  30.021  27.721  1.00  0.00     0.014 A 
ATOM     37  C   UNL A   1      37.930  29.287  30.011  1.00  0.00     0.014 A 
ATOM     38  C   UNL A   1      39.024  29.550  27.461  1.00  0.00     0.010 A 
ATOM     39  C   UNL A   1      39.250  28.908  29.779  1.00  0.00     0.010 A 
ATOM     40  C   UNL A   1      39.811  29.028  28.499  1.00  0.00    -0.014 A 
BRANCH  40  41
ATOM     41  C   UNL A   1      41.216  28.604  28.267  1.00  0.00     0.031 A 
ATOM     42  C   UNL A   1      41.536  27.174  27.922  1.00  0.00     0.074 A 
ATOM     43  C   UNL A   1      42.214  29.493  28.444  1.00  0.00     0.049 A 
ATOM     44  N   UNL A   1      42.703  26.604  27.758  1.00  0.00    -0.248 NA
ATOM     45  C   UNL A   1      40.397  26.252  27.773  1.00  0.00     0.031 C 
ATOM     46  C   UNL A   1      42.043  30.890  28.851  1.00  0.00     0.029 A 
ATOM     47  N   UNL A   1      43.574  29.350  28.322  1.00  0.00    -0.354 N 
ATOM     48  C   UNL A   1      42.440  25.261  27.517  1.00  0.00     0.074 A 
ATOM     49  C   UNL A   1      41.007  25.089  27.597  1.00  0.00     0.031 C 
ATOM     50  C   UNL A   1      43.247  31.479  28.925  1.00  0.00     0.029 A 
ATOM     51  C   UNL A   1      44.277  30.496  28.609  1.00  0.00     0.049 A 
ATOM     52  H   UNL A   1      44.005  28.507  28.055  1.00  0.00     0.167 HD
ATOM     53  C   UNL A   1      43.313  24.266  27.234  1.00  0.00     0.037 A 
ATOM     54  C   UNL A   1      45.604  30.727  28.621  1.00  0.00     0.037 A 
ATOM     55  C   UNL A   1      44.735  24.449  27.100  1.00  0.00     0.049 A 
ATOM     56  C   UNL A   1      46.545  29.613  28.257  1.00  0.00     0.074 A 
ATOM     57  C   UNL A   1      45.689  23.525  26.714  1.00  0.00     0.029 A 
ATOM     58  N   UNL A   1      45.404  25.637  27.347  1.00  0.00    -0.354 N 
ATOM     59  N   UNL A   1      46.273  28.372  27.938  1.00  0.00    -0.248 NA
ATOM     60  C   UNL A   1      47.980  29.936  28.244  1.00  0.00     0.031 C 
ATOM     61  C   UNL A   1      46.942  24.142  26.767  1.00  0.00     0.029 A 
ATOM     62  C   UNL A   1      46.762  25.464  27.145  1.00  0.00     0.049 A 
ATOM     63  H   UNL A   1      44.976  26.480  27.626  1.00  0.00     0.167 HD
ATOM     64  C   UNL A   1      47.495  27.773  27.666  1.00  0.00     0.074 A 
ATOM     65  C   UNL A   1      48.508  28.792  27.836  1.00  0.00     0.031 C 
ATOM     66  C   UNL A   1      47.757  26.490  27.313  1.00  0.00     0.037 A 
BRANCH  53  67
ATOM     67  C   UNL A   1      42.764  22.884  27.033  1.00  0.00     0.057 A 
ATOM     68  C   UNL A   1      42.619  22.324  25.758  1.00  0.00     0.134 A 
ATOM     69  C   UNL A   1      42.444  22.078  28.132  1.00  0.00     0.134 A 
ATOM     70  F   UNL A   1      42.900  23.047  24.662  1.00  0.00    -0.206 F 
ATOM     71  C   UNL A   1      42.165  21.015  25.582  1.00  0.00     0.040 A 
ATOM     72  C   UNL A   1      42.011  20.760  27.971  1.00  0.00     0.040 A 
ATOM     73  F   UNL A   1      42.566  22.550  29.383  1.00  0.00    -0.206 F 
ATOM     74  C   UNL A   1      41.869  20.227  26.692  1.00  0.00     0.006 A 
ENDBRANCH  53  67
BRANCH  54  75
ATOM     75  C   UNL A   1      46.127  32.069  28.981  1.00  0.00     0.057 A 
ATOM     76  C   UNL A   1      46.292  33.066  28.012  1.00  0.00     0.134 A 
ATOM     77  C   UNL A   1      46.498  32.380  30.295  1.00  0.00     0.134 A 
ATOM     78  F   UNL A   1      45.971  32.822  26.733  1.00  0.00    -0.206 F 
ATOM     79  C   UNL A   1      46.836  34.312  28.329  1.00  0.00     0.040 A 
ATOM     80  C   UNL A   1      47.018  33.630  30.631  1.00  0.00     0.040 A 
ATOM     81  F   UNL A   1      46.355  31.473  31.272  1.00  0.00    -0.206 F 
ATOM     82  C   UNL A   1      47.198  34.597  29.644  1.00  0.00     0.006 A 
ENDBRANCH  54  75
BRANCH  66  83
ATOM     83  C   UNL A   1      49.190  26.130  27.062  1.00  0.00     0.057 A 
ATOM     84  C   UNL A   1      49.758  26.217  25.785  1.00  0.00     0.134 A 
ATOM     85  C   UNL A   1      50.018  25.720  28.114  1.00  0.00     0.134 A 
ATOM     86  F   UNL A   1      49.013  26.591  24.733  1.00  0.00    -0.206 F 
ATOM     87  C   UNL A   1      51.094  25.883  25.559  1.00  0.00     0.040 A 
ATOM     88  C   UNL A   1      51.362  25.410  27.905  1.00  0.00     0.040 A 
ATOM     89  F   UNL A   1      49.537  25.626  29.363  1.00  0.00    -0.206 F 
ATOM     90  C   UNL A   1      51.902  25.484  26.623  1.00  0.00     0.006 A 
ENDBRANCH  66  83
ENDBRANCH  40  41
ENDBRANCH  32  35
ENDBRANCH  30  31
ENDBRANCH  29  30
ENDBRANCH   1  29
TORSDOF 15
ENDMDL
