MODEL 1
REMARK VINA RESULT:     -10.5      0.000      0.000
REMARK SMILES CS(=O)(=O)c1ccc(C2=NN(c3ccc(C(=O)NCCCNC(=O)c4ccc(-c5c6nc(c(-c7c(F)cccc7F)c7ccc([nH]7)c(-c7c(F)cccc7F)c7nc(c(-c8c(F)cccc8F)c8ccc5[nH]8)C=C7)C=C6)cc4)cc3)[C@H](c3ccc(Cl)cc3)C2)cc1
REMARK SMILES IDX 19 1 18 2 16 3 17 4 15 6 12 7 13 8 80 9 14 10 79 11 11 12
REMARK SMILES IDX 9 13 10 14 89 15 81 16 8 17 5 18 6 19 91 20 7 21 90 22 2 23
REMARK SMILES IDX 1 24 3 25 4 26 82 27 83 28 88 29 84 30 87 31 85 32 86 33
REMARK SMILES IDX 20 34 21 35 22 36 23 37 24 39 25 40 26 41 78 42 27 43 77 44
REMARK SMILES IDX 28 45 29 46 30 47 71 48 31 49 76 50 70 51 72 52 32 53 75 54
REMARK SMILES IDX 69 55 68 56 33 58 59 59 42 60 58 61 43 62 46 63 57 64 73 65
REMARK SMILES IDX 44 66 45 67 56 69 74 70 47 71 34 72 35 73 40 74 36 75 37 76
REMARK SMILES IDX 39 77 41 78 38 79 60 80 61 81 66 82 62 83 63 84 65 85 67 86
REMARK SMILES IDX 64 87 48 88 49 89 54 90 50 91 51 92 53 93 55 94 52 95
REMARK H PARENT 18 5 22 38 72 57 46 68
REMARK Flexibility Score: inf
ROOT
ATOM      1  C   UNL A   1      34.447  35.004  28.919  1.00  0.00     0.118 C 
ENDROOT
BRANCH   1   2
ATOM      2  N   UNL A   1      33.500  35.052  30.019  1.00  0.00    -0.352 N 
ATOM      3  C   UNL A   1      33.639  34.708  31.342  1.00  0.00     0.251 C 
ATOM      4  O   UNL A   1      32.704  34.931  32.109  1.00  0.00    -0.269 OA
ATOM      5  H   UNL A   1      32.607  35.389  29.775  1.00  0.00     0.163 HD
BRANCH   3   6
ATOM      6  C   UNL A   1      34.907  34.154  31.873  1.00  0.00     0.039 A 
ATOM      7  C   UNL A   1      37.432  33.286  32.755  1.00  0.00     0.060 A 
ATOM      8  C   UNL A   1      36.956  34.552  33.106  1.00  0.00     0.029 A 
ATOM      9  C   UNL A   1      36.589  32.426  32.047  1.00  0.00     0.029 A 
ATOM     10  C   UNL A   1      35.699  34.985  32.673  1.00  0.00     0.016 A 
ATOM     11  C   UNL A   1      35.333  32.849  31.618  1.00  0.00     0.016 A 
BRANCH   7  12
ATOM     12  N   UNL A   1      38.708  32.877  33.079  1.00  0.00    -0.257 N 
ATOM     13  C   UNL A   1      40.133  31.525  33.857  1.00  0.00     0.071 C 
ATOM     14  N   UNL A   1      38.941  31.579  33.355  1.00  0.00    -0.176 NA
ATOM     15  C   UNL A   1      40.833  32.850  34.015  1.00  0.00     0.091 C 
ATOM     16  C   UNL A   1      39.865  33.760  33.236  1.00  0.00     0.144 C 
BRANCH  13  17
ATOM     17  C   UNL A   1      40.737  30.249  34.273  1.00  0.00    -0.002 A 
ATOM     18  C   UNL A   1      41.740  27.755  34.992  1.00  0.00     0.067 A 
ATOM     19  C   UNL A   1      41.406  28.010  33.658  1.00  0.00     0.021 A 
ATOM     20  C   UNL A   1      41.579  28.742  35.969  1.00  0.00     0.021 A 
ATOM     21  C   UNL A   1      40.893  29.255  33.302  1.00  0.00     0.011 A 
ATOM     22  C   UNL A   1      41.081  30.000  35.605  1.00  0.00     0.011 A 
BRANCH  18  23
ATOM     23  S   UNL A   1      42.363  26.131  35.360  1.00  0.00     0.175 S 
ATOM     24  C   UNL A   1      43.217  26.224  36.906  1.00  0.00     0.163 C 
ATOM     25  O   UNL A   1      43.352  25.838  34.339  1.00  0.00    -0.224 OA
ATOM     26  O   UNL A   1      41.204  25.283  35.552  1.00  0.00    -0.224 OA
ENDBRANCH  18  23
ENDBRANCH  13  17
BRANCH  16  27
ATOM     27  C   UNL A   1      40.321  34.301  31.879  1.00  0.00    -0.023 A 
ATOM     28  C   UNL A   1      41.633  34.714  31.595  1.00  0.00     0.007 A 
ATOM     29  C   UNL A   1      39.380  34.351  30.827  1.00  0.00     0.007 A 
ATOM     30  C   UNL A   1      41.985  35.165  30.315  1.00  0.00     0.021 A 
ATOM     31  C   UNL A   1      39.738  34.769  29.541  1.00  0.00     0.021 A 
ATOM     32  C   UNL A   1      41.041  35.181  29.293  1.00  0.00     0.041 A 
ATOM     33  Cl  UNL A   1      41.488  35.701  27.715  1.00  0.00    -0.084 Cl
ENDBRANCH  16  27
ENDBRANCH   7  12
ENDBRANCH   3   6
ENDBRANCH   1   2
BRANCH   1  34
ATOM     34  C   UNL A   1      34.173  33.812  28.005  1.00  0.00     0.042 C 
BRANCH  34  35
ATOM     35  C   UNL A   1      35.071  32.617  28.289  1.00  0.00     0.118 C 
BRANCH  35  36
ATOM     36  N   UNL A   1      34.345  31.359  28.211  1.00  0.00    -0.352 N 
ATOM     37  C   UNL A   1      34.819  30.076  28.120  1.00  0.00     0.251 C 
ATOM     38  H   UNL A   1      33.365  31.442  28.224  1.00  0.00     0.163 HD
ATOM     39  O   UNL A   1      34.043  29.165  27.841  1.00  0.00    -0.269 OA
BRANCH  37  40
ATOM     40  C   UNL A   1      36.249  29.777  28.353  1.00  0.00     0.039 A 
ATOM     41  C   UNL A   1      37.142  29.892  27.282  1.00  0.00     0.014 A 
ATOM     42  C   UNL A   1      36.707  29.327  29.595  1.00  0.00     0.014 A 
ATOM     43  C   UNL A   1      38.490  29.581  27.464  1.00  0.00     0.010 A 
ATOM     44  C   UNL A   1      38.065  29.099  29.796  1.00  0.00     0.010 A 
ATOM     45  C   UNL A   1      38.967  29.197  28.727  1.00  0.00    -0.014 A 
BRANCH  45  46
ATOM     46  C   UNL A   1      40.393  28.843  28.937  1.00  0.00     0.031 A 
ATOM     47  C   UNL A   1      40.904  27.499  28.493  1.00  0.00     0.074 A 
ATOM     48  C   UNL A   1      41.215  29.707  29.564  1.00  0.00     0.049 A 
ATOM     49  N   UNL A   1      42.094  26.973  28.644  1.00  0.00    -0.248 NA
ATOM     50  C   UNL A   1      39.943  26.615  27.812  1.00  0.00     0.031 C 
ATOM     51  C   UNL A   1      40.830  31.024  30.075  1.00  0.00     0.029 A 
ATOM     52  N   UNL A   1      42.544  29.601  29.888  1.00  0.00    -0.354 N 
ATOM     53  C   UNL A   1      42.017  25.697  28.098  1.00  0.00     0.074 A 
ATOM     54  C   UNL A   1      40.650  25.506  27.663  1.00  0.00     0.031 C 
ATOM     55  C   UNL A   1      41.903  31.611  30.628  1.00  0.00     0.029 A 
ATOM     56  C   UNL A   1      43.040  30.700  30.547  1.00  0.00     0.049 A 
ATOM     57  H   UNL A   1      43.090  28.812  29.668  1.00  0.00     0.167 HD
ATOM     58  C   UNL A   1      43.000  24.779  27.948  1.00  0.00     0.037 A 
ATOM     59  C   UNL A   1      44.271  30.940  31.036  1.00  0.00     0.037 A 
ATOM     60  C   UNL A   1      44.364  24.985  28.358  1.00  0.00     0.049 A 
ATOM     61  C   UNL A   1      45.345  29.900  30.861  1.00  0.00     0.074 A 
ATOM     62  C   UNL A   1      45.447  24.137  28.206  1.00  0.00     0.029 A 
ATOM     63  N   UNL A   1      44.832  26.121  29.000  1.00  0.00    -0.354 N 
ATOM     64  N   UNL A   1      45.272  28.724  30.287  1.00  0.00    -0.248 NA
ATOM     65  C   UNL A   1      46.675  30.228  31.391  1.00  0.00     0.031 C 
ATOM     66  C   UNL A   1      46.561  24.741  28.797  1.00  0.00     0.029 A 
ATOM     67  C   UNL A   1      46.184  25.990  29.265  1.00  0.00     0.049 A 
ATOM     68  H   UNL A   1      44.283  26.905  29.233  1.00  0.00     0.167 HD
ATOM     69  C   UNL A   1      46.552  28.188  30.353  1.00  0.00     0.074 A 
ATOM     70  C   UNL A   1      47.383  29.174  31.012  1.00  0.00     0.031 C 
ATOM     71  C   UNL A   1      47.001  26.990  29.905  1.00  0.00     0.037 A 
BRANCH  58  72
ATOM     72  C   UNL A   1      42.635  23.467  27.312  1.00  0.00     0.057 A 
ATOM     73  C   UNL A   1      42.767  23.249  25.934  1.00  0.00     0.134 A 
ATOM     74  C   UNL A   1      42.184  22.394  28.093  1.00  0.00     0.134 A 
ATOM     75  F   UNL A   1      43.183  24.237  25.127  1.00  0.00    -0.206 F 
ATOM     76  C   UNL A   1      42.437  22.024  25.351  1.00  0.00     0.040 A 
ATOM     77  C   UNL A   1      41.880  21.156  27.526  1.00  0.00     0.040 A 
ATOM     78  F   UNL A   1      42.041  22.529  29.420  1.00  0.00    -0.206 F 
ATOM     79  C   UNL A   1      42.000  20.969  26.151  1.00  0.00     0.006 A 
ENDBRANCH  58  72
BRANCH  59  80
ATOM     80  C   UNL A   1      44.566  32.226  31.718  1.00  0.00     0.057 A 
ATOM     81  C   UNL A   1      44.326  32.390  33.088  1.00  0.00     0.134 A 
ATOM     82  C   UNL A   1      45.072  33.327  31.017  1.00  0.00     0.134 A 
ATOM     83  F   UNL A   1      43.825  31.377  33.811  1.00  0.00    -0.206 F 
ATOM     84  C   UNL A   1      44.551  33.608  33.730  1.00  0.00     0.040 A 
ATOM     85  C   UNL A   1      45.330  34.543  31.653  1.00  0.00     0.040 A 
ATOM     86  F   UNL A   1      45.333  33.234  29.705  1.00  0.00    -0.206 F 
ATOM     87  C   UNL A   1      45.059  34.689  33.012  1.00  0.00     0.006 A 
ENDBRANCH  59  80
BRANCH  71  88
ATOM     88  C   UNL A   1      48.467  26.702  30.056  1.00  0.00     0.057 A 
ATOM     89  C   UNL A   1      49.406  27.093  29.095  1.00  0.00     0.134 A 
ATOM     90  C   UNL A   1      48.946  26.056  31.203  1.00  0.00     0.134 A 
ATOM     91  F   UNL A   1      49.013  27.706  27.968  1.00  0.00    -0.206 F 
ATOM     92  C   UNL A   1      50.768  26.826  29.255  1.00  0.00     0.040 A 
ATOM     93  C   UNL A   1      50.307  25.810  31.389  1.00  0.00     0.040 A 
ATOM     94  F   UNL A   1      48.101  25.664  32.168  1.00  0.00    -0.206 F 
ATOM     95  C   UNL A   1      51.221  26.190  30.408  1.00  0.00     0.006 A 
ENDBRANCH  71  88
ENDBRANCH  45  46
ENDBRANCH  37  40
ENDBRANCH  35  36
ENDBRANCH  34  35
ENDBRANCH   1  34
TORSDOF 14
ENDMDL
MODEL 2
REMARK VINA RESULT:     -10.3      6.903     12.118
REMARK SMILES CS(=O)(=O)c1ccc(C2=NN(c3ccc(C(=O)NCCCNC(=O)c4ccc(-c5c6nc(c(-c7c(F)cccc7F)c7ccc([nH]7)c(-c7c(F)cccc7F)c7nc(c(-c8c(F)cccc8F)c8ccc5[nH]8)C=C7)C=C6)cc4)cc3)[C@H](c3ccc(Cl)cc3)C2)cc1
REMARK SMILES IDX 19 1 18 2 16 3 17 4 15 6 12 7 13 8 80 9 14 10 79 11 11 12
REMARK SMILES IDX 9 13 10 14 89 15 81 16 8 17 5 18 6 19 91 20 7 21 90 22 2 23
REMARK SMILES IDX 1 24 3 25 4 26 82 27 83 28 88 29 84 30 87 31 85 32 86 33
REMARK SMILES IDX 20 34 21 35 22 36 23 37 24 39 25 40 26 41 78 42 27 43 77 44
REMARK SMILES IDX 28 45 29 46 30 47 71 48 31 49 76 50 70 51 72 52 32 53 75 54
REMARK SMILES IDX 69 55 68 56 33 58 59 59 42 60 58 61 43 62 46 63 57 64 73 65
REMARK SMILES IDX 44 66 45 67 56 69 74 70 47 71 34 72 35 73 40 74 36 75 37 76
REMARK SMILES IDX 39 77 41 78 38 79 60 80 61 81 66 82 62 83 63 84 65 85 67 86
REMARK SMILES IDX 64 87 48 88 49 89 54 90 50 91 51 92 53 93 55 94 52 95
REMARK H PARENT 18 5 22 38 72 57 46 68
REMARK Flexibility Score: inf
ROOT
ATOM      1  C   UNL A   1      39.640  24.601  26.572  1.00  0.00     0.118 C 
ENDROOT
BRANCH   1   2
ATOM      2  N   UNL A   1      39.620  23.179  26.277  1.00  0.00    -0.352 N 
ATOM      3  C   UNL A   1      38.606  22.367  25.832  1.00  0.00     0.251 C 
ATOM      4  O   UNL A   1      38.865  21.195  25.564  1.00  0.00    -0.269 OA
ATOM      5  H   UNL A   1      40.479  22.720  26.421  1.00  0.00     0.163 HD
BRANCH   3   6
ATOM      6  C   UNL A   1      37.238  22.888  25.595  1.00  0.00     0.039 A 
ATOM      7  C   UNL A   1      34.558  23.654  25.228  1.00  0.00     0.060 A 
ATOM      8  C   UNL A   1      35.038  23.347  26.504  1.00  0.00     0.029 A 
ATOM      9  C   UNL A   1      35.457  23.672  24.160  1.00  0.00     0.029 A 
ATOM     10  C   UNL A   1      36.371  22.971  26.690  1.00  0.00     0.016 A 
ATOM     11  C   UNL A   1      36.788  23.303  24.340  1.00  0.00     0.016 A 
BRANCH   7  12
ATOM     12  N   UNL A   1      33.224  23.924  25.003  1.00  0.00    -0.257 N 
ATOM     13  C   UNL A   1      31.574  25.196  24.646  1.00  0.00     0.071 C 
ATOM     14  N   UNL A   1      32.862  25.132  24.526  1.00  0.00    -0.176 NA
ATOM     15  C   UNL A   1      30.921  23.998  25.287  1.00  0.00     0.091 C 
ATOM     16  C   UNL A   1      32.114  23.024  25.316  1.00  0.00     0.144 C 
BRANCH  13  17
ATOM     17  C   UNL A   1      30.818  26.381  24.212  1.00  0.00    -0.002 A 
ATOM     18  C   UNL A   1      29.330  28.530  23.257  1.00  0.00     0.067 A 
ATOM     19  C   UNL A   1      28.698  27.311  23.520  1.00  0.00     0.021 A 
ATOM     20  C   UNL A   1      30.704  28.682  23.473  1.00  0.00     0.021 A 
ATOM     21  C   UNL A   1      29.446  26.232  23.987  1.00  0.00     0.011 A 
ATOM     22  C   UNL A   1      31.450  27.602  23.961  1.00  0.00     0.011 A 
BRANCH  18  23
ATOM     23  S   UNL A   1      28.303  29.842  22.639  1.00  0.00     0.175 S 
ATOM     24  C   UNL A   1      28.851  31.347  23.389  1.00  0.00     0.163 C 
ATOM     25  O   UNL A   1      26.966  29.575  23.136  1.00  0.00    -0.224 OA
ATOM     26  O   UNL A   1      28.573  29.938  21.219  1.00  0.00    -0.224 OA
ENDBRANCH  18  23
ENDBRANCH  13  17
BRANCH  16  27
ATOM     27  C   UNL A   1      32.094  21.834  24.355  1.00  0.00    -0.023 A 
ATOM     28  C   UNL A   1      31.904  21.943  22.967  1.00  0.00     0.007 A 
ATOM     29  C   UNL A   1      32.324  20.544  24.881  1.00  0.00     0.007 A 
ATOM     30  C   UNL A   1      31.936  20.808  22.144  1.00  0.00     0.021 A 
ATOM     31  C   UNL A   1      32.388  19.415  24.057  1.00  0.00     0.021 A 
ATOM     32  C   UNL A   1      32.187  19.553  22.690  1.00  0.00     0.041 A 
ATOM     33  Cl  UNL A   1      32.260  18.169  21.670  1.00  0.00    -0.084 Cl
ENDBRANCH  16  27
ENDBRANCH   7  12
ENDBRANCH   3   6
ENDBRANCH   1   2
BRANCH   1  34
ATOM     34  C   UNL A   1      39.964  24.857  28.042  1.00  0.00     0.042 C 
BRANCH  34  35
ATOM     35  C   UNL A   1      41.453  25.028  28.308  1.00  0.00     0.118 C 
BRANCH  35  36
ATOM     36  N   UNL A   1      42.209  23.837  27.954  1.00  0.00    -0.352 N 
ATOM     37  C   UNL A   1      43.417  23.720  27.315  1.00  0.00     0.251 C 
ATOM     38  H   UNL A   1      41.790  22.985  28.212  1.00  0.00     0.163 HD
ATOM     39  O   UNL A   1      43.782  22.619  26.912  1.00  0.00    -0.269 OA
BRANCH  37  40
ATOM     40  C   UNL A   1      44.281  24.903  27.106  1.00  0.00     0.039 A 
ATOM     41  C   UNL A   1      44.938  25.456  28.210  1.00  0.00     0.014 A 
ATOM     42  C   UNL A   1      44.400  25.506  25.851  1.00  0.00     0.014 A 
ATOM     43  C   UNL A   1      45.731  26.594  28.049  1.00  0.00     0.010 A 
ATOM     44  C   UNL A   1      45.258  26.589  25.676  1.00  0.00     0.010 A 
ATOM     45  C   UNL A   1      45.910  27.161  26.777  1.00  0.00    -0.014 A 
BRANCH  45  46
ATOM     46  C   UNL A   1      46.733  28.382  26.588  1.00  0.00     0.031 A 
ATOM     47  C   UNL A   1      48.222  28.260  26.405  1.00  0.00     0.074 A 
ATOM     48  C   UNL A   1      46.152  29.597  26.625  1.00  0.00     0.049 A 
ATOM     49  N   UNL A   1      49.123  29.204  26.292  1.00  0.00    -0.248 NA
ATOM     50  C   UNL A   1      48.778  26.897  26.372  1.00  0.00     0.031 C 
ATOM     51  C   UNL A   1      44.725  29.848  26.834  1.00  0.00     0.029 A 
ATOM     52  N   UNL A   1      46.694  30.851  26.499  1.00  0.00    -0.354 N 
ATOM     53  C   UNL A   1      50.346  28.550  26.195  1.00  0.00     0.074 A 
ATOM     54  C   UNL A   1      50.079  27.134  26.319  1.00  0.00     0.031 C 
ATOM     55  C   UNL A   1      44.502  31.171  26.799  1.00  0.00     0.029 A 
ATOM     56  C   UNL A   1      45.772  31.863  26.607  1.00  0.00     0.049 A 
ATOM     57  H   UNL A   1      47.654  31.010  26.346  1.00  0.00     0.167 HD
ATOM     58  C   UNL A   1      51.576  29.079  25.996  1.00  0.00     0.037 A 
ATOM     59  C   UNL A   1      45.936  33.199  26.562  1.00  0.00     0.037 A 
ATOM     60  C   UNL A   1      51.833  30.487  25.845  1.00  0.00     0.049 A 
ATOM     61  C   UNL A   1      47.314  33.762  26.344  1.00  0.00     0.074 A 
ATOM     62  C   UNL A   1      53.035  31.122  25.589  1.00  0.00     0.029 A 
ATOM     63  N   UNL A   1      50.868  31.479  25.936  1.00  0.00    -0.354 N 
ATOM     64  N   UNL A   1      48.452  33.129  26.193  1.00  0.00    -0.248 NA
ATOM     65  C   UNL A   1      47.428  35.224  26.278  1.00  0.00     0.031 C 
ATOM     66  C   UNL A   1      52.806  32.501  25.571  1.00  0.00     0.029 A 
ATOM     67  C   UNL A   1      51.451  32.722  25.757  1.00  0.00     0.049 A 
ATOM     68  H   UNL A   1      49.910  31.323  26.103  1.00  0.00     0.167 HD
ATOM     69  C   UNL A   1      49.409  34.112  25.976  1.00  0.00     0.074 A 
ATOM     70  C   UNL A   1      48.715  35.382  26.004  1.00  0.00     0.031 C 
ATOM     71  C   UNL A   1      50.742  33.976  25.769  1.00  0.00     0.037 A 
BRANCH  58  72
ATOM     72  C   UNL A   1      52.739  28.129  25.925  1.00  0.00     0.057 A 
ATOM     73  C   UNL A   1      53.161  27.563  24.715  1.00  0.00     0.134 A 
ATOM     74  C   UNL A   1      53.470  27.808  27.077  1.00  0.00     0.134 A 
ATOM     75  F   UNL A   1      52.499  27.820  23.577  1.00  0.00    -0.206 F 
ATOM     76  C   UNL A   1      54.249  26.690  24.656  1.00  0.00     0.040 A 
ATOM     77  C   UNL A   1      54.578  26.961  27.025  1.00  0.00     0.040 A 
ATOM     78  F   UNL A   1      53.126  28.319  28.268  1.00  0.00    -0.206 F 
ATOM     79  C   UNL A   1      54.967  26.394  25.813  1.00  0.00     0.006 A 
ENDBRANCH  58  72
BRANCH  59  80
ATOM     80  C   UNL A   1      44.764  34.100  26.705  1.00  0.00     0.057 A 
ATOM     81  C   UNL A   1      43.965  34.429  25.603  1.00  0.00     0.134 A 
ATOM     82  C   UNL A   1      44.427  34.673  27.937  1.00  0.00     0.134 A 
ATOM     83  F   UNL A   1      44.247  33.925  24.392  1.00  0.00    -0.206 F 
ATOM     84  C   UNL A   1      42.892  35.314  25.713  1.00  0.00     0.040 A 
ATOM     85  C   UNL A   1      43.338  35.538  28.069  1.00  0.00     0.040 A 
ATOM     86  F   UNL A   1      45.145  34.393  29.034  1.00  0.00    -0.206 F 
ATOM     87  C   UNL A   1      42.574  35.869  26.951  1.00  0.00     0.006 A 
ENDBRANCH  59  80
BRANCH  71  88
ATOM     88  C   UNL A   1      51.528  35.226  25.494  1.00  0.00     0.057 A 
ATOM     89  C   UNL A   1      51.917  35.592  24.200  1.00  0.00     0.134 A 
ATOM     90  C   UNL A   1      51.867  36.092  26.541  1.00  0.00     0.134 A 
ATOM     91  F   UNL A   1      51.635  34.802  23.154  1.00  0.00    -0.206 F 
ATOM     92  C   UNL A   1      52.641  36.763  23.961  1.00  0.00     0.040 A 
ATOM     93  C   UNL A   1      52.562  37.279  26.312  1.00  0.00     0.040 A 
ATOM     94  F   UNL A   1      51.515  35.806  27.804  1.00  0.00    -0.206 F 
ATOM     95  C   UNL A   1      52.958  37.613  25.018  1.00  0.00     0.006 A 
ENDBRANCH  71  88
ENDBRANCH  45  46
ENDBRANCH  37  40
ENDBRANCH  35  36
ENDBRANCH  34  35
ENDBRANCH   1  34
TORSDOF 14
ENDMDL
MODEL 3
REMARK VINA RESULT:     -10.2      6.949     12.660
REMARK SMILES CS(=O)(=O)c1ccc(C2=NN(c3ccc(C(=O)NCCCNC(=O)c4ccc(-c5c6nc(c(-c7c(F)cccc7F)c7ccc([nH]7)c(-c7c(F)cccc7F)c7nc(c(-c8c(F)cccc8F)c8ccc5[nH]8)C=C7)C=C6)cc4)cc3)[C@H](c3ccc(Cl)cc3)C2)cc1
REMARK SMILES IDX 19 1 18 2 16 3 17 4 15 6 12 7 13 8 80 9 14 10 79 11 11 12
REMARK SMILES IDX 9 13 10 14 89 15 81 16 8 17 5 18 6 19 91 20 7 21 90 22 2 23
REMARK SMILES IDX 1 24 3 25 4 26 82 27 83 28 88 29 84 30 87 31 85 32 86 33
REMARK SMILES IDX 20 34 21 35 22 36 23 37 24 39 25 40 26 41 78 42 27 43 77 44
REMARK SMILES IDX 28 45 29 46 30 47 71 48 31 49 76 50 70 51 72 52 32 53 75 54
REMARK SMILES IDX 69 55 68 56 33 58 59 59 42 60 58 61 43 62 46 63 57 64 73 65
REMARK SMILES IDX 44 66 45 67 56 69 74 70 47 71 34 72 35 73 40 74 36 75 37 76
REMARK SMILES IDX 39 77 41 78 38 79 60 80 61 81 66 82 62 83 63 84 65 85 67 86
REMARK SMILES IDX 64 87 48 88 49 89 54 90 50 91 51 92 53 93 55 94 52 95
REMARK H PARENT 18 5 22 38 72 57 46 68
REMARK Flexibility Score: inf
ROOT
ATOM      1  C   UNL A   1      39.646  24.906  26.420  1.00  0.00     0.118 C 
ENDROOT
BRANCH   1   2
ATOM      2  N   UNL A   1      39.654  23.470  26.204  1.00  0.00    -0.352 N 
ATOM      3  C   UNL A   1      38.655  22.613  25.811  1.00  0.00     0.251 C 
ATOM      4  O   UNL A   1      38.937  21.434  25.606  1.00  0.00    -0.269 OA
ATOM      5  H   UNL A   1      40.524  23.037  26.366  1.00  0.00     0.163 HD
BRANCH   3   6
ATOM      6  C   UNL A   1      37.275  23.091  25.556  1.00  0.00     0.039 A 
ATOM      7  C   UNL A   1      34.577  23.803  25.210  1.00  0.00     0.060 A 
ATOM      8  C   UNL A   1      35.146  23.784  26.486  1.00  0.00     0.029 A 
ATOM      9  C   UNL A   1      35.398  23.561  24.106  1.00  0.00     0.029 A 
ATOM     10  C   UNL A   1      36.488  23.436  26.661  1.00  0.00     0.016 A 
ATOM     11  C   UNL A   1      36.738  23.219  24.274  1.00  0.00     0.016 A 
BRANCH   7  12
ATOM     12  N   UNL A   1      33.232  24.039  25.021  1.00  0.00    -0.257 N 
ATOM     13  C   UNL A   1      31.542  25.267  24.696  1.00  0.00     0.071 C 
ATOM     14  N   UNL A   1      32.827  25.231  24.538  1.00  0.00    -0.176 NA
ATOM     15  C   UNL A   1      30.937  24.064  25.373  1.00  0.00     0.091 C 
ATOM     16  C   UNL A   1      32.152  23.119  25.380  1.00  0.00     0.144 C 
BRANCH  13  17
ATOM     17  C   UNL A   1      30.746  26.428  24.268  1.00  0.00    -0.002 A 
ATOM     18  C   UNL A   1      29.201  28.537  23.314  1.00  0.00     0.067 A 
ATOM     19  C   UNL A   1      28.635  27.264  23.443  1.00  0.00     0.021 A 
ATOM     20  C   UNL A   1      30.537  28.761  23.664  1.00  0.00     0.021 A 
ATOM     21  C   UNL A   1      29.413  26.207  23.909  1.00  0.00     0.011 A 
ATOM     22  C   UNL A   1      31.311  27.701  24.151  1.00  0.00     0.011 A 
BRANCH  18  23
ATOM     23  S   UNL A   1      28.143  29.819  22.686  1.00  0.00     0.175 S 
ATOM     24  C   UNL A   1      28.688  31.350  23.383  1.00  0.00     0.163 C 
ATOM     25  O   UNL A   1      26.821  29.549  23.222  1.00  0.00    -0.224 OA
ATOM     26  O   UNL A   1      28.379  29.881  21.258  1.00  0.00    -0.224 OA
ENDBRANCH  18  23
ENDBRANCH  13  17
BRANCH  16  27
ATOM     27  C   UNL A   1      32.132  21.914  24.437  1.00  0.00    -0.023 A 
ATOM     28  C   UNL A   1      32.006  22.006  23.040  1.00  0.00     0.007 A 
ATOM     29  C   UNL A   1      32.293  20.625  24.992  1.00  0.00     0.007 A 
ATOM     30  C   UNL A   1      32.033  20.858  22.237  1.00  0.00     0.021 A 
ATOM     31  C   UNL A   1      32.352  19.482  24.189  1.00  0.00     0.021 A 
ATOM     32  C   UNL A   1      32.215  19.604  22.812  1.00  0.00     0.041 A 
ATOM     33  Cl  UNL A   1      32.283  18.202  21.818  1.00  0.00    -0.084 Cl
ENDBRANCH  16  27
ENDBRANCH   7  12
ENDBRANCH   3   6
ENDBRANCH   1   2
BRANCH   1  34
ATOM     34  C   UNL A   1      41.029  25.413  26.819  1.00  0.00     0.042 C 
BRANCH  34  35
ATOM     35  C   UNL A   1      41.609  24.690  28.027  1.00  0.00     0.118 C 
BRANCH  35  36
ATOM     36  N   UNL A   1      42.404  23.536  27.640  1.00  0.00    -0.352 N 
ATOM     37  C   UNL A   1      43.638  23.478  27.043  1.00  0.00     0.251 C 
ATOM     38  H   UNL A   1      41.995  22.663  27.837  1.00  0.00     0.163 HD
ATOM     39  O   UNL A   1      44.042  22.408  26.597  1.00  0.00    -0.269 OA
BRANCH  37  40
ATOM     40  C   UNL A   1      44.482  24.688  26.930  1.00  0.00     0.039 A 
ATOM     41  C   UNL A   1      44.619  25.296  25.678  1.00  0.00     0.014 A 
ATOM     42  C   UNL A   1      45.187  25.190  28.028  1.00  0.00     0.014 A 
ATOM     43  C   UNL A   1      45.439  26.416  25.534  1.00  0.00     0.010 A 
ATOM     44  C   UNL A   1      45.936  26.356  27.901  1.00  0.00     0.010 A 
ATOM     45  C   UNL A   1      46.093  26.966  26.648  1.00  0.00    -0.014 A 
BRANCH  45  46
ATOM     46  C   UNL A   1      46.984  28.145  26.513  1.00  0.00     0.031 A 
ATOM     47  C   UNL A   1      46.407  29.533  26.596  1.00  0.00     0.074 A 
ATOM     48  C   UNL A   1      48.298  27.971  26.272  1.00  0.00     0.049 A 
ATOM     49  N   UNL A   1      47.002  30.689  26.438  1.00  0.00    -0.248 NA
ATOM     50  C   UNL A   1      44.963  29.637  26.866  1.00  0.00     0.031 C 
ATOM     51  C   UNL A   1      48.969  26.677  26.132  1.00  0.00     0.029 A 
ATOM     52  N   UNL A   1      49.302  28.888  26.091  1.00  0.00    -0.354 N 
ATOM     53  C   UNL A   1      46.006  31.649  26.568  1.00  0.00     0.074 A 
ATOM     54  C   UNL A   1      44.759  30.941  26.763  1.00  0.00     0.031 C 
ATOM     55  C   UNL A   1      50.277  26.883  25.910  1.00  0.00     0.029 A 
ATOM     56  C   UNL A   1      50.530  28.319  25.851  1.00  0.00     0.049 A 
ATOM     57  H   UNL A   1      49.157  29.860  26.130  1.00  0.00     0.167 HD
ATOM     58  C   UNL A   1      46.121  32.998  26.554  1.00  0.00     0.037 A 
ATOM     59  C   UNL A   1      51.722  28.894  25.604  1.00  0.00     0.037 A 
ATOM     60  C   UNL A   1      47.368  33.697  26.389  1.00  0.00     0.049 A 
ATOM     61  C   UNL A   1      51.823  30.395  25.589  1.00  0.00     0.074 A 
ATOM     62  C   UNL A   1      47.601  35.061  26.410  1.00  0.00     0.029 A 
ATOM     63  N   UNL A   1      48.594  33.085  26.172  1.00  0.00    -0.354 N 
ATOM     64  N   UNL A   1      50.883  31.290  25.775  1.00  0.00    -0.248 NA
ATOM     65  C   UNL A   1      53.153  30.966  25.341  1.00  0.00     0.031 C 
ATOM     66  C   UNL A   1      48.960  35.277  26.160  1.00  0.00     0.029 A 
ATOM     67  C   UNL A   1      49.583  34.044  26.042  1.00  0.00     0.049 A 
ATOM     68  H   UNL A   1      48.738  32.113  26.119  1.00  0.00     0.167 HD
ATOM     69  C   UNL A   1      51.515  32.526  25.706  1.00  0.00     0.074 A 
ATOM     70  C   UNL A   1      52.919  32.264  25.471  1.00  0.00     0.031 C 
ATOM     71  C   UNL A   1      50.981  33.766  25.828  1.00  0.00     0.037 A 
BRANCH  58  72
ATOM     72  C   UNL A   1      44.866  33.806  26.725  1.00  0.00     0.057 A 
ATOM     73  C   UNL A   1      44.425  34.231  27.986  1.00  0.00     0.134 A 
ATOM     74  C   UNL A   1      44.110  34.197  25.612  1.00  0.00     0.134 A 
ATOM     75  F   UNL A   1      45.095  33.883  29.094  1.00  0.00    -0.206 F 
ATOM     76  C   UNL A   1      43.263  34.991  28.136  1.00  0.00     0.040 A 
ATOM     77  C   UNL A   1      42.964  34.982  25.747  1.00  0.00     0.040 A 
ATOM     78  F   UNL A   1      44.478  33.831  24.375  1.00  0.00    -0.206 F 
ATOM     79  C   UNL A   1      42.534  35.377  27.013  1.00  0.00     0.006 A 
ENDBRANCH  58  72
BRANCH  59  80
ATOM     80  C   UNL A   1      52.923  28.052  25.373  1.00  0.00     0.057 A 
ATOM     81  C   UNL A   1      53.762  27.682  26.432  1.00  0.00     0.134 A 
ATOM     82  C   UNL A   1      53.277  27.617  24.090  1.00  0.00     0.134 A 
ATOM     83  F   UNL A   1      53.487  28.082  27.682  1.00  0.00    -0.206 F 
ATOM     84  C   UNL A   1      54.921  26.934  26.221  1.00  0.00     0.040 A 
ATOM     85  C   UNL A   1      54.418  26.843  23.868  1.00  0.00     0.040 A 
ATOM     86  F   UNL A   1      52.511  27.928  23.035  1.00  0.00    -0.206 F 
ATOM     87  C   UNL A   1      55.250  26.509  24.936  1.00  0.00     0.006 A 
ENDBRANCH  59  80
BRANCH  71  88
ATOM     88  C   UNL A   1      51.925  34.932  25.773  1.00  0.00     0.057 A 
ATOM     89  C   UNL A   1      52.252  35.569  24.570  1.00  0.00     0.134 A 
ATOM     90  C   UNL A   1      52.484  35.446  26.950  1.00  0.00     0.134 A 
ATOM     91  F   UNL A   1      51.760  35.121  23.405  1.00  0.00    -0.206 F 
ATOM     92  C   UNL A   1      53.126  36.659  24.537  1.00  0.00     0.040 A 
ATOM     93  C   UNL A   1      53.333  36.552  26.933  1.00  0.00     0.040 A 
ATOM     94  F   UNL A   1      52.203  34.888  28.138  1.00  0.00    -0.206 F 
ATOM     95  C   UNL A   1      53.662  37.157  25.722  1.00  0.00     0.006 A 
ENDBRANCH  71  88
ENDBRANCH  45  46
ENDBRANCH  37  40
ENDBRANCH  35  36
ENDBRANCH  34  35
ENDBRANCH   1  34
TORSDOF 14
ENDMDL
