MODEL 1
REMARK VINA RESULT:     -12.1      0.000      0.000
REMARK SMILES Cc1ccc(OCCNC(=O)[C@H]2CC=CC[C@@H]2C(=O)NCCCNC(=O)c2ccc(-c3c4nc(c(-c5c(F)cccc5F)c5ccc([nH]5)c(-c5c(F)cccc5F)c5nc(c(-c6c(F)cccc6F)c6ccc3[nH]6)C=C5)C=C4)cc2)cc1
REMARK SMILES IDX 18 1 19 2 20 3 17 5 12 6 13 7 14 8 16 9 15 10 10 11 9 12
REMARK SMILES IDX 11 14 8 15 7 16 6 17 5 18 1 19 2 20 3 21 82 22 4 23 81 24
REMARK SMILES IDX 21 25 22 26 23 27 24 28 25 29 26 31 27 32 28 33 80 34 29 35
REMARK SMILES IDX 79 36 30 37 31 38 32 39 73 40 33 41 78 42 72 43 74 44 34 45
REMARK SMILES IDX 77 46 71 47 70 48 35 50 61 51 44 52 60 53 45 54 48 55 59 56
REMARK SMILES IDX 75 57 46 58 47 59 58 61 76 62 49 63 36 64 37 65 42 66 38 67
REMARK SMILES IDX 39 68 41 69 43 70 40 71 62 72 63 73 68 74 64 75 65 76 67 77
REMARK SMILES IDX 69 78 66 79 50 80 51 81 56 82 52 83 53 84 55 85 57 86 54 87
REMARK H PARENT 20 4 9 13 24 30 74 49 48 60
REMARK Flexibility Score: inf
ROOT
ATOM      1  C   UNL A   1      33.185  28.341  24.284  1.00  0.00     0.224 C 
ATOM      2  O   UNL A   1      33.633  28.081  23.169  1.00  0.00    -0.275 OA
ATOM      3  N   UNL A   1      34.021  28.977  25.157  1.00  0.00    -0.356 N 
ATOM      4  H   UNL A   1      34.828  29.362  24.745  1.00  0.00     0.163 HD
ENDROOT
BRANCH   1   5
ATOM      5  C   UNL A   1      31.752  28.020  24.704  1.00  0.00     0.095 C 
ATOM      6  C   UNL A   1      31.123  26.933  23.809  1.00  0.00     0.095 C 
ATOM      7  C   UNL A   1      30.788  27.479  22.397  1.00  0.00     0.041 C 
ATOM      8  C   UNL A   1      30.300  28.901  22.377  1.00  0.00    -0.030 C 
ATOM      9  C   UNL A   1      30.918  29.307  24.759  1.00  0.00     0.041 C 
ATOM     10  C   UNL A   1      30.342  29.715  23.439  1.00  0.00    -0.030 C 
BRANCH   6  11
ATOM     11  C   UNL A   1      29.877  26.273  24.427  1.00  0.00     0.224 C 
ATOM     12  N   UNL A   1      29.975  25.291  25.366  1.00  0.00    -0.352 N 
ATOM     13  H   UNL A   1      29.121  24.842  25.564  1.00  0.00     0.163 HD
ATOM     14  O   UNL A   1      28.732  26.559  24.070  1.00  0.00    -0.275 OA
BRANCH  12  15
ATOM     15  C   UNL A   1      31.100  24.779  26.130  1.00  0.00     0.157 C 
BRANCH  15  16
ATOM     16  C   UNL A   1      30.958  23.275  26.462  1.00  0.00     0.250 C 
BRANCH  16  17
ATOM     17  O   UNL A   1      32.169  22.683  26.923  1.00  0.00    -0.492 OA
BRANCH  17  18
ATOM     18  C   UNL A   1      33.217  22.604  26.057  1.00  0.00     0.119 A 
ATOM     19  C   UNL A   1      36.652  22.952  23.501  1.00  0.00     0.044 C 
ATOM     20  C   UNL A   1      35.468  22.795  24.403  1.00  0.00    -0.051 A 
ATOM     21  C   UNL A   1      35.525  23.244  25.725  1.00  0.00     0.007 A 
ATOM     22  C   UNL A   1      34.304  22.173  23.944  1.00  0.00     0.007 A 
ATOM     23  C   UNL A   1      34.401  23.152  26.545  1.00  0.00     0.046 A 
ATOM     24  C   UNL A   1      33.189  22.060  24.775  1.00  0.00     0.046 A 
ENDBRANCH  17  18
ENDBRANCH  16  17
ENDBRANCH  15  16
ENDBRANCH  12  15
ENDBRANCH   6  11
ENDBRANCH   1   5
BRANCH   3  25
ATOM     25  C   UNL A   1      33.918  29.178  26.594  1.00  0.00     0.117 C 
BRANCH  25  26
ATOM     26  C   UNL A   1      34.012  30.663  26.911  1.00  0.00     0.042 C 
BRANCH  26  27
ATOM     27  C   UNL A   1      34.224  31.002  28.371  1.00  0.00     0.118 C 
BRANCH  27  28
ATOM     28  N   UNL A   1      35.344  31.874  28.717  1.00  0.00    -0.352 N 
ATOM     29  C   UNL A   1      36.665  31.470  28.947  1.00  0.00     0.251 C 
ATOM     30  H   UNL A   1      35.150  32.836  28.797  1.00  0.00     0.163 HD
ATOM     31  O   UNL A   1      37.560  32.269  29.124  1.00  0.00    -0.269 OA
BRANCH  29  32
ATOM     32  C   UNL A   1      36.953  30.012  28.850  1.00  0.00     0.039 A 
ATOM     33  C   UNL A   1      37.125  29.328  30.057  1.00  0.00     0.014 A 
ATOM     34  C   UNL A   1      37.525  29.544  27.673  1.00  0.00     0.014 A 
ATOM     35  C   UNL A   1      38.146  28.387  30.148  1.00  0.00     0.010 A 
ATOM     36  C   UNL A   1      38.620  28.709  27.798  1.00  0.00     0.010 A 
ATOM     37  C   UNL A   1      38.994  28.210  29.058  1.00  0.00    -0.014 A 
BRANCH  37  38
ATOM     38  C   UNL A   1      40.369  27.708  29.177  1.00  0.00     0.031 A 
ATOM     39  C   UNL A   1      40.699  26.329  28.741  1.00  0.00     0.074 A 
ATOM     40  C   UNL A   1      41.376  28.530  29.569  1.00  0.00     0.049 A 
ATOM     41  N   UNL A   1      41.836  25.755  28.939  1.00  0.00    -0.248 NA
ATOM     42  C   UNL A   1      39.724  25.444  28.111  1.00  0.00     0.031 C 
ATOM     43  C   UNL A   1      42.811  28.323  29.370  1.00  0.00     0.029 A 
ATOM     44  N   UNL A   1      41.311  29.639  30.429  1.00  0.00    -0.354 N 
ATOM     45  C   UNL A   1      41.839  24.552  28.272  1.00  0.00     0.074 A 
ATOM     46  C   UNL A   1      40.473  24.369  27.857  1.00  0.00     0.031 C 
ATOM     47  C   UNL A   1      43.489  29.041  30.276  1.00  0.00     0.029 A 
ATOM     48  C   UNL A   1      42.517  29.626  31.177  1.00  0.00     0.049 A 
ATOM     49  H   UNL A   1      40.578  30.292  30.499  1.00  0.00     0.167 HD
ATOM     50  C   UNL A   1      43.026  23.909  28.091  1.00  0.00     0.037 A 
ATOM     51  C   UNL A   1      42.520  29.482  32.534  1.00  0.00     0.037 A 
ATOM     52  C   UNL A   1      44.057  24.469  28.970  1.00  0.00     0.049 A 
ATOM     53  C   UNL A   1      43.242  28.254  33.048  1.00  0.00     0.074 A 
ATOM     54  C   UNL A   1      45.144  25.312  28.815  1.00  0.00     0.029 A 
ATOM     55  N   UNL A   1      43.880  24.324  30.335  1.00  0.00    -0.354 N 
ATOM     56  N   UNL A   1      43.812  27.364  32.284  1.00  0.00    -0.248 NA
ATOM     57  C   UNL A   1      43.287  27.876  34.464  1.00  0.00     0.031 C 
ATOM     58  C   UNL A   1      45.587  25.704  30.115  1.00  0.00     0.029 A 
ATOM     59  C   UNL A   1      44.776  25.087  31.052  1.00  0.00     0.049 A 
ATOM     60  H   UNL A   1      43.197  23.746  30.744  1.00  0.00     0.167 HD
ATOM     61  C   UNL A   1      44.181  26.287  33.044  1.00  0.00     0.074 A 
ATOM     62  C   UNL A   1      43.864  26.663  34.407  1.00  0.00     0.031 C 
ATOM     63  C   UNL A   1      44.652  25.131  32.499  1.00  0.00     0.037 A 
BRANCH  50  64
ATOM     64  C   UNL A   1      43.322  22.837  27.056  1.00  0.00     0.057 A 
ATOM     65  C   UNL A   1      42.651  21.596  27.118  1.00  0.00     0.134 A 
ATOM     66  C   UNL A   1      44.307  22.894  26.051  1.00  0.00     0.134 A 
ATOM     67  F   UNL A   1      41.672  21.367  28.004  1.00  0.00    -0.206 F 
ATOM     68  C   UNL A   1      42.964  20.509  26.288  1.00  0.00     0.040 A 
ATOM     69  C   UNL A   1      44.612  21.824  25.198  1.00  0.00     0.040 A 
ATOM     70  F   UNL A   1      45.062  23.971  25.833  1.00  0.00    -0.206 F 
ATOM     71  C   UNL A   1      43.952  20.618  25.324  1.00  0.00     0.006 A 
ENDBRANCH  50  64
BRANCH  51  72
ATOM     72  C   UNL A   1      41.338  30.106  33.175  1.00  0.00     0.057 A 
ATOM     73  C   UNL A   1      41.336  31.500  33.356  1.00  0.00     0.134 A 
ATOM     74  C   UNL A   1      40.106  29.449  33.221  1.00  0.00     0.134 A 
ATOM     75  F   UNL A   1      42.489  32.187  33.321  1.00  0.00    -0.206 F 
ATOM     76  C   UNL A   1      40.147  32.225  33.449  1.00  0.00     0.040 A 
ATOM     77  C   UNL A   1      38.910  30.165  33.324  1.00  0.00     0.040 A 
ATOM     78  F   UNL A   1      40.033  28.124  33.029  1.00  0.00    -0.206 F 
ATOM     79  C   UNL A   1      38.927  31.558  33.394  1.00  0.00     0.006 A 
ENDBRANCH  51  72
BRANCH  63  80
ATOM     80  C   UNL A   1      45.006  23.928  33.317  1.00  0.00     0.057 A 
ATOM     81  C   UNL A   1      44.068  22.934  33.619  1.00  0.00     0.134 A 
ATOM     82  C   UNL A   1      46.262  23.808  33.939  1.00  0.00     0.134 A 
ATOM     83  F   UNL A   1      42.839  22.964  33.081  1.00  0.00    -0.206 F 
ATOM     84  C   UNL A   1      44.361  21.885  34.500  1.00  0.00     0.040 A 
ATOM     85  C   UNL A   1      46.552  22.792  34.850  1.00  0.00     0.040 A 
ATOM     86  F   UNL A   1      47.258  24.667  33.668  1.00  0.00    -0.206 F 
ATOM     87  C   UNL A   1      45.598  21.824  35.134  1.00  0.00     0.006 A 
ENDBRANCH  63  80
ENDBRANCH  37  38
ENDBRANCH  29  32
ENDBRANCH  27  28
ENDBRANCH  26  27
ENDBRANCH  25  26
ENDBRANCH   3  25
TORSDOF 15
ENDMDL
MODEL 2
REMARK VINA RESULT:     -12.0      3.848      9.212
REMARK SMILES Cc1ccc(OCCNC(=O)[C@H]2CC=CC[C@@H]2C(=O)NCCCNC(=O)c2ccc(-c3c4nc(c(-c5c(F)cccc5F)c5ccc([nH]5)c(-c5c(F)cccc5F)c5nc(c(-c6c(F)cccc6F)c6ccc3[nH]6)C=C5)C=C4)cc2)cc1
REMARK SMILES IDX 18 1 19 2 20 3 17 5 12 6 13 7 14 8 16 9 15 10 10 11 9 12
REMARK SMILES IDX 11 14 8 15 7 16 6 17 5 18 1 19 2 20 3 21 82 22 4 23 81 24
REMARK SMILES IDX 21 25 22 26 23 27 24 28 25 29 26 31 27 32 28 33 80 34 29 35
REMARK SMILES IDX 79 36 30 37 31 38 32 39 73 40 33 41 78 42 72 43 74 44 34 45
REMARK SMILES IDX 77 46 71 47 70 48 35 50 61 51 44 52 60 53 45 54 48 55 59 56
REMARK SMILES IDX 75 57 46 58 47 59 58 61 76 62 49 63 36 64 37 65 42 66 38 67
REMARK SMILES IDX 39 68 41 69 43 70 40 71 62 72 63 73 68 74 64 75 65 76 67 77
REMARK SMILES IDX 69 78 66 79 50 80 51 81 56 82 52 83 53 84 55 85 57 86 54 87
REMARK H PARENT 20 4 9 13 24 30 74 49 48 60
REMARK Flexibility Score: inf
ROOT
ATOM      1  C   UNL A   1      36.267  22.794  23.741  1.00  0.00     0.224 C 
ATOM      2  O   UNL A   1      36.348  23.500  22.738  1.00  0.00    -0.275 OA
ATOM      3  N   UNL A   1      37.407  22.166  24.153  1.00  0.00    -0.356 N 
ATOM      4  H   UNL A   1      38.234  22.505  23.741  1.00  0.00     0.163 HD
ENDROOT
BRANCH   1   5
ATOM      5  C   UNL A   1      34.977  22.628  24.542  1.00  0.00     0.095 C 
ATOM      6  C   UNL A   1      33.757  23.198  23.789  1.00  0.00     0.095 C 
ATOM      7  C   UNL A   1      33.770  24.748  23.771  1.00  0.00     0.041 C 
ATOM      8  C   UNL A   1      34.290  25.383  25.032  1.00  0.00    -0.030 C 
ATOM      9  C   UNL A   1      35.148  23.226  25.945  1.00  0.00     0.041 C 
ATOM     10  C   UNL A   1      34.892  24.700  26.013  1.00  0.00    -0.030 C 
BRANCH   6  11
ATOM     11  C   UNL A   1      32.408  22.690  24.330  1.00  0.00     0.224 C 
ATOM     12  N   UNL A   1      31.244  23.357  24.097  1.00  0.00    -0.352 N 
ATOM     13  H   UNL A   1      30.481  23.023  24.624  1.00  0.00     0.163 HD
ATOM     14  O   UNL A   1      32.318  21.688  25.043  1.00  0.00    -0.275 OA
BRANCH  12  15
ATOM     15  C   UNL A   1      30.911  24.465  23.219  1.00  0.00     0.157 C 
BRANCH  15  16
ATOM     16  C   UNL A   1      30.019  25.524  23.909  1.00  0.00     0.250 C 
BRANCH  16  17
ATOM     17  O   UNL A   1      30.474  26.859  23.713  1.00  0.00    -0.492 OA
BRANCH  17  18
ATOM     18  C   UNL A   1      31.227  27.433  24.691  1.00  0.00     0.119 A 
ATOM     19  C   UNL A   1      34.080  29.226  27.357  1.00  0.00     0.044 C 
ATOM     20  C   UNL A   1      33.059  28.629  26.438  1.00  0.00    -0.051 A 
ATOM     21  C   UNL A   1      32.970  29.056  25.110  1.00  0.00     0.007 A 
ATOM     22  C   UNL A   1      32.166  27.660  26.904  1.00  0.00     0.007 A 
ATOM     23  C   UNL A   1      32.061  28.456  24.242  1.00  0.00     0.046 A 
ATOM     24  C   UNL A   1      31.240  27.079  26.038  1.00  0.00     0.046 A 
ENDBRANCH  17  18
ENDBRANCH  16  17
ENDBRANCH  15  16
ENDBRANCH  12  15
ENDBRANCH   6  11
ENDBRANCH   1   5
BRANCH   3  25
ATOM     25  C   UNL A   1      37.602  21.077  25.099  1.00  0.00     0.117 C 
BRANCH  25  26
ATOM     26  C   UNL A   1      38.959  21.220  25.771  1.00  0.00     0.042 C 
BRANCH  26  27
ATOM     27  C   UNL A   1      39.316  22.622  26.218  1.00  0.00     0.118 C 
BRANCH  27  28
ATOM     28  N   UNL A   1      40.670  22.862  26.708  1.00  0.00    -0.352 N 
ATOM     29  C   UNL A   1      41.176  24.083  27.173  1.00  0.00     0.251 C 
ATOM     30  H   UNL A   1      41.285  22.093  26.713  1.00  0.00     0.163 HD
ATOM     31  O   UNL A   1      42.281  24.176  27.666  1.00  0.00    -0.269 OA
BRANCH  29  32
ATOM     32  C   UNL A   1      40.253  25.252  27.144  1.00  0.00     0.039 A 
ATOM     33  C   UNL A   1      40.641  26.334  26.348  1.00  0.00     0.014 A 
ATOM     34  C   UNL A   1      39.401  25.428  28.227  1.00  0.00     0.014 A 
ATOM     35  C   UNL A   1      40.460  27.621  26.844  1.00  0.00     0.010 A 
ATOM     36  C   UNL A   1      39.341  26.696  28.777  1.00  0.00     0.010 A 
ATOM     37  C   UNL A   1      39.961  27.780  28.134  1.00  0.00    -0.014 A 
BRANCH  37  38
ATOM     38  C   UNL A   1      40.225  28.964  28.962  1.00  0.00     0.031 A 
ATOM     39  C   UNL A   1      39.190  30.015  29.110  1.00  0.00     0.074 A 
ATOM     40  C   UNL A   1      41.361  29.055  29.700  1.00  0.00     0.049 A 
ATOM     41  N   UNL A   1      39.381  31.149  29.693  1.00  0.00    -0.248 NA
ATOM     42  C   UNL A   1      37.858  29.901  28.524  1.00  0.00     0.031 C 
ATOM     43  C   UNL A   1      41.603  29.936  30.844  1.00  0.00     0.029 A 
ATOM     44  N   UNL A   1      42.626  28.508  29.424  1.00  0.00    -0.354 N 
ATOM     45  C   UNL A   1      38.174  31.803  29.780  1.00  0.00     0.074 A 
ATOM     46  C   UNL A   1      37.285  31.027  28.956  1.00  0.00     0.031 C 
ATOM     47  C   UNL A   1      42.923  30.110  30.995  1.00  0.00     0.029 A 
ATOM     48  C   UNL A   1      43.573  29.463  29.875  1.00  0.00     0.049 A 
ATOM     49  H   UNL A   1      42.815  27.638  29.003  1.00  0.00     0.167 HD
ATOM     50  C   UNL A   1      38.072  32.877  30.612  1.00  0.00     0.037 A 
ATOM     51  C   UNL A   1      44.447  30.069  29.018  1.00  0.00     0.037 A 
ATOM     52  C   UNL A   1      39.401  33.357  31.003  1.00  0.00     0.049 A 
ATOM     53  C   UNL A   1      44.314  31.575  28.925  1.00  0.00     0.074 A 
ATOM     54  C   UNL A   1      40.192  33.277  32.137  1.00  0.00     0.029 A 
ATOM     55  N   UNL A   1      40.215  33.866  30.007  1.00  0.00    -0.354 N 
ATOM     56  N   UNL A   1      43.431  32.275  29.581  1.00  0.00    -0.248 NA
ATOM     57  C   UNL A   1      45.100  32.401  28.004  1.00  0.00     0.031 C 
ATOM     58  C   UNL A   1      41.508  33.707  31.786  1.00  0.00     0.029 A 
ATOM     59  C   UNL A   1      41.507  34.059  30.448  1.00  0.00     0.049 A 
ATOM     60  H   UNL A   1      39.910  34.066  29.094  1.00  0.00     0.167 HD
ATOM     61  C   UNL A   1      43.439  33.562  29.114  1.00  0.00     0.074 A 
ATOM     62  C   UNL A   1      44.522  33.605  28.150  1.00  0.00     0.031 C 
ATOM     63  C   UNL A   1      42.513  34.487  29.492  1.00  0.00     0.037 A 
BRANCH  50  64
ATOM     64  C   UNL A   1      36.789  33.462  31.176  1.00  0.00     0.057 A 
ATOM     65  C   UNL A   1      36.493  33.313  32.549  1.00  0.00     0.134 A 
ATOM     66  C   UNL A   1      35.757  34.079  30.442  1.00  0.00     0.134 A 
ATOM     67  F   UNL A   1      37.367  32.762  33.403  1.00  0.00    -0.206 F 
ATOM     68  C   UNL A   1      35.273  33.703  33.121  1.00  0.00     0.040 A 
ATOM     69  C   UNL A   1      34.543  34.495  31.006  1.00  0.00     0.040 A 
ATOM     70  F   UNL A   1      35.831  34.303  29.131  1.00  0.00    -0.206 F 
ATOM     71  C   UNL A   1      34.287  34.293  32.348  1.00  0.00     0.006 A 
ENDBRANCH  50  64
BRANCH  51  72
ATOM     72  C   UNL A   1      44.864  29.181  27.908  1.00  0.00     0.057 A 
ATOM     73  C   UNL A   1      45.865  28.227  28.157  1.00  0.00     0.134 A 
ATOM     74  C   UNL A   1      44.045  28.978  26.793  1.00  0.00     0.134 A 
ATOM     75  F   UNL A   1      46.683  28.366  29.213  1.00  0.00    -0.206 F 
ATOM     76  C   UNL A   1      45.964  27.055  27.405  1.00  0.00     0.040 A 
ATOM     77  C   UNL A   1      44.143  27.813  26.028  1.00  0.00     0.040 A 
ATOM     78  F   UNL A   1      43.052  29.834  26.513  1.00  0.00    -0.206 F 
ATOM     79  C   UNL A   1      45.074  26.828  26.360  1.00  0.00     0.006 A 
ENDBRANCH  51  72
BRANCH  63  80
ATOM     80  C   UNL A   1      42.481  35.880  28.945  1.00  0.00     0.057 A 
ATOM     81  C   UNL A   1      41.896  36.179  27.709  1.00  0.00     0.134 A 
ATOM     82  C   UNL A   1      43.160  36.935  29.583  1.00  0.00     0.134 A 
ATOM     83  F   UNL A   1      41.232  35.239  27.019  1.00  0.00    -0.206 F 
ATOM     84  C   UNL A   1      41.992  37.453  27.135  1.00  0.00     0.040 A 
ATOM     85  C   UNL A   1      43.298  38.196  29.002  1.00  0.00     0.040 A 
ATOM     86  F   UNL A   1      43.699  36.778  30.803  1.00  0.00    -0.206 F 
ATOM     87  C   UNL A   1      42.712  38.459  27.772  1.00  0.00     0.006 A 
ENDBRANCH  63  80
ENDBRANCH  37  38
ENDBRANCH  29  32
ENDBRANCH  27  28
ENDBRANCH  26  27
ENDBRANCH  25  26
ENDBRANCH   3  25
TORSDOF 15
ENDMDL
MODEL 3
REMARK VINA RESULT:     -11.9      1.105      1.683
REMARK SMILES Cc1ccc(OCCNC(=O)[C@H]2CC=CC[C@@H]2C(=O)NCCCNC(=O)c2ccc(-c3c4nc(c(-c5c(F)cccc5F)c5ccc([nH]5)c(-c5c(F)cccc5F)c5nc(c(-c6c(F)cccc6F)c6ccc3[nH]6)C=C5)C=C4)cc2)cc1
REMARK SMILES IDX 18 1 19 2 20 3 17 5 12 6 13 7 14 8 16 9 15 10 10 11 9 12
REMARK SMILES IDX 11 14 8 15 7 16 6 17 5 18 1 19 2 20 3 21 82 22 4 23 81 24
REMARK SMILES IDX 21 25 22 26 23 27 24 28 25 29 26 31 27 32 28 33 80 34 29 35
REMARK SMILES IDX 79 36 30 37 31 38 32 39 73 40 33 41 78 42 72 43 74 44 34 45
REMARK SMILES IDX 77 46 71 47 70 48 35 50 61 51 44 52 60 53 45 54 48 55 59 56
REMARK SMILES IDX 75 57 46 58 47 59 58 61 76 62 49 63 36 64 37 65 42 66 38 67
REMARK SMILES IDX 39 68 41 69 43 70 40 71 62 72 63 73 68 74 64 75 65 76 67 77
REMARK SMILES IDX 69 78 66 79 50 80 51 81 56 82 52 83 53 84 55 85 57 86 54 87
REMARK H PARENT 20 4 9 13 24 30 74 49 48 60
REMARK Flexibility Score: inf
ROOT
ATOM      1  C   UNL A   1      32.780  28.733  24.885  1.00  0.00     0.224 C 
ATOM      2  O   UNL A   1      33.738  28.228  24.304  1.00  0.00    -0.275 OA
ATOM      3  N   UNL A   1      33.006  29.895  25.565  1.00  0.00    -0.356 N 
ATOM      4  H   UNL A   1      33.859  30.337  25.349  1.00  0.00     0.163 HD
ENDROOT
BRANCH   1   5
ATOM      5  C   UNL A   1      31.372  28.140  24.843  1.00  0.00     0.095 C 
ATOM      6  C   UNL A   1      31.400  26.613  24.624  1.00  0.00     0.095 C 
ATOM      7  C   UNL A   1      31.801  26.252  23.171  1.00  0.00     0.041 C 
ATOM      8  C   UNL A   1      31.269  27.192  22.124  1.00  0.00    -0.030 C 
ATOM      9  C   UNL A   1      30.521  28.879  23.802  1.00  0.00     0.041 C 
ATOM     10  C   UNL A   1      30.680  28.361  22.407  1.00  0.00    -0.030 C 
BRANCH   6  11
ATOM     11  C   UNL A   1      30.079  25.915  24.995  1.00  0.00     0.224 C 
ATOM     12  N   UNL A   1      30.055  24.761  25.718  1.00  0.00    -0.352 N 
ATOM     13  H   UNL A   1      29.169  24.331  25.753  1.00  0.00     0.163 HD
ATOM     14  O   UNL A   1      28.983  26.331  24.615  1.00  0.00    -0.275 OA
BRANCH  12  15
ATOM     15  C   UNL A   1      31.086  24.043  26.448  1.00  0.00     0.157 C 
BRANCH  15  16
ATOM     16  C   UNL A   1      31.487  22.717  25.762  1.00  0.00     0.250 C 
BRANCH  16  17
ATOM     17  O   UNL A   1      32.880  22.434  25.853  1.00  0.00    -0.492 OA
BRANCH  17  18
ATOM     18  C   UNL A   1      33.335  21.264  25.325  1.00  0.00     0.119 A 
ATOM     19  C   UNL A   1      34.296  17.299  23.979  1.00  0.00     0.044 C 
ATOM     20  C   UNL A   1      33.965  18.694  24.411  1.00  0.00    -0.051 A 
ATOM     21  C   UNL A   1      32.640  19.137  24.409  1.00  0.00     0.007 A 
ATOM     22  C   UNL A   1      34.979  19.577  24.793  1.00  0.00     0.007 A 
ATOM     23  C   UNL A   1      32.329  20.415  24.869  1.00  0.00     0.046 A 
ATOM     24  C   UNL A   1      34.666  20.865  25.230  1.00  0.00     0.046 A 
ENDBRANCH  17  18
ENDBRANCH  16  17
ENDBRANCH  15  16
ENDBRANCH  12  15
ENDBRANCH   6  11
ENDBRANCH   1   5
BRANCH   3  25
ATOM     25  C   UNL A   1      32.196  30.588  26.555  1.00  0.00     0.117 C 
BRANCH  25  26
ATOM     26  C   UNL A   1      33.077  31.516  27.379  1.00  0.00     0.042 C 
BRANCH  26  27
ATOM     27  C   UNL A   1      34.469  30.995  27.673  1.00  0.00     0.118 C 
BRANCH  27  28
ATOM     28  N   UNL A   1      35.336  31.802  28.527  1.00  0.00    -0.352 N 
ATOM     29  C   UNL A   1      36.544  31.387  29.103  1.00  0.00     0.251 C 
ATOM     30  H   UNL A   1      35.045  32.723  28.715  1.00  0.00     0.163 HD
ATOM     31  O   UNL A   1      37.262  32.152  29.713  1.00  0.00    -0.269 OA
BRANCH  29  32
ATOM     32  C   UNL A   1      36.973  29.986  28.839  1.00  0.00     0.039 A 
ATOM     33  C   UNL A   1      37.098  29.150  29.952  1.00  0.00     0.014 A 
ATOM     34  C   UNL A   1      37.690  29.740  27.674  1.00  0.00     0.014 A 
ATOM     35  C   UNL A   1      38.189  28.290  30.018  1.00  0.00     0.010 A 
ATOM     36  C   UNL A   1      38.843  28.985  27.796  1.00  0.00     0.010 A 
ATOM     37  C   UNL A   1      39.145  28.339  29.007  1.00  0.00    -0.014 A 
BRANCH  37  38
ATOM     38  C   UNL A   1      40.545  27.936  29.197  1.00  0.00     0.031 A 
ATOM     39  C   UNL A   1      41.023  26.636  28.667  1.00  0.00     0.074 A 
ATOM     40  C   UNL A   1      41.445  28.791  29.747  1.00  0.00     0.049 A 
ATOM     41  N   UNL A   1      42.187  26.135  28.908  1.00  0.00    -0.248 NA
ATOM     42  C   UNL A   1      40.179  25.745  27.877  1.00  0.00     0.031 C 
ATOM     43  C   UNL A   1      42.903  28.716  29.654  1.00  0.00     0.029 A 
ATOM     44  N   UNL A   1      41.219  29.801  30.696  1.00  0.00    -0.354 N 
ATOM     45  C   UNL A   1      42.343  25.007  28.137  1.00  0.00     0.074 A 
ATOM     46  C   UNL A   1      41.034  24.760  27.591  1.00  0.00     0.031 C 
ATOM     47  C   UNL A   1      43.445  29.392  30.677  1.00  0.00     0.029 A 
ATOM     48  C   UNL A   1      42.360  29.808  31.541  1.00  0.00     0.049 A 
ATOM     49  H   UNL A   1      40.430  30.386  30.763  1.00  0.00     0.167 HD
ATOM     50  C   UNL A   1      43.591  24.478  27.999  1.00  0.00     0.037 A 
ATOM     51  C   UNL A   1      42.269  29.533  32.875  1.00  0.00     0.037 A 
ATOM     52  C   UNL A   1      44.500  25.027  29.011  1.00  0.00     0.049 A 
ATOM     53  C   UNL A   1      43.050  28.319  33.334  1.00  0.00     0.074 A 
ATOM     54  C   UNL A   1      45.520  25.962  29.028  1.00  0.00     0.029 A 
ATOM     55  N   UNL A   1      44.230  24.736  30.337  1.00  0.00    -0.354 N 
ATOM     56  N   UNL A   1      43.752  27.556  32.543  1.00  0.00    -0.248 NA
ATOM     57  C   UNL A   1      43.017  27.809  34.708  1.00  0.00     0.031 C 
ATOM     58  C   UNL A   1      45.825  26.258  30.392  1.00  0.00     0.029 A 
ATOM     59  C   UNL A   1      44.999  25.491  31.195  1.00  0.00     0.049 A 
ATOM     60  H   UNL A   1      43.568  24.070  30.631  1.00  0.00     0.167 HD
ATOM     61  C   UNL A   1      44.150  26.441  33.230  1.00  0.00     0.074 A 
ATOM     62  C   UNL A   1      43.697  26.656  34.590  1.00  0.00     0.031 C 
ATOM     63  C   UNL A   1      44.759  25.384  32.624  1.00  0.00     0.037 A 
BRANCH  50  64
ATOM     64  C   UNL A   1      44.057  23.539  26.901  1.00  0.00     0.057 A 
ATOM     65  C   UNL A   1      44.916  24.016  25.886  1.00  0.00     0.134 A 
ATOM     66  C   UNL A   1      43.636  22.210  26.702  1.00  0.00     0.134 A 
ATOM     67  F   UNL A   1      45.427  25.254  25.919  1.00  0.00    -0.206 F 
ATOM     68  C   UNL A   1      45.282  23.255  24.766  1.00  0.00     0.040 A 
ATOM     69  C   UNL A   1      44.014  21.430  25.600  1.00  0.00     0.040 A 
ATOM     70  F   UNL A   1      42.815  21.574  27.538  1.00  0.00    -0.206 F 
ATOM     71  C   UNL A   1      44.827  21.956  24.615  1.00  0.00     0.006 A 
ENDBRANCH  50  64
BRANCH  51  72
ATOM     72  C   UNL A   1      40.992  29.998  33.466  1.00  0.00     0.057 A 
ATOM     73  C   UNL A   1      40.877  31.352  33.824  1.00  0.00     0.134 A 
ATOM     74  C   UNL A   1      39.809  29.273  33.301  1.00  0.00     0.134 A 
ATOM     75  F   UNL A   1      41.978  32.100  33.997  1.00  0.00    -0.206 F 
ATOM     76  C   UNL A   1      39.638  31.990  33.888  1.00  0.00     0.040 A 
ATOM     77  C   UNL A   1      38.562  29.901  33.372  1.00  0.00     0.040 A 
ATOM     78  F   UNL A   1      39.845  27.985  32.932  1.00  0.00    -0.206 F 
ATOM     79  C   UNL A   1      38.477  31.270  33.623  1.00  0.00     0.006 A 
ENDBRANCH  51  72
BRANCH  63  80
ATOM     80  C   UNL A   1      45.149  24.137  33.356  1.00  0.00     0.057 A 
ATOM     81  C   UNL A   1      44.258  23.073  33.535  1.00  0.00     0.134 A 
ATOM     82  C   UNL A   1      46.385  24.033  34.020  1.00  0.00     0.134 A 
ATOM     83  F   UNL A   1      43.051  23.081  32.949  1.00  0.00    -0.206 F 
ATOM     84  C   UNL A   1      44.576  21.971  34.340  1.00  0.00     0.040 A 
ATOM     85  C   UNL A   1      46.697  22.960  34.857  1.00  0.00     0.040 A 
ATOM     86  F   UNL A   1      47.340  24.963  33.863  1.00  0.00    -0.206 F 
ATOM     87  C   UNL A   1      45.789  21.923  35.020  1.00  0.00     0.006 A 
ENDBRANCH  63  80
ENDBRANCH  37  38
ENDBRANCH  29  32
ENDBRANCH  27  28
ENDBRANCH  26  27
ENDBRANCH  25  26
ENDBRANCH   3  25
TORSDOF 15
ENDMDL
