MODEL 1
REMARK VINA RESULT:     -10.5      0.000      0.000
REMARK SMILES C[C@@H](C(=O)NCCCNC(=O)c1ccc(-c2c3nc(c(-c4c(F)cccc4F)c4ccc([nH]4)c(-c4c(F)cccc4F)c4nc(c(-c5c(F)cccc5F)c5ccc2[nH]5)C=C4)C=C3)cc1)N(C)C(=O)NC[C@H]1C[N@@H+]2CCC[C@@H]2CO1
REMARK SMILES IDX 6 1 5 2 3 3 4 4 2 6 1 7 66 8 67 9 68 10 69 11 70 12 71 14
REMARK SMILES IDX 72 15 73 16 80 17 74 18 79 19 75 20 78 21 76 23 77 24 7 25
REMARK SMILES IDX 8 26 9 27 10 28 11 30 12 31 13 32 65 33 14 34 64 35 15 36
REMARK SMILES IDX 16 37 17 38 58 39 18 40 63 41 57 42 59 43 19 44 62 45 56 46
REMARK SMILES IDX 55 47 20 49 46 50 29 51 45 52 30 53 33 54 44 55 60 56 31 57
REMARK SMILES IDX 32 58 43 60 61 61 34 62 21 63 22 64 27 65 23 66 24 67 26 68
REMARK SMILES IDX 28 69 25 70 47 71 48 72 53 73 49 74 50 75 52 76 54 77 51 78
REMARK SMILES IDX 35 79 36 80 41 81 37 82 38 83 40 84 42 85 39 86
REMARK H PARENT 5 5 70 13 74 22 9 29 59 48 33 59
REMARK Flexibility Score: inf
ROOT
ATOM      1  C   UNL A   1      33.275  34.381  29.200  1.00  0.00     0.117 C 
ENDROOT
BRANCH   1   2
ATOM      2  N   UNL A   1      33.183  35.795  29.497  1.00  0.00    -0.354 N 
ATOM      3  C   UNL A   1      32.888  36.436  30.668  1.00  0.00     0.242 C 
ATOM      4  O   UNL A   1      32.992  37.665  30.653  1.00  0.00    -0.273 OA
ATOM      5  H   UNL A   1      33.362  36.390  28.734  1.00  0.00     0.163 HD
BRANCH   3   6
ATOM      6  C   UNL A   1      32.514  35.618  31.933  1.00  0.00     0.172 C 
ATOM      7  C   UNL A   1      31.285  36.148  32.678  1.00  0.00     0.042 C 
BRANCH   6   8
ATOM      8  N   UNL A   1      33.697  35.442  32.808  1.00  0.00    -0.316 N 
ATOM      9  C   UNL A   1      34.101  36.617  33.557  1.00  0.00     0.149 C 
BRANCH   8  10
ATOM     10  C   UNL A   1      34.209  34.183  32.959  1.00  0.00     0.317 C 
ATOM     11  O   UNL A   1      33.502  33.208  33.230  1.00  0.00    -0.249 OA
ATOM     12  N   UNL A   1      35.508  33.890  32.783  1.00  0.00    -0.335 N 
ATOM     13  H   UNL A   1      35.681  32.934  32.946  1.00  0.00     0.165 HD
BRANCH  12  14
ATOM     14  C   UNL A   1      36.736  34.593  32.415  1.00  0.00     0.155 C 
BRANCH  14  15
ATOM     15  C   UNL A   1      37.792  34.496  33.537  1.00  0.00     0.192 C 
ATOM     16  C   UNL A   1      37.647  33.178  34.350  1.00  0.00     0.296 C 
ATOM     17  O   UNL A   1      39.106  34.689  32.963  1.00  0.00    -0.364 OA
ATOM     18  N   UNL A   1      38.302  32.035  33.703  1.00  0.00    -0.328 N 
ATOM     19  C   UNL A   1      40.092  33.837  33.550  1.00  0.00     0.225 C 
ATOM     20  C   UNL A   1      38.321  30.841  34.559  1.00  0.00     0.262 C 
ATOM     21  C   UNL A   1      39.703  32.365  33.335  1.00  0.00     0.210 C 
ATOM     22  H   UNL A   1      37.754  31.832  32.868  1.00  0.00     0.348 HD
ATOM     23  C   UNL A   1      39.670  30.194  34.297  1.00  0.00     0.068 C 
ATOM     24  C   UNL A   1      40.580  31.392  34.112  1.00  0.00     0.073 C 
ENDBRANCH  14  15
ENDBRANCH  12  14
ENDBRANCH   8  10
ENDBRANCH   6   8
ENDBRANCH   3   6
ENDBRANCH   1   2
BRANCH   1  25
ATOM     25  C   UNL A   1      34.713  33.934  28.967  1.00  0.00     0.042 C 
BRANCH  25  26
ATOM     26  C   UNL A   1      35.044  32.566  29.553  1.00  0.00     0.118 C 
BRANCH  26  27
ATOM     27  N   UNL A   1      34.356  31.479  28.871  1.00  0.00    -0.352 N 
ATOM     28  C   UNL A   1      34.857  30.338  28.299  1.00  0.00     0.251 C 
ATOM     29  H   UNL A   1      33.378  31.580  28.810  1.00  0.00     0.163 HD
ATOM     30  O   UNL A   1      34.121  29.633  27.609  1.00  0.00    -0.269 OA
BRANCH  28  31
ATOM     31  C   UNL A   1      36.271  29.950  28.490  1.00  0.00     0.039 A 
ATOM     32  C   UNL A   1      36.656  29.385  29.710  1.00  0.00     0.014 A 
ATOM     33  C   UNL A   1      37.226  30.179  27.495  1.00  0.00     0.014 A 
ATOM     34  C   UNL A   1      37.985  29.005  29.913  1.00  0.00     0.010 A 
ATOM     35  C   UNL A   1      38.532  29.728  27.669  1.00  0.00     0.010 A 
ATOM     36  C   UNL A   1      38.929  29.152  28.885  1.00  0.00    -0.014 A 
BRANCH  36  37
ATOM     37  C   UNL A   1      40.343  28.742  29.072  1.00  0.00     0.031 A 
ATOM     38  C   UNL A   1      41.325  29.694  29.698  1.00  0.00     0.074 A 
ATOM     39  C   UNL A   1      40.760  27.541  28.626  1.00  0.00     0.049 A 
ATOM     40  N   UNL A   1      42.613  29.553  29.887  1.00  0.00    -0.248 NA
ATOM     41  C   UNL A   1      40.794  30.991  30.146  1.00  0.00     0.031 C 
ATOM     42  C   UNL A   1      39.916  26.544  27.964  1.00  0.00     0.029 A 
ATOM     43  N   UNL A   1      42.002  26.959  28.657  1.00  0.00    -0.354 N 
ATOM     44  C   UNL A   1      43.047  30.747  30.448  1.00  0.00     0.074 A 
ATOM     45  C   UNL A   1      41.895  31.620  30.525  1.00  0.00     0.031 C 
ATOM     46  C   UNL A   1      40.660  25.464  27.674  1.00  0.00     0.029 A 
ATOM     47  C   UNL A   1      42.036  25.705  28.097  1.00  0.00     0.049 A 
ATOM     48  H   UNL A   1      42.793  27.399  29.044  1.00  0.00     0.167 HD
ATOM     49  C   UNL A   1      44.286  31.080  30.880  1.00  0.00     0.037 A 
ATOM     50  C   UNL A   1      43.063  24.848  27.941  1.00  0.00     0.037 A 
ATOM     51  C   UNL A   1      45.422  30.197  30.835  1.00  0.00     0.049 A 
ATOM     52  C   UNL A   1      44.427  25.236  28.439  1.00  0.00     0.074 A 
ATOM     53  C   UNL A   1      46.704  30.415  31.309  1.00  0.00     0.029 A 
ATOM     54  N   UNL A   1      45.410  28.925  30.284  1.00  0.00    -0.354 N 
ATOM     55  N   UNL A   1      44.809  26.342  29.029  1.00  0.00    -0.248 NA
ATOM     56  C   UNL A   1      45.501  24.251  28.258  1.00  0.00     0.031 C 
ATOM     57  C   UNL A   1      47.478  29.289  31.008  1.00  0.00     0.029 A 
ATOM     58  C   UNL A   1      46.665  28.352  30.391  1.00  0.00     0.049 A 
ATOM     59  H   UNL A   1      44.624  28.493  29.877  1.00  0.00     0.167 HD
ATOM     60  C   UNL A   1      46.155  26.173  29.322  1.00  0.00     0.074 A 
ATOM     61  C   UNL A   1      46.522  24.853  28.850  1.00  0.00     0.031 C 
ATOM     62  C   UNL A   1      47.010  27.030  29.932  1.00  0.00     0.037 A 
BRANCH  49  63
ATOM     63  C   UNL A   1      44.475  32.461  31.439  1.00  0.00     0.057 A 
ATOM     64  C   UNL A   1      44.871  33.539  30.635  1.00  0.00     0.134 A 
ATOM     65  C   UNL A   1      44.244  32.721  32.795  1.00  0.00     0.134 A 
ATOM     66  F   UNL A   1      45.120  33.356  29.329  1.00  0.00    -0.206 F 
ATOM     67  C   UNL A   1      45.060  34.816  31.164  1.00  0.00     0.040 A 
ATOM     68  C   UNL A   1      44.402  34.000  33.332  1.00  0.00     0.040 A 
ATOM     69  F   UNL A   1      43.857  31.737  33.622  1.00  0.00    -0.206 F 
ATOM     70  C   UNL A   1      44.821  35.050  32.517  1.00  0.00     0.006 A 
ENDBRANCH  49  63
BRANCH  50  71
ATOM     71  C   UNL A   1      42.833  23.519  27.321  1.00  0.00     0.057 A 
ATOM     72  C   UNL A   1      42.418  22.428  28.095  1.00  0.00     0.134 A 
ATOM     73  C   UNL A   1      43.023  23.305  25.951  1.00  0.00     0.134 A 
ATOM     74  F   UNL A   1      42.236  22.569  29.416  1.00  0.00    -0.206 F 
ATOM     75  C   UNL A   1      42.220  21.167  27.532  1.00  0.00     0.040 A 
ATOM     76  C   UNL A   1      42.806  22.054  25.371  1.00  0.00     0.040 A 
ATOM     77  F   UNL A   1      43.413  24.311  25.156  1.00  0.00    -0.206 F 
ATOM     78  C   UNL A   1      42.409  20.978  26.165  1.00  0.00     0.006 A 
ENDBRANCH  50  71
BRANCH  62  79
ATOM     79  C   UNL A   1      48.411  26.549  30.170  1.00  0.00     0.057 A 
ATOM     80  C   UNL A   1      48.780  25.885  31.345  1.00  0.00     0.134 A 
ATOM     81  C   UNL A   1      49.396  26.725  29.188  1.00  0.00     0.134 A 
ATOM     82  F   UNL A   1      47.887  25.696  32.329  1.00  0.00    -0.206 F 
ATOM     83  C   UNL A   1      50.086  25.434  31.548  1.00  0.00     0.040 A 
ATOM     84  C   UNL A   1      50.697  26.255  29.368  1.00  0.00     0.040 A 
ATOM     85  F   UNL A   1      49.106  27.346  28.035  1.00  0.00    -0.206 F 
ATOM     86  C   UNL A   1      51.046  25.612  30.555  1.00  0.00     0.006 A 
ENDBRANCH  62  79
ENDBRANCH  36  37
ENDBRANCH  28  31
ENDBRANCH  26  27
ENDBRANCH  25  26
ENDBRANCH   1  25
TORSDOF 14
ENDMDL
MODEL 2
REMARK VINA RESULT:     -10.5      4.640     10.080
REMARK SMILES C[C@@H](C(=O)NCCCNC(=O)c1ccc(-c2c3nc(c(-c4c(F)cccc4F)c4ccc([nH]4)c(-c4c(F)cccc4F)c4nc(c(-c5c(F)cccc5F)c5ccc2[nH]5)C=C4)C=C3)cc1)N(C)C(=O)NC[C@H]1C[N@@H+]2CCC[C@@H]2CO1
REMARK SMILES IDX 6 1 5 2 3 3 4 4 2 6 1 7 66 8 67 9 68 10 69 11 70 12 71 14
REMARK SMILES IDX 72 15 73 16 80 17 74 18 79 19 75 20 78 21 76 23 77 24 7 25
REMARK SMILES IDX 8 26 9 27 10 28 11 30 12 31 13 32 65 33 14 34 64 35 15 36
REMARK SMILES IDX 16 37 17 38 58 39 18 40 63 41 57 42 59 43 19 44 62 45 56 46
REMARK SMILES IDX 55 47 20 49 46 50 29 51 45 52 30 53 33 54 44 55 60 56 31 57
REMARK SMILES IDX 32 58 43 60 61 61 34 62 21 63 22 64 27 65 23 66 24 67 26 68
REMARK SMILES IDX 28 69 25 70 47 71 48 72 53 73 49 74 50 75 52 76 54 77 51 78
REMARK SMILES IDX 35 79 36 80 41 81 37 82 38 83 40 84 42 85 39 86
REMARK H PARENT 5 5 70 13 74 22 9 29 59 48 33 59
REMARK Flexibility Score: inf
ROOT
ATOM      1  C   UNL A   1      36.017  20.527  24.959  1.00  0.00     0.117 C 
ENDROOT
BRANCH   1   2
ATOM      2  N   UNL A   1      34.814  19.721  24.983  1.00  0.00    -0.354 N 
ATOM      3  C   UNL A   1      33.502  20.088  24.872  1.00  0.00     0.242 C 
ATOM      4  O   UNL A   1      32.686  19.165  24.815  1.00  0.00    -0.273 OA
ATOM      5  H   UNL A   1      34.965  18.756  25.098  1.00  0.00     0.163 HD
BRANCH   3   6
ATOM      6  C   UNL A   1      33.116  21.588  24.760  1.00  0.00     0.172 C 
ATOM      7  C   UNL A   1      31.850  21.966  25.534  1.00  0.00     0.042 C 
BRANCH   6   8
ATOM      8  N   UNL A   1      33.081  22.011  23.340  1.00  0.00    -0.316 N 
ATOM      9  C   UNL A   1      32.144  21.294  22.497  1.00  0.00     0.149 C 
BRANCH   8  10
ATOM     10  C   UNL A   1      33.798  23.117  22.976  1.00  0.00     0.317 C 
ATOM     11  O   UNL A   1      34.997  23.064  22.686  1.00  0.00    -0.249 OA
ATOM     12  N   UNL A   1      33.256  24.340  22.857  1.00  0.00    -0.335 N 
ATOM     13  H   UNL A   1      33.935  25.004  22.595  1.00  0.00     0.165 HD
BRANCH  12  14
ATOM     14  C   UNL A   1      31.941  24.960  23.006  1.00  0.00     0.155 C 
BRANCH  14  15
ATOM     15  C   UNL A   1      32.052  26.499  23.056  1.00  0.00     0.192 C 
ATOM     16  C   UNL A   1      31.365  27.084  24.322  1.00  0.00     0.296 C 
ATOM     17  O   UNL A   1      33.443  26.874  22.917  1.00  0.00    -0.364 OA
ATOM     18  N   UNL A   1      32.224  27.034  25.511  1.00  0.00    -0.328 N 
ATOM     19  C   UNL A   1      33.799  27.979  23.751  1.00  0.00     0.225 C 
ATOM     20  C   UNL A   1      31.644  27.750  26.654  1.00  0.00     0.262 C 
ATOM     21  C   UNL A   1      33.560  27.618  25.226  1.00  0.00     0.210 C 
ATOM     22  H   UNL A   1      32.313  26.047  25.752  1.00  0.00     0.348 HD
ATOM     23  C   UNL A   1      32.825  28.419  27.337  1.00  0.00     0.068 C 
ATOM     24  C   UNL A   1      33.706  28.806  26.167  1.00  0.00     0.073 C 
ENDBRANCH  14  15
ENDBRANCH  12  14
ENDBRANCH   8  10
ENDBRANCH   6   8
ENDBRANCH   3   6
ENDBRANCH   1   2
BRANCH   1  25
ATOM     25  C   UNL A   1      37.279  19.674  24.893  1.00  0.00     0.042 C 
BRANCH  25  26
ATOM     26  C   UNL A   1      38.498  20.314  25.547  1.00  0.00     0.118 C 
BRANCH  26  27
ATOM     27  N   UNL A   1      39.617  19.392  25.677  1.00  0.00    -0.352 N 
ATOM     28  C   UNL A   1      40.917  19.627  26.044  1.00  0.00     0.251 C 
ATOM     29  H   UNL A   1      39.408  18.453  25.468  1.00  0.00     0.163 HD
ATOM     30  O   UNL A   1      41.755  18.734  25.913  1.00  0.00    -0.269 OA
BRANCH  28  31
ATOM     31  C   UNL A   1      41.330  20.942  26.581  1.00  0.00     0.039 A 
ATOM     32  C   UNL A   1      41.223  21.171  27.957  1.00  0.00     0.014 A 
ATOM     33  C   UNL A   1      41.777  21.962  25.737  1.00  0.00     0.014 A 
ATOM     34  C   UNL A   1      41.611  22.403  28.490  1.00  0.00     0.010 A 
ATOM     35  C   UNL A   1      42.237  23.160  26.279  1.00  0.00     0.010 A 
ATOM     36  C   UNL A   1      42.144  23.399  27.658  1.00  0.00    -0.014 A 
BRANCH  36  37
ATOM     37  C   UNL A   1      42.576  24.710  28.204  1.00  0.00     0.031 A 
ATOM     38  C   UNL A   1      41.563  25.797  28.440  1.00  0.00     0.074 A 
ATOM     39  C   UNL A   1      43.883  24.946  28.430  1.00  0.00     0.049 A 
ATOM     40  N   UNL A   1      41.746  27.028  28.846  1.00  0.00    -0.248 NA
ATOM     41  C   UNL A   1      40.158  25.463  28.156  1.00  0.00     0.031 C 
ATOM     42  C   UNL A   1      44.968  23.990  28.201  1.00  0.00     0.029 A 
ATOM     43  N   UNL A   1      44.520  26.069  28.896  1.00  0.00    -0.354 N 
ATOM     44  C   UNL A   1      40.490  27.620  28.838  1.00  0.00     0.074 A 
ATOM     45  C   UNL A   1      39.559  26.629  28.344  1.00  0.00     0.031 C 
ATOM     46  C   UNL A   1      46.133  24.559  28.551  1.00  0.00     0.029 A 
ATOM     47  C   UNL A   1      45.882  25.927  28.995  1.00  0.00     0.049 A 
ATOM     48  H   UNL A   1      44.044  26.896  29.136  1.00  0.00     0.167 HD
ATOM     49  C   UNL A   1      40.138  28.868  29.229  1.00  0.00     0.037 A 
ATOM     50  C   UNL A   1      46.822  26.803  29.396  1.00  0.00     0.037 A 
ATOM     51  C   UNL A   1      41.060  29.840  29.754  1.00  0.00     0.049 A 
ATOM     52  C   UNL A   1      46.406  28.179  29.836  1.00  0.00     0.074 A 
ATOM     53  C   UNL A   1      40.794  31.108  30.240  1.00  0.00     0.029 A 
ATOM     54  N   UNL A   1      42.430  29.649  29.863  1.00  0.00    -0.354 N 
ATOM     55  N   UNL A   1      45.206  28.703  29.888  1.00  0.00    -0.248 NA
ATOM     56  C   UNL A   1      47.476  29.082  30.282  1.00  0.00     0.031 C 
ATOM     57  C   UNL A   1      42.008  31.700  30.606  1.00  0.00     0.029 A 
ATOM     58  C   UNL A   1      43.024  30.782  30.393  1.00  0.00     0.049 A 
ATOM     59  H   UNL A   1      42.908  28.829  29.602  1.00  0.00     0.167 HD
ATOM     60  C   UNL A   1      45.371  29.981  30.405  1.00  0.00     0.074 A 
ATOM     61  C   UNL A   1      46.787  30.150  30.656  1.00  0.00     0.031 C 
ATOM     62  C   UNL A   1      44.433  30.928  30.654  1.00  0.00     0.037 A 
BRANCH  49  63
ATOM     63  C   UNL A   1      38.692  29.251  29.100  1.00  0.00     0.057 A 
ATOM     64  C   UNL A   1      38.139  29.658  27.878  1.00  0.00     0.134 A 
ATOM     65  C   UNL A   1      37.837  29.198  30.207  1.00  0.00     0.134 A 
ATOM     66  F   UNL A   1      38.905  29.742  26.779  1.00  0.00    -0.206 F 
ATOM     67  C   UNL A   1      36.798  30.027  27.769  1.00  0.00     0.040 A 
ATOM     68  C   UNL A   1      36.487  29.538  30.105  1.00  0.00     0.040 A 
ATOM     69  F   UNL A   1      38.298  28.811  31.406  1.00  0.00    -0.206 F 
ATOM     70  C   UNL A   1      35.966  29.963  28.885  1.00  0.00     0.006 A 
ENDBRANCH  49  63
BRANCH  50  71
ATOM     71  C   UNL A   1      48.248  26.392  29.442  1.00  0.00     0.057 A 
ATOM     72  C   UNL A   1      49.086  26.584  28.337  1.00  0.00     0.134 A 
ATOM     73  C   UNL A   1      48.806  25.798  30.580  1.00  0.00     0.134 A 
ATOM     74  F   UNL A   1      48.603  27.133  27.212  1.00  0.00    -0.206 F 
ATOM     75  C   UNL A   1      50.422  26.183  28.354  1.00  0.00     0.040 A 
ATOM     76  C   UNL A   1      50.147  25.413  30.619  1.00  0.00     0.040 A 
ATOM     77  F   UNL A   1      48.057  25.594  31.673  1.00  0.00    -0.206 F 
ATOM     78  C   UNL A   1      50.958  25.599  29.500  1.00  0.00     0.006 A 
ENDBRANCH  50  71
BRANCH  62  79
ATOM     79  C   UNL A   1      44.901  32.211  31.275  1.00  0.00     0.057 A 
ATOM     80  C   UNL A   1      44.987  32.377  32.663  1.00  0.00     0.134 A 
ATOM     81  C   UNL A   1      45.306  33.281  30.468  1.00  0.00     0.134 A 
ATOM     82  F   UNL A   1      44.603  31.394  33.491  1.00  0.00    -0.206 F 
ATOM     83  C   UNL A   1      45.435  33.574  33.226  1.00  0.00     0.040 A 
ATOM     84  C   UNL A   1      45.780  34.472  31.019  1.00  0.00     0.040 A 
ATOM     85  F   UNL A   1      45.257  33.184  29.131  1.00  0.00    -0.206 F 
ATOM     86  C   UNL A   1      45.839  34.623  32.403  1.00  0.00     0.006 A 
ENDBRANCH  62  79
ENDBRANCH  36  37
ENDBRANCH  28  31
ENDBRANCH  26  27
ENDBRANCH  25  26
ENDBRANCH   1  25
TORSDOF 14
ENDMDL
MODEL 3
REMARK VINA RESULT:     -10.4      4.536     10.419
REMARK SMILES C[C@@H](C(=O)NCCCNC(=O)c1ccc(-c2c3nc(c(-c4c(F)cccc4F)c4ccc([nH]4)c(-c4c(F)cccc4F)c4nc(c(-c5c(F)cccc5F)c5ccc2[nH]5)C=C4)C=C3)cc1)N(C)C(=O)NC[C@H]1C[N@@H+]2CCC[C@@H]2CO1
REMARK SMILES IDX 6 1 5 2 3 3 4 4 2 6 1 7 66 8 67 9 68 10 69 11 70 12 71 14
REMARK SMILES IDX 72 15 73 16 80 17 74 18 79 19 75 20 78 21 76 23 77 24 7 25
REMARK SMILES IDX 8 26 9 27 10 28 11 30 12 31 13 32 65 33 14 34 64 35 15 36
REMARK SMILES IDX 16 37 17 38 58 39 18 40 63 41 57 42 59 43 19 44 62 45 56 46
REMARK SMILES IDX 55 47 20 49 46 50 29 51 45 52 30 53 33 54 44 55 60 56 31 57
REMARK SMILES IDX 32 58 43 60 61 61 34 62 21 63 22 64 27 65 23 66 24 67 26 68
REMARK SMILES IDX 28 69 25 70 47 71 48 72 53 73 49 74 50 75 52 76 54 77 51 78
REMARK SMILES IDX 35 79 36 80 41 81 37 82 38 83 40 84 42 85 39 86
REMARK H PARENT 5 5 70 13 74 22 9 29 59 48 33 59
REMARK Flexibility Score: inf
ROOT
ATOM      1  C   UNL A   1      37.192  20.676  24.969  1.00  0.00     0.117 C 
ENDROOT
BRANCH   1   2
ATOM      2  N   UNL A   1      35.866  20.096  24.923  1.00  0.00    -0.354 N 
ATOM      3  C   UNL A   1      34.677  20.571  25.402  1.00  0.00     0.242 C 
ATOM      4  O   UNL A   1      33.677  19.907  25.119  1.00  0.00    -0.273 OA
ATOM      5  H   UNL A   1      35.812  19.221  24.478  1.00  0.00     0.163 HD
BRANCH   3   6
ATOM      6  C   UNL A   1      34.630  21.908  26.191  1.00  0.00     0.172 C 
ATOM      7  C   UNL A   1      34.006  21.787  27.585  1.00  0.00     0.042 C 
BRANCH   6   8
ATOM      8  N   UNL A   1      34.018  22.977  25.367  1.00  0.00    -0.316 N 
ATOM      9  C   UNL A   1      32.643  23.306  25.691  1.00  0.00     0.149 C 
BRANCH   8  10
ATOM     10  C   UNL A   1      34.820  23.662  24.497  1.00  0.00     0.317 C 
ATOM     11  O   UNL A   1      35.962  24.025  24.793  1.00  0.00    -0.249 OA
ATOM     12  N   UNL A   1      34.457  23.958  23.238  1.00  0.00    -0.335 N 
ATOM     13  H   UNL A   1      35.165  24.462  22.775  1.00  0.00     0.165 HD
BRANCH  12  14
ATOM     14  C   UNL A   1      33.306  23.740  22.364  1.00  0.00     0.155 C 
BRANCH  14  15
ATOM     15  C   UNL A   1      32.746  25.078  21.835  1.00  0.00     0.192 C 
ATOM     16  C   UNL A   1      31.561  25.587  22.701  1.00  0.00     0.296 C 
ATOM     17  O   UNL A   1      33.833  26.025  21.712  1.00  0.00    -0.364 OA
ATOM     18  N   UNL A   1      32.001  26.305  23.904  1.00  0.00    -0.328 N 
ATOM     19  C   UNL A   1      33.453  27.349  22.094  1.00  0.00     0.225 C 
ATOM     20  C   UNL A   1      30.886  26.940  24.618  1.00  0.00     0.262 C 
ATOM     21  C   UNL A   1      32.992  27.356  23.561  1.00  0.00     0.210 C 
ATOM     22  H   UNL A   1      32.424  25.603  24.511  1.00  0.00     0.348 HD
ATOM     23  C   UNL A   1      31.444  28.262  25.116  1.00  0.00     0.068 C 
ATOM     24  C   UNL A   1      32.366  28.678  23.988  1.00  0.00     0.073 C 
ENDBRANCH  14  15
ENDBRANCH  12  14
ENDBRANCH   8  10
ENDBRANCH   6   8
ENDBRANCH   3   6
ENDBRANCH   1   2
BRANCH   1  25
ATOM     25  C   UNL A   1      38.285  19.613  24.942  1.00  0.00     0.042 C 
BRANCH  25  26
ATOM     26  C   UNL A   1      39.240  19.671  26.129  1.00  0.00     0.118 C 
BRANCH  26  27
ATOM     27  N   UNL A   1      40.527  19.052  25.847  1.00  0.00    -0.352 N 
ATOM     28  C   UNL A   1      41.789  19.589  25.869  1.00  0.00     0.251 C 
ATOM     29  H   UNL A   1      40.485  18.099  25.602  1.00  0.00     0.163 HD
ATOM     30  O   UNL A   1      42.732  18.938  25.419  1.00  0.00    -0.269 OA
BRANCH  28  31
ATOM     31  C   UNL A   1      42.030  20.942  26.414  1.00  0.00     0.039 A 
ATOM     32  C   UNL A   1      41.931  21.140  27.795  1.00  0.00     0.014 A 
ATOM     33  C   UNL A   1      42.307  22.023  25.573  1.00  0.00     0.014 A 
ATOM     34  C   UNL A   1      42.159  22.409  28.335  1.00  0.00     0.010 A 
ATOM     35  C   UNL A   1      42.612  23.268  26.118  1.00  0.00     0.010 A 
ATOM     36  C   UNL A   1      42.525  23.477  27.503  1.00  0.00    -0.014 A 
BRANCH  36  37
ATOM     37  C   UNL A   1      42.786  24.830  28.055  1.00  0.00     0.031 A 
ATOM     38  C   UNL A   1      44.178  25.213  28.480  1.00  0.00     0.074 A 
ATOM     39  C   UNL A   1      41.766  25.693  28.230  1.00  0.00     0.049 A 
ATOM     40  N   UNL A   1      44.598  26.317  29.045  1.00  0.00    -0.248 NA
ATOM     41  C   UNL A   1      45.233  24.210  28.267  1.00  0.00     0.031 C 
ATOM     42  C   UNL A   1      40.366  25.427  27.898  1.00  0.00     0.029 A 
ATOM     43  N   UNL A   1      41.752  26.967  28.740  1.00  0.00    -0.354 N 
ATOM     44  C   UNL A   1      45.955  26.129  29.278  1.00  0.00     0.074 A 
ATOM     45  C   UNL A   1      46.277  24.789  28.838  1.00  0.00     0.031 C 
ATOM     46  C   UNL A   1      39.633  26.514  28.190  1.00  0.00     0.029 A 
ATOM     47  C   UNL A   1      40.503  27.538  28.760  1.00  0.00     0.049 A 
ATOM     48  H   UNL A   1      42.561  27.427  29.062  1.00  0.00     0.167 HD
ATOM     49  C   UNL A   1      46.855  27.000  29.792  1.00  0.00     0.037 A 
ATOM     50  C   UNL A   1      40.106  28.750  29.192  1.00  0.00     0.037 A 
ATOM     51  C   UNL A   1      46.539  28.344  30.197  1.00  0.00     0.049 A 
ATOM     52  C   UNL A   1      41.126  29.703  29.748  1.00  0.00     0.074 A 
ATOM     53  C   UNL A   1      47.392  29.328  30.667  1.00  0.00     0.029 A 
ATOM     54  N   UNL A   1      45.266  28.894  30.177  1.00  0.00    -0.354 N 
ATOM     55  N   UNL A   1      42.417  29.538  29.900  1.00  0.00    -0.248 NA
ATOM     56  C   UNL A   1      40.634  31.017  30.183  1.00  0.00     0.031 C 
ATOM     57  C   UNL A   1      46.628  30.460  30.969  1.00  0.00     0.029 A 
ATOM     58  C   UNL A   1      45.307  30.198  30.642  1.00  0.00     0.049 A 
ATOM     59  H   UNL A   1      44.453  28.427  29.876  1.00  0.00     0.167 HD
ATOM     60  C   UNL A   1      42.897  30.735  30.413  1.00  0.00     0.074 A 
ATOM     61  C   UNL A   1      41.758  31.621  30.540  1.00  0.00     0.031 C 
ATOM     62  C   UNL A   1      44.167  31.073  30.745  1.00  0.00     0.037 A 
BRANCH  49  63
ATOM     63  C   UNL A   1      48.270  26.521  29.946  1.00  0.00     0.057 A 
ATOM     64  C   UNL A   1      48.698  25.829  31.087  1.00  0.00     0.134 A 
ATOM     65  C   UNL A   1      49.213  26.740  28.935  1.00  0.00     0.134 A 
ATOM     66  F   UNL A   1      47.849  25.596  32.100  1.00  0.00    -0.206 F 
ATOM     67  C   UNL A   1      50.019  25.401  31.230  1.00  0.00     0.040 A 
ATOM     68  C   UNL A   1      50.529  26.292  29.053  1.00  0.00     0.040 A 
ATOM     69  F   UNL A   1      48.869  27.390  27.812  1.00  0.00    -0.206 F 
ATOM     70  C   UNL A   1      50.938  25.628  30.208  1.00  0.00     0.006 A 
ENDBRANCH  49  63
BRANCH  50  71
ATOM     71  C   UNL A   1      38.680  29.148  29.077  1.00  0.00     0.057 A 
ATOM     72  C   UNL A   1      38.160  29.610  27.861  1.00  0.00     0.134 A 
ATOM     73  C   UNL A   1      37.809  29.083  30.170  1.00  0.00     0.134 A 
ATOM     74  F   UNL A   1      38.952  29.711  26.784  1.00  0.00    -0.206 F 
ATOM     75  C   UNL A   1      36.829  30.010  27.742  1.00  0.00     0.040 A 
ATOM     76  C   UNL A   1      36.469  29.458  30.057  1.00  0.00     0.040 A 
ATOM     77  F   UNL A   1      38.245  28.642  31.358  1.00  0.00    -0.206 F 
ATOM     78  C   UNL A   1      35.978  29.930  28.841  1.00  0.00     0.006 A 
ENDBRANCH  50  71
BRANCH  62  79
ATOM     79  C   UNL A   1      44.401  32.474  31.228  1.00  0.00     0.057 A 
ATOM     80  C   UNL A   1      44.368  32.808  32.587  1.00  0.00     0.134 A 
ATOM     81  C   UNL A   1      44.700  33.496  30.317  1.00  0.00     0.134 A 
ATOM     82  F   UNL A   1      44.076  31.878  33.509  1.00  0.00    -0.206 F 
ATOM     83  C   UNL A   1      44.598  34.115  33.022  1.00  0.00     0.040 A 
ATOM     84  C   UNL A   1      44.958  34.799  30.741  1.00  0.00     0.040 A 
ATOM     85  F   UNL A   1      44.756  33.241  29.001  1.00  0.00    -0.206 F 
ATOM     86  C   UNL A   1      44.901  35.113  32.098  1.00  0.00     0.006 A 
ENDBRANCH  62  79
ENDBRANCH  36  37
ENDBRANCH  28  31
ENDBRANCH  26  27
ENDBRANCH  25  26
ENDBRANCH   1  25
TORSDOF 14
ENDMDL
