MODEL 1
REMARK VINA RESULT:     -12.5      0.000      0.000
REMARK SMILES Cc1ccc(CN(CC(=O)NCCCNC(=O)c2ccc(-c3c4nc(c(-c5c(F)cccc5F)c5ccc([nH]5)c(-c5c(F)cccc5F)c5nc(c(-c6c(F)cccc6F)c6ccc3[nH]6)C=C5)C=C4)cc2)C(=O)c2cc3c(s2)CCOC3)cc1
REMARK SMILES IDX 12 1 11 2 9 3 10 4 8 6 7 7 6 8 5 9 1 10 2 11 3 12 84 13 4 14
REMARK SMILES IDX 83 15 72 16 73 17 74 18 75 19 78 20 76 21 77 22 82 23 79 24
REMARK SMILES IDX 81 25 80 26 13 27 14 28 15 29 16 30 17 32 18 33 19 34 71 35
REMARK SMILES IDX 20 36 70 37 21 38 22 39 23 40 64 41 24 42 69 43 63 44 65 45
REMARK SMILES IDX 25 46 68 47 62 48 61 49 26 51 52 52 35 53 51 54 36 55 39 56
REMARK SMILES IDX 50 57 66 58 37 59 38 60 49 62 67 63 40 64 27 65 28 66 33 67
REMARK SMILES IDX 29 68 30 69 32 70 34 71 31 72 53 73 54 74 59 75 55 76 56 77
REMARK SMILES IDX 58 78 60 79 57 80 41 81 42 82 47 83 43 84 44 85 46 86 48 87
REMARK SMILES IDX 45 88
REMARK H PARENT 11 5 15 31 65 50 39 61
REMARK Flexibility Score: inf
ROOT
ATOM      1  C   UNL A   1      37.735  21.064  25.441  1.00  0.00     0.117 C 
ENDROOT
BRANCH   1   2
ATOM      2  N   UNL A   1      37.273  21.589  24.169  1.00  0.00    -0.354 N 
ATOM      3  C   UNL A   1      36.602  22.746  23.893  1.00  0.00     0.239 C 
ATOM      4  O   UNL A   1      36.724  23.190  22.746  1.00  0.00    -0.273 OA
ATOM      5  H   UNL A   1      37.475  21.026  23.386  1.00  0.00     0.163 HD
BRANCH   3   6
ATOM      6  C   UNL A   1      35.818  23.552  24.952  1.00  0.00     0.220 C 
BRANCH   6   7
ATOM      7  N   UNL A   1      34.393  23.775  24.681  1.00  0.00    -0.324 N 
BRANCH   7   8
ATOM      8  C   UNL A   1      33.428  22.903  25.343  1.00  0.00     0.156 C 
BRANCH   8   9
ATOM      9  C   UNL A   1      33.274  21.538  24.721  1.00  0.00    -0.029 A 
ATOM     10  C   UNL A   1      32.904  17.573  23.063  1.00  0.00     0.044 C 
ATOM     11  C   UNL A   1      33.020  18.946  23.653  1.00  0.00    -0.051 A 
ATOM     12  C   UNL A   1      32.313  20.020  23.096  1.00  0.00     0.004 A 
ATOM     13  C   UNL A   1      33.851  19.175  24.751  1.00  0.00     0.004 A 
ATOM     14  C   UNL A   1      32.437  21.309  23.626  1.00  0.00     0.006 A 
ATOM     15  C   UNL A   1      33.974  20.457  25.279  1.00  0.00     0.006 A 
ENDBRANCH   8   9
ENDBRANCH   7   8
BRANCH   7  16
ATOM     16  C   UNL A   1      33.888  24.830  23.892  1.00  0.00     0.264 C 
ATOM     17  O   UNL A   1      33.576  24.634  22.717  1.00  0.00    -0.268 OA
BRANCH  16  18
ATOM     18  C   UNL A   1      33.727  26.136  24.512  1.00  0.00     0.093 A 
ATOM     19  C   UNL A   1      34.113  26.596  25.758  1.00  0.00     0.032 A 
ATOM     20  S   UNL A   1      32.962  27.381  23.604  1.00  0.00    -0.135 S 
ATOM     21  C   UNL A   1      33.532  27.862  26.063  1.00  0.00    -0.008 A 
ATOM     22  C   UNL A   1      32.937  28.410  24.948  1.00  0.00     0.013 A 
ATOM     23  C   UNL A   1      33.476  28.548  27.396  1.00  0.00     0.196 C 
ATOM     24  C   UNL A   1      32.299  29.759  24.972  1.00  0.00     0.075 C 
ATOM     25  O   UNL A   1      32.959  29.897  27.321  1.00  0.00    -0.376 OA
ATOM     26  C   UNL A   1      31.846  30.020  26.417  1.00  0.00     0.166 C 
ENDBRANCH  16  18
ENDBRANCH   7  16
ENDBRANCH   6   7
ENDBRANCH   3   6
ENDBRANCH   1   2
BRANCH   1  27
ATOM     27  C   UNL A   1      39.160  21.460  25.795  1.00  0.00     0.042 C 
BRANCH  27  28
ATOM     28  C   UNL A   1      39.318  22.772  26.537  1.00  0.00     0.118 C 
BRANCH  28  29
ATOM     29  N   UNL A   1      40.706  23.152  26.801  1.00  0.00    -0.352 N 
ATOM     30  C   UNL A   1      41.230  24.415  27.031  1.00  0.00     0.251 C 
ATOM     31  H   UNL A   1      41.355  22.412  26.816  1.00  0.00     0.163 HD
ATOM     32  O   UNL A   1      42.420  24.554  27.303  1.00  0.00    -0.269 OA
BRANCH  30  33
ATOM     33  C   UNL A   1      40.306  25.569  27.113  1.00  0.00     0.039 A 
ATOM     34  C   UNL A   1      40.670  26.715  26.401  1.00  0.00     0.014 A 
ATOM     35  C   UNL A   1      39.390  25.640  28.155  1.00  0.00     0.014 A 
ATOM     36  C   UNL A   1      40.403  27.959  26.960  1.00  0.00     0.010 A 
ATOM     37  C   UNL A   1      39.235  26.857  28.780  1.00  0.00     0.010 A 
ATOM     38  C   UNL A   1      39.817  27.999  28.222  1.00  0.00    -0.014 A 
BRANCH  38  39
ATOM     39  C   UNL A   1      39.817  29.183  29.062  1.00  0.00     0.031 A 
ATOM     40  C   UNL A   1      38.763  30.187  28.872  1.00  0.00     0.074 A 
ATOM     41  C   UNL A   1      40.731  29.327  30.047  1.00  0.00     0.049 A 
ATOM     42  N   UNL A   1      38.908  31.434  29.153  1.00  0.00    -0.248 NA
ATOM     43  C   UNL A   1      37.463  29.861  28.300  1.00  0.00     0.031 C 
ATOM     44  C   UNL A   1      40.729  30.308  31.127  1.00  0.00     0.029 A 
ATOM     45  N   UNL A   1      41.972  28.697  30.158  1.00  0.00    -0.354 N 
ATOM     46  C   UNL A   1      37.665  32.011  29.080  1.00  0.00     0.074 A 
ATOM     47  C   UNL A   1      36.814  31.016  28.470  1.00  0.00     0.031 C 
ATOM     48  C   UNL A   1      41.974  30.417  31.620  1.00  0.00     0.029 A 
ATOM     49  C   UNL A   1      42.847  29.617  30.783  1.00  0.00     0.049 A 
ATOM     50  H   UNL A   1      42.196  27.787  29.859  1.00  0.00     0.167 HD
ATOM     51  C   UNL A   1      37.453  33.216  29.679  1.00  0.00     0.037 A 
ATOM     52  C   UNL A   1      43.945  30.079  30.112  1.00  0.00     0.037 A 
ATOM     53  C   UNL A   1      38.669  33.719  30.314  1.00  0.00     0.049 A 
ATOM     54  C   UNL A   1      43.874  31.554  29.761  1.00  0.00     0.074 A 
ATOM     55  C   UNL A   1      39.164  33.671  31.608  1.00  0.00     0.029 A 
ATOM     56  N   UNL A   1      39.743  34.066  29.515  1.00  0.00    -0.354 N 
ATOM     57  N   UNL A   1      42.886  32.344  30.078  1.00  0.00    -0.248 NA
ATOM     58  C   UNL A   1      44.873  32.224  28.928  1.00  0.00     0.031 C 
ATOM     59  C   UNL A   1      40.552  33.990  31.568  1.00  0.00     0.029 A 
ATOM     60  C   UNL A   1      40.897  34.250  30.255  1.00  0.00     0.049 A 
ATOM     61  H   UNL A   1      39.693  34.168  28.538  1.00  0.00     0.167 HD
ATOM     62  C   UNL A   1      43.054  33.560  29.468  1.00  0.00     0.074 A 
ATOM     63  C   UNL A   1      44.312  33.433  28.754  1.00  0.00     0.031 C 
ATOM     64  C   UNL A   1      42.133  34.567  29.555  1.00  0.00     0.037 A 
BRANCH  51  65
ATOM     65  C   UNL A   1      36.072  33.763  29.911  1.00  0.00     0.057 A 
ATOM     66  C   UNL A   1      35.285  34.216  28.838  1.00  0.00     0.134 A 
ATOM     67  C   UNL A   1      35.482  33.911  31.179  1.00  0.00     0.134 A 
ATOM     68  F   UNL A   1      35.674  34.060  27.566  1.00  0.00    -0.206 F 
ATOM     69  C   UNL A   1      34.059  34.867  29.020  1.00  0.00     0.040 A 
ATOM     70  C   UNL A   1      34.281  34.609  31.380  1.00  0.00     0.040 A 
ATOM     71  F   UNL A   1      36.029  33.359  32.272  1.00  0.00    -0.206 F 
ATOM     72  C   UNL A   1      33.571  35.101  30.296  1.00  0.00     0.006 A 
ENDBRANCH  51  65
BRANCH  52  73
ATOM     73  C   UNL A   1      44.541  29.012  29.258  1.00  0.00     0.057 A 
ATOM     74  C   UNL A   1      44.281  29.070  27.874  1.00  0.00     0.134 A 
ATOM     75  C   UNL A   1      45.691  28.333  29.665  1.00  0.00     0.134 A 
ATOM     76  F   UNL A   1      43.174  29.679  27.420  1.00  0.00    -0.206 F 
ATOM     77  C   UNL A   1      45.232  28.670  26.935  1.00  0.00     0.040 A 
ATOM     78  C   UNL A   1      46.633  27.897  28.728  1.00  0.00     0.040 A 
ATOM     79  F   UNL A   1      45.996  28.216  30.965  1.00  0.00    -0.206 F 
ATOM     80  C   UNL A   1      46.439  28.130  27.367  1.00  0.00     0.006 A 
ENDBRANCH  52  73
BRANCH  64  81
ATOM     81  C   UNL A   1      42.328  35.937  28.953  1.00  0.00     0.057 A 
ATOM     82  C   UNL A   1      41.813  36.292  27.696  1.00  0.00     0.134 A 
ATOM     83  C   UNL A   1      43.138  36.920  29.562  1.00  0.00     0.134 A 
ATOM     84  F   UNL A   1      41.140  35.408  26.946  1.00  0.00    -0.206 F 
ATOM     85  C   UNL A   1      41.999  37.563  27.139  1.00  0.00     0.040 A 
ATOM     86  C   UNL A   1      43.378  38.171  28.990  1.00  0.00     0.040 A 
ATOM     87  F   UNL A   1      43.728  36.723  30.749  1.00  0.00    -0.206 F 
ATOM     88  C   UNL A   1      42.786  38.509  27.786  1.00  0.00     0.006 A 
ENDBRANCH  64  81
ENDBRANCH  38  39
ENDBRANCH  30  33
ENDBRANCH  28  29
ENDBRANCH  27  28
ENDBRANCH   1  27
TORSDOF 15
ENDMDL
MODEL 2
REMARK VINA RESULT:     -12.4      3.436      8.373
REMARK SMILES Cc1ccc(CN(CC(=O)NCCCNC(=O)c2ccc(-c3c4nc(c(-c5c(F)cccc5F)c5ccc([nH]5)c(-c5c(F)cccc5F)c5nc(c(-c6c(F)cccc6F)c6ccc3[nH]6)C=C5)C=C4)cc2)C(=O)c2cc3c(s2)CCOC3)cc1
REMARK SMILES IDX 12 1 11 2 9 3 10 4 8 6 7 7 6 8 5 9 1 10 2 11 3 12 84 13 4 14
REMARK SMILES IDX 83 15 72 16 73 17 74 18 75 19 78 20 76 21 77 22 82 23 79 24
REMARK SMILES IDX 81 25 80 26 13 27 14 28 15 29 16 30 17 32 18 33 19 34 71 35
REMARK SMILES IDX 20 36 70 37 21 38 22 39 23 40 64 41 24 42 69 43 63 44 65 45
REMARK SMILES IDX 25 46 68 47 62 48 61 49 26 51 52 52 35 53 51 54 36 55 39 56
REMARK SMILES IDX 50 57 66 58 37 59 38 60 49 62 67 63 40 64 27 65 28 66 33 67
REMARK SMILES IDX 29 68 30 69 32 70 34 71 31 72 53 73 54 74 59 75 55 76 56 77
REMARK SMILES IDX 58 78 60 79 57 80 41 81 42 82 47 83 43 84 44 85 46 86 48 87
REMARK SMILES IDX 45 88
REMARK H PARENT 11 5 15 31 65 50 39 61
REMARK Flexibility Score: inf
ROOT
ATOM      1  C   UNL A   1      31.943  28.131  27.611  1.00  0.00     0.117 C 
ENDROOT
BRANCH   1   2
ATOM      2  N   UNL A   1      31.039  27.085  27.167  1.00  0.00    -0.354 N 
ATOM      3  C   UNL A   1      31.277  26.007  26.364  1.00  0.00     0.239 C 
ATOM      4  O   UNL A   1      30.515  25.043  26.500  1.00  0.00    -0.273 OA
ATOM      5  H   UNL A   1      30.114  27.166  27.496  1.00  0.00     0.163 HD
BRANCH   3   6
ATOM      6  C   UNL A   1      32.486  25.904  25.407  1.00  0.00     0.220 C 
BRANCH   6   7
ATOM      7  N   UNL A   1      32.203  25.446  24.043  1.00  0.00    -0.324 N 
BRANCH   7   8
ATOM      8  C   UNL A   1      32.152  24.007  23.804  1.00  0.00     0.156 C 
BRANCH   8   9
ATOM      9  C   UNL A   1      33.451  23.277  24.031  1.00  0.00    -0.029 A 
ATOM     10  C   UNL A   1      37.243  21.308  24.626  1.00  0.00     0.044 C 
ATOM     11  C   UNL A   1      35.929  22.005  24.434  1.00  0.00    -0.051 A 
ATOM     12  C   UNL A   1      34.755  21.470  24.981  1.00  0.00     0.004 A 
ATOM     13  C   UNL A   1      35.858  23.183  23.688  1.00  0.00     0.004 A 
ATOM     14  C   UNL A   1      33.523  22.101  24.783  1.00  0.00     0.006 A 
ATOM     15  C   UNL A   1      34.632  23.811  23.491  1.00  0.00     0.006 A 
ENDBRANCH   8   9
ENDBRANCH   7   8
BRANCH   7  16
ATOM     16  C   UNL A   1      31.894  26.299  22.963  1.00  0.00     0.264 C 
ATOM     17  O   UNL A   1      32.489  26.188  21.891  1.00  0.00    -0.268 OA
BRANCH  16  18
ATOM     18  C   UNL A   1      30.844  27.288  23.149  1.00  0.00     0.093 A 
ATOM     19  C   UNL A   1      29.487  27.133  23.372  1.00  0.00     0.032 A 
ATOM     20  S   UNL A   1      31.278  28.953  23.128  1.00  0.00    -0.135 S 
ATOM     21  C   UNL A   1      28.780  28.363  23.240  1.00  0.00    -0.008 A 
ATOM     22  C   UNL A   1      29.653  29.426  23.165  1.00  0.00     0.013 A 
ATOM     23  C   UNL A   1      27.297  28.561  23.126  1.00  0.00     0.196 C 
ATOM     24  C   UNL A   1      29.178  30.837  23.077  1.00  0.00     0.075 C 
ATOM     25  O   UNL A   1      26.903  29.951  23.171  1.00  0.00    -0.376 OA
ATOM     26  C   UNL A   1      27.787  30.808  22.425  1.00  0.00     0.166 C 
ENDBRANCH  16  18
ENDBRANCH   7  16
ENDBRANCH   6   7
ENDBRANCH   3   6
ENDBRANCH   1   2
BRANCH   1  27
ATOM     27  C   UNL A   1      31.775  29.451  26.873  1.00  0.00     0.042 C 
BRANCH  27  28
ATOM     28  C   UNL A   1      33.055  30.130  26.430  1.00  0.00     0.118 C 
BRANCH  28  29
ATOM     29  N   UNL A   1      33.426  31.296  27.231  1.00  0.00    -0.352 N 
ATOM     30  C   UNL A   1      34.513  31.456  28.077  1.00  0.00     0.251 C 
ATOM     31  H   UNL A   1      32.823  32.071  27.161  1.00  0.00     0.163 HD
ATOM     32  O   UNL A   1      34.717  32.535  28.630  1.00  0.00    -0.269 OA
BRANCH  30  33
ATOM     33  C   UNL A   1      35.516  30.370  28.167  1.00  0.00     0.039 A 
ATOM     34  C   UNL A   1      35.608  29.703  29.391  1.00  0.00     0.014 A 
ATOM     35  C   UNL A   1      36.559  30.323  27.251  1.00  0.00     0.014 A 
ATOM     36  C   UNL A   1      36.861  29.306  29.841  1.00  0.00     0.010 A 
ATOM     37  C   UNL A   1      37.817  30.053  27.739  1.00  0.00     0.010 A 
ATOM     38  C   UNL A   1      37.969  29.627  29.061  1.00  0.00    -0.014 A 
BRANCH  38  39
ATOM     39  C   UNL A   1      39.330  29.602  29.565  1.00  0.00     0.031 A 
ATOM     40  C   UNL A   1      40.138  28.392  29.369  1.00  0.00     0.074 A 
ATOM     41  C   UNL A   1      39.868  30.698  30.146  1.00  0.00     0.049 A 
ATOM     42  N   UNL A   1      41.102  28.045  30.147  1.00  0.00    -0.248 NA
ATOM     43  C   UNL A   1      39.885  27.448  28.288  1.00  0.00     0.031 C 
ATOM     44  C   UNL A   1      41.269  30.933  30.477  1.00  0.00     0.029 A 
ATOM     45  N   UNL A   1      39.193  31.775  30.725  1.00  0.00    -0.354 N 
ATOM     46  C   UNL A   1      41.770  27.019  29.527  1.00  0.00     0.074 A 
ATOM     47  C   UNL A   1      40.932  26.629  28.417  1.00  0.00     0.031 C 
ATOM     48  C   UNL A   1      41.342  31.902  31.405  1.00  0.00     0.029 A 
ATOM     49  C   UNL A   1      39.986  32.224  31.807  1.00  0.00     0.049 A 
ATOM     50  H   UNL A   1      38.330  32.150  30.436  1.00  0.00     0.167 HD
ATOM     51  C   UNL A   1      43.032  26.705  29.931  1.00  0.00     0.037 A 
ATOM     52  C   UNL A   1      39.500  32.161  33.083  1.00  0.00     0.037 A 
ATOM     53  C   UNL A   1      43.468  27.558  31.034  1.00  0.00     0.049 A 
ATOM     54  C   UNL A   1      40.222  31.158  33.965  1.00  0.00     0.074 A 
ATOM     55  C   UNL A   1      44.218  28.722  31.107  1.00  0.00     0.029 A 
ATOM     56  N   UNL A   1      42.824  27.452  32.253  1.00  0.00    -0.354 N 
ATOM     57  N   UNL A   1      41.234  30.429  33.582  1.00  0.00    -0.248 NA
ATOM     58  C   UNL A   1      39.783  30.828  35.320  1.00  0.00     0.031 C 
ATOM     59  C   UNL A   1      44.008  29.310  32.387  1.00  0.00     0.029 A 
ATOM     60  C   UNL A   1      43.146  28.498  33.099  1.00  0.00     0.049 A 
ATOM     61  H   UNL A   1      42.209  26.721  32.490  1.00  0.00     0.167 HD
ATOM     62  C   UNL A   1      41.538  29.515  34.558  1.00  0.00     0.074 A 
ATOM     63  C   UNL A   1      40.596  29.802  35.626  1.00  0.00     0.031 C 
ATOM     64  C   UNL A   1      42.507  28.563  34.405  1.00  0.00     0.037 A 
BRANCH  51  65
ATOM     65  C   UNL A   1      43.937  25.820  29.119  1.00  0.00     0.057 A 
ATOM     66  C   UNL A   1      44.574  26.305  27.964  1.00  0.00     0.134 A 
ATOM     67  C   UNL A   1      44.181  24.465  29.403  1.00  0.00     0.134 A 
ATOM     68  F   UNL A   1      44.510  27.596  27.615  1.00  0.00    -0.206 F 
ATOM     69  C   UNL A   1      45.303  25.481  27.099  1.00  0.00     0.040 A 
ATOM     70  C   UNL A   1      44.863  23.615  28.518  1.00  0.00     0.040 A 
ATOM     71  F   UNL A   1      43.795  23.914  30.563  1.00  0.00    -0.206 F 
ATOM     72  C   UNL A   1      45.417  24.123  27.353  1.00  0.00     0.006 A 
ENDBRANCH  51  65
BRANCH  52  73
ATOM     73  C   UNL A   1      38.037  32.450  33.116  1.00  0.00     0.057 A 
ATOM     74  C   UNL A   1      37.636  33.784  32.908  1.00  0.00     0.134 A 
ATOM     75  C   UNL A   1      37.107  31.449  32.828  1.00  0.00     0.134 A 
ATOM     76  F   UNL A   1      38.473  34.793  33.199  1.00  0.00    -0.206 F 
ATOM     77  C   UNL A   1      36.454  34.095  32.236  1.00  0.00     0.040 A 
ATOM     78  C   UNL A   1      35.904  31.756  32.186  1.00  0.00     0.040 A 
ATOM     79  F   UNL A   1      37.406  30.157  33.020  1.00  0.00    -0.206 F 
ATOM     80  C   UNL A   1      35.609  33.070  31.824  1.00  0.00     0.006 A 
ENDBRANCH  52  73
BRANCH  64  81
ATOM     81  C   UNL A   1      42.908  27.592  35.489  1.00  0.00     0.057 A 
ATOM     82  C   UNL A   1      44.041  27.783  36.294  1.00  0.00     0.134 A 
ATOM     83  C   UNL A   1      42.235  26.368  35.691  1.00  0.00     0.134 A 
ATOM     84  F   UNL A   1      44.851  28.837  36.116  1.00  0.00    -0.206 F 
ATOM     85  C   UNL A   1      44.414  26.878  37.297  1.00  0.00     0.040 A 
ATOM     86  C   UNL A   1      42.630  25.430  36.649  1.00  0.00     0.040 A 
ATOM     87  F   UNL A   1      41.153  26.022  34.981  1.00  0.00    -0.206 F 
ATOM     88  C   UNL A   1      43.707  25.695  37.476  1.00  0.00     0.006 A 
ENDBRANCH  64  81
ENDBRANCH  38  39
ENDBRANCH  30  33
ENDBRANCH  28  29
ENDBRANCH  27  28
ENDBRANCH   1  27
TORSDOF 15
ENDMDL
MODEL 3
REMARK VINA RESULT:     -12.3      3.766      9.023
REMARK SMILES Cc1ccc(CN(CC(=O)NCCCNC(=O)c2ccc(-c3c4nc(c(-c5c(F)cccc5F)c5ccc([nH]5)c(-c5c(F)cccc5F)c5nc(c(-c6c(F)cccc6F)c6ccc3[nH]6)C=C5)C=C4)cc2)C(=O)c2cc3c(s2)CCOC3)cc1
REMARK SMILES IDX 12 1 11 2 9 3 10 4 8 6 7 7 6 8 5 9 1 10 2 11 3 12 84 13 4 14
REMARK SMILES IDX 83 15 72 16 73 17 74 18 75 19 78 20 76 21 77 22 82 23 79 24
REMARK SMILES IDX 81 25 80 26 13 27 14 28 15 29 16 30 17 32 18 33 19 34 71 35
REMARK SMILES IDX 20 36 70 37 21 38 22 39 23 40 64 41 24 42 69 43 63 44 65 45
REMARK SMILES IDX 25 46 68 47 62 48 61 49 26 51 52 52 35 53 51 54 36 55 39 56
REMARK SMILES IDX 50 57 66 58 37 59 38 60 49 62 67 63 40 64 27 65 28 66 33 67
REMARK SMILES IDX 29 68 30 69 32 70 34 71 31 72 53 73 54 74 59 75 55 76 56 77
REMARK SMILES IDX 58 78 60 79 57 80 41 81 42 82 47 83 43 84 44 85 46 86 48 87
REMARK SMILES IDX 45 88
REMARK H PARENT 11 5 15 31 65 50 39 61
REMARK Flexibility Score: inf
ROOT
ATOM      1  C   UNL A   1      34.399  28.903  27.115  1.00  0.00     0.117 C 
ENDROOT
BRANCH   1   2
ATOM      2  N   UNL A   1      33.023  28.443  27.104  1.00  0.00    -0.354 N 
ATOM      3  C   UNL A   1      32.445  27.429  26.394  1.00  0.00     0.239 C 
ATOM      4  O   UNL A   1      31.416  26.940  26.875  1.00  0.00    -0.273 OA
ATOM      5  H   UNL A   1      32.413  28.937  27.699  1.00  0.00     0.163 HD
BRANCH   3   6
ATOM      6  C   UNL A   1      33.068  26.816  25.121  1.00  0.00     0.220 C 
BRANCH   6   7
ATOM      7  N   UNL A   1      32.370  25.662  24.542  1.00  0.00    -0.324 N 
BRANCH   7   8
ATOM      8  C   UNL A   1      32.514  24.372  25.210  1.00  0.00     0.156 C 
BRANCH   8   9
ATOM      9  C   UNL A   1      33.892  23.765  25.131  1.00  0.00    -0.029 A 
ATOM     10  C   UNL A   1      37.829  22.004  25.054  1.00  0.00     0.044 C 
ATOM     11  C   UNL A   1      36.454  22.599  25.084  1.00  0.00    -0.051 A 
ATOM     12  C   UNL A   1      35.766  22.859  23.891  1.00  0.00     0.004 A 
ATOM     13  C   UNL A   1      35.850  22.920  26.301  1.00  0.00     0.004 A 
ATOM     14  C   UNL A   1      34.493  23.437  23.912  1.00  0.00     0.006 A 
ATOM     15  C   UNL A   1      34.583  23.496  26.323  1.00  0.00     0.006 A 
ENDBRANCH   8   9
ENDBRANCH   7   8
BRANCH   7  16
ATOM     16  C   UNL A   1      31.500  25.730  23.434  1.00  0.00     0.264 C 
ATOM     17  O   UNL A   1      31.461  24.811  22.615  1.00  0.00    -0.268 OA
BRANCH  16  18
ATOM     18  C   UNL A   1      30.642  26.898  23.305  1.00  0.00     0.093 A 
ATOM     19  C   UNL A   1      29.338  27.110  23.718  1.00  0.00     0.032 A 
ATOM     20  S   UNL A   1      31.286  28.304  22.551  1.00  0.00    -0.135 S 
ATOM     21  C   UNL A   1      28.791  28.304  23.165  1.00  0.00    -0.008 A 
ATOM     22  C   UNL A   1      29.772  29.061  22.563  1.00  0.00     0.013 A 
ATOM     23  C   UNL A   1      27.352  28.728  23.140  1.00  0.00     0.196 C 
ATOM     24  C   UNL A   1      29.483  30.391  21.951  1.00  0.00     0.075 C 
ATOM     25  O   UNL A   1      27.163  30.074  22.647  1.00  0.00    -0.376 OA
ATOM     26  C   UNL A   1      28.008  30.382  21.523  1.00  0.00     0.166 C 
ENDBRANCH  16  18
ENDBRANCH   7  16
ENDBRANCH   6   7
ENDBRANCH   3   6
ENDBRANCH   1   2
BRANCH   1  27
ATOM     27  C   UNL A   1      34.550  30.406  27.291  1.00  0.00     0.042 C 
BRANCH  27  28
ATOM     28  C   UNL A   1      34.677  30.897  28.719  1.00  0.00     0.118 C 
BRANCH  28  29
ATOM     29  N   UNL A   1      35.838  31.754  28.960  1.00  0.00    -0.352 N 
ATOM     30  C   UNL A   1      37.179  31.403  29.012  1.00  0.00     0.251 C 
ATOM     31  H   UNL A   1      35.642  32.707  29.106  1.00  0.00     0.163 HD
ATOM     32  O   UNL A   1      38.042  32.265  29.160  1.00  0.00    -0.269 OA
BRANCH  30  33
ATOM     33  C   UNL A   1      37.564  30.004  28.712  1.00  0.00     0.039 A 
ATOM     34  C   UNL A   1      37.704  29.146  29.806  1.00  0.00     0.014 A 
ATOM     35  C   UNL A   1      38.154  29.703  27.492  1.00  0.00     0.014 A 
ATOM     36  C   UNL A   1      38.716  28.195  29.781  1.00  0.00     0.010 A 
ATOM     37  C   UNL A   1      39.239  28.856  27.505  1.00  0.00     0.010 A 
ATOM     38  C   UNL A   1      39.565  28.170  28.678  1.00  0.00    -0.014 A 
BRANCH  38  39
ATOM     39  C   UNL A   1      40.852  27.497  28.679  1.00  0.00     0.031 A 
ATOM     40  C   UNL A   1      40.899  26.057  28.402  1.00  0.00     0.074 A 
ATOM     41  C   UNL A   1      41.993  28.196  28.867  1.00  0.00     0.049 A 
ATOM     42  N   UNL A   1      41.822  25.276  28.842  1.00  0.00    -0.248 NA
ATOM     43  C   UNL A   1      39.869  25.373  27.630  1.00  0.00     0.031 C 
ATOM     44  C   UNL A   1      43.363  27.740  28.655  1.00  0.00     0.029 A 
ATOM     45  N   UNL A   1      42.138  29.446  29.474  1.00  0.00    -0.354 N 
ATOM     46  C   UNL A   1      41.679  24.076  28.192  1.00  0.00     0.074 A 
ATOM     47  C   UNL A   1      40.407  24.156  27.512  1.00  0.00     0.031 C 
ATOM     48  C   UNL A   1      44.199  28.534  29.344  1.00  0.00     0.029 A 
ATOM     49  C   UNL A   1      43.389  29.440  30.135  1.00  0.00     0.049 A 
ATOM     50  H   UNL A   1      41.493  30.189  29.447  1.00  0.00     0.167 HD
ATOM     51  C   UNL A   1      42.719  23.196  28.179  1.00  0.00     0.037 A 
ATOM     52  C   UNL A   1      43.443  29.573  31.494  1.00  0.00     0.037 A 
ATOM     53  C   UNL A   1      43.866  23.714  28.922  1.00  0.00     0.049 A 
ATOM     54  C   UNL A   1      43.917  28.323  32.214  1.00  0.00     0.074 A 
ATOM     55  C   UNL A   1      45.019  24.389  28.556  1.00  0.00     0.029 A 
ATOM     56  N   UNL A   1      43.751  23.884  30.290  1.00  0.00    -0.354 N 
ATOM     57  N   UNL A   1      44.275  27.218  31.620  1.00  0.00    -0.248 NA
ATOM     58  C   UNL A   1      43.922  28.195  33.671  1.00  0.00     0.031 C 
ATOM     59  C   UNL A   1      45.589  24.969  29.726  1.00  0.00     0.029 A 
ATOM     60  C   UNL A   1      44.794  24.632  30.804  1.00  0.00     0.049 A 
ATOM     61  H   UNL A   1      43.015  23.518  30.831  1.00  0.00     0.167 HD
ATOM     62  C   UNL A   1      44.482  26.238  32.557  1.00  0.00     0.074 A 
ATOM     63  C   UNL A   1      44.244  26.900  33.828  1.00  0.00     0.031 C 
ATOM     64  C   UNL A   1      44.792  24.949  32.226  1.00  0.00     0.037 A 
BRANCH  51  65
ATOM     65  C   UNL A   1      42.758  22.016  27.248  1.00  0.00     0.057 A 
ATOM     66  C   UNL A   1      41.903  20.917  27.439  1.00  0.00     0.134 A 
ATOM     67  C   UNL A   1      43.653  21.888  26.170  1.00  0.00     0.134 A 
ATOM     68  F   UNL A   1      40.938  20.931  28.366  1.00  0.00    -0.206 F 
ATOM     69  C   UNL A   1      42.006  19.739  26.690  1.00  0.00     0.040 A 
ATOM     70  C   UNL A   1      43.805  20.694  25.448  1.00  0.00     0.040 A 
ATOM     71  F   UNL A   1      44.397  22.923  25.753  1.00  0.00    -0.206 F 
ATOM     72  C   UNL A   1      42.985  19.608  25.717  1.00  0.00     0.006 A 
ENDBRANCH  51  65
BRANCH  52  73
ATOM     73  C   UNL A   1      42.393  30.510  31.986  1.00  0.00     0.057 A 
ATOM     74  C   UNL A   1      41.246  29.945  32.577  1.00  0.00     0.134 A 
ATOM     75  C   UNL A   1      42.719  31.820  32.345  1.00  0.00     0.134 A 
ATOM     76  F   UNL A   1      40.860  28.702  32.248  1.00  0.00    -0.206 F 
ATOM     77  C   UNL A   1      40.589  30.568  33.638  1.00  0.00     0.040 A 
ATOM     78  C   UNL A   1      42.042  32.466  33.384  1.00  0.00     0.040 A 
ATOM     79  F   UNL A   1      43.783  32.435  31.810  1.00  0.00    -0.206 F 
ATOM     80  C   UNL A   1      41.025  31.812  34.080  1.00  0.00     0.006 A 
ENDBRANCH  52  73
BRANCH  64  81
ATOM     81  C   UNL A   1      45.096  23.871  33.238  1.00  0.00     0.057 A 
ATOM     82  C   UNL A   1      44.139  22.933  33.655  1.00  0.00     0.134 A 
ATOM     83  C   UNL A   1      46.330  23.803  33.918  1.00  0.00     0.134 A 
ATOM     84  F   UNL A   1      42.881  22.970  33.190  1.00  0.00    -0.206 F 
ATOM     85  C   UNL A   1      44.422  21.937  34.598  1.00  0.00     0.040 A 
ATOM     86  C   UNL A   1      46.607  22.850  34.902  1.00  0.00     0.040 A 
ATOM     87  F   UNL A   1      47.337  24.648  33.658  1.00  0.00    -0.206 F 
ATOM     88  C   UNL A   1      45.661  21.893  35.226  1.00  0.00     0.006 A 
ENDBRANCH  64  81
ENDBRANCH  38  39
ENDBRANCH  30  33
ENDBRANCH  28  29
ENDBRANCH  27  28
ENDBRANCH   1  27
TORSDOF 15
ENDMDL
