MODEL 1
REMARK VINA RESULT:     -12.9      0.000      0.000
REMARK SMILES C[C@H]1C[N@H+]2CCCC[C@@H]2CN1c1ccc(C(=O)NCCCNC(=O)c2ccc(-c3c4nc(c(-c5c(F)cccc5F)c5ccc([nH]5)c(-c5c(F)cccc5F)c5nc(c(-c6c(F)cccc6F)c6ccc3[nH]6)C=C5)C=C4)cc2)cc1Cl
REMARK SMILES IDX 20 1 19 2 18 3 16 4 17 5 15 7 12 8 13 9 80 10 14 11 79 12
REMARK SMILES IDX 81 13 11 14 1 15 2 16 3 17 4 18 10 19 5 20 9 21 6 23 8 24
REMARK SMILES IDX 7 25 21 26 22 27 23 28 24 30 25 31 26 32 78 33 27 34 77 35
REMARK SMILES IDX 28 36 29 37 30 38 71 39 31 40 76 41 70 42 72 43 32 44 75 45
REMARK SMILES IDX 69 46 68 47 33 49 59 50 42 51 58 52 43 53 46 54 57 55 73 56
REMARK SMILES IDX 44 57 45 58 56 60 74 61 47 62 34 63 35 64 40 65 36 66 37 67
REMARK SMILES IDX 39 68 41 69 38 70 60 71 61 72 66 73 62 74 63 75 65 76 67 77
REMARK SMILES IDX 64 78 48 79 49 80 54 81 50 82 51 83 53 84 55 85 52 86
REMARK H PARENT 18 6 4 22 22 29 72 48 46 59
REMARK Flexibility Score: inf
ROOT
ATOM      1  C   UNL A   1      37.598  19.611  24.833  1.00  0.00     0.042 C 
ENDROOT
BRANCH   1   2
ATOM      2  C   UNL A   1      36.326  20.442  25.011  1.00  0.00     0.118 C 
BRANCH   2   3
ATOM      3  N   UNL A   1      35.137  19.609  24.962  1.00  0.00    -0.352 N 
ATOM      4  C   UNL A   1      33.801  19.910  24.875  1.00  0.00     0.251 C 
ATOM      5  O   UNL A   1      33.013  18.971  24.759  1.00  0.00    -0.269 OA
ATOM      6  H   UNL A   1      35.326  18.644  24.997  1.00  0.00     0.163 HD
BRANCH   4   7
ATOM      7  C   UNL A   1      33.267  21.299  24.888  1.00  0.00     0.041 A 
ATOM      8  C   UNL A   1      32.292  23.963  25.083  1.00  0.00     0.056 A 
ATOM      9  C   UNL A   1      32.298  23.115  26.195  1.00  0.00     0.028 A 
ATOM     10  C   UNL A   1      32.785  23.445  23.870  1.00  0.00     0.065 A 
ATOM     11  C   UNL A   1      32.776  21.800  26.101  1.00  0.00     0.016 A 
ATOM     12  C   UNL A   1      33.294  22.148  23.785  1.00  0.00     0.036 A 
ATOM     13  Cl  UNL A   1      32.855  24.402  22.425  1.00  0.00    -0.082 Cl
BRANCH   8  14
ATOM     14  N   UNL A   1      31.869  25.272  25.191  1.00  0.00    -0.356 N 
ATOM     15  C   UNL A   1      34.166  26.084  25.746  1.00  0.00     0.037 C 
ATOM     16  C   UNL A   1      32.654  26.337  25.840  1.00  0.00     0.134 C 
ATOM     17  C   UNL A   1      32.371  27.716  25.151  1.00  0.00     0.287 C 
ATOM     18  N   UNL A   1      30.972  28.021  24.751  1.00  0.00    -0.329 N 
ATOM     19  C   UNL A   1      30.459  25.573  24.931  1.00  0.00     0.182 C 
ATOM     20  C   UNL A   1      30.973  29.188  23.849  1.00  0.00     0.262 C 
ATOM     21  C   UNL A   1      30.378  26.847  24.060  1.00  0.00     0.203 C 
ATOM     22  H   UNL A   1      30.416  28.230  25.580  1.00  0.00     0.348 HD
ATOM     23  C   UNL A   1      29.569  29.545  23.363  1.00  0.00     0.062 C 
ATOM     24  C   UNL A   1      28.925  27.141  23.663  1.00  0.00     0.067 C 
ATOM     25  C   UNL A   1      28.865  28.349  22.733  1.00  0.00     0.012 C 
ENDBRANCH   8  14
ENDBRANCH   4   7
ENDBRANCH   2   3
ENDBRANCH   1   2
BRANCH   1  26
ATOM     26  C   UNL A   1      38.793  20.162  25.606  1.00  0.00     0.118 C 
BRANCH  26  27
ATOM     27  N   UNL A   1      39.830  19.156  25.787  1.00  0.00    -0.352 N 
ATOM     28  C   UNL A   1      41.166  19.304  26.065  1.00  0.00     0.251 C 
ATOM     29  H   UNL A   1      39.525  18.224  25.696  1.00  0.00     0.163 HD
ATOM     30  O   UNL A   1      41.918  18.342  25.948  1.00  0.00    -0.269 OA
BRANCH  28  31
ATOM     31  C   UNL A   1      41.707  20.611  26.500  1.00  0.00     0.039 A 
ATOM     32  C   UNL A   1      42.123  21.524  25.524  1.00  0.00     0.014 A 
ATOM     33  C   UNL A   1      41.852  20.920  27.854  1.00  0.00     0.014 A 
ATOM     34  C   UNL A   1      42.630  22.767  25.907  1.00  0.00     0.010 A 
ATOM     35  C   UNL A   1      42.296  22.184  28.233  1.00  0.00     0.010 A 
ATOM     36  C   UNL A   1      42.690  23.119  27.265  1.00  0.00    -0.014 A 
BRANCH  36  37
ATOM     37  C   UNL A   1      43.150  24.463  27.696  1.00  0.00     0.031 A 
ATOM     38  C   UNL A   1      42.152  25.515  28.090  1.00  0.00     0.074 A 
ATOM     39  C   UNL A   1      44.463  24.758  27.656  1.00  0.00     0.049 A 
ATOM     40  N   UNL A   1      42.351  26.774  28.387  1.00  0.00    -0.248 NA
ATOM     41  C   UNL A   1      40.739  25.105  28.127  1.00  0.00     0.031 C 
ATOM     42  C   UNL A   1      45.526  23.832  27.256  1.00  0.00     0.029 A 
ATOM     43  N   UNL A   1      45.128  25.924  27.937  1.00  0.00    -0.354 N 
ATOM     44  C   UNL A   1      41.092  27.309  28.630  1.00  0.00     0.074 A 
ATOM     45  C   UNL A   1      40.132  26.250  28.403  1.00  0.00     0.031 C 
ATOM     46  C   UNL A   1      46.708  24.464  27.331  1.00  0.00     0.029 A 
ATOM     47  C   UNL A   1      46.485  25.846  27.741  1.00  0.00     0.049 A 
ATOM     48  H   UNL A   1      44.675  26.741  28.250  1.00  0.00     0.167 HD
ATOM     49  C   UNL A   1      40.769  28.563  29.025  1.00  0.00     0.037 A 
ATOM     50  C   UNL A   1      47.441  26.787  27.860  1.00  0.00     0.037 A 
ATOM     51  C   UNL A   1      41.729  29.607  29.274  1.00  0.00     0.049 A 
ATOM     52  C   UNL A   1      47.054  28.176  28.281  1.00  0.00     0.074 A 
ATOM     53  C   UNL A   1      41.507  30.891  29.737  1.00  0.00     0.029 A 
ATOM     54  N   UNL A   1      43.097  29.484  29.075  1.00  0.00    -0.354 N 
ATOM     55  N   UNL A   1      45.866  28.652  28.567  1.00  0.00    -0.248 NA
ATOM     56  C   UNL A   1      48.139  29.161  28.397  1.00  0.00     0.031 C 
ATOM     57  C   UNL A   1      42.735  31.561  29.776  1.00  0.00     0.029 A 
ATOM     58  C   UNL A   1      43.728  30.678  29.382  1.00  0.00     0.049 A 
ATOM     59  H   UNL A   1      43.551  28.669  28.761  1.00  0.00     0.167 HD
ATOM     60  C   UNL A   1      46.062  29.981  28.918  1.00  0.00     0.074 A 
ATOM     61  C   UNL A   1      47.486  30.232  28.823  1.00  0.00     0.031 C 
ATOM     62  C   UNL A   1      45.147  30.909  29.287  1.00  0.00     0.037 A 
BRANCH  49  63
ATOM     63  C   UNL A   1      39.313  28.878  29.216  1.00  0.00     0.057 A 
ATOM     64  C   UNL A   1      38.677  28.709  30.452  1.00  0.00     0.134 A 
ATOM     65  C   UNL A   1      38.547  29.389  28.160  1.00  0.00     0.134 A 
ATOM     66  F   UNL A   1      39.349  28.213  31.501  1.00  0.00    -0.206 F 
ATOM     67  C   UNL A   1      37.325  29.012  30.626  1.00  0.00     0.040 A 
ATOM     68  C   UNL A   1      37.202  29.722  28.328  1.00  0.00     0.040 A 
ATOM     69  F   UNL A   1      39.096  29.583  26.951  1.00  0.00    -0.206 F 
ATOM     70  C   UNL A   1      36.586  29.527  29.563  1.00  0.00     0.006 A 
ENDBRANCH  49  63
BRANCH  50  71
ATOM     71  C   UNL A   1      48.858  26.443  27.587  1.00  0.00     0.057 A 
ATOM     72  C   UNL A   1      49.386  26.541  26.294  1.00  0.00     0.134 A 
ATOM     73  C   UNL A   1      49.717  26.012  28.604  1.00  0.00     0.134 A 
ATOM     74  F   UNL A   1      48.606  26.932  25.275  1.00  0.00    -0.206 F 
ATOM     75  C   UNL A   1      50.713  26.206  26.019  1.00  0.00     0.040 A 
ATOM     76  C   UNL A   1      51.053  25.697  28.348  1.00  0.00     0.040 A 
ATOM     77  F   UNL A   1      49.274  25.905  29.866  1.00  0.00    -0.206 F 
ATOM     78  C   UNL A   1      51.552  25.788  27.050  1.00  0.00     0.006 A 
ENDBRANCH  50  71
BRANCH  62  79
ATOM     79  C   UNL A   1      45.657  32.274  29.642  1.00  0.00     0.057 A 
ATOM     80  C   UNL A   1      45.747  33.298  28.690  1.00  0.00     0.134 A 
ATOM     81  C   UNL A   1      46.017  32.581  30.960  1.00  0.00     0.134 A 
ATOM     82  F   UNL A   1      45.432  33.064  27.407  1.00  0.00    -0.206 F 
ATOM     83  C   UNL A   1      46.192  34.575  29.035  1.00  0.00     0.040 A 
ATOM     84  C   UNL A   1      46.439  33.860  31.322  1.00  0.00     0.040 A 
ATOM     85  F   UNL A   1      45.945  31.646  31.920  1.00  0.00    -0.206 F 
ATOM     86  C   UNL A   1      46.533  34.860  30.357  1.00  0.00     0.006 A 
ENDBRANCH  62  79
ENDBRANCH  36  37
ENDBRANCH  28  31
ENDBRANCH  26  27
ENDBRANCH   1  26
TORSDOF 11
ENDMDL
MODEL 2
REMARK VINA RESULT:     -12.8      0.879      1.531
REMARK SMILES C[C@H]1C[N@H+]2CCCC[C@@H]2CN1c1ccc(C(=O)NCCCNC(=O)c2ccc(-c3c4nc(c(-c5c(F)cccc5F)c5ccc([nH]5)c(-c5c(F)cccc5F)c5nc(c(-c6c(F)cccc6F)c6ccc3[nH]6)C=C5)C=C4)cc2)cc1Cl
REMARK SMILES IDX 20 1 19 2 18 3 16 4 17 5 15 7 12 8 13 9 80 10 14 11 79 12
REMARK SMILES IDX 81 13 11 14 1 15 2 16 3 17 4 18 10 19 5 20 9 21 6 23 8 24
REMARK SMILES IDX 7 25 21 26 22 27 23 28 24 30 25 31 26 32 78 33 27 34 77 35
REMARK SMILES IDX 28 36 29 37 30 38 71 39 31 40 76 41 70 42 72 43 32 44 75 45
REMARK SMILES IDX 69 46 68 47 33 49 59 50 42 51 58 52 43 53 46 54 57 55 73 56
REMARK SMILES IDX 44 57 45 58 56 60 74 61 47 62 34 63 35 64 40 65 36 66 37 67
REMARK SMILES IDX 39 68 41 69 38 70 60 71 61 72 66 73 62 74 63 75 65 76 67 77
REMARK SMILES IDX 64 78 48 79 49 80 54 81 50 82 51 83 53 84 55 85 52 86
REMARK H PARENT 18 6 4 22 22 29 72 48 46 59
REMARK Flexibility Score: inf
ROOT
ATOM      1  C   UNL A   1      37.764  19.563  25.001  1.00  0.00     0.042 C 
ENDROOT
BRANCH   1   2
ATOM      2  C   UNL A   1      36.578  20.531  25.001  1.00  0.00     0.118 C 
BRANCH   2   3
ATOM      3  N   UNL A   1      35.312  19.818  25.001  1.00  0.00    -0.352 N 
ATOM      4  C   UNL A   1      34.013  20.242  24.876  1.00  0.00     0.251 C 
ATOM      5  O   UNL A   1      33.136  19.381  24.823  1.00  0.00    -0.269 OA
ATOM      6  H   UNL A   1      35.403  18.845  25.112  1.00  0.00     0.163 HD
BRANCH   4   7
ATOM      7  C   UNL A   1      33.621  21.675  24.777  1.00  0.00     0.041 A 
ATOM      8  C   UNL A   1      32.937  24.435  24.750  1.00  0.00     0.056 A 
ATOM      9  C   UNL A   1      32.991  23.718  25.950  1.00  0.00     0.028 A 
ATOM     10  C   UNL A   1      33.232  23.736  23.564  1.00  0.00     0.065 A 
ATOM     11  C   UNL A   1      33.326  22.356  25.966  1.00  0.00     0.016 A 
ATOM     12  C   UNL A   1      33.600  22.390  23.583  1.00  0.00     0.036 A 
ATOM     13  Cl  UNL A   1      33.224  24.516  22.014  1.00  0.00    -0.082 Cl
BRANCH   8  14
ATOM     14  N   UNL A   1      32.657  25.786  24.743  1.00  0.00    -0.356 N 
ATOM     15  C   UNL A   1      30.226  25.395  24.320  1.00  0.00     0.037 C 
ATOM     16  C   UNL A   1      31.412  26.364  24.209  1.00  0.00     0.134 C 
ATOM     17  C   UNL A   1      31.028  27.658  25.007  1.00  0.00     0.287 C 
ATOM     18  N   UNL A   1      32.122  28.587  25.396  1.00  0.00    -0.329 N 
ATOM     19  C   UNL A   1      33.754  26.726  24.993  1.00  0.00     0.182 C 
ATOM     20  C   UNL A   1      31.609  29.543  26.394  1.00  0.00     0.262 C 
ATOM     21  C   UNL A   1      33.258  27.818  25.968  1.00  0.00     0.203 C 
ATOM     22  H   UNL A   1      32.450  29.093  24.573  1.00  0.00     0.348 HD
ATOM     23  C   UNL A   1      32.687  30.514  26.873  1.00  0.00     0.062 C 
ATOM     24  C   UNL A   1      34.403  28.763  26.351  1.00  0.00     0.067 C 
ATOM     25  C   UNL A   1      33.925  29.783  27.380  1.00  0.00     0.012 C 
ENDBRANCH   8  14
ENDBRANCH   4   7
ENDBRANCH   2   3
ENDBRANCH   1   2
BRANCH   1  26
ATOM     26  C   UNL A   1      38.981  20.098  25.749  1.00  0.00     0.118 C 
BRANCH  26  27
ATOM     27  N   UNL A   1      40.043  19.106  25.833  1.00  0.00    -0.352 N 
ATOM     28  C   UNL A   1      41.396  19.271  25.992  1.00  0.00     0.251 C 
ATOM     29  H   UNL A   1      39.744  18.170  25.766  1.00  0.00     0.163 HD
ATOM     30  O   UNL A   1      42.148  18.320  25.805  1.00  0.00    -0.269 OA
BRANCH  28  31
ATOM     31  C   UNL A   1      41.956  20.584  26.382  1.00  0.00     0.039 A 
ATOM     32  C   UNL A   1      42.307  21.491  25.376  1.00  0.00     0.014 A 
ATOM     33  C   UNL A   1      42.183  20.905  27.723  1.00  0.00     0.014 A 
ATOM     34  C   UNL A   1      42.830  22.740  25.717  1.00  0.00     0.010 A 
ATOM     35  C   UNL A   1      42.643  22.174  28.064  1.00  0.00     0.010 A 
ATOM     36  C   UNL A   1      42.972  23.103  27.065  1.00  0.00    -0.014 A 
BRANCH  36  37
ATOM     37  C   UNL A   1      43.450  24.453  27.457  1.00  0.00     0.031 A 
ATOM     38  C   UNL A   1      42.472  25.508  27.888  1.00  0.00     0.074 A 
ATOM     39  C   UNL A   1      44.760  24.748  27.347  1.00  0.00     0.049 A 
ATOM     40  N   UNL A   1      42.684  26.771  28.160  1.00  0.00    -0.248 NA
ATOM     41  C   UNL A   1      41.064  25.097  28.001  1.00  0.00     0.031 C 
ATOM     42  C   UNL A   1      45.803  23.819  26.905  1.00  0.00     0.029 A 
ATOM     43  N   UNL A   1      45.436  25.919  27.580  1.00  0.00    -0.354 N 
ATOM     44  C   UNL A   1      41.438  27.307  28.460  1.00  0.00     0.074 A 
ATOM     45  C   UNL A   1      40.469  26.245  28.294  1.00  0.00     0.031 C 
ATOM     46  C   UNL A   1      46.986  24.453  26.913  1.00  0.00     0.029 A 
ATOM     47  C   UNL A   1      46.781  25.840  27.316  1.00  0.00     0.049 A 
ATOM     48  H   UNL A   1      44.998  26.739  27.906  1.00  0.00     0.167 HD
ATOM     49  C   UNL A   1      41.132  28.566  28.856  1.00  0.00     0.037 A 
ATOM     50  C   UNL A   1      47.740  26.784  27.376  1.00  0.00     0.037 A 
ATOM     51  C   UNL A   1      42.102  29.613  29.043  1.00  0.00     0.049 A 
ATOM     52  C   UNL A   1      47.372  28.177  27.800  1.00  0.00     0.074 A 
ATOM     53  C   UNL A   1      41.901  30.903  29.501  1.00  0.00     0.029 A 
ATOM     54  N   UNL A   1      43.458  29.490  28.777  1.00  0.00    -0.354 N 
ATOM     55  N   UNL A   1      46.200  28.655  28.139  1.00  0.00    -0.248 NA
ATOM     56  C   UNL A   1      48.460  29.164  27.849  1.00  0.00     0.031 C 
ATOM     57  C   UNL A   1      43.129  31.574  29.470  1.00  0.00     0.029 A 
ATOM     58  C   UNL A   1      44.102  30.688  29.037  1.00  0.00     0.049 A 
ATOM     59  H   UNL A   1      43.897  28.671  28.450  1.00  0.00     0.167 HD
ATOM     60  C   UNL A   1      46.411  29.989  28.464  1.00  0.00     0.074 A 
ATOM     61  C   UNL A   1      47.828  30.240  28.295  1.00  0.00     0.031 C 
ATOM     62  C   UNL A   1      45.514  30.920  28.867  1.00  0.00     0.037 A 
BRANCH  49  63
ATOM     63  C   UNL A   1      39.687  28.881  29.115  1.00  0.00     0.057 A 
ATOM     64  C   UNL A   1      39.125  28.767  30.394  1.00  0.00     0.134 A 
ATOM     65  C   UNL A   1      38.858  29.337  28.083  1.00  0.00     0.134 A 
ATOM     66  F   UNL A   1      39.862  28.326  31.424  1.00  0.00    -0.206 F 
ATOM     67  C   UNL A   1      37.783  29.071  30.631  1.00  0.00     0.040 A 
ATOM     68  C   UNL A   1      37.521  29.670  28.314  1.00  0.00     0.040 A 
ATOM     69  F   UNL A   1      39.334  29.476  26.836  1.00  0.00    -0.206 F 
ATOM     70  C   UNL A   1      36.979  29.531  29.590  1.00  0.00     0.006 A 
ENDBRANCH  49  63
BRANCH  50  71
ATOM     71  C   UNL A   1      49.143  26.438  27.036  1.00  0.00     0.057 A 
ATOM     72  C   UNL A   1      49.599  26.501  25.714  1.00  0.00     0.134 A 
ATOM     73  C   UNL A   1      50.058  26.040  28.016  1.00  0.00     0.134 A 
ATOM     74  F   UNL A   1      48.762  26.858  24.728  1.00  0.00    -0.206 F 
ATOM     75  C   UNL A   1      50.910  26.164  25.376  1.00  0.00     0.040 A 
ATOM     76  C   UNL A   1      51.380  25.724  27.697  1.00  0.00     0.040 A 
ATOM     77  F   UNL A   1      49.686  25.968  29.303  1.00  0.00    -0.206 F 
ATOM     78  C   UNL A   1      51.807  25.779  26.371  1.00  0.00     0.006 A 
ENDBRANCH  50  71
BRANCH  62  79
ATOM     79  C   UNL A   1      46.038  32.290  29.180  1.00  0.00     0.057 A 
ATOM     80  C   UNL A   1      46.083  33.301  28.211  1.00  0.00     0.134 A 
ATOM     81  C   UNL A   1      46.460  32.614  30.475  1.00  0.00     0.134 A 
ATOM     82  F   UNL A   1      45.707  33.050  26.948  1.00  0.00    -0.206 F 
ATOM     83  C   UNL A   1      46.543  34.582  28.518  1.00  0.00     0.040 A 
ATOM     84  C   UNL A   1      46.898  33.897  30.800  1.00  0.00     0.040 A 
ATOM     85  F   UNL A   1      46.435  31.692  31.450  1.00  0.00    -0.206 F 
ATOM     86  C   UNL A   1      46.945  34.885  29.818  1.00  0.00     0.006 A 
ENDBRANCH  62  79
ENDBRANCH  36  37
ENDBRANCH  28  31
ENDBRANCH  26  27
ENDBRANCH   1  26
TORSDOF 11
ENDMDL
MODEL 3
REMARK VINA RESULT:     -12.8      1.144      6.218
REMARK SMILES C[C@H]1C[N@H+]2CCCC[C@@H]2CN1c1ccc(C(=O)NCCCNC(=O)c2ccc(-c3c4nc(c(-c5c(F)cccc5F)c5ccc([nH]5)c(-c5c(F)cccc5F)c5nc(c(-c6c(F)cccc6F)c6ccc3[nH]6)C=C5)C=C4)cc2)cc1Cl
REMARK SMILES IDX 20 1 19 2 18 3 16 4 17 5 15 7 12 8 13 9 80 10 14 11 79 12
REMARK SMILES IDX 81 13 11 14 1 15 2 16 3 17 4 18 10 19 5 20 9 21 6 23 8 24
REMARK SMILES IDX 7 25 21 26 22 27 23 28 24 30 25 31 26 32 78 33 27 34 77 35
REMARK SMILES IDX 28 36 29 37 30 38 71 39 31 40 76 41 70 42 72 43 32 44 75 45
REMARK SMILES IDX 69 46 68 47 33 49 59 50 42 51 58 52 43 53 46 54 57 55 73 56
REMARK SMILES IDX 44 57 45 58 56 60 74 61 47 62 34 63 35 64 40 65 36 66 37 67
REMARK SMILES IDX 39 68 41 69 38 70 60 71 61 72 66 73 62 74 63 75 65 76 67 77
REMARK SMILES IDX 64 78 48 79 49 80 54 81 50 82 51 83 53 84 55 85 52 86
REMARK H PARENT 18 6 4 22 22 29 72 48 46 59
REMARK Flexibility Score: inf
ROOT
ATOM      1  C   UNL A   1      37.630  19.386  24.960  1.00  0.00     0.042 C 
ENDROOT
BRANCH   1   2
ATOM      2  C   UNL A   1      36.359  20.238  24.970  1.00  0.00     0.118 C 
BRANCH   2   3
ATOM      3  N   UNL A   1      35.166  19.411  24.901  1.00  0.00    -0.352 N 
ATOM      4  C   UNL A   1      33.832  19.719  24.812  1.00  0.00     0.251 C 
ATOM      5  O   UNL A   1      33.040  18.786  24.678  1.00  0.00    -0.269 OA
ATOM      6  H   UNL A   1      35.351  18.445  24.923  1.00  0.00     0.163 HD
BRANCH   4   7
ATOM      7  C   UNL A   1      33.306  21.111  24.844  1.00  0.00     0.041 A 
ATOM      8  C   UNL A   1      32.349  23.779  25.072  1.00  0.00     0.056 A 
ATOM      9  C   UNL A   1      32.393  22.932  26.185  1.00  0.00     0.028 A 
ATOM     10  C   UNL A   1      32.794  23.258  23.843  1.00  0.00     0.065 A 
ATOM     11  C   UNL A   1      32.862  21.615  26.074  1.00  0.00     0.016 A 
ATOM     12  C   UNL A   1      33.294  21.959  23.740  1.00  0.00     0.036 A 
ATOM     13  Cl  UNL A   1      32.813  24.213  22.395  1.00  0.00    -0.082 Cl
BRANCH   8  14
ATOM     14  N   UNL A   1      31.936  25.090  25.195  1.00  0.00    -0.356 N 
ATOM     15  C   UNL A   1      34.255  25.892  25.669  1.00  0.00     0.037 C 
ATOM     16  C   UNL A   1      32.747  26.151  25.816  1.00  0.00     0.134 C 
ATOM     17  C   UNL A   1      32.447  27.532  25.137  1.00  0.00     0.287 C 
ATOM     18  N   UNL A   1      31.036  27.843  24.786  1.00  0.00    -0.329 N 
ATOM     19  C   UNL A   1      30.519  25.397  24.984  1.00  0.00     0.182 C 
ATOM     20  C   UNL A   1      31.011  29.010  23.885  1.00  0.00     0.262 C 
ATOM     21  C   UNL A   1      30.413  26.672  24.117  1.00  0.00     0.203 C 
ATOM     22  H   UNL A   1      30.511  28.054  25.634  1.00  0.00     0.348 HD
ATOM     23  C   UNL A   1      29.593  29.373  23.448  1.00  0.00     0.062 C 
ATOM     24  C   UNL A   1      28.949  26.972  23.770  1.00  0.00     0.067 C 
ATOM     25  C   UNL A   1      28.862  28.180  22.843  1.00  0.00     0.012 C 
ENDBRANCH   8  14
ENDBRANCH   4   7
ENDBRANCH   2   3
ENDBRANCH   1   2
BRANCH   1  26
ATOM     26  C   UNL A   1      38.847  20.110  25.530  1.00  0.00     0.118 C 
BRANCH  26  27
ATOM     27  N   UNL A   1      39.966  19.203  25.741  1.00  0.00    -0.352 N 
ATOM     28  C   UNL A   1      41.265  19.468  26.094  1.00  0.00     0.251 C 
ATOM     29  H   UNL A   1      39.757  18.249  25.612  1.00  0.00     0.163 HD
ATOM     30  O   UNL A   1      42.112  18.586  25.994  1.00  0.00    -0.269 OA
BRANCH  28  31
ATOM     31  C   UNL A   1      41.655  20.807  26.588  1.00  0.00     0.039 A 
ATOM     32  C   UNL A   1      42.212  21.721  25.686  1.00  0.00     0.014 A 
ATOM     33  C   UNL A   1      41.521  21.149  27.936  1.00  0.00     0.014 A 
ATOM     34  C   UNL A   1      42.581  22.994  26.125  1.00  0.00     0.010 A 
ATOM     35  C   UNL A   1      41.828  22.440  28.358  1.00  0.00     0.010 A 
ATOM     36  C   UNL A   1      42.361  23.374  27.458  1.00  0.00    -0.014 A 
BRANCH  36  37
ATOM     37  C   UNL A   1      42.671  24.746  27.932  1.00  0.00     0.031 A 
ATOM     38  C   UNL A   1      44.073  25.113  28.327  1.00  0.00     0.074 A 
ATOM     39  C   UNL A   1      41.671  25.637  28.080  1.00  0.00     0.049 A 
ATOM     40  N   UNL A   1      44.518  26.220  28.865  1.00  0.00    -0.248 NA
ATOM     41  C   UNL A   1      45.109  24.090  28.113  1.00  0.00     0.031 C 
ATOM     42  C   UNL A   1      40.263  25.388  27.766  1.00  0.00     0.029 A 
ATOM     43  N   UNL A   1      41.683  26.925  28.551  1.00  0.00    -0.354 N 
ATOM     44  C   UNL A   1      45.878  26.020  29.069  1.00  0.00     0.074 A 
ATOM     45  C   UNL A   1      46.177  24.672  28.638  1.00  0.00     0.031 C 
ATOM     46  C   UNL A   1      39.550  26.492  28.040  1.00  0.00     0.029 A 
ATOM     47  C   UNL A   1      40.441  27.509  28.589  1.00  0.00     0.049 A 
ATOM     48  H   UNL A   1      42.504  27.388  28.836  1.00  0.00     0.167 HD
ATOM     49  C   UNL A   1      46.796  26.890  29.556  1.00  0.00     0.037 A 
ATOM     50  C   UNL A   1      40.058  28.722  29.032  1.00  0.00     0.037 A 
ATOM     51  C   UNL A   1      46.498  28.239  29.961  1.00  0.00     0.049 A 
ATOM     52  C   UNL A   1      41.093  29.661  29.585  1.00  0.00     0.074 A 
ATOM     53  C   UNL A   1      47.369  29.217  30.407  1.00  0.00     0.029 A 
ATOM     54  N   UNL A   1      45.228  28.797  29.972  1.00  0.00    -0.354 N 
ATOM     55  N   UNL A   1      42.385  29.482  29.715  1.00  0.00    -0.248 NA
ATOM     56  C   UNL A   1      40.618  30.971  30.051  1.00  0.00     0.031 C 
ATOM     57  C   UNL A   1      46.620  30.354  30.731  1.00  0.00     0.029 A 
ATOM     58  C   UNL A   1      45.289  30.099  30.442  1.00  0.00     0.049 A 
ATOM     59  H   UNL A   1      44.406  28.336  29.689  1.00  0.00     0.167 HD
ATOM     60  C   UNL A   1      42.881  30.661  30.256  1.00  0.00     0.074 A 
ATOM     61  C   UNL A   1      41.751  31.554  30.415  1.00  0.00     0.031 C 
ATOM     62  C   UNL A   1      44.155  30.976  30.589  1.00  0.00     0.037 A 
BRANCH  49  63
ATOM     63  C   UNL A   1      48.214  26.409  29.675  1.00  0.00     0.057 A 
ATOM     64  C   UNL A   1      49.145  26.594  28.644  1.00  0.00     0.134 A 
ATOM     65  C   UNL A   1      48.662  25.786  30.846  1.00  0.00     0.134 A 
ATOM     66  F   UNL A   1      48.779  27.174  27.492  1.00  0.00    -0.206 F 
ATOM     67  C   UNL A   1      50.464  26.153  28.765  1.00  0.00     0.040 A 
ATOM     68  C   UNL A   1      49.985  25.364  30.988  1.00  0.00     0.040 A 
ATOM     69  F   UNL A   1      47.824  25.583  31.874  1.00  0.00    -0.206 F 
ATOM     70  C   UNL A   1      50.889  25.543  29.943  1.00  0.00     0.006 A 
ENDBRANCH  49  63
BRANCH  50  71
ATOM     71  C   UNL A   1      38.631  29.121  28.962  1.00  0.00     0.057 A 
ATOM     72  C   UNL A   1      38.085  29.636  27.780  1.00  0.00     0.134 A 
ATOM     73  C   UNL A   1      37.780  28.999  30.066  1.00  0.00     0.134 A 
ATOM     74  F   UNL A   1      38.856  29.794  26.694  1.00  0.00    -0.206 F 
ATOM     75  C   UNL A   1      36.749  30.031  27.703  1.00  0.00     0.040 A 
ATOM     76  C   UNL A   1      36.434  29.366  29.996  1.00  0.00     0.040 A 
ATOM     77  F   UNL A   1      38.240  28.504  31.225  1.00  0.00    -0.206 F 
ATOM     78  C   UNL A   1      35.918  29.891  28.813  1.00  0.00     0.006 A 
ENDBRANCH  50  71
BRANCH  62  79
ATOM     79  C   UNL A   1      44.403  32.351  31.134  1.00  0.00     0.057 A 
ATOM     80  C   UNL A   1      44.624  33.449  30.291  1.00  0.00     0.134 A 
ATOM     81  C   UNL A   1      44.374  32.588  32.513  1.00  0.00     0.134 A 
ATOM     82  F   UNL A   1      44.679  33.285  28.961  1.00  0.00    -0.206 F 
ATOM     83  C   UNL A   1      44.823  34.731  30.805  1.00  0.00     0.040 A 
ATOM     84  C   UNL A   1      44.546  33.869  33.037  1.00  0.00     0.040 A 
ATOM     85  F   UNL A   1      44.160  31.581  33.373  1.00  0.00    -0.206 F 
ATOM     86  C   UNL A   1      44.776  34.945  32.182  1.00  0.00     0.006 A 
ENDBRANCH  62  79
ENDBRANCH  36  37
ENDBRANCH  28  31
ENDBRANCH  26  27
ENDBRANCH   1  26
TORSDOF 11
ENDMDL
