MODEL 1
REMARK VINA RESULT:      -9.8      0.000      0.000
REMARK SMILES COc1cc(C)cc2c1O[C@H](C(F)(F)F)C(C(=O)NCCCNC(=O)c1ccc(-c3c4nc(c(-c5c(F)cccc5F)c5ccc([nH]5)c(-c5c(F)cccc5F)c5nc(c(-c6c(F)cccc6F)c6ccc3[nH]6)C=C5)C=C4)cc1)=C2
REMARK SMILES IDX 21 1 20 2 19 3 17 4 18 5 16 7 3 8 4 9 9 10 5 11 8 12 10 13
REMARK SMILES IDX 6 14 7 15 80 16 11 17 2 18 1 19 12 20 13 21 14 22 15 23
REMARK SMILES IDX 22 24 23 25 24 26 25 28 26 29 27 30 79 31 28 32 78 33 29 34
REMARK SMILES IDX 30 35 31 36 72 37 32 38 77 39 71 40 73 41 33 42 76 43 70 44
REMARK SMILES IDX 69 45 34 47 60 48 43 49 59 50 44 51 47 52 58 53 74 54 45 55
REMARK SMILES IDX 46 56 57 58 75 59 48 60 35 61 36 62 41 63 37 64 38 65 40 66
REMARK SMILES IDX 42 67 39 68 61 69 62 70 67 71 63 72 64 73 66 74 68 75 65 76
REMARK SMILES IDX 49 77 50 78 55 79 51 80 52 81 54 82 56 83 53 84
REMARK H PARENT 19 6 23 27 73 46 47 57
REMARK Flexibility Score: inf
ROOT
ATOM      1  C   UNL A   1      45.403  20.624  25.712  1.00  0.00     0.042 C 
ENDROOT
BRANCH   1   2
ATOM      2  C   UNL A   1      45.678  22.095  25.991  1.00  0.00     0.118 C 
BRANCH   2   3
ATOM      3  N   UNL A   1      46.421  22.720  24.906  1.00  0.00    -0.352 N 
ATOM      4  C   UNL A   1      46.693  23.974  24.477  1.00  0.00     0.251 C 
ATOM      5  O   UNL A   1      47.373  24.033  23.447  1.00  0.00    -0.270 OA
ATOM      6  H   UNL A   1      46.841  22.045  24.325  1.00  0.00     0.163 HD
BRANCH   4   7
ATOM      7  C   UNL A   1      46.244  25.232  25.140  1.00  0.00     0.067 C 
ATOM      8  C   UNL A   1      44.773  28.627  27.115  1.00  0.00     0.161 A 
ATOM      9  C   UNL A   1      43.486  29.090  26.834  1.00  0.00     0.054 A 
ATOM     10  C   UNL A   1      45.245  27.460  26.512  1.00  0.00     0.169 A 
ATOM     11  C   UNL A   1      42.647  28.360  25.982  1.00  0.00    -0.047 A 
ATOM     12  C   UNL A   1      44.420  26.725  25.660  1.00  0.00     0.021 A 
ATOM     13  O   UNL A   1      46.509  27.037  26.827  1.00  0.00    -0.471 OA
ATOM     14  C   UNL A   1      41.259  28.842  25.671  1.00  0.00     0.044 C 
ATOM     15  C   UNL A   1      43.119  27.172  25.403  1.00  0.00     0.015 A 
ATOM     16  C   UNL A   1      44.925  25.490  25.068  1.00  0.00     0.025 C 
ATOM     17  C   UNL A   1      47.158  26.207  25.828  1.00  0.00     0.314 C 
BRANCH   8  18
ATOM     18  O   UNL A   1      45.630  29.349  27.904  1.00  0.00    -0.493 OA
ATOM     19  C   UNL A   1      45.235  30.716  27.996  1.00  0.00     0.278 C 
ENDBRANCH   8  18
BRANCH  17  20
ATOM     20  C   UNL A   1      47.939  27.099  24.842  1.00  0.00     0.429 C 
ATOM     21  F   UNL A   1      48.358  28.232  25.458  1.00  0.00    -0.167 F 
ATOM     22  F   UNL A   1      49.054  26.488  24.370  1.00  0.00    -0.167 F 
ATOM     23  F   UNL A   1      47.211  27.462  23.765  1.00  0.00    -0.167 F 
ENDBRANCH  17  20
ENDBRANCH   4   7
ENDBRANCH   2   3
ENDBRANCH   1   2
BRANCH   1  24
ATOM     24  C   UNL A   1      44.514  20.421  24.490  1.00  0.00     0.118 C 
BRANCH  24  25
ATOM     25  N   UNL A   1      43.340  19.604  24.790  1.00  0.00    -0.352 N 
ATOM     26  C   UNL A   1      42.334  19.799  25.706  1.00  0.00     0.251 C 
ATOM     27  H   UNL A   1      43.257  18.783  24.251  1.00  0.00     0.163 HD
ATOM     28  O   UNL A   1      41.549  18.892  25.964  1.00  0.00    -0.269 OA
BRANCH  26  29
ATOM     29  C   UNL A   1      42.219  21.096  26.402  1.00  0.00     0.039 A 
ATOM     30  C   UNL A   1      42.124  22.279  25.669  1.00  0.00     0.014 A 
ATOM     31  C   UNL A   1      42.234  21.130  27.798  1.00  0.00     0.014 A 
ATOM     32  C   UNL A   1      42.258  23.500  26.318  1.00  0.00     0.010 A 
ATOM     33  C   UNL A   1      42.269  22.362  28.455  1.00  0.00     0.010 A 
ATOM     34  C   UNL A   1      42.345  23.555  27.717  1.00  0.00    -0.014 A 
BRANCH  34  35
ATOM     35  C   UNL A   1      42.564  24.861  28.389  1.00  0.00     0.031 A 
ATOM     36  C   UNL A   1      43.924  25.213  28.933  1.00  0.00     0.074 A 
ATOM     37  C   UNL A   1      41.554  25.748  28.470  1.00  0.00     0.049 A 
ATOM     38  N   UNL A   1      44.292  26.266  29.619  1.00  0.00    -0.248 NA
ATOM     39  C   UNL A   1      45.012  24.256  28.677  1.00  0.00     0.031 C 
ATOM     40  C   UNL A   1      40.201  25.539  27.952  1.00  0.00     0.029 A 
ATOM     41  N   UNL A   1      41.512  27.009  29.007  1.00  0.00    -0.354 N 
ATOM     42  C   UNL A   1      45.638  26.077  29.911  1.00  0.00     0.074 A 
ATOM     43  C   UNL A   1      46.022  24.806  29.338  1.00  0.00     0.031 C 
ATOM     44  C   UNL A   1      39.472  26.644  28.166  1.00  0.00     0.029 A 
ATOM     45  C   UNL A   1      40.281  27.608  28.900  1.00  0.00     0.049 A 
ATOM     46  H   UNL A   1      42.289  27.443  29.429  1.00  0.00     0.167 HD
ATOM     47  C   UNL A   1      46.477  26.894  30.593  1.00  0.00     0.037 A 
ATOM     48  C   UNL A   1      39.841  28.788  29.376  1.00  0.00     0.037 A 
ATOM     49  C   UNL A   1      46.102  28.178  31.122  1.00  0.00     0.049 A 
ATOM     50  C   UNL A   1      40.781  29.655  30.161  1.00  0.00     0.074 A 
ATOM     51  C   UNL A   1      46.888  29.095  31.800  1.00  0.00     0.029 A 
ATOM     52  N   UNL A   1      44.835  28.731  31.023  1.00  0.00    -0.354 N 
ATOM     53  N   UNL A   1      42.046  29.457  30.442  1.00  0.00    -0.248 NA
ATOM     54  C   UNL A   1      40.230  30.900  30.711  1.00  0.00     0.031 C 
ATOM     55  C   UNL A   1      46.086  30.189  32.142  1.00  0.00     0.029 A 
ATOM     56  C   UNL A   1      44.811  29.969  31.645  1.00  0.00     0.049 A 
ATOM     57  H   UNL A   1      44.067  28.308  30.578  1.00  0.00     0.167 HD
ATOM     58  C   UNL A   1      42.445  30.556  31.190  1.00  0.00     0.074 A 
ATOM     59  C   UNL A   1      41.292  31.426  31.303  1.00  0.00     0.031 C 
ATOM     60  C   UNL A   1      43.655  30.820  31.738  1.00  0.00     0.037 A 
BRANCH  47  61
ATOM     61  C   UNL A   1      47.879  26.416  30.826  1.00  0.00     0.057 A 
ATOM     62  C   UNL A   1      48.192  25.676  31.974  1.00  0.00     0.134 A 
ATOM     63  C   UNL A   1      48.926  26.723  29.949  1.00  0.00     0.134 A 
ATOM     64  F   UNL A   1      47.237  25.352  32.858  1.00  0.00    -0.206 F 
ATOM     65  C   UNL A   1      49.499  25.264  32.244  1.00  0.00     0.040 A 
ATOM     66  C   UNL A   1      50.234  26.299  30.197  1.00  0.00     0.040 A 
ATOM     67  F   UNL A   1      48.690  27.416  28.825  1.00  0.00    -0.206 F 
ATOM     68  C   UNL A   1      50.524  25.572  31.351  1.00  0.00     0.006 A 
ENDBRANCH  47  61
BRANCH  48  69
ATOM     69  C   UNL A   1      38.432  29.195  29.159  1.00  0.00     0.057 A 
ATOM     70  C   UNL A   1      38.000  29.682  27.918  1.00  0.00     0.134 A 
ATOM     71  C   UNL A   1      37.482  29.101  30.182  1.00  0.00     0.134 A 
ATOM     72  F   UNL A   1      38.863  29.800  26.899  1.00  0.00    -0.206 F 
ATOM     73  C   UNL A   1      36.677  30.072  27.706  1.00  0.00     0.040 A 
ATOM     74  C   UNL A   1      36.150  29.463  29.976  1.00  0.00     0.040 A 
ATOM     75  F   UNL A   1      37.833  28.624  31.385  1.00  0.00    -0.206 F 
ATOM     76  C   UNL A   1      35.746  29.956  28.736  1.00  0.00     0.006 A 
ENDBRANCH  48  69
BRANCH  60  77
ATOM     77  C   UNL A   1      43.797  32.113  32.481  1.00  0.00     0.057 A 
ATOM     78  C   UNL A   1      43.527  32.180  33.853  1.00  0.00     0.134 A 
ATOM     79  C   UNL A   1      44.165  33.296  31.830  1.00  0.00     0.134 A 
ATOM     80  F   UNL A   1      43.164  31.081  34.530  1.00  0.00    -0.206 F 
ATOM     81  C   UNL A   1      43.614  33.383  34.553  1.00  0.00     0.040 A 
ATOM     82  C   UNL A   1      44.276  34.502  32.524  1.00  0.00     0.040 A 
ATOM     83  F   UNL A   1      44.452  33.291  30.519  1.00  0.00    -0.206 F 
ATOM     84  C   UNL A   1      43.994  34.548  33.889  1.00  0.00     0.006 A 
ENDBRANCH  60  77
ENDBRANCH  34  35
ENDBRANCH  26  29
ENDBRANCH  24  25
ENDBRANCH   1  24
TORSDOF 12
ENDMDL
MODEL 2
REMARK VINA RESULT:      -9.7      5.721     11.577
REMARK SMILES COc1cc(C)cc2c1O[C@H](C(F)(F)F)C(C(=O)NCCCNC(=O)c1ccc(-c3c4nc(c(-c5c(F)cccc5F)c5ccc([nH]5)c(-c5c(F)cccc5F)c5nc(c(-c6c(F)cccc6F)c6ccc3[nH]6)C=C5)C=C4)cc1)=C2
REMARK SMILES IDX 21 1 20 2 19 3 17 4 18 5 16 7 3 8 4 9 9 10 5 11 8 12 10 13
REMARK SMILES IDX 6 14 7 15 80 16 11 17 2 18 1 19 12 20 13 21 14 22 15 23
REMARK SMILES IDX 22 24 23 25 24 26 25 28 26 29 27 30 79 31 28 32 78 33 29 34
REMARK SMILES IDX 30 35 31 36 72 37 32 38 77 39 71 40 73 41 33 42 76 43 70 44
REMARK SMILES IDX 69 45 34 47 60 48 43 49 59 50 44 51 47 52 58 53 74 54 45 55
REMARK SMILES IDX 46 56 57 58 75 59 48 60 35 61 36 62 41 63 37 64 38 65 40 66
REMARK SMILES IDX 42 67 39 68 61 69 62 70 67 71 63 72 64 73 66 74 68 75 65 76
REMARK SMILES IDX 49 77 50 78 55 79 51 80 52 81 54 82 56 83 53 84
REMARK H PARENT 19 6 23 27 73 46 47 57
REMARK Flexibility Score: inf
ROOT
ATOM      1  C   UNL A   1      31.526  32.100  26.716  1.00  0.00     0.042 C 
ENDROOT
BRANCH   1   2
ATOM      2  C   UNL A   1      31.735  30.595  26.622  1.00  0.00     0.118 C 
BRANCH   2   3
ATOM      3  N   UNL A   1      32.345  30.213  25.357  1.00  0.00    -0.352 N 
ATOM      4  C   UNL A   1      32.696  29.069  24.725  1.00  0.00     0.251 C 
ATOM      5  O   UNL A   1      33.236  29.230  23.626  1.00  0.00    -0.270 OA
ATOM      6  H   UNL A   1      32.561  31.003  24.811  1.00  0.00     0.163 HD
BRANCH   4   7
ATOM      7  C   UNL A   1      32.482  27.689  25.249  1.00  0.00     0.067 C 
ATOM      8  C   UNL A   1      32.102  23.845  26.882  1.00  0.00     0.161 A 
ATOM      9  C   UNL A   1      33.135  22.918  26.723  1.00  0.00     0.054 A 
ATOM     10  C   UNL A   1      32.249  25.147  26.400  1.00  0.00     0.169 A 
ATOM     11  C   UNL A   1      34.339  23.304  26.120  1.00  0.00    -0.047 A 
ATOM     12  C   UNL A   1      33.442  25.543  25.795  1.00  0.00     0.021 A 
ATOM     13  O   UNL A   1      31.215  26.025  26.589  1.00  0.00    -0.471 OA
ATOM     14  C   UNL A   1      35.460  22.322  25.944  1.00  0.00     0.044 C 
ATOM     15  C   UNL A   1      34.488  24.623  25.665  1.00  0.00     0.015 A 
ATOM     16  C   UNL A   1      33.583  26.919  25.330  1.00  0.00     0.025 C 
ATOM     17  C   UNL A   1      31.146  27.124  25.644  1.00  0.00     0.314 C 
BRANCH   8  18
ATOM     18  O   UNL A   1      30.896  23.478  27.422  1.00  0.00    -0.493 OA
ATOM     19  C   UNL A   1      30.142  22.669  26.523  1.00  0.00     0.278 C 
ENDBRANCH   8  18
BRANCH  17  20
ATOM     20  C   UNL A   1      30.286  26.713  24.432  1.00  0.00     0.429 C 
ATOM     21  F   UNL A   1      31.065  26.184  23.456  1.00  0.00    -0.167 F 
ATOM     22  F   UNL A   1      29.376  25.759  24.749  1.00  0.00    -0.167 F 
ATOM     23  F   UNL A   1      29.597  27.742  23.896  1.00  0.00    -0.167 F 
ENDBRANCH  17  20
ENDBRANCH   4   7
ENDBRANCH   2   3
ENDBRANCH   1   2
BRANCH   1  24
ATOM     24  C   UNL A   1      32.740  32.820  27.292  1.00  0.00     0.118 C 
BRANCH  24  25
ATOM     25  N   UNL A   1      32.455  34.218  27.610  1.00  0.00    -0.352 N 
ATOM     26  C   UNL A   1      32.985  35.032  28.583  1.00  0.00     0.251 C 
ATOM     27  H   UNL A   1      31.775  34.643  27.039  1.00  0.00     0.163 HD
ATOM     28  O   UNL A   1      32.462  36.113  28.836  1.00  0.00    -0.269 OA
BRANCH  26  29
ATOM     29  C   UNL A   1      34.170  34.589  29.343  1.00  0.00     0.039 A 
ATOM     30  C   UNL A   1      35.442  34.684  28.779  1.00  0.00     0.014 A 
ATOM     31  C   UNL A   1      34.004  34.046  30.620  1.00  0.00     0.014 A 
ATOM     32  C   UNL A   1      36.514  34.051  29.395  1.00  0.00     0.010 A 
ATOM     33  C   UNL A   1      35.103  33.496  31.282  1.00  0.00     0.010 A 
ATOM     34  C   UNL A   1      36.354  33.439  30.646  1.00  0.00    -0.014 A 
BRANCH  34  35
ATOM     35  C   UNL A   1      37.491  32.700  31.253  1.00  0.00     0.031 A 
ATOM     36  C   UNL A   1      38.034  33.118  32.595  1.00  0.00     0.074 A 
ATOM     37  C   UNL A   1      38.004  31.627  30.622  1.00  0.00     0.049 A 
ATOM     38  N   UNL A   1      39.067  32.651  33.250  1.00  0.00    -0.248 NA
ATOM     39  C   UNL A   1      37.328  34.206  33.291  1.00  0.00     0.031 C 
ATOM     40  C   UNL A   1      37.543  31.103  29.334  1.00  0.00     0.029 A 
ATOM     41  N   UNL A   1      39.018  30.778  30.982  1.00  0.00    -0.354 N 
ATOM     42  C   UNL A   1      39.159  33.413  34.408  1.00  0.00     0.074 A 
ATOM     43  C   UNL A   1      38.084  34.380  34.366  1.00  0.00     0.031 C 
ATOM     44  C   UNL A   1      38.248  30.004  29.029  1.00  0.00     0.029 A 
ATOM     45  C   UNL A   1      39.258  29.789  30.059  1.00  0.00     0.049 A 
ATOM     46  H   UNL A   1      39.526  30.867  31.821  1.00  0.00     0.167 HD
ATOM     47  C   UNL A   1      40.057  33.311  35.417  1.00  0.00     0.037 A 
ATOM     48  C   UNL A   1      40.209  28.839  30.026  1.00  0.00     0.037 A 
ATOM     49  C   UNL A   1      41.097  32.318  35.478  1.00  0.00     0.049 A 
ATOM     50  C   UNL A   1      41.215  28.773  31.138  1.00  0.00     0.074 A 
ATOM     51  C   UNL A   1      42.036  32.112  36.473  1.00  0.00     0.029 A 
ATOM     52  N   UNL A   1      41.327  31.359  34.504  1.00  0.00    -0.354 N 
ATOM     53  N   UNL A   1      41.299  29.509  32.219  1.00  0.00    -0.248 NA
ATOM     54  C   UNL A   1      42.271  27.759  31.017  1.00  0.00     0.031 C 
ATOM     55  C   UNL A   1      42.858  31.049  36.085  1.00  0.00     0.029 A 
ATOM     56  C   UNL A   1      42.406  30.570  34.866  1.00  0.00     0.049 A 
ATOM     57  H   UNL A   1      40.801  31.254  33.679  1.00  0.00     0.167 HD
ATOM     58  C   UNL A   1      42.405  29.040  32.913  1.00  0.00     0.074 A 
ATOM     59  C   UNL A   1      42.951  27.944  32.140  1.00  0.00     0.031 C 
ATOM     60  C   UNL A   1      42.926  29.480  34.084  1.00  0.00     0.037 A 
BRANCH  47  61
ATOM     61  C   UNL A   1      39.971  34.312  36.532  1.00  0.00     0.057 A 
ATOM     62  C   UNL A   1      39.175  34.052  37.655  1.00  0.00     0.134 A 
ATOM     63  C   UNL A   1      40.630  35.545  36.477  1.00  0.00     0.134 A 
ATOM     64  F   UNL A   1      38.513  32.891  37.768  1.00  0.00    -0.206 F 
ATOM     65  C   UNL A   1      39.033  34.988  38.683  1.00  0.00     0.040 A 
ATOM     66  C   UNL A   1      40.513  36.481  37.508  1.00  0.00     0.040 A 
ATOM     67  F   UNL A   1      41.418  35.849  35.435  1.00  0.00    -0.206 F 
ATOM     68  C   UNL A   1      39.707  36.205  38.612  1.00  0.00     0.006 A 
ENDBRANCH  47  61
BRANCH  48  69
ATOM     69  C   UNL A   1      40.282  27.902  28.878  1.00  0.00     0.057 A 
ATOM     70  C   UNL A   1      39.589  26.684  28.891  1.00  0.00     0.134 A 
ATOM     71  C   UNL A   1      41.038  28.202  27.741  1.00  0.00     0.134 A 
ATOM     72  F   UNL A   1      38.850  26.336  29.955  1.00  0.00    -0.206 F 
ATOM     73  C   UNL A   1      39.655  25.794  27.819  1.00  0.00     0.040 A 
ATOM     74  C   UNL A   1      41.092  27.333  26.650  1.00  0.00     0.040 A 
ATOM     75  F   UNL A   1      41.707  29.362  27.663  1.00  0.00    -0.206 F 
ATOM     76  C   UNL A   1      40.403  26.122  26.690  1.00  0.00     0.006 A 
ENDBRANCH  48  69
BRANCH  60  77
ATOM     77  C   UNL A   1      44.127  28.754  34.608  1.00  0.00     0.057 A 
ATOM     78  C   UNL A   1      43.979  27.645  35.449  1.00  0.00     0.134 A 
ATOM     79  C   UNL A   1      45.428  29.176  34.307  1.00  0.00     0.134 A 
ATOM     80  F   UNL A   1      42.757  27.198  35.777  1.00  0.00    -0.206 F 
ATOM     81  C   UNL A   1      45.085  26.981  35.978  1.00  0.00     0.040 A 
ATOM     82  C   UNL A   1      46.542  28.507  34.814  1.00  0.00     0.040 A 
ATOM     83  F   UNL A   1      45.632  30.222  33.493  1.00  0.00    -0.206 F 
ATOM     84  C   UNL A   1      46.371  27.409  35.657  1.00  0.00     0.006 A 
ENDBRANCH  60  77
ENDBRANCH  34  35
ENDBRANCH  26  29
ENDBRANCH  24  25
ENDBRANCH   1  24
TORSDOF 12
ENDMDL
MODEL 3
REMARK VINA RESULT:      -9.7      4.440      7.147
REMARK SMILES COc1cc(C)cc2c1O[C@H](C(F)(F)F)C(C(=O)NCCCNC(=O)c1ccc(-c3c4nc(c(-c5c(F)cccc5F)c5ccc([nH]5)c(-c5c(F)cccc5F)c5nc(c(-c6c(F)cccc6F)c6ccc3[nH]6)C=C5)C=C4)cc1)=C2
REMARK SMILES IDX 21 1 20 2 19 3 17 4 18 5 16 7 3 8 4 9 9 10 5 11 8 12 10 13
REMARK SMILES IDX 6 14 7 15 80 16 11 17 2 18 1 19 12 20 13 21 14 22 15 23
REMARK SMILES IDX 22 24 23 25 24 26 25 28 26 29 27 30 79 31 28 32 78 33 29 34
REMARK SMILES IDX 30 35 31 36 72 37 32 38 77 39 71 40 73 41 33 42 76 43 70 44
REMARK SMILES IDX 69 45 34 47 60 48 43 49 59 50 44 51 47 52 58 53 74 54 45 55
REMARK SMILES IDX 46 56 57 58 75 59 48 60 35 61 36 62 41 63 37 64 38 65 40 66
REMARK SMILES IDX 42 67 39 68 61 69 62 70 67 71 63 72 64 73 66 74 68 75 65 76
REMARK SMILES IDX 49 77 50 78 55 79 51 80 52 81 54 82 56 83 53 84
REMARK H PARENT 19 6 23 27 73 46 47 57
REMARK Flexibility Score: inf
ROOT
ATOM      1  C   UNL A   1      38.115  19.654  25.050  1.00  0.00     0.042 C 
ENDROOT
BRANCH   1   2
ATOM      2  C   UNL A   1      37.193  20.823  24.730  1.00  0.00     0.118 C 
BRANCH   2   3
ATOM      3  N   UNL A   1      36.153  20.979  25.737  1.00  0.00    -0.352 N 
ATOM      4  C   UNL A   1      35.109  21.808  25.971  1.00  0.00     0.251 C 
ATOM      5  O   UNL A   1      34.486  21.574  27.011  1.00  0.00    -0.270 OA
ATOM      6  H   UNL A   1      36.230  20.295  26.440  1.00  0.00     0.163 HD
BRANCH   4   7
ATOM      7  C   UNL A   1      34.683  22.934  25.090  1.00  0.00     0.067 C 
ATOM      8  C   UNL A   1      33.689  26.252  22.725  1.00  0.00     0.161 A 
ATOM      9  C   UNL A   1      33.310  27.450  23.335  1.00  0.00     0.054 A 
ATOM     10  C   UNL A   1      34.086  25.164  23.506  1.00  0.00     0.169 A 
ATOM     11  C   UNL A   1      33.371  27.580  24.729  1.00  0.00    -0.047 A 
ATOM     12  C   UNL A   1      34.148  25.280  24.895  1.00  0.00     0.021 A 
ATOM     13  O   UNL A   1      34.461  24.014  22.864  1.00  0.00    -0.471 OA
ATOM     14  C   UNL A   1      32.970  28.861  25.400  1.00  0.00     0.044 C 
ATOM     15  C   UNL A   1      33.799  26.490  25.503  1.00  0.00     0.015 A 
ATOM     16  C   UNL A   1      34.598  24.139  25.685  1.00  0.00     0.025 C 
ATOM     17  C   UNL A   1      34.325  22.793  23.638  1.00  0.00     0.314 C 
BRANCH   8  18
ATOM     18  O   UNL A   1      33.590  26.084  21.368  1.00  0.00    -0.493 OA
ATOM     19  C   UNL A   1      32.256  25.773  20.973  1.00  0.00     0.278 C 
ENDBRANCH   8  18
BRANCH  17  20
ATOM     20  C   UNL A   1      32.920  22.196  23.421  1.00  0.00     0.429 C 
ATOM     21  F   UNL A   1      32.510  22.402  22.144  1.00  0.00    -0.167 F 
ATOM     22  F   UNL A   1      32.896  20.855  23.615  1.00  0.00    -0.167 F 
ATOM     23  F   UNL A   1      31.986  22.724  24.241  1.00  0.00    -0.167 F 
ENDBRANCH  17  20
ENDBRANCH   4   7
ENDBRANCH   2   3
ENDBRANCH   1   2
BRANCH   1  24
ATOM     24  C   UNL A   1      39.368  20.093  25.801  1.00  0.00     0.118 C 
BRANCH  24  25
ATOM     25  N   UNL A   1      40.345  19.012  25.924  1.00  0.00    -0.352 N 
ATOM     26  C   UNL A   1      41.706  19.065  26.116  1.00  0.00     0.251 C 
ATOM     27  H   UNL A   1      39.970  18.104  25.857  1.00  0.00     0.163 HD
ATOM     28  O   UNL A   1      42.388  18.055  25.974  1.00  0.00    -0.269 OA
BRANCH  26  29
ATOM     29  C   UNL A   1      42.347  20.348  26.463  1.00  0.00     0.039 A 
ATOM     30  C   UNL A   1      42.299  20.825  27.773  1.00  0.00     0.014 A 
ATOM     31  C   UNL A   1      42.976  21.095  25.464  1.00  0.00     0.014 A 
ATOM     32  C   UNL A   1      42.690  22.130  28.043  1.00  0.00     0.010 A 
ATOM     33  C   UNL A   1      43.458  22.372  25.760  1.00  0.00     0.010 A 
ATOM     34  C   UNL A   1      43.261  22.923  27.037  1.00  0.00    -0.014 A 
BRANCH  34  35
ATOM     35  C   UNL A   1      43.601  24.340  27.322  1.00  0.00     0.031 A 
ATOM     36  C   UNL A   1      45.019  24.823  27.171  1.00  0.00     0.074 A 
ATOM     37  C   UNL A   1      42.628  25.203  27.672  1.00  0.00     0.049 A 
ATOM     38  N   UNL A   1      45.526  25.998  27.449  1.00  0.00    -0.248 NA
ATOM     39  C   UNL A   1      45.999  23.860  26.644  1.00  0.00     0.031 C 
ATOM     40  C   UNL A   1      41.210  24.865  27.820  1.00  0.00     0.029 A 
ATOM     41  N   UNL A   1      42.680  26.543  27.957  1.00  0.00    -0.354 N 
ATOM     42  C   UNL A   1      46.885  25.901  27.171  1.00  0.00     0.074 A 
ATOM     43  C   UNL A   1      47.128  24.551  26.712  1.00  0.00     0.031 C 
ATOM     44  C   UNL A   1      40.524  25.973  28.133  1.00  0.00     0.029 A 
ATOM     45  C   UNL A   1      41.459  27.082  28.282  1.00  0.00     0.049 A 
ATOM     46  H   UNL A   1      43.512  27.069  27.930  1.00  0.00     0.167 HD
ATOM     47  C   UNL A   1      47.840  26.855  27.285  1.00  0.00     0.037 A 
ATOM     48  C   UNL A   1      41.134  28.321  28.692  1.00  0.00     0.037 A 
ATOM     49  C   UNL A   1      47.585  28.209  27.698  1.00  0.00     0.049 A 
ATOM     50  C   UNL A   1      42.219  29.347  28.847  1.00  0.00     0.074 A 
ATOM     51  C   UNL A   1      48.481  29.258  27.814  1.00  0.00     0.029 A 
ATOM     52  N   UNL A   1      46.340  28.703  28.054  1.00  0.00    -0.354 N 
ATOM     53  N   UNL A   1      43.500  29.237  28.595  1.00  0.00    -0.248 NA
ATOM     54  C   UNL A   1      41.817  30.663  29.361  1.00  0.00     0.031 C 
ATOM     55  C   UNL A   1      47.782  30.380  28.274  1.00  0.00     0.029 A 
ATOM     56  C   UNL A   1      46.446  30.038  28.408  1.00  0.00     0.049 A 
ATOM     57  H   UNL A   1      45.505  28.183  28.054  1.00  0.00     0.167 HD
ATOM     58  C   UNL A   1      44.056  30.470  28.907  1.00  0.00     0.074 A 
ATOM     59  C   UNL A   1      42.968  31.319  29.349  1.00  0.00     0.031 C 
ATOM     60  C   UNL A   1      45.350  30.864  28.838  1.00  0.00     0.037 A 
BRANCH  47  61
ATOM     61  C   UNL A   1      49.256  26.464  26.979  1.00  0.00     0.057 A 
ATOM     62  C   UNL A   1      50.093  25.989  27.997  1.00  0.00     0.134 A 
ATOM     63  C   UNL A   1      49.805  26.599  25.699  1.00  0.00     0.134 A 
ATOM     64  F   UNL A   1      49.631  25.840  29.247  1.00  0.00    -0.206 F 
ATOM     65  C   UNL A   1      51.431  25.668  27.752  1.00  0.00     0.040 A 
ATOM     66  C   UNL A   1      51.135  26.262  25.437  1.00  0.00     0.040 A 
ATOM     67  F   UNL A   1      49.051  27.034  24.678  1.00  0.00    -0.206 F 
ATOM     68  C   UNL A   1      51.954  25.801  26.467  1.00  0.00     0.006 A 
ENDBRANCH  47  61
BRANCH  48  69
ATOM     69  C   UNL A   1      39.727  28.646  29.028  1.00  0.00     0.057 A 
ATOM     70  C   UNL A   1      38.860  29.192  28.071  1.00  0.00     0.134 A 
ATOM     71  C   UNL A   1      39.211  28.412  30.307  1.00  0.00     0.134 A 
ATOM     72  F   UNL A   1      39.295  29.443  26.828  1.00  0.00    -0.206 F 
ATOM     73  C   UNL A   1      37.536  29.505  28.379  1.00  0.00     0.040 A 
ATOM     74  C   UNL A   1      37.882  28.696  30.621  1.00  0.00     0.040 A 
ATOM     75  F   UNL A   1      39.988  27.873  31.258  1.00  0.00    -0.206 F 
ATOM     76  C   UNL A   1      37.041  29.250  29.656  1.00  0.00     0.006 A 
ENDBRANCH  48  69
BRANCH  60  77
ATOM     77  C   UNL A   1      45.650  32.281  29.222  1.00  0.00     0.057 A 
ATOM     78  C   UNL A   1      45.598  33.304  28.268  1.00  0.00     0.134 A 
ATOM     79  C   UNL A   1      46.023  32.623  30.527  1.00  0.00     0.134 A 
ATOM     80  F   UNL A   1      45.253  33.036  27.000  1.00  0.00    -0.206 F 
ATOM     81  C   UNL A   1      45.914  34.621  28.598  1.00  0.00     0.040 A 
ATOM     82  C   UNL A   1      46.320  33.942  30.874  1.00  0.00     0.040 A 
ATOM     83  F   UNL A   1      46.074  31.688  31.487  1.00  0.00    -0.206 F 
ATOM     84  C   UNL A   1      46.272  34.944  29.905  1.00  0.00     0.006 A 
ENDBRANCH  60  77
ENDBRANCH  34  35
ENDBRANCH  26  29
ENDBRANCH  24  25
ENDBRANCH   1  24
TORSDOF 12
ENDMDL
