MODEL 1
REMARK VINA RESULT:     -12.1      0.000      0.000
REMARK SMILES COc1c(C(=O)NCCCNC(=O)c2ccc(-c3c4nc(c(-c5c(F)cccc5F)c5ccc([nH]5)c(-c5c(F)cccc5F)c5nc(c(-c6c(F)cccc6F)c6ccc3[nH]6)C=C5)C=C4)cc2)cccc1-c1cc(C)ccc1C
REMARK SMILES IDX 9 1 8 2 7 3 5 4 6 5 4 7 3 8 71 9 68 10 70 11 69 12 2 13 1 14
REMARK SMILES IDX 72 15 73 16 78 17 74 18 77 19 79 20 75 21 76 22 10 23 11 24
REMARK SMILES IDX 12 25 13 27 14 28 15 29 67 30 16 31 66 32 17 33 18 34 19 35
REMARK SMILES IDX 60 36 20 37 65 38 59 39 61 40 21 41 64 42 58 43 57 44 22 46
REMARK SMILES IDX 48 47 31 48 47 49 32 50 35 51 46 52 62 53 33 54 34 55 45 57
REMARK SMILES IDX 63 58 36 59 23 60 24 61 29 62 25 63 26 64 28 65 30 66 27 67
REMARK SMILES IDX 49 68 50 69 55 70 51 71 52 72 54 73 56 74 53 75 37 76 38 77
REMARK SMILES IDX 43 78 39 79 40 80 42 81 44 82 41 83
REMARK H PARENT 7 6 11 26 61 45 35 56
REMARK Flexibility Score: inf
ROOT
ATOM      1  C   UNL A   1      37.575  19.692  24.913  1.00  0.00     0.042 C 
ENDROOT
BRANCH   1   2
ATOM      2  C   UNL A   1      36.351  20.563  25.020  1.00  0.00     0.118 C 
BRANCH   2   3
ATOM      3  N   UNL A   1      35.077  19.968  25.267  1.00  0.00    -0.352 N 
ATOM      4  C   UNL A   1      33.846  20.528  24.996  1.00  0.00     0.255 C 
ATOM      5  O   UNL A   1      32.867  19.792  25.162  1.00  0.00    -0.269 OA
ATOM      6  H   UNL A   1      35.077  19.071  25.672  1.00  0.00     0.163 HD
BRANCH   4   7
ATOM      7  C   UNL A   1      33.616  21.977  24.630  1.00  0.00     0.082 A 
ATOM      8  C   UNL A   1      33.246  23.075  25.454  1.00  0.00     0.139 A 
ATOM      9  C   UNL A   1      33.125  24.384  24.897  1.00  0.00     0.025 A 
ATOM     10  C   UNL A   1      33.836  22.219  23.256  1.00  0.00     0.018 A 
ATOM     11  C   UNL A   1      33.362  24.559  23.518  1.00  0.00     0.012 A 
ATOM     12  C   UNL A   1      33.712  23.491  22.704  1.00  0.00     0.002 A 
BRANCH   8  13
ATOM     13  O   UNL A   1      33.126  22.907  26.820  1.00  0.00    -0.495 OA
ATOM     14  C   UNL A   1      34.373  22.777  27.535  1.00  0.00     0.278 C 
ENDBRANCH   8  13
BRANCH   9  15
ATOM     15  C   UNL A   1      32.708  25.571  25.682  1.00  0.00    -0.011 A 
ATOM     16  C   UNL A   1      33.674  26.579  25.903  1.00  0.00     0.012 A 
ATOM     17  C   UNL A   1      31.384  25.805  26.120  1.00  0.00    -0.043 A 
ATOM     18  C   UNL A   1      33.345  27.814  26.472  1.00  0.00    -0.050 A 
ATOM     19  C   UNL A   1      31.054  27.060  26.664  1.00  0.00     0.004 A 
ATOM     20  C   UNL A   1      30.257  24.828  25.901  1.00  0.00     0.045 C 
ATOM     21  C   UNL A   1      34.404  28.861  26.650  1.00  0.00     0.044 C 
ATOM     22  C   UNL A   1      32.020  28.055  26.829  1.00  0.00     0.004 A 
ENDBRANCH   9  15
ENDBRANCH   4   7
ENDBRANCH   2   3
ENDBRANCH   1   2
BRANCH   1  23
ATOM     23  C   UNL A   1      38.780  20.180  25.678  1.00  0.00     0.118 C 
BRANCH  23  24
ATOM     24  N   UNL A   1      39.856  19.202  25.784  1.00  0.00    -0.352 N 
ATOM     25  C   UNL A   1      41.200  19.310  26.067  1.00  0.00     0.251 C 
ATOM     26  H   UNL A   1      39.562  18.276  25.621  1.00  0.00     0.163 HD
ATOM     27  O   UNL A   1      41.903  18.308  25.995  1.00  0.00    -0.269 OA
BRANCH  25  28
ATOM     28  C   UNL A   1      41.830  20.612  26.404  1.00  0.00     0.039 A 
ATOM     29  C   UNL A   1      42.105  21.522  25.376  1.00  0.00     0.014 A 
ATOM     30  C   UNL A   1      42.177  20.950  27.707  1.00  0.00     0.014 A 
ATOM     31  C   UNL A   1      42.635  22.783  25.677  1.00  0.00     0.010 A 
ATOM     32  C   UNL A   1      42.537  22.252  28.024  1.00  0.00     0.010 A 
ATOM     33  C   UNL A   1      42.804  23.180  27.012  1.00  0.00    -0.014 A 
BRANCH  33  34
ATOM     34  C   UNL A   1      43.307  24.529  27.382  1.00  0.00     0.031 A 
ATOM     35  C   UNL A   1      42.342  25.594  27.846  1.00  0.00     0.074 A 
ATOM     36  C   UNL A   1      44.613  24.827  27.230  1.00  0.00     0.049 A 
ATOM     37  N   UNL A   1      42.567  26.854  28.124  1.00  0.00    -0.248 NA
ATOM     38  C   UNL A   1      40.926  25.204  27.971  1.00  0.00     0.031 C 
ATOM     39  C   UNL A   1      45.640  23.911  26.727  1.00  0.00     0.029 A 
ATOM     40  N   UNL A   1      45.300  25.988  27.478  1.00  0.00    -0.354 N 
ATOM     41  C   UNL A   1      41.326  27.402  28.428  1.00  0.00     0.074 A 
ATOM     42  C   UNL A   1      40.342  26.365  28.222  1.00  0.00     0.031 C 
ATOM     43  C   UNL A   1      46.830  24.531  26.745  1.00  0.00     0.029 A 
ATOM     44  C   UNL A   1      46.646  25.899  27.214  1.00  0.00     0.049 A 
ATOM     45  H   UNL A   1      44.870  26.808  27.814  1.00  0.00     0.167 HD
ATOM     46  C   UNL A   1      41.031  28.646  28.875  1.00  0.00     0.037 A 
ATOM     47  C   UNL A   1      47.621  26.820  27.334  1.00  0.00     0.037 A 
ATOM     48  C   UNL A   1      42.016  29.664  29.121  1.00  0.00     0.049 A 
ATOM     49  C   UNL A   1      47.272  28.191  27.843  1.00  0.00     0.074 A 
ATOM     50  C   UNL A   1      41.834  30.934  29.636  1.00  0.00     0.029 A 
ATOM     51  N   UNL A   1      43.373  29.524  28.869  1.00  0.00    -0.354 N 
ATOM     52  N   UNL A   1      46.104  28.672  28.196  1.00  0.00    -0.248 NA
ATOM     53  C   UNL A   1      48.381  29.146  27.983  1.00  0.00     0.031 C 
ATOM     54  C   UNL A   1      43.073  31.582  29.650  1.00  0.00     0.029 A 
ATOM     55  C   UNL A   1      44.036  30.693  29.199  1.00  0.00     0.049 A 
ATOM     56  H   UNL A   1      43.800  28.713  28.508  1.00  0.00     0.167 HD
ATOM     57  C   UNL A   1      46.340  29.970  28.628  1.00  0.00     0.074 A 
ATOM     58  C   UNL A   1      47.767  30.195  28.510  1.00  0.00     0.031 C 
ATOM     59  C   UNL A   1      45.459  30.895  29.081  1.00  0.00     0.037 A 
BRANCH  46  60
ATOM     60  C   UNL A   1      39.585  28.964  29.138  1.00  0.00     0.057 A 
ATOM     61  C   UNL A   1      39.002  28.782  30.401  1.00  0.00     0.134 A 
ATOM     62  C   UNL A   1      38.770  29.481  28.124  1.00  0.00     0.134 A 
ATOM     63  F   UNL A   1      39.720  28.276  31.415  1.00  0.00    -0.206 F 
ATOM     64  C   UNL A   1      37.656  29.067  30.635  1.00  0.00     0.040 A 
ATOM     65  C   UNL A   1      37.431  29.803  28.354  1.00  0.00     0.040 A 
ATOM     66  F   UNL A   1      39.261  29.687  26.893  1.00  0.00    -0.206 F 
ATOM     67  C   UNL A   1      36.868  29.588  29.610  1.00  0.00     0.006 A 
ENDBRANCH  46  60
BRANCH  47  68
ATOM     68  C   UNL A   1      49.026  26.469  26.998  1.00  0.00     0.057 A 
ATOM     69  C   UNL A   1      49.532  26.670  25.708  1.00  0.00     0.134 A 
ATOM     70  C   UNL A   1      49.891  25.916  27.948  1.00  0.00     0.134 A 
ATOM     71  F   UNL A   1      48.747  27.181  24.747  1.00  0.00    -0.206 F 
ATOM     72  C   UNL A   1      50.836  26.311  25.368  1.00  0.00     0.040 A 
ATOM     73  C   UNL A   1      51.208  25.578  27.630  1.00  0.00     0.040 A 
ATOM     74  F   UNL A   1      49.473  25.708  29.206  1.00  0.00    -0.206 F 
ATOM     75  C   UNL A   1      51.681  25.767  26.334  1.00  0.00     0.006 A 
ENDBRANCH  47  68
BRANCH  59  76
ATOM     76  C   UNL A   1      46.019  32.216  29.525  1.00  0.00     0.057 A 
ATOM     77  C   UNL A   1      46.458  32.434  30.837  1.00  0.00     0.134 A 
ATOM     78  C   UNL A   1      46.146  33.275  28.617  1.00  0.00     0.134 A 
ATOM     79  F   UNL A   1      46.354  31.464  31.759  1.00  0.00    -0.206 F 
ATOM     80  C   UNL A   1      46.970  33.668  31.239  1.00  0.00     0.040 A 
ATOM     81  C   UNL A   1      46.686  34.503  28.998  1.00  0.00     0.040 A 
ATOM     82  F   UNL A   1      45.757  33.129  27.341  1.00  0.00    -0.206 F 
ATOM     83  C   UNL A   1      47.091  34.704  30.315  1.00  0.00     0.006 A 
ENDBRANCH  59  76
ENDBRANCH  33  34
ENDBRANCH  25  28
ENDBRANCH  23  24
ENDBRANCH   1  23
TORSDOF 12
ENDMDL
MODEL 2
REMARK VINA RESULT:     -12.1      4.929      8.796
REMARK SMILES COc1c(C(=O)NCCCNC(=O)c2ccc(-c3c4nc(c(-c5c(F)cccc5F)c5ccc([nH]5)c(-c5c(F)cccc5F)c5nc(c(-c6c(F)cccc6F)c6ccc3[nH]6)C=C5)C=C4)cc2)cccc1-c1cc(C)ccc1C
REMARK SMILES IDX 9 1 8 2 7 3 5 4 6 5 4 7 3 8 71 9 68 10 70 11 69 12 2 13 1 14
REMARK SMILES IDX 72 15 73 16 78 17 74 18 77 19 79 20 75 21 76 22 10 23 11 24
REMARK SMILES IDX 12 25 13 27 14 28 15 29 67 30 16 31 66 32 17 33 18 34 19 35
REMARK SMILES IDX 60 36 20 37 65 38 59 39 61 40 21 41 64 42 58 43 57 44 22 46
REMARK SMILES IDX 48 47 31 48 47 49 32 50 35 51 46 52 62 53 33 54 34 55 45 57
REMARK SMILES IDX 63 58 36 59 23 60 24 61 29 62 25 63 26 64 28 65 30 66 27 67
REMARK SMILES IDX 49 68 50 69 55 70 51 71 52 72 54 73 56 74 53 75 37 76 38 77
REMARK SMILES IDX 43 78 39 79 40 80 42 81 44 82 41 83
REMARK H PARENT 7 6 11 26 61 45 35 56
REMARK Flexibility Score: inf
ROOT
ATOM      1  C   UNL A   1      31.065  31.441  25.718  1.00  0.00     0.042 C 
ENDROOT
BRANCH   1   2
ATOM      2  C   UNL A   1      31.328  30.085  25.117  1.00  0.00     0.118 C 
BRANCH   2   3
ATOM      3  N   UNL A   1      30.765  29.750  23.848  1.00  0.00    -0.352 N 
ATOM      4  C   UNL A   1      30.559  28.480  23.353  1.00  0.00     0.255 C 
ATOM      5  O   UNL A   1      29.935  28.406  22.290  1.00  0.00    -0.269 OA
ATOM      6  H   UNL A   1      30.497  30.501  23.269  1.00  0.00     0.163 HD
BRANCH   4   7
ATOM      7  C   UNL A   1      31.132  27.215  23.952  1.00  0.00     0.082 A 
ATOM      8  C   UNL A   1      32.370  26.566  23.693  1.00  0.00     0.139 A 
ATOM      9  C   UNL A   1      32.731  25.389  24.416  1.00  0.00     0.025 A 
ATOM     10  C   UNL A   1      30.274  26.651  24.923  1.00  0.00     0.018 A 
ATOM     11  C   UNL A   1      31.831  24.879  25.373  1.00  0.00     0.012 A 
ATOM     12  C   UNL A   1      30.615  25.499  25.625  1.00  0.00     0.002 A 
BRANCH   8  13
ATOM     13  O   UNL A   1      33.286  27.140  22.833  1.00  0.00    -0.495 OA
ATOM     14  C   UNL A   1      34.065  28.217  23.394  1.00  0.00     0.278 C 
ENDBRANCH   8  13
BRANCH   9  15
ATOM     15  C   UNL A   1      33.985  24.634  24.177  1.00  0.00    -0.011 A 
ATOM     16  C   UNL A   1      34.993  24.715  25.164  1.00  0.00     0.012 A 
ATOM     17  C   UNL A   1      34.185  23.758  23.085  1.00  0.00    -0.043 A 
ATOM     18  C   UNL A   1      36.137  23.910  25.129  1.00  0.00    -0.050 A 
ATOM     19  C   UNL A   1      35.323  22.930  23.071  1.00  0.00     0.004 A 
ATOM     20  C   UNL A   1      33.165  23.550  21.994  1.00  0.00     0.045 C 
ATOM     21  C   UNL A   1      37.157  24.012  26.223  1.00  0.00     0.044 C 
ATOM     22  C   UNL A   1      36.281  22.997  24.085  1.00  0.00     0.004 A 
ENDBRANCH   9  15
ENDBRANCH   4   7
ENDBRANCH   2   3
ENDBRANCH   1   2
BRANCH   1  23
ATOM     23  C   UNL A   1      31.770  31.713  27.024  1.00  0.00     0.118 C 
BRANCH  23  24
ATOM     24  N   UNL A   1      32.021  33.125  27.283  1.00  0.00    -0.352 N 
ATOM     25  C   UNL A   1      33.056  33.799  27.895  1.00  0.00     0.251 C 
ATOM     26  H   UNL A   1      31.307  33.718  26.954  1.00  0.00     0.163 HD
ATOM     27  O   UNL A   1      32.958  35.009  28.061  1.00  0.00    -0.269 OA
BRANCH  25  28
ATOM     28  C   UNL A   1      34.259  33.095  28.406  1.00  0.00     0.039 A 
ATOM     29  C   UNL A   1      35.468  33.793  28.503  1.00  0.00     0.014 A 
ATOM     30  C   UNL A   1      34.230  31.754  28.774  1.00  0.00     0.014 A 
ATOM     31  C   UNL A   1      36.599  33.170  29.047  1.00  0.00     0.010 A 
ATOM     32  C   UNL A   1      35.292  31.192  29.468  1.00  0.00     0.010 A 
ATOM     33  C   UNL A   1      36.505  31.878  29.586  1.00  0.00    -0.014 A 
BRANCH  33  34
ATOM     34  C   UNL A   1      37.661  31.198  30.228  1.00  0.00     0.031 A 
ATOM     35  C   UNL A   1      38.005  31.490  31.669  1.00  0.00     0.074 A 
ATOM     36  C   UNL A   1      38.449  30.381  29.501  1.00  0.00     0.049 A 
ATOM     37  N   UNL A   1      39.024  31.074  32.379  1.00  0.00    -0.248 NA
ATOM     38  C   UNL A   1      37.111  32.408  32.396  1.00  0.00     0.031 C 
ATOM     39  C   UNL A   1      38.268  30.067  28.081  1.00  0.00     0.029 A 
ATOM     40  N   UNL A   1      39.567  29.668  29.856  1.00  0.00    -0.354 N 
ATOM     41  C   UNL A   1      38.902  31.698  33.615  1.00  0.00     0.074 A 
ATOM     42  C   UNL A   1      37.763  32.582  33.535  1.00  0.00     0.031 C 
ATOM     43  C   UNL A   1      39.213  29.193  27.700  1.00  0.00     0.029 A 
ATOM     44  C   UNL A   1      40.094  28.921  28.830  1.00  0.00     0.049 A 
ATOM     45  H   UNL A   1      39.955  29.690  30.761  1.00  0.00     0.167 HD
ATOM     46  C   UNL A   1      39.648  31.526  34.733  1.00  0.00     0.037 A 
ATOM     47  C   UNL A   1      41.169  28.111  28.803  1.00  0.00     0.037 A 
ATOM     48  C   UNL A   1      40.755  30.614  34.825  1.00  0.00     0.049 A 
ATOM     49  C   UNL A   1      41.974  27.925  30.059  1.00  0.00     0.074 A 
ATOM     50  C   UNL A   1      41.535  30.312  35.926  1.00  0.00     0.029 A 
ATOM     51  N   UNL A   1      41.238  29.853  33.771  1.00  0.00    -0.354 N 
ATOM     52  N   UNL A   1      41.803  28.466  31.241  1.00  0.00    -0.248 NA
ATOM     53  C   UNL A   1      43.118  27.006  29.980  1.00  0.00     0.031 C 
ATOM     54  C   UNL A   1      42.523  29.406  35.527  1.00  0.00     0.029 A 
ATOM     55  C   UNL A   1      42.319  29.098  34.191  1.00  0.00     0.049 A 
ATOM     56  H   UNL A   1      40.866  29.850  32.858  1.00  0.00     0.167 HD
ATOM     57  C   UNL A   1      42.794  27.931  32.053  1.00  0.00     0.074 A 
ATOM     58  C   UNL A   1      43.551  27.008  31.233  1.00  0.00     0.031 C 
ATOM     59  C   UNL A   1      43.057  28.179  33.360  1.00  0.00     0.037 A 
BRANCH  46  60
ATOM     60  C   UNL A   1      39.276  32.332  35.947  1.00  0.00     0.057 A 
ATOM     61  C   UNL A   1      39.813  33.605  36.187  1.00  0.00     0.134 A 
ATOM     62  C   UNL A   1      38.352  31.839  36.877  1.00  0.00     0.134 A 
ATOM     63  F   UNL A   1      40.715  34.132  35.346  1.00  0.00    -0.206 F 
ATOM     64  C   UNL A   1      39.472  34.341  37.323  1.00  0.00     0.040 A 
ATOM     65  C   UNL A   1      37.977  32.580  37.999  1.00  0.00     0.040 A 
ATOM     66  F   UNL A   1      37.793  30.631  36.709  1.00  0.00    -0.206 F 
ATOM     67  C   UNL A   1      38.544  33.832  38.229  1.00  0.00     0.006 A 
ENDBRANCH  46  60
BRANCH  47  68
ATOM     68  C   UNL A   1      41.528  27.386  27.556  1.00  0.00     0.057 A 
ATOM     69  C   UNL A   1      41.051  26.093  27.310  1.00  0.00     0.134 A 
ATOM     70  C   UNL A   1      42.359  27.959  26.588  1.00  0.00     0.134 A 
ATOM     71  F   UNL A   1      40.263  25.482  28.207  1.00  0.00    -0.206 F 
ATOM     72  C   UNL A   1      41.409  25.386  26.162  1.00  0.00     0.040 A 
ATOM     73  C   UNL A   1      42.703  27.275  25.420  1.00  0.00     0.040 A 
ATOM     74  F   UNL A   1      42.841  29.200  26.756  1.00  0.00    -0.206 F 
ATOM     75  C   UNL A   1      42.235  25.980  25.210  1.00  0.00     0.006 A 
ENDBRANCH  47  68
BRANCH  59  76
ATOM     76  C   UNL A   1      44.179  27.408  33.992  1.00  0.00     0.057 A 
ATOM     77  C   UNL A   1      45.489  27.903  34.036  1.00  0.00     0.134 A 
ATOM     78  C   UNL A   1      43.938  26.165  34.590  1.00  0.00     0.134 A 
ATOM     79  F   UNL A   1      45.789  29.083  33.472  1.00  0.00    -0.206 F 
ATOM     80  C   UNL A   1      46.525  27.173  34.620  1.00  0.00     0.040 A 
ATOM     81  C   UNL A   1      44.958  25.440  35.207  1.00  0.00     0.040 A 
ATOM     82  F   UNL A   1      42.704  25.638  34.595  1.00  0.00    -0.206 F 
ATOM     83  C   UNL A   1      46.258  25.940  35.214  1.00  0.00     0.006 A 
ENDBRANCH  59  76
ENDBRANCH  33  34
ENDBRANCH  25  28
ENDBRANCH  23  24
ENDBRANCH   1  23
TORSDOF 12
ENDMDL
MODEL 3
REMARK VINA RESULT:     -12.1      2.725      7.497
REMARK SMILES COc1c(C(=O)NCCCNC(=O)c2ccc(-c3c4nc(c(-c5c(F)cccc5F)c5ccc([nH]5)c(-c5c(F)cccc5F)c5nc(c(-c6c(F)cccc6F)c6ccc3[nH]6)C=C5)C=C4)cc2)cccc1-c1cc(C)ccc1C
REMARK SMILES IDX 9 1 8 2 7 3 5 4 6 5 4 7 3 8 71 9 68 10 70 11 69 12 2 13 1 14
REMARK SMILES IDX 72 15 73 16 78 17 74 18 77 19 79 20 75 21 76 22 10 23 11 24
REMARK SMILES IDX 12 25 13 27 14 28 15 29 67 30 16 31 66 32 17 33 18 34 19 35
REMARK SMILES IDX 60 36 20 37 65 38 59 39 61 40 21 41 64 42 58 43 57 44 22 46
REMARK SMILES IDX 48 47 31 48 47 49 32 50 35 51 46 52 62 53 33 54 34 55 45 57
REMARK SMILES IDX 63 58 36 59 23 60 24 61 29 62 25 63 26 64 28 65 30 66 27 67
REMARK SMILES IDX 49 68 50 69 55 70 51 71 52 72 54 73 56 74 53 75 37 76 38 77
REMARK SMILES IDX 43 78 39 79 40 80 42 81 44 82 41 83
REMARK H PARENT 7 6 11 26 61 45 35 56
REMARK Flexibility Score: inf
ROOT
ATOM      1  C   UNL A   1      33.345  29.882  26.867  1.00  0.00     0.042 C 
ENDROOT
BRANCH   1   2
ATOM      2  C   UNL A   1      33.278  29.706  25.372  1.00  0.00     0.118 C 
BRANCH   2   3
ATOM      3  N   UNL A   1      32.020  29.466  24.741  1.00  0.00    -0.352 N 
ATOM      4  C   UNL A   1      31.351  28.262  24.679  1.00  0.00     0.255 C 
ATOM      5  O   UNL A   1      30.212  28.297  24.203  1.00  0.00    -0.269 OA
ATOM      6  H   UNL A   1      31.588  30.237  24.306  1.00  0.00     0.163 HD
BRANCH   4   7
ATOM      7  C   UNL A   1      31.949  26.921  25.041  1.00  0.00     0.082 A 
ATOM      8  C   UNL A   1      33.144  26.304  24.579  1.00  0.00     0.139 A 
ATOM      9  C   UNL A   1      33.544  25.034  25.095  1.00  0.00     0.025 A 
ATOM     10  C   UNL A   1      31.172  26.234  26.000  1.00  0.00     0.018 A 
ATOM     11  C   UNL A   1      32.725  24.403  26.052  1.00  0.00     0.012 A 
ATOM     12  C   UNL A   1      31.551  24.992  26.501  1.00  0.00     0.002 A 
BRANCH   8  13
ATOM     13  O   UNL A   1      33.990  26.985  23.725  1.00  0.00    -0.495 OA
ATOM     14  C   UNL A   1      33.599  26.974  22.335  1.00  0.00     0.278 C 
ENDBRANCH   8  13
BRANCH   9  15
ATOM     15  C   UNL A   1      34.755  24.310  24.637  1.00  0.00    -0.011 A 
ATOM     16  C   UNL A   1      35.901  24.370  25.461  1.00  0.00     0.012 A 
ATOM     17  C   UNL A   1      34.794  23.478  23.493  1.00  0.00    -0.043 A 
ATOM     18  C   UNL A   1      37.035  23.586  25.219  1.00  0.00    -0.050 A 
ATOM     19  C   UNL A   1      35.925  22.670  23.273  1.00  0.00     0.004 A 
ATOM     20  C   UNL A   1      33.621  23.295  22.564  1.00  0.00     0.045 C 
ATOM     21  C   UNL A   1      38.209  23.663  26.147  1.00  0.00     0.044 C 
ATOM     22  C   UNL A   1      37.027  22.716  24.130  1.00  0.00     0.004 A 
ENDBRANCH   9  15
ENDBRANCH   4   7
ENDBRANCH   2   3
ENDBRANCH   1   2
BRANCH   1  23
ATOM     23  C   UNL A   1      34.722  29.753  27.468  1.00  0.00     0.118 C 
BRANCH  23  24
ATOM     24  N   UNL A   1      34.879  30.433  28.748  1.00  0.00    -0.352 N 
ATOM     25  C   UNL A   1      35.943  30.577  29.612  1.00  0.00     0.251 C 
ATOM     26  H   UNL A   1      34.059  30.881  29.059  1.00  0.00     0.163 HD
ATOM     27  O   UNL A   1      35.762  31.135  30.688  1.00  0.00    -0.269 OA
BRANCH  25  28
ATOM     28  C   UNL A   1      37.288  30.029  29.300  1.00  0.00     0.039 A 
ATOM     29  C   UNL A   1      37.758  30.084  27.983  1.00  0.00     0.014 A 
ATOM     30  C   UNL A   1      38.090  29.442  30.272  1.00  0.00     0.014 A 
ATOM     31  C   UNL A   1      39.050  29.636  27.678  1.00  0.00     0.010 A 
ATOM     32  C   UNL A   1      39.423  29.161  30.009  1.00  0.00     0.010 A 
ATOM     33  C   UNL A   1      39.916  29.221  28.701  1.00  0.00    -0.014 A 
BRANCH  33  34
ATOM     34  C   UNL A   1      41.314  28.794  28.434  1.00  0.00     0.031 A 
ATOM     35  C   UNL A   1      41.612  27.357  28.081  1.00  0.00     0.074 A 
ATOM     36  C   UNL A   1      42.326  29.673  28.583  1.00  0.00     0.049 A 
ATOM     37  N   UNL A   1      42.769  26.768  27.905  1.00  0.00    -0.248 NA
ATOM     38  C   UNL A   1      40.459  26.448  27.955  1.00  0.00     0.031 C 
ATOM     39  C   UNL A   1      42.182  31.074  28.986  1.00  0.00     0.029 A 
ATOM     40  N   UNL A   1      43.679  29.515  28.418  1.00  0.00    -0.354 N 
ATOM     41  C   UNL A   1      42.479  25.428  27.675  1.00  0.00     0.074 A 
ATOM     42  C   UNL A   1      41.051  25.272  27.815  1.00  0.00     0.031 C 
ATOM     43  C   UNL A   1      43.392  31.656  28.994  1.00  0.00     0.029 A 
ATOM     44  C   UNL A   1      44.400  30.662  28.645  1.00  0.00     0.049 A 
ATOM     45  H   UNL A   1      44.095  28.660  28.161  1.00  0.00     0.167 HD
ATOM     46  C   UNL A   1      43.320  24.420  27.340  1.00  0.00     0.037 A 
ATOM     47  C   UNL A   1      45.727  30.886  28.581  1.00  0.00     0.037 A 
ATOM     48  C   UNL A   1      44.737  24.586  27.159  1.00  0.00     0.049 A 
ATOM     49  C   UNL A   1      46.641  29.756  28.195  1.00  0.00     0.074 A 
ATOM     50  C   UNL A   1      45.670  23.649  26.754  1.00  0.00     0.029 A 
ATOM     51  N   UNL A   1      45.424  25.772  27.369  1.00  0.00    -0.354 N 
ATOM     52  N   UNL A   1      46.344  28.511  27.909  1.00  0.00    -0.248 NA
ATOM     53  C   UNL A   1      48.074  30.066  28.112  1.00  0.00     0.031 C 
ATOM     54  C   UNL A   1      46.931  24.254  26.769  1.00  0.00     0.029 A 
ATOM     55  C   UNL A   1      46.774  25.585  27.123  1.00  0.00     0.049 A 
ATOM     56  H   UNL A   1      45.013  26.622  27.651  1.00  0.00     0.167 HD
ATOM     57  C   UNL A   1      47.545  27.898  27.583  1.00  0.00     0.074 A 
ATOM     58  C   UNL A   1      48.573  28.914  27.688  1.00  0.00     0.031 C 
ATOM     59  C   UNL A   1      47.781  26.611  27.227  1.00  0.00     0.037 A 
BRANCH  46  60
ATOM     60  C   UNL A   1      42.723  23.056  27.134  1.00  0.00     0.057 A 
ATOM     61  C   UNL A   1      42.434  22.202  28.208  1.00  0.00     0.134 A 
ATOM     62  C   UNL A   1      42.411  22.599  25.848  1.00  0.00     0.134 A 
ATOM     63  F   UNL A   1      42.720  22.569  29.466  1.00  0.00    -0.206 F 
ATOM     64  C   UNL A   1      41.891  20.932  28.008  1.00  0.00     0.040 A 
ATOM     65  C   UNL A   1      41.836  21.344  25.637  1.00  0.00     0.040 A 
ATOM     66  F   UNL A   1      42.655  23.364  24.774  1.00  0.00    -0.206 F 
ATOM     67  C   UNL A   1      41.582  20.502  26.718  1.00  0.00     0.006 A 
ENDBRANCH  46  60
BRANCH  47  68
ATOM     68  C   UNL A   1      46.269  32.242  28.857  1.00  0.00     0.057 A 
ATOM     69  C   UNL A   1      46.435  33.176  27.827  1.00  0.00     0.134 A 
ATOM     70  C   UNL A   1      46.644  32.635  30.146  1.00  0.00     0.134 A 
ATOM     71  F   UNL A   1      46.109  32.855  26.565  1.00  0.00    -0.206 F 
ATOM     72  C   UNL A   1      46.978  34.440  28.063  1.00  0.00     0.040 A 
ATOM     73  C   UNL A   1      47.162  33.906  30.403  1.00  0.00     0.040 A 
ATOM     74  F   UNL A   1      46.501  31.793  31.180  1.00  0.00    -0.206 F 
ATOM     75  C   UNL A   1      47.339  34.809  29.357  1.00  0.00     0.006 A 
ENDBRANCH  47  68
BRANCH  59  76
ATOM     76  C   UNL A   1      49.195  26.243  26.883  1.00  0.00     0.057 A 
ATOM     77  C   UNL A   1      49.682  26.306  25.571  1.00  0.00     0.134 A 
ATOM     78  C   UNL A   1      50.090  25.846  27.885  1.00  0.00     0.134 A 
ATOM     79  F   UNL A   1      48.873  26.668  24.562  1.00  0.00    -0.206 F 
ATOM     80  C   UNL A   1      50.997  25.954  25.263  1.00  0.00     0.040 A 
ATOM     81  C   UNL A   1      51.416  25.524  27.595  1.00  0.00     0.040 A 
ATOM     82  F   UNL A   1      49.693  25.777  29.165  1.00  0.00    -0.206 F 
ATOM     83  C   UNL A   1      51.869  25.568  26.279  1.00  0.00     0.006 A 
ENDBRANCH  59  76
ENDBRANCH  33  34
ENDBRANCH  25  28
ENDBRANCH  23  24
ENDBRANCH   1  23
TORSDOF 12
ENDMDL
