MODEL 1
REMARK VINA RESULT:     -12.3      0.000      0.000
REMARK SMILES O=C(CN1C(=O)/C(=C\c2c(F)cccc2Cl)Oc2ccccc21)NCCCNC(=O)c1ccc(-c2c3nc(c(-c4c(F)cccc4F)c4ccc([nH]4)c(-c4c(F)cccc4F)c4nc(c(-c5c(F)cccc5F)c5ccc2[nH]5)C=C4)C=C3)cc1
REMARK SMILES IDX 26 1 25 2 24 3 1 4 2 5 3 7 4 8 5 9 23 10 6 11 7 12 18 13
REMARK SMILES IDX 22 14 8 15 17 16 19 17 21 18 20 19 9 20 10 21 15 22 11 23
REMARK SMILES IDX 12 24 14 25 16 26 13 27 27 28 28 29 29 30 30 32 31 33 32 34
REMARK SMILES IDX 84 35 33 36 83 37 34 38 35 39 36 40 77 41 37 42 82 43 76 44
REMARK SMILES IDX 78 45 38 46 81 47 75 48 74 49 39 51 65 52 48 53 64 54 49 55
REMARK SMILES IDX 52 56 63 57 79 58 50 59 51 60 62 62 80 63 53 64 40 65 41 66
REMARK SMILES IDX 46 67 42 68 43 69 45 70 47 71 44 72 66 73 67 74 72 75 68 76
REMARK SMILES IDX 69 77 71 78 73 79 70 80 54 81 55 82 60 83 56 84 57 85 59 86
REMARK SMILES IDX 61 87 58 88
REMARK H PARENT 24 6 28 31 78 50 52 61
REMARK Flexibility Score: inf
ROOT
ATOM      1  C   UNL A   1      38.595  20.098  25.034  1.00  0.00     0.042 C 
ENDROOT
BRANCH   1   2
ATOM      2  C   UNL A   1      38.364  21.572  25.382  1.00  0.00     0.117 C 
BRANCH   2   3
ATOM      3  N   UNL A   1      36.968  21.951  25.480  1.00  0.00    -0.354 N 
ATOM      4  O   UNL A   1      37.378  24.045  26.278  1.00  0.00    -0.273 OA
ATOM      5  C   UNL A   1      36.565  23.190  25.927  1.00  0.00     0.240 C 
ATOM      6  H   UNL A   1      36.282  21.296  25.217  1.00  0.00     0.163 HD
BRANCH   5   7
ATOM      7  C   UNL A   1      35.065  23.361  26.218  1.00  0.00     0.226 C 
BRANCH   7   8
ATOM      8  N   UNL A   1      34.146  23.628  25.111  1.00  0.00    -0.293 N 
ATOM      9  C   UNL A   1      33.943  24.963  24.772  1.00  0.00     0.294 C 
ATOM     10  C   UNL A   1      33.426  22.600  24.442  1.00  0.00     0.088 A 
ATOM     11  O   UNL A   1      34.641  25.880  25.194  1.00  0.00    -0.265 OA
ATOM     12  C   UNL A   1      32.753  25.209  23.891  1.00  0.00     0.193 C 
ATOM     13  C   UNL A   1      32.619  22.939  23.346  1.00  0.00     0.151 A 
ATOM     14  C   UNL A   1      33.535  21.249  24.791  1.00  0.00     0.030 A 
ATOM     15  C   UNL A   1      31.979  26.300  24.038  1.00  0.00     0.065 C 
ATOM     16  O   UNL A   1      32.383  24.239  22.974  1.00  0.00    -0.449 OA
ATOM     17  C   UNL A   1      31.989  21.954  22.583  1.00  0.00     0.049 A 
ATOM     18  C   UNL A   1      32.905  20.260  24.029  1.00  0.00     0.002 A 
ATOM     19  C   UNL A   1      32.141  20.612  22.919  1.00  0.00     0.004 A 
BRANCH  15  20
ATOM     20  C   UNL A   1      32.130  27.301  25.106  1.00  0.00     0.033 A 
ATOM     21  C   UNL A   1      31.534  27.075  26.351  1.00  0.00     0.132 A 
ATOM     22  C   UNL A   1      32.806  28.517  24.906  1.00  0.00     0.051 A 
ATOM     23  F   UNL A   1      30.890  25.922  26.590  1.00  0.00    -0.206 F 
ATOM     24  C   UNL A   1      31.584  28.031  27.365  1.00  0.00     0.040 A 
ATOM     25  C   UNL A   1      32.866  29.477  25.924  1.00  0.00     0.021 A 
ATOM     26  Cl  UNL A   1      33.589  28.889  23.406  1.00  0.00    -0.084 Cl
ATOM     27  C   UNL A   1      32.247  29.237  27.150  1.00  0.00     0.005 A 
ENDBRANCH  15  20
ENDBRANCH   7   8
ENDBRANCH   5   7
ENDBRANCH   2   3
ENDBRANCH   1   2
BRANCH   1  28
ATOM     28  C   UNL A   1      39.292  19.261  26.104  1.00  0.00     0.118 C 
BRANCH  28  29
ATOM     29  N   UNL A   1      40.634  18.832  25.741  1.00  0.00    -0.352 N 
ATOM     30  C   UNL A   1      41.833  19.501  25.830  1.00  0.00     0.251 C 
ATOM     31  H   UNL A   1      40.694  17.920  25.375  1.00  0.00     0.163 HD
ATOM     32  O   UNL A   1      42.850  18.978  25.383  1.00  0.00    -0.269 OA
BRANCH  30  33
ATOM     33  C   UNL A   1      41.912  20.855  26.428  1.00  0.00     0.039 A 
ATOM     34  C   UNL A   1      42.145  21.990  25.649  1.00  0.00     0.014 A 
ATOM     35  C   UNL A   1      41.725  20.992  27.809  1.00  0.00     0.014 A 
ATOM     36  C   UNL A   1      42.337  23.228  26.263  1.00  0.00     0.010 A 
ATOM     37  C   UNL A   1      41.857  22.246  28.418  1.00  0.00     0.010 A 
ATOM     38  C   UNL A   1      42.217  23.367  27.656  1.00  0.00    -0.014 A 
BRANCH  38  39
ATOM     39  C   UNL A   1      42.512  24.681  28.286  1.00  0.00     0.031 A 
ATOM     40  C   UNL A   1      43.925  25.059  28.645  1.00  0.00     0.074 A 
ATOM     41  C   UNL A   1      41.519  25.572  28.469  1.00  0.00     0.049 A 
ATOM     42  N   UNL A   1      44.387  26.201  29.094  1.00  0.00    -0.248 NA
ATOM     43  C   UNL A   1      44.955  24.021  28.483  1.00  0.00     0.031 C 
ATOM     44  C   UNL A   1      40.105  25.333  28.181  1.00  0.00     0.029 A 
ATOM     45  N   UNL A   1      41.554  26.870  28.915  1.00  0.00    -0.354 N 
ATOM     46  C   UNL A   1      45.752  26.017  29.273  1.00  0.00     0.074 A 
ATOM     47  C   UNL A   1      46.041  24.643  28.920  1.00  0.00     0.031 C 
ATOM     48  C   UNL A   1      39.415  26.463  28.404  1.00  0.00     0.029 A 
ATOM     49  C   UNL A   1      40.332  27.496  28.878  1.00  0.00     0.049 A 
ATOM     50  H   UNL A   1      42.376  27.311  29.229  1.00  0.00     0.167 HD
ATOM     51  C   UNL A   1      46.687  26.912  29.674  1.00  0.00     0.037 A 
ATOM     52  C   UNL A   1      39.989  28.762  29.179  1.00  0.00     0.037 A 
ATOM     53  C   UNL A   1      46.417  28.285  30.007  1.00  0.00     0.049 A 
ATOM     54  C   UNL A   1      41.042  29.729  29.638  1.00  0.00     0.074 A 
ATOM     55  C   UNL A   1      47.309  29.276  30.382  1.00  0.00     0.029 A 
ATOM     56  N   UNL A   1      45.158  28.863  30.007  1.00  0.00    -0.354 N 
ATOM     57  N   UNL A   1      42.334  29.550  29.758  1.00  0.00    -0.248 NA
ATOM     58  C   UNL A   1      40.584  31.077  30.004  1.00  0.00     0.031 C 
ATOM     59  C   UNL A   1      46.585  30.445  30.638  1.00  0.00     0.029 A 
ATOM     60  C   UNL A   1      45.246  30.190  30.394  1.00  0.00     0.049 A 
ATOM     61  H   UNL A   1      44.323  28.399  29.766  1.00  0.00     0.167 HD
ATOM     62  C   UNL A   1      42.844  30.760  30.207  1.00  0.00     0.074 A 
ATOM     63  C   UNL A   1      41.726  31.674  30.315  1.00  0.00     0.031 C 
ATOM     64  C   UNL A   1      44.124  31.085  30.509  1.00  0.00     0.037 A 
BRANCH  51  65
ATOM     65  C   UNL A   1      48.103  26.426  29.772  1.00  0.00     0.057 A 
ATOM     66  C   UNL A   1      48.579  25.845  30.954  1.00  0.00     0.134 A 
ATOM     67  C   UNL A   1      49.001  26.561  28.707  1.00  0.00     0.134 A 
ATOM     68  F   UNL A   1      47.770  25.690  32.012  1.00  0.00    -0.206 F 
ATOM     69  C   UNL A   1      49.901  25.413  31.071  1.00  0.00     0.040 A 
ATOM     70  C   UNL A   1      50.321  26.116  28.806  1.00  0.00     0.040 A 
ATOM     71  F   UNL A   1      48.600  27.099  27.545  1.00  0.00    -0.206 F 
ATOM     72  C   UNL A   1      50.775  25.545  29.993  1.00  0.00     0.006 A 
ENDBRANCH  51  65
BRANCH  52  73
ATOM     73  C   UNL A   1      38.580  29.200  29.039  1.00  0.00     0.057 A 
ATOM     74  C   UNL A   1      38.075  29.645  27.812  1.00  0.00     0.134 A 
ATOM     75  C   UNL A   1      37.704  29.169  30.129  1.00  0.00     0.134 A 
ATOM     76  F   UNL A   1      38.868  29.698  26.733  1.00  0.00    -0.206 F 
ATOM     77  C   UNL A   1      36.746  30.051  27.676  1.00  0.00     0.040 A 
ATOM     78  C   UNL A   1      36.368  29.553  30.003  1.00  0.00     0.040 A 
ATOM     79  F   UNL A   1      38.129  28.730  31.323  1.00  0.00    -0.206 F 
ATOM     80  C   UNL A   1      35.888  29.999  28.773  1.00  0.00     0.006 A 
ENDBRANCH  52  73
BRANCH  64  81
ATOM     81  C   UNL A   1      44.375  32.483  30.984  1.00  0.00     0.057 A 
ATOM     82  C   UNL A   1      44.616  33.519  30.075  1.00  0.00     0.134 A 
ATOM     83  C   UNL A   1      44.385  32.800  32.348  1.00  0.00     0.134 A 
ATOM     84  F   UNL A   1      44.624  33.279  28.754  1.00  0.00    -0.206 F 
ATOM     85  C   UNL A   1      44.855  34.825  30.506  1.00  0.00     0.040 A 
ATOM     86  C   UNL A   1      44.603  34.105  32.791  1.00  0.00     0.040 A 
ATOM     87  F   UNL A   1      44.144  31.853  33.268  1.00  0.00    -0.206 F 
ATOM     88  C   UNL A   1      44.843  35.122  31.867  1.00  0.00     0.006 A 
ENDBRANCH  64  81
ENDBRANCH  38  39
ENDBRANCH  30  33
ENDBRANCH  28  29
ENDBRANCH   1  28
TORSDOF 12
ENDMDL
MODEL 2
REMARK VINA RESULT:     -12.0      3.462      8.698
REMARK SMILES O=C(CN1C(=O)/C(=C\c2c(F)cccc2Cl)Oc2ccccc21)NCCCNC(=O)c1ccc(-c2c3nc(c(-c4c(F)cccc4F)c4ccc([nH]4)c(-c4c(F)cccc4F)c4nc(c(-c5c(F)cccc5F)c5ccc2[nH]5)C=C4)C=C3)cc1
REMARK SMILES IDX 26 1 25 2 24 3 1 4 2 5 3 7 4 8 5 9 23 10 6 11 7 12 18 13
REMARK SMILES IDX 22 14 8 15 17 16 19 17 21 18 20 19 9 20 10 21 15 22 11 23
REMARK SMILES IDX 12 24 14 25 16 26 13 27 27 28 28 29 29 30 30 32 31 33 32 34
REMARK SMILES IDX 84 35 33 36 83 37 34 38 35 39 36 40 77 41 37 42 82 43 76 44
REMARK SMILES IDX 78 45 38 46 81 47 75 48 74 49 39 51 65 52 48 53 64 54 49 55
REMARK SMILES IDX 52 56 63 57 79 58 50 59 51 60 62 62 80 63 53 64 40 65 41 66
REMARK SMILES IDX 46 67 42 68 43 69 45 70 47 71 44 72 66 73 67 74 72 75 68 76
REMARK SMILES IDX 69 77 71 78 73 79 70 80 54 81 55 82 60 83 56 84 57 85 59 86
REMARK SMILES IDX 61 87 58 88
REMARK H PARENT 24 6 28 31 78 50 52 61
REMARK Flexibility Score: inf
ROOT
ATOM      1  C   UNL A   1      32.011  32.044  27.265  1.00  0.00     0.042 C 
ENDROOT
BRANCH   1   2
ATOM      2  C   UNL A   1      33.141  31.009  27.268  1.00  0.00     0.117 C 
BRANCH   2   3
ATOM      3  N   UNL A   1      32.996  29.964  26.272  1.00  0.00    -0.354 N 
ATOM      4  O   UNL A   1      34.857  28.813  26.908  1.00  0.00    -0.273 OA
ATOM      5  C   UNL A   1      33.881  28.915  26.163  1.00  0.00     0.240 C 
ATOM      6  H   UNL A   1      32.235  30.008  25.649  1.00  0.00     0.163 HD
BRANCH   5   7
ATOM      7  C   UNL A   1      33.749  28.032  24.912  1.00  0.00     0.226 C 
BRANCH   7   8
ATOM      8  N   UNL A   1      32.790  26.926  24.913  1.00  0.00    -0.293 N 
ATOM      9  C   UNL A   1      33.232  25.711  25.427  1.00  0.00     0.294 C 
ATOM     10  C   UNL A   1      31.485  27.038  24.357  1.00  0.00     0.088 A 
ATOM     11  O   UNL A   1      34.277  25.585  26.058  1.00  0.00    -0.265 OA
ATOM     12  C   UNL A   1      32.360  24.537  25.091  1.00  0.00     0.193 C 
ATOM     13  C   UNL A   1      30.606  25.951  24.462  1.00  0.00     0.151 A 
ATOM     14  C   UNL A   1      31.015  28.215  23.760  1.00  0.00     0.030 A 
ATOM     15  C   UNL A   1      32.879  23.325  24.821  1.00  0.00     0.065 C 
ATOM     16  O   UNL A   1      30.995  24.730  24.956  1.00  0.00    -0.449 OA
ATOM     17  C   UNL A   1      29.279  26.052  24.041  1.00  0.00     0.049 A 
ATOM     18  C   UNL A   1      29.686  28.319  23.337  1.00  0.00     0.002 A 
ATOM     19  C   UNL A   1      28.816  27.243  23.488  1.00  0.00     0.004 A 
BRANCH  15  20
ATOM     20  C   UNL A   1      34.317  23.030  24.718  1.00  0.00     0.033 A 
ATOM     21  C   UNL A   1      34.988  23.279  23.517  1.00  0.00     0.132 A 
ATOM     22  C   UNL A   1      35.040  22.444  25.772  1.00  0.00     0.051 A 
ATOM     23  F   UNL A   1      34.339  23.850  22.490  1.00  0.00    -0.206 F 
ATOM     24  C   UNL A   1      36.330  22.941  23.350  1.00  0.00     0.040 A 
ATOM     25  C   UNL A   1      36.390  22.110  25.612  1.00  0.00     0.021 A 
ATOM     26  Cl  UNL A   1      34.306  22.106  27.304  1.00  0.00    -0.084 Cl
ATOM     27  C   UNL A   1      37.033  22.350  24.398  1.00  0.00     0.005 A 
ENDBRANCH  15  20
ENDBRANCH   7   8
ENDBRANCH   5   7
ENDBRANCH   2   3
ENDBRANCH   1   2
BRANCH   1  28
ATOM     28  C   UNL A   1      32.409  33.464  26.871  1.00  0.00     0.118 C 
BRANCH  28  29
ATOM     29  N   UNL A   1      32.279  34.437  27.945  1.00  0.00    -0.352 N 
ATOM     30  C   UNL A   1      33.095  34.678  29.025  1.00  0.00     0.251 C 
ATOM     31  H   UNL A   1      31.483  35.013  27.889  1.00  0.00     0.163 HD
ATOM     32  O   UNL A   1      32.751  35.500  29.869  1.00  0.00    -0.269 OA
BRANCH  30  33
ATOM     33  C   UNL A   1      34.368  33.939  29.205  1.00  0.00     0.039 A 
ATOM     34  C   UNL A   1      34.504  32.930  30.159  1.00  0.00     0.014 A 
ATOM     35  C   UNL A   1      35.450  34.254  28.373  1.00  0.00     0.014 A 
ATOM     36  C   UNL A   1      35.751  32.345  30.382  1.00  0.00     0.010 A 
ATOM     37  C   UNL A   1      36.687  33.623  28.556  1.00  0.00     0.010 A 
ATOM     38  C   UNL A   1      36.862  32.701  29.599  1.00  0.00    -0.014 A 
BRANCH  38  39
ATOM     39  C   UNL A   1      38.195  32.122  29.918  1.00  0.00     0.031 A 
ATOM     40  C   UNL A   1      39.099  32.790  30.921  1.00  0.00     0.074 A 
ATOM     41  C   UNL A   1      38.566  30.953  29.363  1.00  0.00     0.049 A 
ATOM     42  N   UNL A   1      40.242  32.373  31.409  1.00  0.00    -0.248 NA
ATOM     43  C   UNL A   1      38.668  34.097  31.441  1.00  0.00     0.031 C 
ATOM     44  C   UNL A   1      37.795  30.208  28.367  1.00  0.00     0.029 A 
ATOM     45  N   UNL A   1      39.673  30.172  29.582  1.00  0.00    -0.354 N 
ATOM     46  C   UNL A   1      40.667  33.364  32.285  1.00  0.00     0.074 A 
ATOM     47  C   UNL A   1      39.679  34.421  32.235  1.00  0.00     0.031 C 
ATOM     48  C   UNL A   1      38.425  29.052  28.102  1.00  0.00     0.029 A 
ATOM     49  C   UNL A   1      39.656  28.989  28.885  1.00  0.00     0.049 A 
ATOM     50  H   UNL A   1      40.409  30.434  30.182  1.00  0.00     0.167 HD
ATOM     51  C   UNL A   1      41.767  33.387  33.076  1.00  0.00     0.037 A 
ATOM     52  C   UNL A   1      40.526  27.962  28.886  1.00  0.00     0.037 A 
ATOM     53  C   UNL A   1      42.745  32.334  33.151  1.00  0.00     0.049 A 
ATOM     54  C   UNL A   1      41.746  28.020  29.759  1.00  0.00     0.074 A 
ATOM     55  C   UNL A   1      43.868  32.253  33.956  1.00  0.00     0.029 A 
ATOM     56  N   UNL A   1      42.716  31.177  32.390  1.00  0.00    -0.354 N 
ATOM     57  N   UNL A   1      42.108  28.944  30.614  1.00  0.00    -0.248 NA
ATOM     58  C   UNL A   1      42.680  26.888  29.664  1.00  0.00     0.031 C 
ATOM     59  C   UNL A   1      44.537  31.060  33.660  1.00  0.00     0.029 A 
ATOM     60  C   UNL A   1      43.812  30.385  32.691  1.00  0.00     0.049 A 
ATOM     61  H   UNL A   1      42.020  30.950  31.732  1.00  0.00     0.167 HD
ATOM     62  C   UNL A   1      43.305  28.505  31.161  1.00  0.00     0.074 A 
ATOM     63  C   UNL A   1      43.596  27.220  30.562  1.00  0.00     0.031 C 
ATOM     64  C   UNL A   1      44.096  29.114  32.077  1.00  0.00     0.037 A 
BRANCH  51  65
ATOM     65  C   UNL A   1      41.969  34.601  33.933  1.00  0.00     0.057 A 
ATOM     66  C   UNL A   1      41.497  34.633  35.251  1.00  0.00     0.134 A 
ATOM     67  C   UNL A   1      42.606  35.748  33.443  1.00  0.00     0.134 A 
ATOM     68  F   UNL A   1      40.875  33.568  35.778  1.00  0.00    -0.206 F 
ATOM     69  C   UNL A   1      41.653  35.764  36.053  1.00  0.00     0.040 A 
ATOM     70  C   UNL A   1      42.784  36.879  34.242  1.00  0.00     0.040 A 
ATOM     71  F   UNL A   1      43.091  35.774  32.193  1.00  0.00    -0.206 F 
ATOM     72  C   UNL A   1      42.303  36.890  35.549  1.00  0.00     0.006 A 
ENDBRANCH  51  65
BRANCH  52  73
ATOM     73  C   UNL A   1      40.266  26.771  28.041  1.00  0.00     0.057 A 
ATOM     74  C   UNL A   1      40.828  26.645  26.767  1.00  0.00     0.134 A 
ATOM     75  C   UNL A   1      39.459  25.724  28.502  1.00  0.00     0.134 A 
ATOM     76  F   UNL A   1      41.610  27.616  26.273  1.00  0.00    -0.206 F 
ATOM     77  C   UNL A   1      40.591  25.521  25.974  1.00  0.00     0.040 A 
ATOM     78  C   UNL A   1      39.230  24.586  27.728  1.00  0.00     0.040 A 
ATOM     79  F   UNL A   1      38.912  25.782  29.725  1.00  0.00    -0.206 F 
ATOM     80  C   UNL A   1      39.795  24.486  26.458  1.00  0.00     0.006 A 
ENDBRANCH  52  73
BRANCH  64  81
ATOM     81  C   UNL A   1      45.348  28.396  32.477  1.00  0.00     0.057 A 
ATOM     82  C   UNL A   1      45.344  27.478  33.535  1.00  0.00     0.134 A 
ATOM     83  C   UNL A   1      46.563  28.620  31.817  1.00  0.00     0.134 A 
ATOM     84  F   UNL A   1      44.212  27.221  34.210  1.00  0.00    -0.206 F 
ATOM     85  C   UNL A   1      46.504  26.805  33.919  1.00  0.00     0.040 A 
ATOM     86  C   UNL A   1      47.725  27.939  32.179  1.00  0.00     0.040 A 
ATOM     87  F   UNL A   1      46.627  29.475  30.786  1.00  0.00    -0.206 F 
ATOM     88  C   UNL A   1      47.698  27.030  33.237  1.00  0.00     0.006 A 
ENDBRANCH  64  81
ENDBRANCH  38  39
ENDBRANCH  30  33
ENDBRANCH  28  29
ENDBRANCH   1  28
TORSDOF 12
ENDMDL
MODEL 3
REMARK VINA RESULT:     -11.9      1.945      3.901
REMARK SMILES O=C(CN1C(=O)/C(=C\c2c(F)cccc2Cl)Oc2ccccc21)NCCCNC(=O)c1ccc(-c2c3nc(c(-c4c(F)cccc4F)c4ccc([nH]4)c(-c4c(F)cccc4F)c4nc(c(-c5c(F)cccc5F)c5ccc2[nH]5)C=C4)C=C3)cc1
REMARK SMILES IDX 26 1 25 2 24 3 1 4 2 5 3 7 4 8 5 9 23 10 6 11 7 12 18 13
REMARK SMILES IDX 22 14 8 15 17 16 19 17 21 18 20 19 9 20 10 21 15 22 11 23
REMARK SMILES IDX 12 24 14 25 16 26 13 27 27 28 28 29 29 30 30 32 31 33 32 34
REMARK SMILES IDX 84 35 33 36 83 37 34 38 35 39 36 40 77 41 37 42 82 43 76 44
REMARK SMILES IDX 78 45 38 46 81 47 75 48 74 49 39 51 65 52 48 53 64 54 49 55
REMARK SMILES IDX 52 56 63 57 79 58 50 59 51 60 62 62 80 63 53 64 40 65 41 66
REMARK SMILES IDX 46 67 42 68 43 69 45 70 47 71 44 72 66 73 67 74 72 75 68 76
REMARK SMILES IDX 69 77 71 78 73 79 70 80 54 81 55 82 60 83 56 84 57 85 59 86
REMARK SMILES IDX 61 87 58 88
REMARK H PARENT 24 6 28 31 78 50 52 61
REMARK Flexibility Score: inf
ROOT
ATOM      1  C   UNL A   1      39.662  19.853  25.743  1.00  0.00     0.042 C 
ENDROOT
BRANCH   1   2
ATOM      2  C   UNL A   1      39.132  21.286  25.853  1.00  0.00     0.117 C 
BRANCH   2   3
ATOM      3  N   UNL A   1      38.020  21.581  24.970  1.00  0.00    -0.354 N 
ATOM      4  O   UNL A   1      37.696  23.698  25.745  1.00  0.00    -0.273 OA
ATOM      5  C   UNL A   1      37.370  22.794  24.975  1.00  0.00     0.240 C 
ATOM      6  H   UNL A   1      37.719  20.885  24.342  1.00  0.00     0.163 HD
BRANCH   5   7
ATOM      7  C   UNL A   1      36.061  22.876  24.173  1.00  0.00     0.226 C 
BRANCH   7   8
ATOM      8  N   UNL A   1      34.783  22.867  24.886  1.00  0.00    -0.293 N 
ATOM      9  C   UNL A   1      34.268  21.623  25.239  1.00  0.00     0.294 C 
ATOM     10  C   UNL A   1      34.043  24.052  25.156  1.00  0.00     0.088 A 
ATOM     11  O   UNL A   1      34.917  20.583  25.180  1.00  0.00    -0.265 OA
ATOM     12  C   UNL A   1      32.822  21.637  25.641  1.00  0.00     0.193 C 
ATOM     13  C   UNL A   1      32.862  23.960  25.905  1.00  0.00     0.151 A 
ATOM     14  C   UNL A   1      34.478  25.323  24.758  1.00  0.00     0.030 A 
ATOM     15  C   UNL A   1      31.988  20.632  25.314  1.00  0.00     0.065 C 
ATOM     16  O   UNL A   1      32.310  22.758  26.273  1.00  0.00    -0.449 OA
ATOM     17  C   UNL A   1      32.166  25.105  26.299  1.00  0.00     0.049 A 
ATOM     18  C   UNL A   1      33.783  26.471  25.151  1.00  0.00     0.002 A 
ATOM     19  C   UNL A   1      32.634  26.363  25.930  1.00  0.00     0.004 A 
BRANCH  15  20
ATOM     20  C   UNL A   1      32.345  19.486  24.463  1.00  0.00     0.033 A 
ATOM     21  C   UNL A   1      32.742  18.284  25.056  1.00  0.00     0.132 A 
ATOM     22  C   UNL A   1      32.361  19.569  23.060  1.00  0.00     0.051 A 
ATOM     23  F   UNL A   1      32.728  18.156  26.392  1.00  0.00    -0.206 F 
ATOM     24  C   UNL A   1      33.164  17.199  24.288  1.00  0.00     0.040 A 
ATOM     25  C   UNL A   1      32.777  18.480  22.284  1.00  0.00     0.021 A 
ATOM     26  Cl  UNL A   1      31.876  21.008  22.226  1.00  0.00    -0.084 Cl
ATOM     27  C   UNL A   1      33.187  17.298  22.899  1.00  0.00     0.005 A 
ENDBRANCH  15  20
ENDBRANCH   7   8
ENDBRANCH   5   7
ENDBRANCH   2   3
ENDBRANCH   1   2
BRANCH   1  28
ATOM     28  C   UNL A   1      40.883  19.525  26.599  1.00  0.00     0.118 C 
BRANCH  28  29
ATOM     29  N   UNL A   1      42.126  19.429  25.851  1.00  0.00    -0.352 N 
ATOM     30  C   UNL A   1      43.096  20.376  25.620  1.00  0.00     0.251 C 
ATOM     31  H   UNL A   1      42.301  18.549  25.447  1.00  0.00     0.163 HD
ATOM     32  O   UNL A   1      44.039  20.107  24.880  1.00  0.00    -0.269 OA
BRANCH  30  33
ATOM     33  C   UNL A   1      43.008  21.728  26.224  1.00  0.00     0.039 A 
ATOM     34  C   UNL A   1      43.001  22.883  25.441  1.00  0.00     0.014 A 
ATOM     35  C   UNL A   1      42.907  21.835  27.617  1.00  0.00     0.014 A 
ATOM     36  C   UNL A   1      43.042  24.137  26.052  1.00  0.00     0.010 A 
ATOM     37  C   UNL A   1      42.887  23.096  28.227  1.00  0.00     0.010 A 
ATOM     38  C   UNL A   1      43.008  24.258  27.451  1.00  0.00    -0.014 A 
BRANCH  38  39
ATOM     39  C   UNL A   1      43.140  25.604  28.070  1.00  0.00     0.031 A 
ATOM     40  C   UNL A   1      44.500  26.212  28.297  1.00  0.00     0.074 A 
ATOM     41  C   UNL A   1      42.036  26.316  28.363  1.00  0.00     0.049 A 
ATOM     42  N   UNL A   1      44.806  27.415  28.718  1.00  0.00    -0.248 NA
ATOM     43  C   UNL A   1      45.667  25.360  28.021  1.00  0.00     0.031 C 
ATOM     44  C   UNL A   1      40.660  25.844  28.208  1.00  0.00     0.029 A 
ATOM     45  N   UNL A   1      41.898  27.602  28.823  1.00  0.00    -0.354 N 
ATOM     46  C   UNL A   1      46.195  27.462  28.761  1.00  0.00     0.074 A 
ATOM     47  C   UNL A   1      46.672  26.156  28.361  1.00  0.00     0.031 C 
ATOM     48  C   UNL A   1      39.817  26.843  28.514  1.00  0.00     0.029 A 
ATOM     49  C   UNL A   1      40.592  28.015  28.914  1.00  0.00     0.049 A 
ATOM     50  H   UNL A   1      42.663  28.174  29.063  1.00  0.00     0.167 HD
ATOM     51  C   UNL A   1      47.002  28.500  29.085  1.00  0.00     0.037 A 
ATOM     52  C   UNL A   1      40.074  29.206  29.267  1.00  0.00     0.037 A 
ATOM     53  C   UNL A   1      46.542  29.810  29.464  1.00  0.00     0.049 A 
ATOM     54  C   UNL A   1      40.991  30.336  29.637  1.00  0.00     0.074 A 
ATOM     55  C   UNL A   1      47.289  30.936  29.767  1.00  0.00     0.029 A 
ATOM     56  N   UNL A   1      45.210  30.169  29.594  1.00  0.00    -0.354 N 
ATOM     57  N   UNL A   1      42.301  30.375  29.629  1.00  0.00    -0.248 NA
ATOM     58  C   UNL A   1      40.353  31.589  30.067  1.00  0.00     0.031 C 
ATOM     59  C   UNL A   1      46.409  31.968  30.110  1.00  0.00     0.029 A 
ATOM     60  C   UNL A   1      45.114  31.493  29.992  1.00  0.00     0.049 A 
ATOM     61  H   UNL A   1      44.444  29.573  29.428  1.00  0.00     0.167 HD
ATOM     62  C   UNL A   1      42.643  31.654  30.047  1.00  0.00     0.074 A 
ATOM     63  C   UNL A   1      41.405  32.368  30.276  1.00  0.00     0.031 C 
ATOM     64  C   UNL A   1      43.875  32.187  30.229  1.00  0.00     0.037 A 
BRANCH  51  65
ATOM     65  C   UNL A   1      48.482  28.258  29.039  1.00  0.00     0.057 A 
ATOM     66  C   UNL A   1      49.174  27.841  30.182  1.00  0.00     0.134 A 
ATOM     67  C   UNL A   1      49.224  28.466  27.870  1.00  0.00     0.134 A 
ATOM     68  F   UNL A   1      48.521  27.627  31.334  1.00  0.00    -0.206 F 
ATOM     69  C   UNL A   1      50.555  27.637  30.163  1.00  0.00     0.040 A 
ATOM     70  C   UNL A   1      50.603  28.249  27.834  1.00  0.00     0.040 A 
ATOM     71  F   UNL A   1      48.615  28.855  26.739  1.00  0.00    -0.206 F 
ATOM     72  C   UNL A   1      51.272  27.838  28.985  1.00  0.00     0.006 A 
ENDBRANCH  51  65
BRANCH  52  73
ATOM     73  C   UNL A   1      38.604  29.403  29.269  1.00  0.00     0.057 A 
ATOM     74  C   UNL A   1      37.860  29.316  30.450  1.00  0.00     0.134 A 
ATOM     75  C   UNL A   1      37.916  29.700  28.087  1.00  0.00     0.134 A 
ATOM     76  F   UNL A   1      38.466  29.034  31.613  1.00  0.00    -0.206 F 
ATOM     77  C   UNL A   1      36.478  29.510  30.456  1.00  0.00     0.040 A 
ATOM     78  C   UNL A   1      36.538  29.915  28.082  1.00  0.00     0.040 A 
ATOM     79  F   UNL A   1      38.583  29.817  26.930  1.00  0.00    -0.206 F 
ATOM     80  C   UNL A   1      35.815  29.816  29.269  1.00  0.00     0.006 A 
ENDBRANCH  52  73
BRANCH  64  81
ATOM     81  C   UNL A   1      43.936  33.608  30.700  1.00  0.00     0.057 A 
ATOM     82  C   UNL A   1      43.993  33.911  32.066  1.00  0.00     0.134 A 
ATOM     83  C   UNL A   1      43.930  34.679  29.797  1.00  0.00     0.134 A 
ATOM     84  F   UNL A   1      43.998  32.930  32.982  1.00  0.00    -0.206 F 
ATOM     85  C   UNL A   1      44.046  35.230  32.516  1.00  0.00     0.040 A 
ATOM     86  C   UNL A   1      44.002  36.001  30.235  1.00  0.00     0.040 A 
ATOM     87  F   UNL A   1      43.893  34.452  28.475  1.00  0.00    -0.206 F 
ATOM     88  C   UNL A   1      44.056  36.280  31.600  1.00  0.00     0.006 A 
ENDBRANCH  64  81
ENDBRANCH  38  39
ENDBRANCH  30  33
ENDBRANCH  28  29
ENDBRANCH   1  28
TORSDOF 12
ENDMDL
