MODEL 1
REMARK VINA RESULT:     -12.3      0.000      0.000
REMARK SMILES O=C(C[C@@H](C(=O)NCCCNC(=O)c1ccc(-c2c3nc(c(-c4c(F)cccc4F)c4ccc([nH]4)c(-c4c(F)cccc4F)c4nc(c(-c5c(F)cccc5F)c5ccc2[nH]5)C=C4)C=C3)cc1)c1ccccc1)Nc1cc(C(F)(F)F)ccc1-n1cncn1
REMARK SMILES IDX 8 1 7 2 5 3 6 4 4 6 3 7 2 8 1 9 74 10 75 12 76 13 84 14
REMARK SMILES IDX 77 15 83 16 82 17 85 18 86 19 89 20 87 21 88 22 78 23 79 24
REMARK SMILES IDX 80 25 81 26 68 27 69 28 73 29 70 30 72 31 71 32 9 33 10 34
REMARK SMILES IDX 11 35 12 36 13 38 14 39 15 40 67 41 16 42 66 43 17 44 18 45
REMARK SMILES IDX 19 46 60 47 20 48 65 49 59 50 61 51 21 52 64 53 58 54 57 55
REMARK SMILES IDX 22 57 48 58 31 59 47 60 32 61 35 62 46 63 62 64 33 65 34 66
REMARK SMILES IDX 45 68 63 69 36 70 23 71 24 72 29 73 25 74 26 75 28 76 30 77
REMARK SMILES IDX 27 78 49 79 50 80 55 81 51 82 52 83 54 84 56 85 53 86 37 87
REMARK SMILES IDX 38 88 43 89 39 90 40 91 42 92 44 93 41 94
REMARK H PARENT 7 5 74 11 11 37 61 56 35 67
REMARK Flexibility Score: inf
ROOT
ATOM      1  C   UNL A   1      34.005  29.642  27.090  1.00  0.00     0.117 C 
ENDROOT
BRANCH   1   2
ATOM      2  N   UNL A   1      33.117  28.650  27.742  1.00  0.00    -0.355 N 
ATOM      3  C   UNL A   1      32.079  27.889  27.261  1.00  0.00     0.228 C 
ATOM      4  O   UNL A   1      31.103  27.787  28.016  1.00  0.00    -0.274 OA
ATOM      5  H   UNL A   1      33.307  28.512  28.698  1.00  0.00     0.163 HD
BRANCH   3   6
ATOM      6  C   UNL A   1      32.076  27.183  25.878  1.00  0.00     0.118 C 
BRANCH   6   7
ATOM      7  C   UNL A   1      33.392  27.404  25.108  1.00  0.00     0.118 C 
BRANCH   7   8
ATOM      8  C   UNL A   1      34.007  26.121  24.668  1.00  0.00     0.225 C 
ATOM      9  O   UNL A   1      34.101  25.795  23.475  1.00  0.00    -0.275 OA
ATOM     10  N   UNL A   1      34.351  25.337  25.735  1.00  0.00    -0.324 N 
ATOM     11  H   UNL A   1      34.251  25.713  26.638  1.00  0.00     0.170 HD
BRANCH  10  12
ATOM     12  C   UNL A   1      34.833  24.036  25.613  1.00  0.00     0.067 A 
ATOM     13  C   UNL A   1      36.142  23.943  26.017  1.00  0.00     0.041 A 
ATOM     14  C   UNL A   1      34.155  22.889  25.224  1.00  0.00     0.090 A 
ATOM     15  C   UNL A   1      36.915  22.826  25.820  1.00  0.00     0.058 A 
ATOM     16  C   UNL A   1      34.826  21.663  25.279  1.00  0.00     0.031 A 
ATOM     17  C   UNL A   1      36.223  21.653  25.495  1.00  0.00     0.015 A 
BRANCH  14  18
ATOM     18  N   UNL A   1      32.869  22.977  24.666  1.00  0.00    -0.219 N 
ATOM     19  C   UNL A   1      32.501  22.596  23.397  1.00  0.00     0.226 A 
ATOM     20  N   UNL A   1      31.778  23.409  25.338  1.00  0.00    -0.155 NA
ATOM     21  N   UNL A   1      31.264  22.955  23.153  1.00  0.00    -0.223 NA
ATOM     22  C   UNL A   1      30.887  23.503  24.346  1.00  0.00     0.246 A 
ENDBRANCH  14  18
BRANCH  15  23
ATOM     23  C   UNL A   1      38.371  23.132  26.070  1.00  0.00     0.416 C 
ATOM     24  F   UNL A   1      38.715  24.374  25.597  1.00  0.00    -0.166 F 
ATOM     25  F   UNL A   1      38.663  23.229  27.392  1.00  0.00    -0.166 F 
ATOM     26  F   UNL A   1      39.273  22.293  25.513  1.00  0.00    -0.166 F 
ENDBRANCH  15  23
ENDBRANCH  10  12
ENDBRANCH   7   8
ENDBRANCH   6   7
BRANCH   6  27
ATOM     27  C   UNL A   1      31.002  27.754  24.923  1.00  0.00    -0.035 A 
ATOM     28  C   UNL A   1      31.099  29.058  24.390  1.00  0.00     0.004 A 
ATOM     29  C   UNL A   1      29.998  26.917  24.413  1.00  0.00     0.004 A 
ATOM     30  C   UNL A   1      30.218  29.512  23.404  1.00  0.00     0.000 A 
ATOM     31  C   UNL A   1      29.112  27.375  23.429  1.00  0.00     0.000 A 
ATOM     32  C   UNL A   1      29.219  28.671  22.928  1.00  0.00     0.000 A 
ENDBRANCH   6  27
ENDBRANCH   3   6
ENDBRANCH   1   2
BRANCH   1  33
ATOM     33  C   UNL A   1      33.516  31.124  27.291  1.00  0.00     0.042 C 
BRANCH  33  34
ATOM     34  C   UNL A   1      34.241  32.170  28.240  1.00  0.00     0.118 C 
BRANCH  34  35
ATOM     35  N   UNL A   1      34.926  31.584  29.479  1.00  0.00    -0.352 N 
ATOM     36  C   UNL A   1      36.010  30.977  30.122  1.00  0.00     0.251 C 
ATOM     37  H   UNL A   1      34.257  31.691  30.193  1.00  0.00     0.163 HD
ATOM     38  O   UNL A   1      35.894  31.091  31.357  1.00  0.00    -0.269 OA
BRANCH  36  39
ATOM     39  C   UNL A   1      37.230  30.131  29.725  1.00  0.00     0.039 A 
ATOM     40  C   UNL A   1      37.567  30.065  28.342  1.00  0.00     0.014 A 
ATOM     41  C   UNL A   1      38.059  29.342  30.500  1.00  0.00     0.014 A 
ATOM     42  C   UNL A   1      38.781  29.493  27.825  1.00  0.00     0.010 A 
ATOM     43  C   UNL A   1      39.334  28.882  30.016  1.00  0.00     0.010 A 
ATOM     44  C   UNL A   1      39.766  29.000  28.681  1.00  0.00    -0.014 A 
BRANCH  44  45
ATOM     45  C   UNL A   1      41.206  28.650  28.283  1.00  0.00     0.031 A 
ATOM     46  C   UNL A   1      41.597  27.217  27.921  1.00  0.00     0.074 A 
ATOM     47  C   UNL A   1      42.241  29.516  28.453  1.00  0.00     0.049 A 
ATOM     48  N   UNL A   1      42.784  26.681  27.732  1.00  0.00    -0.248 NA
ATOM     49  C   UNL A   1      40.500  26.243  27.843  1.00  0.00     0.031 C 
ATOM     50  C   UNL A   1      42.132  30.894  28.933  1.00  0.00     0.029 A 
ATOM     51  N   UNL A   1      43.611  29.344  28.307  1.00  0.00    -0.354 N 
ATOM     52  C   UNL A   1      42.570  25.312  27.567  1.00  0.00     0.074 A 
ATOM     53  C   UNL A   1      41.157  25.096  27.786  1.00  0.00     0.031 C 
ATOM     54  C   UNL A   1      43.362  31.424  29.070  1.00  0.00     0.029 A 
ATOM     55  C   UNL A   1      44.369  30.440  28.675  1.00  0.00     0.049 A 
ATOM     56  H   UNL A   1      44.010  28.509  27.970  1.00  0.00     0.167 HD
ATOM     57  C   UNL A   1      43.432  24.318  27.223  1.00  0.00     0.037 A 
ATOM     58  C   UNL A   1      45.706  30.652  28.686  1.00  0.00     0.037 A 
ATOM     59  C   UNL A   1      44.840  24.501  26.976  1.00  0.00     0.049 A 
ATOM     60  C   UNL A   1      46.660  29.573  28.222  1.00  0.00     0.074 A 
ATOM     61  C   UNL A   1      45.762  23.587  26.490  1.00  0.00     0.029 A 
ATOM     62  N   UNL A   1      45.532  25.676  27.211  1.00  0.00    -0.354 N 
ATOM     63  N   UNL A   1      46.403  28.334  27.879  1.00  0.00    -0.248 NA
ATOM     64  C   UNL A   1      48.087  29.933  28.113  1.00  0.00     0.031 C 
ATOM     65  C   UNL A   1      47.021  24.199  26.471  1.00  0.00     0.029 A 
ATOM     66  C   UNL A   1      46.871  25.509  26.891  1.00  0.00     0.049 A 
ATOM     67  H   UNL A   1      45.133  26.508  27.555  1.00  0.00     0.167 HD
ATOM     68  C   UNL A   1      47.616  27.791  27.463  1.00  0.00     0.074 A 
ATOM     69  C   UNL A   1      48.612  28.828  27.600  1.00  0.00     0.031 C 
ATOM     70  C   UNL A   1      47.867  26.543  26.996  1.00  0.00     0.037 A 
BRANCH  57  71
ATOM     71  C   UNL A   1      42.858  22.933  27.034  1.00  0.00     0.057 A 
ATOM     72  C   UNL A   1      42.655  22.395  25.753  1.00  0.00     0.134 A 
ATOM     73  C   UNL A   1      42.535  22.114  28.125  1.00  0.00     0.134 A 
ATOM     74  F   UNL A   1      42.949  23.115  24.659  1.00  0.00    -0.206 F 
ATOM     75  C   UNL A   1      42.100  21.129  25.564  1.00  0.00     0.040 A 
ATOM     76  C   UNL A   1      42.016  20.827  27.948  1.00  0.00     0.040 A 
ATOM     77  F   UNL A   1      42.725  22.542  29.382  1.00  0.00    -0.206 F 
ATOM     78  C   UNL A   1      41.782  20.338  26.665  1.00  0.00     0.006 A 
ENDBRANCH  57  71
BRANCH  58  79
ATOM     79  C   UNL A   1      46.253  31.996  29.042  1.00  0.00     0.057 A 
ATOM     80  C   UNL A   1      46.624  32.279  30.365  1.00  0.00     0.134 A 
ATOM     81  C   UNL A   1      46.403  33.026  28.105  1.00  0.00     0.134 A 
ATOM     82  F   UNL A   1      46.470  31.349  31.319  1.00  0.00    -0.206 F 
ATOM     83  C   UNL A   1      47.112  33.531  30.746  1.00  0.00     0.040 A 
ATOM     84  C   UNL A   1      46.913  34.278  28.469  1.00  0.00     0.040 A 
ATOM     85  F   UNL A   1      46.060  32.831  26.823  1.00  0.00    -0.206 F 
ATOM     86  C   UNL A   1      47.266  34.533  29.793  1.00  0.00     0.006 A 
ENDBRANCH  58  79
BRANCH  70  87
ATOM     87  C   UNL A   1      49.258  26.229  26.521  1.00  0.00     0.057 A 
ATOM     88  C   UNL A   1      49.722  26.606  25.255  1.00  0.00     0.134 A 
ATOM     89  C   UNL A   1      50.170  25.595  27.378  1.00  0.00     0.134 A 
ATOM     90  F   UNL A   1      48.903  27.209  24.382  1.00  0.00    -0.206 F 
ATOM     91  C   UNL A   1      51.035  26.348  24.852  1.00  0.00     0.040 A 
ATOM     92  C   UNL A   1      51.490  25.356  26.997  1.00  0.00     0.040 A 
ATOM     93  F   UNL A   1      49.795  25.215  28.609  1.00  0.00    -0.206 F 
ATOM     94  C   UNL A   1      51.926  25.729  25.728  1.00  0.00     0.006 A 
ENDBRANCH  70  87
ENDBRANCH  44  45
ENDBRANCH  36  39
ENDBRANCH  34  35
ENDBRANCH  33  34
ENDBRANCH   1  33
TORSDOF 16
ENDMDL
MODEL 2
REMARK VINA RESULT:     -12.3      0.607      5.940
REMARK SMILES O=C(C[C@@H](C(=O)NCCCNC(=O)c1ccc(-c2c3nc(c(-c4c(F)cccc4F)c4ccc([nH]4)c(-c4c(F)cccc4F)c4nc(c(-c5c(F)cccc5F)c5ccc2[nH]5)C=C4)C=C3)cc1)c1ccccc1)Nc1cc(C(F)(F)F)ccc1-n1cncn1
REMARK SMILES IDX 8 1 7 2 5 3 6 4 4 6 3 7 2 8 1 9 74 10 75 12 76 13 84 14
REMARK SMILES IDX 77 15 83 16 82 17 85 18 86 19 89 20 87 21 88 22 78 23 79 24
REMARK SMILES IDX 80 25 81 26 68 27 69 28 73 29 70 30 72 31 71 32 9 33 10 34
REMARK SMILES IDX 11 35 12 36 13 38 14 39 15 40 67 41 16 42 66 43 17 44 18 45
REMARK SMILES IDX 19 46 60 47 20 48 65 49 59 50 61 51 21 52 64 53 58 54 57 55
REMARK SMILES IDX 22 57 48 58 31 59 47 60 32 61 35 62 46 63 62 64 33 65 34 66
REMARK SMILES IDX 45 68 63 69 36 70 23 71 24 72 29 73 25 74 26 75 28 76 30 77
REMARK SMILES IDX 27 78 49 79 50 80 55 81 51 82 52 83 54 84 56 85 53 86 37 87
REMARK SMILES IDX 38 88 43 89 39 90 40 91 42 92 44 93 41 94
REMARK H PARENT 7 5 74 11 11 37 61 56 35 67
REMARK Flexibility Score: inf
ROOT
ATOM      1  C   UNL A   1      33.935  29.741  27.112  1.00  0.00     0.117 C 
ENDROOT
BRANCH   1   2
ATOM      2  N   UNL A   1      33.042  28.726  27.719  1.00  0.00    -0.355 N 
ATOM      3  C   UNL A   1      32.043  27.945  27.190  1.00  0.00     0.228 C 
ATOM      4  O   UNL A   1      31.037  27.818  27.901  1.00  0.00    -0.274 OA
ATOM      5  H   UNL A   1      33.194  28.586  28.682  1.00  0.00     0.163 HD
BRANCH   3   6
ATOM      6  C   UNL A   1      32.115  27.248  25.804  1.00  0.00     0.118 C 
BRANCH   6   7
ATOM      7  C   UNL A   1      33.515  27.352  25.172  1.00  0.00     0.118 C 
BRANCH   7   8
ATOM      8  C   UNL A   1      34.023  26.029  24.711  1.00  0.00     0.225 C 
ATOM      9  O   UNL A   1      34.036  25.694  23.517  1.00  0.00    -0.275 OA
ATOM     10  N   UNL A   1      34.367  25.229  25.765  1.00  0.00    -0.324 N 
ATOM     11  H   UNL A   1      34.337  25.615  26.670  1.00  0.00     0.170 HD
BRANCH  10  12
ATOM     12  C   UNL A   1      34.757  23.899  25.629  1.00  0.00     0.067 A 
ATOM     13  C   UNL A   1      36.073  23.720  25.977  1.00  0.00     0.041 A 
ATOM     14  C   UNL A   1      33.988  22.798  25.276  1.00  0.00     0.090 A 
ATOM     15  C   UNL A   1      36.761  22.554  25.752  1.00  0.00     0.058 A 
ATOM     16  C   UNL A   1      34.578  21.530  25.308  1.00  0.00     0.031 A 
ATOM     17  C   UNL A   1      35.979  21.429  25.464  1.00  0.00     0.015 A 
BRANCH  14  18
ATOM     18  N   UNL A   1      32.687  22.971  24.775  1.00  0.00    -0.219 N 
ATOM     19  C   UNL A   1      32.251  22.654  23.509  1.00  0.00     0.226 A 
ATOM     20  N   UNL A   1      31.647  23.432  25.504  1.00  0.00    -0.155 NA
ATOM     21  N   UNL A   1      31.026  23.082  23.328  1.00  0.00    -0.223 NA
ATOM     22  C   UNL A   1      30.723  23.605  24.553  1.00  0.00     0.246 A 
ENDBRANCH  14  18
BRANCH  15  23
ATOM     23  C   UNL A   1      38.244  22.764  25.937  1.00  0.00     0.416 C 
ATOM     24  F   UNL A   1      38.657  23.956  25.396  1.00  0.00    -0.166 F 
ATOM     25  F   UNL A   1      38.592  22.895  27.242  1.00  0.00    -0.166 F 
ATOM     26  F   UNL A   1      39.062  21.838  25.388  1.00  0.00    -0.166 F 
ENDBRANCH  15  23
ENDBRANCH  10  12
ENDBRANCH   7   8
ENDBRANCH   6   7
BRANCH   6  27
ATOM     27  C   UNL A   1      31.198  27.919  24.755  1.00  0.00    -0.035 A 
ATOM     28  C   UNL A   1      30.273  27.173  23.990  1.00  0.00     0.004 A 
ATOM     29  C   UNL A   1      31.130  29.318  24.673  1.00  0.00     0.004 A 
ATOM     30  C   UNL A   1      29.335  27.800  23.164  1.00  0.00     0.000 A 
ATOM     31  C   UNL A   1      30.194  29.944  23.840  1.00  0.00     0.000 A 
ATOM     32  C   UNL A   1      29.300  29.187  23.084  1.00  0.00     0.000 A 
ENDBRANCH   6  27
ENDBRANCH   3   6
ENDBRANCH   1   2
BRANCH   1  33
ATOM     33  C   UNL A   1      33.383  31.207  27.260  1.00  0.00     0.042 C 
BRANCH  33  34
ATOM     34  C   UNL A   1      34.077  32.325  28.148  1.00  0.00     0.118 C 
BRANCH  34  35
ATOM     35  N   UNL A   1      34.680  31.846  29.473  1.00  0.00    -0.352 N 
ATOM     36  C   UNL A   1      35.701  31.258  30.227  1.00  0.00     0.251 C 
ATOM     37  H   UNL A   1      33.990  32.067  30.141  1.00  0.00     0.163 HD
ATOM     38  O   UNL A   1      35.543  31.515  31.436  1.00  0.00    -0.269 OA
BRANCH  36  39
ATOM     39  C   UNL A   1      36.885  30.310  29.981  1.00  0.00     0.039 A 
ATOM     40  C   UNL A   1      37.319  30.130  28.635  1.00  0.00     0.014 A 
ATOM     41  C   UNL A   1      37.597  29.523  30.865  1.00  0.00     0.014 A 
ATOM     42  C   UNL A   1      38.525  29.448  28.252  1.00  0.00     0.010 A 
ATOM     43  C   UNL A   1      38.869  28.949  30.514  1.00  0.00     0.010 A 
ATOM     44  C   UNL A   1      39.407  28.950  29.212  1.00  0.00    -0.014 A 
BRANCH  44  45
ATOM     45  C   UNL A   1      40.844  28.482  28.951  1.00  0.00     0.031 A 
ATOM     46  C   UNL A   1      41.994  29.484  28.848  1.00  0.00     0.074 A 
ATOM     47  C   UNL A   1      41.138  27.209  28.569  1.00  0.00     0.049 A 
ATOM     48  N   UNL A   1      43.240  29.313  28.458  1.00  0.00    -0.248 NA
ATOM     49  C   UNL A   1      41.665  30.883  29.149  1.00  0.00     0.031 C 
ATOM     50  C   UNL A   1      40.180  26.111  28.446  1.00  0.00     0.029 A 
ATOM     51  N   UNL A   1      42.328  26.634  28.141  1.00  0.00    -0.354 N 
ATOM     52  C   UNL A   1      43.812  30.585  28.422  1.00  0.00     0.074 A 
ATOM     53  C   UNL A   1      42.748  31.516  28.725  1.00  0.00     0.031 C 
ATOM     54  C   UNL A   1      40.800  25.022  27.953  1.00  0.00     0.029 A 
ATOM     55  C   UNL A   1      42.214  25.319  27.732  1.00  0.00     0.049 A 
ATOM     56  H   UNL A   1      43.182  27.124  28.129  1.00  0.00     0.167 HD
ATOM     57  C   UNL A   1      45.100  30.968  28.208  1.00  0.00     0.037 A 
ATOM     58  C   UNL A   1      43.125  24.440  27.251  1.00  0.00     0.037 A 
ATOM     59  C   UNL A   1      46.189  30.068  27.927  1.00  0.00     0.049 A 
ATOM     60  C   UNL A   1      44.575  24.843  27.093  1.00  0.00     0.074 A 
ATOM     61  C   UNL A   1      47.544  30.345  27.834  1.00  0.00     0.029 A 
ATOM     62  N   UNL A   1      46.044  28.714  27.678  1.00  0.00    -0.354 N 
ATOM     63  N   UNL A   1      45.128  26.020  27.259  1.00  0.00    -0.248 NA
ATOM     64  C   UNL A   1      45.533  23.788  26.714  1.00  0.00     0.031 C 
ATOM     65  C   UNL A   1      48.213  29.166  27.487  1.00  0.00     0.029 A 
ATOM     66  C   UNL A   1      47.281  28.145  27.421  1.00  0.00     0.049 A 
ATOM     67  H   UNL A   1      45.188  28.227  27.683  1.00  0.00     0.167 HD
ATOM     68  C   UNL A   1      46.494  25.833  27.064  1.00  0.00     0.074 A 
ATOM     69  C   UNL A   1      46.691  24.434  26.760  1.00  0.00     0.031 C 
ATOM     70  C   UNL A   1      47.493  26.747  27.145  1.00  0.00     0.037 A 
BRANCH  57  71
ATOM     71  C   UNL A   1      45.416  32.441  28.330  1.00  0.00     0.057 A 
ATOM     72  C   UNL A   1      45.786  33.010  29.558  1.00  0.00     0.134 A 
ATOM     73  C   UNL A   1      45.389  33.294  27.218  1.00  0.00     0.134 A 
ATOM     74  F   UNL A   1      45.845  32.255  30.667  1.00  0.00    -0.206 F 
ATOM     75  C   UNL A   1      46.054  34.373  29.690  1.00  0.00     0.040 A 
ATOM     76  C   UNL A   1      45.696  34.654  27.329  1.00  0.00     0.040 A 
ATOM     77  F   UNL A   1      45.073  32.824  26.002  1.00  0.00    -0.206 F 
ATOM     78  C   UNL A   1      46.014  35.200  28.571  1.00  0.00     0.006 A 
ENDBRANCH  57  71
BRANCH  58  79
ATOM     79  C   UNL A   1      42.735  23.023  26.982  1.00  0.00     0.057 A 
ATOM     80  C   UNL A   1      42.457  22.154  28.047  1.00  0.00     0.134 A 
ATOM     81  C   UNL A   1      42.646  22.494  25.689  1.00  0.00     0.134 A 
ATOM     82  F   UNL A   1      42.562  22.587  29.312  1.00  0.00    -0.206 F 
ATOM     83  C   UNL A   1      42.117  20.815  27.841  1.00  0.00     0.040 A 
ATOM     84  C   UNL A   1      42.283  21.160  25.467  1.00  0.00     0.040 A 
ATOM     85  F   UNL A   1      42.906  23.264  24.622  1.00  0.00    -0.206 F 
ATOM     86  C   UNL A   1      42.021  20.316  26.545  1.00  0.00     0.006 A 
ENDBRANCH  58  79
BRANCH  70  87
ATOM     87  C   UNL A   1      48.908  26.271  26.979  1.00  0.00     0.057 A 
ATOM     88  C   UNL A   1      49.632  25.686  28.026  1.00  0.00     0.134 A 
ATOM     89  C   UNL A   1      49.533  26.339  25.725  1.00  0.00     0.134 A 
ATOM     90  F   UNL A   1      49.099  25.595  29.253  1.00  0.00    -0.206 F 
ATOM     91  C   UNL A   1      50.929  25.203  27.837  1.00  0.00     0.040 A 
ATOM     92  C   UNL A   1      50.818  25.836  25.518  1.00  0.00     0.040 A 
ATOM     93  F   UNL A   1      48.894  26.878  24.676  1.00  0.00    -0.206 F 
ATOM     94  C   UNL A   1      51.522  25.269  26.577  1.00  0.00     0.006 A 
ENDBRANCH  70  87
ENDBRANCH  44  45
ENDBRANCH  36  39
ENDBRANCH  34  35
ENDBRANCH  33  34
ENDBRANCH   1  33
TORSDOF 16
ENDMDL
MODEL 3
REMARK VINA RESULT:     -10.6      5.699     12.466
REMARK SMILES O=C(C[C@@H](C(=O)NCCCNC(=O)c1ccc(-c2c3nc(c(-c4c(F)cccc4F)c4ccc([nH]4)c(-c4c(F)cccc4F)c4nc(c(-c5c(F)cccc5F)c5ccc2[nH]5)C=C4)C=C3)cc1)c1ccccc1)Nc1cc(C(F)(F)F)ccc1-n1cncn1
REMARK SMILES IDX 8 1 7 2 5 3 6 4 4 6 3 7 2 8 1 9 74 10 75 12 76 13 84 14
REMARK SMILES IDX 77 15 83 16 82 17 85 18 86 19 89 20 87 21 88 22 78 23 79 24
REMARK SMILES IDX 80 25 81 26 68 27 69 28 73 29 70 30 72 31 71 32 9 33 10 34
REMARK SMILES IDX 11 35 12 36 13 38 14 39 15 40 67 41 16 42 66 43 17 44 18 45
REMARK SMILES IDX 19 46 60 47 20 48 65 49 59 50 61 51 21 52 64 53 58 54 57 55
REMARK SMILES IDX 22 57 48 58 31 59 47 60 32 61 35 62 46 63 62 64 33 65 34 66
REMARK SMILES IDX 45 68 63 69 36 70 23 71 24 72 29 73 25 74 26 75 28 76 30 77
REMARK SMILES IDX 27 78 49 79 50 80 55 81 51 82 52 83 54 84 56 85 53 86 37 87
REMARK SMILES IDX 38 88 43 89 39 90 40 91 42 92 44 93 41 94
REMARK H PARENT 7 5 74 11 11 37 61 56 35 67
REMARK Flexibility Score: inf
ROOT
ATOM      1  C   UNL A   1      45.425  26.142  25.377  1.00  0.00     0.117 C 
ENDROOT
BRANCH   1   2
ATOM      2  N   UNL A   1      46.730  26.693  25.813  1.00  0.00    -0.355 N 
ATOM      3  C   UNL A   1      47.059  27.675  26.716  1.00  0.00     0.228 C 
ATOM      4  O   UNL A   1      47.975  28.432  26.366  1.00  0.00    -0.274 OA
ATOM      5  H   UNL A   1      47.506  26.277  25.372  1.00  0.00     0.163 HD
BRANCH   3   6
ATOM      6  C   UNL A   1      46.365  27.870  28.091  1.00  0.00     0.118 C 
BRANCH   6   7
ATOM      7  C   UNL A   1      45.504  26.656  28.487  1.00  0.00     0.118 C 
BRANCH   7   8
ATOM      8  C   UNL A   1      46.146  25.837  29.553  1.00  0.00     0.225 C 
ATOM      9  O   UNL A   1      46.866  24.858  29.305  1.00  0.00    -0.275 OA
ATOM     10  N   UNL A   1      45.759  26.243  30.800  1.00  0.00    -0.324 N 
ATOM     11  H   UNL A   1      45.201  27.050  30.873  1.00  0.00     0.170 HD
BRANCH  10  12
ATOM     12  C   UNL A   1      46.110  25.578  31.972  1.00  0.00     0.067 A 
ATOM     13  C   UNL A   1      45.136  24.693  32.362  1.00  0.00     0.041 A 
ATOM     14  C   UNL A   1      47.293  25.655  32.696  1.00  0.00     0.090 A 
ATOM     15  C   UNL A   1      45.140  24.055  33.577  1.00  0.00     0.058 A 
ATOM     16  C   UNL A   1      47.463  24.805  33.793  1.00  0.00     0.031 A 
ATOM     17  C   UNL A   1      46.353  24.074  34.275  1.00  0.00     0.015 A 
BRANCH  14  18
ATOM     18  N   UNL A   1      48.240  26.652  32.407  1.00  0.00    -0.219 N 
ATOM     19  C   UNL A   1      49.569  26.455  32.113  1.00  0.00     0.226 A 
ATOM     20  N   UNL A   1      47.953  27.970  32.323  1.00  0.00    -0.155 NA
ATOM     21  N   UNL A   1      50.196  27.604  32.046  1.00  0.00    -0.223 NA
ATOM     22  C   UNL A   1      49.180  28.495  32.243  1.00  0.00     0.246 A 
ENDBRANCH  14  18
BRANCH  15  23
ATOM     23  C   UNL A   1      43.802  23.412  33.848  1.00  0.00     0.416 C 
ATOM     24  F   UNL A   1      42.873  24.333  34.266  1.00  0.00    -0.166 F 
ATOM     25  F   UNL A   1      43.231  22.907  32.725  1.00  0.00    -0.166 F 
ATOM     26  F   UNL A   1      43.772  22.444  34.791  1.00  0.00    -0.166 F 
ENDBRANCH  15  23
ENDBRANCH  10  12
ENDBRANCH   7   8
ENDBRANCH   6   7
BRANCH   6  27
ATOM     27  C   UNL A   1      45.353  29.040  28.084  1.00  0.00    -0.035 A 
ATOM     28  C   UNL A   1      44.780  29.520  26.885  1.00  0.00     0.004 A 
ATOM     29  C   UNL A   1      44.835  29.528  29.293  1.00  0.00     0.004 A 
ATOM     30  C   UNL A   1      43.747  30.463  26.896  1.00  0.00     0.000 A 
ATOM     31  C   UNL A   1      43.804  30.478  29.302  1.00  0.00     0.000 A 
ATOM     32  C   UNL A   1      43.264  30.947  28.105  1.00  0.00     0.000 A 
ENDBRANCH   6  27
ENDBRANCH   3   6
ENDBRANCH   1   2
BRANCH   1  33
ATOM     33  C   UNL A   1      45.436  24.574  25.249  1.00  0.00     0.042 C 
BRANCH  33  34
ATOM     34  C   UNL A   1      44.239  23.732  24.634  1.00  0.00     0.118 C 
BRANCH  34  35
ATOM     35  N   UNL A   1      43.037  23.508  25.557  1.00  0.00    -0.352 N 
ATOM     36  C   UNL A   1      41.957  23.971  26.317  1.00  0.00     0.251 C 
ATOM     37  H   UNL A   1      43.010  22.531  25.679  1.00  0.00     0.163 HD
ATOM     38  O   UNL A   1      41.185  23.029  26.582  1.00  0.00    -0.269 OA
BRANCH  36  39
ATOM     39  C   UNL A   1      41.529  25.284  26.988  1.00  0.00     0.039 A 
ATOM     40  C   UNL A   1      40.455  25.230  27.923  1.00  0.00     0.014 A 
ATOM     41  C   UNL A   1      41.983  26.575  26.794  1.00  0.00     0.014 A 
ATOM     42  C   UNL A   1      40.066  26.314  28.783  1.00  0.00     0.010 A 
ATOM     43  C   UNL A   1      41.695  27.628  27.732  1.00  0.00     0.010 A 
ATOM     44  C   UNL A   1      40.780  27.513  28.796  1.00  0.00    -0.014 A 
BRANCH  44  45
ATOM     45  C   UNL A   1      40.662  28.615  29.859  1.00  0.00     0.031 A 
ATOM     46  C   UNL A   1      41.454  28.538  31.164  1.00  0.00     0.074 A 
ATOM     47  C   UNL A   1      39.696  29.572  29.812  1.00  0.00     0.049 A 
ATOM     48  N   UNL A   1      41.363  29.265  32.258  1.00  0.00    -0.248 NA
ATOM     49  C   UNL A   1      42.423  27.440  31.273  1.00  0.00     0.031 C 
ATOM     50  C   UNL A   1      38.721  29.751  28.737  1.00  0.00     0.029 A 
ATOM     51  N   UNL A   1      39.326  30.543  30.734  1.00  0.00    -0.354 N 
ATOM     52  C   UNL A   1      42.221  28.676  33.187  1.00  0.00     0.074 A 
ATOM     53  C   UNL A   1      42.734  27.478  32.559  1.00  0.00     0.031 C 
ATOM     54  C   UNL A   1      37.858  30.731  29.066  1.00  0.00     0.029 A 
ATOM     55  C   UNL A   1      38.213  31.280  30.374  1.00  0.00     0.049 A 
ATOM     56  H   UNL A   1      39.815  30.694  31.575  1.00  0.00     0.167 HD
ATOM     57  C   UNL A   1      42.600  29.090  34.426  1.00  0.00     0.037 A 
ATOM     58  C   UNL A   1      37.554  32.285  30.998  1.00  0.00     0.037 A 
ATOM     59  C   UNL A   1      42.128  30.288  35.072  1.00  0.00     0.049 A 
ATOM     60  C   UNL A   1      38.029  32.801  32.338  1.00  0.00     0.074 A 
ATOM     61  C   UNL A   1      42.555  30.860  36.260  1.00  0.00     0.029 A 
ATOM     62  N   UNL A   1      41.108  31.090  34.590  1.00  0.00    -0.354 N 
ATOM     63  N   UNL A   1      38.982  32.340  33.110  1.00  0.00    -0.248 NA
ATOM     64  C   UNL A   1      37.357  33.998  32.878  1.00  0.00     0.031 C 
ATOM     65  C   UNL A   1      41.765  31.986  36.516  1.00  0.00     0.029 A 
ATOM     66  C   UNL A   1      40.884  32.145  35.460  1.00  0.00     0.049 A 
ATOM     67  H   UNL A   1      40.614  30.933  33.752  1.00  0.00     0.167 HD
ATOM     68  C   UNL A   1      39.062  33.218  34.188  1.00  0.00     0.074 A 
ATOM     69  C   UNL A   1      38.059  34.237  33.979  1.00  0.00     0.031 C 
ATOM     70  C   UNL A   1      39.907  33.182  35.248  1.00  0.00     0.037 A 
BRANCH  57  71
ATOM     71  C   UNL A   1      43.633  28.259  35.151  1.00  0.00     0.057 A 
ATOM     72  C   UNL A   1      43.258  27.238  36.039  1.00  0.00     0.134 A 
ATOM     73  C   UNL A   1      45.007  28.446  34.944  1.00  0.00     0.134 A 
ATOM     74  F   UNL A   1      41.961  26.991  36.281  1.00  0.00    -0.206 F 
ATOM     75  C   UNL A   1      44.201  26.481  36.736  1.00  0.00     0.040 A 
ATOM     76  C   UNL A   1      45.962  27.667  35.606  1.00  0.00     0.040 A 
ATOM     77  F   UNL A   1      45.450  29.381  34.090  1.00  0.00    -0.206 F 
ATOM     78  C   UNL A   1      45.559  26.692  36.516  1.00  0.00     0.006 A 
ENDBRANCH  57  71
BRANCH  58  79
ATOM     79  C   UNL A   1      36.421  32.980  30.315  1.00  0.00     0.057 A 
ATOM     80  C   UNL A   1      36.673  33.878  29.267  1.00  0.00     0.134 A 
ATOM     81  C   UNL A   1      35.084  32.793  30.685  1.00  0.00     0.134 A 
ATOM     82  F   UNL A   1      37.934  34.131  28.889  1.00  0.00    -0.206 F 
ATOM     83  C   UNL A   1      35.646  34.570  28.621  1.00  0.00     0.040 A 
ATOM     84  C   UNL A   1      34.043  33.462  30.031  1.00  0.00     0.040 A 
ATOM     85  F   UNL A   1      34.768  31.956  31.685  1.00  0.00    -0.206 F 
ATOM     86  C   UNL A   1      34.323  34.356  28.998  1.00  0.00     0.006 A 
ENDBRANCH  58  79
BRANCH  70  87
ATOM     87  C   UNL A   1      39.853  34.309  36.240  1.00  0.00     0.057 A 
ATOM     88  C   UNL A   1      39.117  34.228  37.429  1.00  0.00     0.134 A 
ATOM     89  C   UNL A   1      40.608  35.472  36.029  1.00  0.00     0.134 A 
ATOM     90  F   UNL A   1      38.367  33.148  37.692  1.00  0.00    -0.206 F 
ATOM     91  C   UNL A   1      39.120  35.268  38.362  1.00  0.00     0.040 A 
ATOM     92  C   UNL A   1      40.640  36.506  36.966  1.00  0.00     0.040 A 
ATOM     93  F   UNL A   1      41.343  35.612  34.916  1.00  0.00    -0.206 F 
ATOM     94  C   UNL A   1      39.891  36.408  38.136  1.00  0.00     0.006 A 
ENDBRANCH  70  87
ENDBRANCH  44  45
ENDBRANCH  36  39
ENDBRANCH  34  35
ENDBRANCH  33  34
ENDBRANCH   1  33
TORSDOF 16
ENDMDL
