MODEL 1
REMARK VINA RESULT:     -10.7      0.000      0.000
REMARK SMILES Cn1cccc1C[NH2+]Cc1ccc(C(=O)NCCCNC(=O)c2ccc(-c3c4nc(c(-c5c(F)cccc5F)c5ccc([nH]5)c(-c5c(F)cccc5F)c5nc(c(-c6c(F)cccc6F)c6ccc3[nH]6)C=C5)C=C4)cc2)cc1
REMARK SMILES IDX 17 1 16 2 14 3 15 4 13 6 10 7 11 8 78 9 12 10 77 11 9 12
REMARK SMILES IDX 8 13 7 16 6 17 1 18 2 19 3 20 4 21 5 22 18 23 19 24 20 25
REMARK SMILES IDX 21 26 22 28 23 29 24 30 76 31 25 32 75 33 26 34 27 35 28 36
REMARK SMILES IDX 69 37 29 38 74 39 68 40 70 41 30 42 73 43 67 44 66 45 31 47
REMARK SMILES IDX 57 48 40 49 56 50 41 51 44 52 55 53 71 54 42 55 43 56 54 58
REMARK SMILES IDX 72 59 45 60 32 61 33 62 38 63 34 64 35 65 37 66 39 67 36 68
REMARK SMILES IDX 58 69 59 70 64 71 60 72 61 73 63 74 65 75 62 76 46 77 47 78
REMARK SMILES IDX 52 79 48 80 49 81 51 82 53 83 50 84
REMARK H PARENT 16 5 8 14 8 15 20 27 70 46 44 57
REMARK Flexibility Score: inf
ROOT
ATOM      1  C   UNL A   1      37.298  20.986  24.747  1.00  0.00     0.118 C 
ENDROOT
BRANCH   1   2
ATOM      2  N   UNL A   1      37.923  22.236  25.145  1.00  0.00    -0.352 N 
ATOM      3  C   UNL A   1      37.371  23.386  25.657  1.00  0.00     0.251 C 
ATOM      4  O   UNL A   1      38.115  24.280  26.053  1.00  0.00    -0.269 OA
ATOM      5  H   UNL A   1      38.900  22.264  25.030  1.00  0.00     0.163 HD
BRANCH   3   6
ATOM      6  C   UNL A   1      35.905  23.541  25.795  1.00  0.00     0.039 A 
ATOM      7  C   UNL A   1      33.138  24.003  26.057  1.00  0.00     0.006 A 
ATOM      8  C   UNL A   1      33.871  24.608  25.024  1.00  0.00     0.010 A 
ATOM      9  C   UNL A   1      33.795  23.084  26.889  1.00  0.00     0.010 A 
ATOM     10  C   UNL A   1      35.243  24.380  24.894  1.00  0.00     0.014 A 
ATOM     11  C   UNL A   1      35.165  22.852  26.757  1.00  0.00     0.014 A 
BRANCH   7  12
ATOM     12  C   UNL A   1      31.662  24.315  26.201  1.00  0.00     0.297 C 
BRANCH  12  13
ATOM     13  N   UNL A   1      31.171  25.422  25.386  1.00  0.00    -0.338 N 
ATOM     14  H   UNL A   1      31.901  25.680  24.721  1.00  0.00     0.346 HD
ATOM     15  H   UNL A   1      30.321  25.098  24.925  1.00  0.00     0.346 HD
BRANCH  13  16
ATOM     16  C   UNL A   1      30.812  26.607  26.156  1.00  0.00     0.316 C 
BRANCH  16  17
ATOM     17  C   UNL A   1      31.876  27.644  25.958  1.00  0.00     0.072 A 
ATOM     18  C   UNL A   1      30.811  28.947  24.048  1.00  0.00     0.149 C 
ATOM     19  N   UNL A   1      31.843  28.655  25.020  1.00  0.00    -0.350 N 
ATOM     20  C   UNL A   1      32.988  29.411  25.119  1.00  0.00     0.085 A 
ATOM     21  C   UNL A   1      33.766  28.886  26.122  1.00  0.00     0.020 A 
ATOM     22  C   UNL A   1      33.069  27.781  26.652  1.00  0.00     0.029 A 
ENDBRANCH  16  17
ENDBRANCH  13  16
ENDBRANCH  12  13
ENDBRANCH   7  12
ENDBRANCH   3   6
ENDBRANCH   1   2
BRANCH   1  23
ATOM     23  C   UNL A   1      38.261  19.807  24.869  1.00  0.00     0.042 C 
BRANCH  23  24
ATOM     24  C   UNL A   1      39.190  19.889  26.077  1.00  0.00     0.118 C 
BRANCH  24  25
ATOM     25  N   UNL A   1      40.437  19.176  25.860  1.00  0.00    -0.352 N 
ATOM     26  C   UNL A   1      41.733  19.621  25.914  1.00  0.00     0.251 C 
ATOM     27  H   UNL A   1      40.335  18.222  25.638  1.00  0.00     0.163 HD
ATOM     28  O   UNL A   1      42.629  18.889  25.498  1.00  0.00    -0.269 OA
BRANCH  26  29
ATOM     29  C   UNL A   1      42.075  20.958  26.454  1.00  0.00     0.039 A 
ATOM     30  C   UNL A   1      42.061  21.135  27.842  1.00  0.00     0.014 A 
ATOM     31  C   UNL A   1      42.329  22.054  25.623  1.00  0.00     0.014 A 
ATOM     32  C   UNL A   1      42.321  22.392  28.393  1.00  0.00     0.010 A 
ATOM     33  C   UNL A   1      42.658  23.294  26.174  1.00  0.00     0.010 A 
ATOM     34  C   UNL A   1      42.634  23.481  27.565  1.00  0.00    -0.014 A 
BRANCH  34  35
ATOM     35  C   UNL A   1      42.894  24.823  28.145  1.00  0.00     0.031 A 
ATOM     36  C   UNL A   1      44.292  25.225  28.533  1.00  0.00     0.074 A 
ATOM     37  C   UNL A   1      41.871  25.676  28.344  1.00  0.00     0.049 A 
ATOM     38  N   UNL A   1      44.716  26.352  29.049  1.00  0.00    -0.248 NA
ATOM     39  C   UNL A   1      45.350  24.222  28.336  1.00  0.00     0.031 C 
ATOM     40  C   UNL A   1      40.465  25.391  28.056  1.00  0.00     0.029 A 
ATOM     41  N   UNL A   1      41.857  26.958  28.832  1.00  0.00    -0.354 N 
ATOM     42  C   UNL A   1      46.081  26.187  29.252  1.00  0.00     0.074 A 
ATOM     43  C   UNL A   1      46.405  24.836  28.850  1.00  0.00     0.031 C 
ATOM     44  C   UNL A   1      39.729  26.475  28.347  1.00  0.00     0.029 A 
ATOM     45  C   UNL A   1      40.606  27.523  28.860  1.00  0.00     0.049 A 
ATOM     46  H   UNL A   1      42.669  27.428  29.133  1.00  0.00     0.167 HD
ATOM     47  C   UNL A   1      46.986  27.085  29.709  1.00  0.00     0.037 A 
ATOM     48  C   UNL A   1      40.213  28.751  29.246  1.00  0.00     0.037 A 
ATOM     49  C   UNL A   1      46.670  28.439  30.082  1.00  0.00     0.049 A 
ATOM     50  C   UNL A   1      41.242  29.742  29.714  1.00  0.00     0.074 A 
ATOM     51  C   UNL A   1      47.524  29.439  30.512  1.00  0.00     0.029 A 
ATOM     52  N   UNL A   1      45.395  28.984  30.061  1.00  0.00    -0.354 N 
ATOM     53  N   UNL A   1      42.538  29.590  29.841  1.00  0.00    -0.248 NA
ATOM     54  C   UNL A   1      40.754  31.080  30.075  1.00  0.00     0.031 C 
ATOM     55  C   UNL A   1      46.762  30.583  30.778  1.00  0.00     0.029 A 
ATOM     56  C   UNL A   1      45.440  30.304  30.477  1.00  0.00     0.049 A 
ATOM     57  H   UNL A   1      44.580  28.503  29.791  1.00  0.00     0.167 HD
ATOM     58  C   UNL A   1      43.023  30.819  30.269  1.00  0.00     0.074 A 
ATOM     59  C   UNL A   1      41.884  31.709  30.364  1.00  0.00     0.031 C 
ATOM     60  C   UNL A   1      44.298  31.179  30.556  1.00  0.00     0.037 A 
BRANCH  47  61
ATOM     61  C   UNL A   1      48.412  26.628  29.823  1.00  0.00     0.057 A 
ATOM     62  C   UNL A   1      49.330  26.813  28.782  1.00  0.00     0.134 A 
ATOM     63  C   UNL A   1      48.877  26.016  30.994  1.00  0.00     0.134 A 
ATOM     64  F   UNL A   1      48.945  27.380  27.629  1.00  0.00    -0.206 F 
ATOM     65  C   UNL A   1      50.655  26.383  28.890  1.00  0.00     0.040 A 
ATOM     66  C   UNL A   1      50.205  25.604  31.124  1.00  0.00     0.040 A 
ATOM     67  F   UNL A   1      48.052  25.813  32.031  1.00  0.00    -0.206 F 
ATOM     68  C   UNL A   1      51.095  25.781  30.067  1.00  0.00     0.006 A 
ENDBRANCH  47  61
BRANCH  48  69
ATOM     69  C   UNL A   1      38.781  29.130  29.161  1.00  0.00     0.057 A 
ATOM     70  C   UNL A   1      37.945  29.043  30.281  1.00  0.00     0.134 A 
ATOM     71  C   UNL A   1      38.214  29.581  27.964  1.00  0.00     0.134 A 
ATOM     72  F   UNL A   1      38.430  28.601  31.451  1.00  0.00    -0.206 F 
ATOM     73  C   UNL A   1      36.591  29.372  30.209  1.00  0.00     0.040 A 
ATOM     74  C   UNL A   1      36.866  29.934  27.884  1.00  0.00     0.040 A 
ATOM     75  F   UNL A   1      38.965  29.692  26.859  1.00  0.00    -0.206 F 
ATOM     76  C   UNL A   1      36.049  29.823  29.007  1.00  0.00     0.006 A 
ENDBRANCH  48  69
BRANCH  60  77
ATOM     77  C   UNL A   1      44.527  32.605  30.962  1.00  0.00     0.057 A 
ATOM     78  C   UNL A   1      44.780  33.611  30.022  1.00  0.00     0.134 A 
ATOM     79  C   UNL A   1      44.481  32.974  32.312  1.00  0.00     0.134 A 
ATOM     80  F   UNL A   1      44.850  33.319  28.714  1.00  0.00    -0.206 F 
ATOM     81  C   UNL A   1      45.008  34.931  30.413  1.00  0.00     0.040 A 
ATOM     82  C   UNL A   1      44.683  34.296  32.713  1.00  0.00     0.040 A 
ATOM     83  F   UNL A   1      44.236  32.060  33.262  1.00  0.00    -0.206 F 
ATOM     84  C   UNL A   1      44.956  35.277  31.762  1.00  0.00     0.006 A 
ENDBRANCH  60  77
ENDBRANCH  34  35
ENDBRANCH  26  29
ENDBRANCH  24  25
ENDBRANCH  23  24
ENDBRANCH   1  23
TORSDOF 14
ENDMDL
MODEL 2
REMARK VINA RESULT:     -10.6      0.450      6.317
REMARK SMILES Cn1cccc1C[NH2+]Cc1ccc(C(=O)NCCCNC(=O)c2ccc(-c3c4nc(c(-c5c(F)cccc5F)c5ccc([nH]5)c(-c5c(F)cccc5F)c5nc(c(-c6c(F)cccc6F)c6ccc3[nH]6)C=C5)C=C4)cc2)cc1
REMARK SMILES IDX 17 1 16 2 14 3 15 4 13 6 10 7 11 8 78 9 12 10 77 11 9 12
REMARK SMILES IDX 8 13 7 16 6 17 1 18 2 19 3 20 4 21 5 22 18 23 19 24 20 25
REMARK SMILES IDX 21 26 22 28 23 29 24 30 76 31 25 32 75 33 26 34 27 35 28 36
REMARK SMILES IDX 69 37 29 38 74 39 68 40 70 41 30 42 73 43 67 44 66 45 31 47
REMARK SMILES IDX 57 48 40 49 56 50 41 51 44 52 55 53 71 54 42 55 43 56 54 58
REMARK SMILES IDX 72 59 45 60 32 61 33 62 38 63 34 64 35 65 37 66 39 67 36 68
REMARK SMILES IDX 58 69 59 70 64 71 60 72 61 73 63 74 65 75 62 76 46 77 47 78
REMARK SMILES IDX 52 79 48 80 49 81 51 82 53 83 50 84
REMARK H PARENT 16 5 8 14 8 15 20 27 70 46 44 57
REMARK Flexibility Score: inf
ROOT
ATOM      1  C   UNL A   1      37.283  20.968  24.552  1.00  0.00     0.118 C 
ENDROOT
BRANCH   1   2
ATOM      2  N   UNL A   1      37.916  22.178  25.050  1.00  0.00    -0.352 N 
ATOM      3  C   UNL A   1      37.370  23.296  25.631  1.00  0.00     0.251 C 
ATOM      4  O   UNL A   1      38.117  24.149  26.104  1.00  0.00    -0.269 OA
ATOM      5  H   UNL A   1      38.896  22.199  24.955  1.00  0.00     0.163 HD
BRANCH   3   6
ATOM      6  C   UNL A   1      35.903  23.461  25.754  1.00  0.00     0.039 A 
ATOM      7  C   UNL A   1      33.136  23.943  25.971  1.00  0.00     0.006 A 
ATOM      8  C   UNL A   1      33.872  24.465  24.895  1.00  0.00     0.010 A 
ATOM      9  C   UNL A   1      33.790  23.092  26.874  1.00  0.00     0.010 A 
ATOM     10  C   UNL A   1      35.245  24.227  24.787  1.00  0.00     0.014 A 
ATOM     11  C   UNL A   1      35.160  22.851  26.764  1.00  0.00     0.014 A 
BRANCH   7  12
ATOM     12  C   UNL A   1      31.659  24.266  26.086  1.00  0.00     0.297 C 
BRANCH  12  13
ATOM     13  N   UNL A   1      31.342  25.517  26.770  1.00  0.00    -0.338 N 
ATOM     14  H   UNL A   1      30.621  25.328  27.466  1.00  0.00     0.346 HD
ATOM     15  H   UNL A   1      32.209  25.854  27.188  1.00  0.00     0.346 HD
BRANCH  13  16
ATOM     16  C   UNL A   1      30.861  26.568  25.882  1.00  0.00     0.316 C 
BRANCH  16  17
ATOM     17  C   UNL A   1      31.921  27.623  25.777  1.00  0.00     0.072 A 
ATOM     18  C   UNL A   1      30.824  29.120  24.035  1.00  0.00     0.149 C 
ATOM     19  N   UNL A   1      31.872  28.728  24.953  1.00  0.00    -0.350 N 
ATOM     20  C   UNL A   1      33.018  29.472  25.113  1.00  0.00     0.085 A 
ATOM     21  C   UNL A   1      33.813  28.845  26.043  1.00  0.00     0.020 A 
ATOM     22  C   UNL A   1      33.125  27.688  26.463  1.00  0.00     0.029 A 
ENDBRANCH  16  17
ENDBRANCH  13  16
ENDBRANCH  12  13
ENDBRANCH   7  12
ENDBRANCH   3   6
ENDBRANCH   1   2
BRANCH   1  23
ATOM     23  C   UNL A   1      38.137  19.730  24.818  1.00  0.00     0.042 C 
BRANCH  23  24
ATOM     24  C   UNL A   1      39.047  19.857  26.037  1.00  0.00     0.118 C 
BRANCH  24  25
ATOM     25  N   UNL A   1      40.318  19.177  25.847  1.00  0.00    -0.352 N 
ATOM     26  C   UNL A   1      41.601  19.649  25.958  1.00  0.00     0.251 C 
ATOM     27  H   UNL A   1      40.245  18.227  25.598  1.00  0.00     0.163 HD
ATOM     28  O   UNL A   1      42.527  18.948  25.556  1.00  0.00    -0.269 OA
BRANCH  26  29
ATOM     29  C   UNL A   1      41.893  20.979  26.542  1.00  0.00     0.039 A 
ATOM     30  C   UNL A   1      42.222  22.025  25.673  1.00  0.00     0.014 A 
ATOM     31  C   UNL A   1      41.927  21.195  27.923  1.00  0.00     0.014 A 
ATOM     32  C   UNL A   1      42.561  23.281  26.181  1.00  0.00     0.010 A 
ATOM     33  C   UNL A   1      42.197  22.468  28.429  1.00  0.00     0.010 A 
ATOM     34  C   UNL A   1      42.540  23.519  27.565  1.00  0.00    -0.014 A 
BRANCH  34  35
ATOM     35  C   UNL A   1      42.915  24.848  28.110  1.00  0.00     0.031 A 
ATOM     36  C   UNL A   1      41.861  25.894  28.357  1.00  0.00     0.074 A 
ATOM     37  C   UNL A   1      44.208  25.124  28.366  1.00  0.00     0.049 A 
ATOM     38  N   UNL A   1      41.994  27.107  28.832  1.00  0.00    -0.248 NA
ATOM     39  C   UNL A   1      40.478  25.538  28.004  1.00  0.00     0.031 C 
ATOM     40  C   UNL A   1      45.331  24.217  28.126  1.00  0.00     0.029 A 
ATOM     41  N   UNL A   1      44.795  26.249  28.888  1.00  0.00    -0.354 N 
ATOM     42  C   UNL A   1      40.720  27.661  28.819  1.00  0.00     0.074 A 
ATOM     43  C   UNL A   1      39.836  26.671  28.244  1.00  0.00     0.031 C 
ATOM     44  C   UNL A   1      46.467  24.810  28.525  1.00  0.00     0.029 A 
ATOM     45  C   UNL A   1      46.157  26.144  29.029  1.00  0.00     0.049 A 
ATOM     46  H   UNL A   1      44.287  27.055  29.139  1.00  0.00     0.167 HD
ATOM     47  C   UNL A   1      40.317  28.875  29.266  1.00  0.00     0.037 A 
ATOM     48  C   UNL A   1      47.052  27.021  29.519  1.00  0.00     0.037 A 
ATOM     49  C   UNL A   1      41.191  29.850  29.865  1.00  0.00     0.049 A 
ATOM     50  C   UNL A   1      46.576  28.347  30.043  1.00  0.00     0.074 A 
ATOM     51  C   UNL A   1      40.871  31.090  30.391  1.00  0.00     0.029 A 
ATOM     52  N   UNL A   1      42.559  29.691  30.023  1.00  0.00    -0.354 N 
ATOM     53  N   UNL A   1      45.359  28.832  30.081  1.00  0.00    -0.248 NA
ATOM     54  C   UNL A   1      47.597  29.239  30.610  1.00  0.00     0.031 C 
ATOM     55  C   UNL A   1      42.050  31.692  30.844  1.00  0.00     0.029 A 
ATOM     56  C   UNL A   1      43.098  30.811  30.632  1.00  0.00     0.049 A 
ATOM     57  H   UNL A   1      43.071  28.898  29.742  1.00  0.00     0.167 HD
ATOM     58  C   UNL A   1      45.464  30.071  30.699  1.00  0.00     0.074 A 
ATOM     59  C   UNL A   1      46.861  30.256  31.033  1.00  0.00     0.031 C 
ATOM     60  C   UNL A   1      44.489  30.975  30.967  1.00  0.00     0.037 A 
BRANCH  47  61
ATOM     61  C   UNL A   1      38.861  29.211  29.128  1.00  0.00     0.057 A 
ATOM     62  C   UNL A   1      38.310  29.613  27.904  1.00  0.00     0.134 A 
ATOM     63  C   UNL A   1      37.995  29.111  30.224  1.00  0.00     0.134 A 
ATOM     64  F   UNL A   1      39.088  29.741  26.819  1.00  0.00    -0.206 F 
ATOM     65  C   UNL A   1      36.955  29.928  27.781  1.00  0.00     0.040 A 
ATOM     66  C   UNL A   1      36.633  29.400  30.108  1.00  0.00     0.040 A 
ATOM     67  F   UNL A   1      38.455  28.728  31.424  1.00  0.00    -0.206 F 
ATOM     68  C   UNL A   1      36.113  29.816  28.884  1.00  0.00     0.006 A 
ENDBRANCH  47  61
BRANCH  48  69
ATOM     69  C   UNL A   1      48.489  26.655  29.582  1.00  0.00     0.057 A 
ATOM     70  C   UNL A   1      49.373  27.028  28.563  1.00  0.00     0.134 A 
ATOM     71  C   UNL A   1      49.010  25.921  30.653  1.00  0.00     0.134 A 
ATOM     72  F   UNL A   1      48.926  27.717  27.502  1.00  0.00    -0.206 F 
ATOM     73  C   UNL A   1      50.721  26.669  28.596  1.00  0.00     0.040 A 
ATOM     74  C   UNL A   1      50.361  25.574  30.710  1.00  0.00     0.040 A 
ATOM     75  F   UNL A   1      48.215  25.541  31.664  1.00  0.00    -0.206 F 
ATOM     76  C   UNL A   1      51.218  25.942  29.675  1.00  0.00     0.006 A 
ENDBRANCH  48  69
BRANCH  60  77
ATOM     77  C   UNL A   1      44.900  32.224  31.689  1.00  0.00     0.057 A 
ATOM     78  C   UNL A   1      45.293  33.380  31.003  1.00  0.00     0.134 A 
ATOM     79  C   UNL A   1      44.887  32.272  33.089  1.00  0.00     0.134 A 
ATOM     80  F   UNL A   1      45.339  33.393  29.663  1.00  0.00    -0.206 F 
ATOM     81  C   UNL A   1      45.689  34.531  31.686  1.00  0.00     0.040 A 
ATOM     82  C   UNL A   1      45.258  33.425  33.781  1.00  0.00     0.040 A 
ATOM     83  F   UNL A   1      44.514  31.201  33.805  1.00  0.00    -0.206 F 
ATOM     84  C   UNL A   1      45.667  34.557  33.079  1.00  0.00     0.006 A 
ENDBRANCH  60  77
ENDBRANCH  34  35
ENDBRANCH  26  29
ENDBRANCH  24  25
ENDBRANCH  23  24
ENDBRANCH   1  23
TORSDOF 14
ENDMDL
MODEL 3
REMARK VINA RESULT:     -10.5      0.724      6.411
REMARK SMILES Cn1cccc1C[NH2+]Cc1ccc(C(=O)NCCCNC(=O)c2ccc(-c3c4nc(c(-c5c(F)cccc5F)c5ccc([nH]5)c(-c5c(F)cccc5F)c5nc(c(-c6c(F)cccc6F)c6ccc3[nH]6)C=C5)C=C4)cc2)cc1
REMARK SMILES IDX 17 1 16 2 14 3 15 4 13 6 10 7 11 8 78 9 12 10 77 11 9 12
REMARK SMILES IDX 8 13 7 16 6 17 1 18 2 19 3 20 4 21 5 22 18 23 19 24 20 25
REMARK SMILES IDX 21 26 22 28 23 29 24 30 76 31 25 32 75 33 26 34 27 35 28 36
REMARK SMILES IDX 69 37 29 38 74 39 68 40 70 41 30 42 73 43 67 44 66 45 31 47
REMARK SMILES IDX 57 48 40 49 56 50 41 51 44 52 55 53 71 54 42 55 43 56 54 58
REMARK SMILES IDX 72 59 45 60 32 61 33 62 38 63 34 64 35 65 37 66 39 67 36 68
REMARK SMILES IDX 58 69 59 70 64 71 60 72 61 73 63 74 65 75 62 76 46 77 47 78
REMARK SMILES IDX 52 79 48 80 49 81 51 82 53 83 50 84
REMARK H PARENT 16 5 8 14 8 15 20 27 70 46 44 57
REMARK Flexibility Score: inf
ROOT
ATOM      1  C   UNL A   1      37.307  21.065  24.554  1.00  0.00     0.118 C 
ENDROOT
BRANCH   1   2
ATOM      2  N   UNL A   1      37.914  22.292  25.043  1.00  0.00    -0.352 N 
ATOM      3  C   UNL A   1      37.354  23.368  25.688  1.00  0.00     0.251 C 
ATOM      4  O   UNL A   1      38.090  24.245  26.135  1.00  0.00    -0.269 OA
ATOM      5  H   UNL A   1      38.883  22.362  24.888  1.00  0.00     0.163 HD
BRANCH   3   6
ATOM      6  C   UNL A   1      35.892  23.460  25.906  1.00  0.00     0.039 A 
ATOM      7  C   UNL A   1      33.101  23.469  26.285  1.00  0.00     0.006 A 
ATOM      8  C   UNL A   1      33.912  22.542  26.957  1.00  0.00     0.010 A 
ATOM      9  C   UNL A   1      33.723  24.455  25.504  1.00  0.00     0.010 A 
ATOM     10  C   UNL A   1      35.297  22.535  26.769  1.00  0.00     0.014 A 
ATOM     11  C   UNL A   1      35.106  24.452  25.319  1.00  0.00     0.014 A 
BRANCH   7  12
ATOM     12  C   UNL A   1      31.597  23.412  26.470  1.00  0.00     0.297 C 
BRANCH  12  13
ATOM     13  N   UNL A   1      30.959  24.679  26.817  1.00  0.00    -0.338 N 
ATOM     14  H   UNL A   1      30.258  24.500  27.535  1.00  0.00     0.346 HD
ATOM     15  H   UNL A   1      31.698  25.304  27.141  1.00  0.00     0.346 HD
BRANCH  13  16
ATOM     16  C   UNL A   1      30.308  25.338  25.691  1.00  0.00     0.316 C 
BRANCH  16  17
ATOM     17  C   UNL A   1      30.824  26.742  25.599  1.00  0.00     0.072 A 
ATOM     18  C   UNL A   1      29.995  27.320  23.263  1.00  0.00     0.149 C 
ATOM     19  N   UNL A   1      30.671  27.582  24.515  1.00  0.00    -0.350 N 
ATOM     20  C   UNL A   1      31.279  28.788  24.779  1.00  0.00     0.085 A 
ATOM     21  C   UNL A   1      31.830  28.728  26.037  1.00  0.00     0.020 A 
ATOM     22  C   UNL A   1      31.543  27.447  26.553  1.00  0.00     0.029 A 
ENDBRANCH  16  17
ENDBRANCH  13  16
ENDBRANCH  12  13
ENDBRANCH   7  12
ENDBRANCH   3   6
ENDBRANCH   1   2
BRANCH   1  23
ATOM     23  C   UNL A   1      38.154  19.840  24.891  1.00  0.00     0.042 C 
BRANCH  23  24
ATOM     24  C   UNL A   1      39.132  20.061  26.041  1.00  0.00     0.118 C 
BRANCH  24  25
ATOM     25  N   UNL A   1      40.314  19.223  25.926  1.00  0.00    -0.352 N 
ATOM     26  C   UNL A   1      41.644  19.551  26.000  1.00  0.00     0.251 C 
ATOM     27  H   UNL A   1      40.131  18.268  25.771  1.00  0.00     0.163 HD
ATOM     28  O   UNL A   1      42.480  18.712  25.673  1.00  0.00    -0.269 OA
BRANCH  26  29
ATOM     29  C   UNL A   1      42.091  20.890  26.453  1.00  0.00     0.039 A 
ATOM     30  C   UNL A   1      42.116  21.148  27.828  1.00  0.00     0.014 A 
ATOM     31  C   UNL A   1      42.408  21.913  25.554  1.00  0.00     0.014 A 
ATOM     32  C   UNL A   1      42.476  22.413  28.299  1.00  0.00     0.010 A 
ATOM     33  C   UNL A   1      42.835  23.155  26.026  1.00  0.00     0.010 A 
ATOM     34  C   UNL A   1      42.852  23.426  27.403  1.00  0.00    -0.014 A 
BRANCH  34  35
ATOM     35  C   UNL A   1      43.219  24.777  27.898  1.00  0.00     0.031 A 
ATOM     36  C   UNL A   1      42.150  25.800  28.177  1.00  0.00     0.074 A 
ATOM     37  C   UNL A   1      44.514  25.093  28.079  1.00  0.00     0.049 A 
ATOM     38  N   UNL A   1      42.274  27.027  28.617  1.00  0.00    -0.248 NA
ATOM     39  C   UNL A   1      40.761  25.400  27.905  1.00  0.00     0.031 C 
ATOM     40  C   UNL A   1      45.648  24.210  27.801  1.00  0.00     0.029 A 
ATOM     41  N   UNL A   1      45.097  26.245  28.545  1.00  0.00    -0.354 N 
ATOM     42  C   UNL A   1      40.987  27.548  28.659  1.00  0.00     0.074 A 
ATOM     43  C   UNL A   1      40.101  26.521  28.153  1.00  0.00     0.031 C 
ATOM     44  C   UNL A   1      46.787  24.842  28.126  1.00  0.00     0.029 A 
ATOM     45  C   UNL A   1      46.467  26.179  28.615  1.00  0.00     0.049 A 
ATOM     46  H   UNL A   1      44.581  27.043  28.803  1.00  0.00     0.167 HD
ATOM     47  C   UNL A   1      40.575  28.761  29.099  1.00  0.00     0.037 A 
ATOM     48  C   UNL A   1      47.362  27.091  29.038  1.00  0.00     0.037 A 
ATOM     49  C   UNL A   1      41.451  29.772  29.630  1.00  0.00     0.049 A 
ATOM     50  C   UNL A   1      46.878  28.415  29.557  1.00  0.00     0.074 A 
ATOM     51  C   UNL A   1      41.125  31.015  30.145  1.00  0.00     0.029 A 
ATOM     52  N   UNL A   1      42.829  29.653  29.719  1.00  0.00    -0.354 N 
ATOM     53  N   UNL A   1      45.651  28.869  29.648  1.00  0.00    -0.248 NA
ATOM     54  C   UNL A   1      47.902  29.347  30.049  1.00  0.00     0.031 C 
ATOM     55  C   UNL A   1      42.310  31.659  30.521  1.00  0.00     0.029 A 
ATOM     56  C   UNL A   1      43.368  30.801  30.274  1.00  0.00     0.049 A 
ATOM     57  H   UNL A   1      43.348  28.867  29.429  1.00  0.00     0.167 HD
ATOM     58  C   UNL A   1      45.754  30.125  30.232  1.00  0.00     0.074 A 
ATOM     59  C   UNL A   1      47.161  30.354  30.488  1.00  0.00     0.031 C 
ATOM     60  C   UNL A   1      44.770  31.009  30.532  1.00  0.00     0.037 A 
BRANCH  47  61
ATOM     61  C   UNL A   1      39.104  29.055  29.031  1.00  0.00     0.057 A 
ATOM     62  C   UNL A   1      38.270  28.900  30.146  1.00  0.00     0.134 A 
ATOM     63  C   UNL A   1      38.519  29.518  27.846  1.00  0.00     0.134 A 
ATOM     64  F   UNL A   1      38.764  28.448  31.308  1.00  0.00    -0.206 F 
ATOM     65  C   UNL A   1      36.901  29.171  30.077  1.00  0.00     0.040 A 
ATOM     66  C   UNL A   1      37.157  29.816  27.772  1.00  0.00     0.040 A 
ATOM     67  F   UNL A   1      39.262  29.693  26.743  1.00  0.00    -0.206 F 
ATOM     68  C   UNL A   1      36.344  29.635  28.889  1.00  0.00     0.006 A 
ENDBRANCH  47  61
BRANCH  48  69
ATOM     69  C   UNL A   1      48.810  26.764  29.034  1.00  0.00     0.057 A 
ATOM     70  C   UNL A   1      49.412  26.148  30.138  1.00  0.00     0.134 A 
ATOM     71  C   UNL A   1      49.624  27.062  27.936  1.00  0.00     0.134 A 
ATOM     72  F   UNL A   1      48.685  25.855  31.226  1.00  0.00    -0.206 F 
ATOM     73  C   UNL A   1      50.776  25.857  30.159  1.00  0.00     0.040 A 
ATOM     74  C   UNL A   1      50.986  26.756  27.934  1.00  0.00     0.040 A 
ATOM     75  F   UNL A   1      49.104  27.645  26.846  1.00  0.00    -0.206 F 
ATOM     76  C   UNL A   1      51.567  26.159  29.051  1.00  0.00     0.006 A 
ENDBRANCH  48  69
BRANCH  60  77
ATOM     77  C   UNL A   1      45.183  32.285  31.202  1.00  0.00     0.057 A 
ATOM     78  C   UNL A   1      45.262  32.398  32.596  1.00  0.00     0.134 A 
ATOM     79  C   UNL A   1      45.520  33.411  30.440  1.00  0.00     0.134 A 
ATOM     80  F   UNL A   1      44.940  31.359  33.381  1.00  0.00    -0.206 F 
ATOM     81  C   UNL A   1      45.632  33.596  33.209  1.00  0.00     0.040 A 
ATOM     82  C   UNL A   1      45.915  34.606  31.041  1.00  0.00     0.040 A 
ATOM     83  F   UNL A   1      45.472  33.367  29.100  1.00  0.00    -0.206 F 
ATOM     84  C   UNL A   1      45.964  34.703  32.431  1.00  0.00     0.006 A 
ENDBRANCH  60  77
ENDBRANCH  34  35
ENDBRANCH  26  29
ENDBRANCH  24  25
ENDBRANCH  23  24
ENDBRANCH   1  23
TORSDOF 14
ENDMDL
