MODEL 1
REMARK VINA RESULT:     -14.1      0.000      0.000
REMARK SMILES O=C(NCCCNC(=O)c1ccc(-c2c3nc(c(-c4c(F)cccc4F)c4ccc([nH]4)c(-c4c(F)cccc4F)c4nc(c(-c5c(F)cccc5F)c5ccc2[nH]5)C=C4)C=C3)cc1)C1=Cc2cc(Cl)cc(-c3ccc(CO)cc3)c2O[C@@H]1C(F)(F)F
REMARK SMILES IDX 4 1 3 2 1 3 2 4 64 6 65 7 82 8 66 9 81 10 67 11 80 12 68 13
REMARK SMILES IDX 71 14 69 15 70 16 83 17 84 18 85 19 86 20 72 21 73 22 79 23
REMARK SMILES IDX 74 24 78 25 75 26 76 27 77 28 5 30 6 31 7 32 8 33 9 35 10 36
REMARK SMILES IDX 11 37 63 38 12 39 62 40 13 41 14 42 15 43 56 44 16 45 61 46
REMARK SMILES IDX 55 47 57 48 17 49 60 50 54 51 53 52 18 54 44 55 27 56 43 57
REMARK SMILES IDX 28 58 31 59 42 60 58 61 29 62 30 63 41 65 59 66 32 67 19 68
REMARK SMILES IDX 20 69 25 70 21 71 22 72 24 73 26 74 23 75 45 76 46 77 51 78
REMARK SMILES IDX 47 79 48 80 50 81 52 82 49 83 33 84 34 85 39 86 35 87 36 88
REMARK SMILES IDX 38 89 40 90 37 91
REMARK H PARENT 3 5 77 29 7 34 57 53 31 64
REMARK Flexibility Score: inf
ROOT
ATOM      1  C   UNL A   1      31.854  26.626  26.182  1.00  0.00     0.118 C 
ENDROOT
BRANCH   1   2
ATOM      2  N   UNL A   1      31.363  25.450  26.909  1.00  0.00    -0.352 N 
ATOM      3  O   UNL A   1      31.381  23.296  27.629  1.00  0.00    -0.270 OA
ATOM      4  C   UNL A   1      31.714  24.127  26.796  1.00  0.00     0.251 C 
ATOM      5  H   UNL A   1      30.672  25.639  27.585  1.00  0.00     0.163 HD
BRANCH   4   6
ATOM      6  C   UNL A   1      32.557  23.763  25.650  1.00  0.00     0.067 C 
ATOM      7  C   UNL A   1      33.866  24.025  25.749  1.00  0.00     0.025 C 
ATOM      8  C   UNL A   1      31.993  22.812  24.644  1.00  0.00     0.314 C 
ATOM      9  C   UNL A   1      34.732  22.977  25.202  1.00  0.00     0.019 A 
ATOM     10  O   UNL A   1      32.801  21.612  24.565  1.00  0.00    -0.475 OA
ATOM     11  C   UNL A   1      36.101  23.056  25.469  1.00  0.00     0.032 A 
ATOM     12  C   UNL A   1      34.148  21.749  24.819  1.00  0.00     0.135 A 
ATOM     13  C   UNL A   1      36.863  21.894  25.461  1.00  0.00     0.042 A 
ATOM     14  C   UNL A   1      34.904  20.567  24.869  1.00  0.00     0.026 A 
ATOM     15  Cl  UNL A   1      38.509  21.964  25.958  1.00  0.00    -0.084 Cl
ATOM     16  C   UNL A   1      36.272  20.660  25.189  1.00  0.00     0.033 A 
BRANCH   8  17
ATOM     17  C   UNL A   1      31.789  23.466  23.267  1.00  0.00     0.429 C 
ATOM     18  F   UNL A   1      32.552  22.866  22.321  1.00  0.00    -0.167 F 
ATOM     19  F   UNL A   1      30.505  23.365  22.849  1.00  0.00    -0.167 F 
ATOM     20  F   UNL A   1      32.109  24.782  23.261  1.00  0.00    -0.167 F 
ENDBRANCH   8  17
BRANCH  14  21
ATOM     21  C   UNL A   1      34.280  19.235  24.825  1.00  0.00    -0.015 A 
ATOM     22  C   UNL A   1      33.000  19.048  25.377  1.00  0.00     0.009 A 
ATOM     23  C   UNL A   1      34.959  18.117  24.337  1.00  0.00     0.009 A 
ATOM     24  C   UNL A   1      32.453  17.777  25.526  1.00  0.00     0.007 A 
ATOM     25  C   UNL A   1      34.402  16.838  24.464  1.00  0.00     0.007 A 
ATOM     26  C   UNL A   1      33.158  16.657  25.085  1.00  0.00    -0.023 A 
BRANCH  26  27
ATOM     27  C   UNL A   1      32.623  15.281  25.369  1.00  0.00     0.191 C 
BRANCH  27  28
ATOM     28  O   UNL A   1      33.687  14.338  25.412  1.00  0.00    -0.392 OA
ATOM     29  H   UNL A   1      33.325  13.445  25.520  1.00  0.00     0.211 HD
ENDBRANCH  27  28
ENDBRANCH  26  27
ENDBRANCH  14  21
ENDBRANCH   4   6
ENDBRANCH   1   2
BRANCH   1  30
ATOM     30  C   UNL A   1      31.905  27.881  27.051  1.00  0.00     0.042 C 
BRANCH  30  31
ATOM     31  C   UNL A   1      32.598  29.064  26.373  1.00  0.00     0.118 C 
BRANCH  31  32
ATOM     32  N   UNL A   1      32.363  30.367  26.977  1.00  0.00    -0.352 N 
ATOM     33  C   UNL A   1      33.277  31.300  27.431  1.00  0.00     0.251 C 
ATOM     34  H   UNL A   1      31.417  30.622  27.075  1.00  0.00     0.163 HD
ATOM     35  O   UNL A   1      32.887  32.386  27.849  1.00  0.00    -0.269 OA
BRANCH  33  36
ATOM     36  C   UNL A   1      34.709  30.933  27.555  1.00  0.00     0.039 A 
ATOM     37  C   UNL A   1      35.635  31.976  27.684  1.00  0.00     0.014 A 
ATOM     38  C   UNL A   1      35.124  29.614  27.719  1.00  0.00     0.014 A 
ATOM     39  C   UNL A   1      36.914  31.710  28.172  1.00  0.00     0.010 A 
ATOM     40  C   UNL A   1      36.364  29.358  28.294  1.00  0.00     0.010 A 
ATOM     41  C   UNL A   1      37.241  30.413  28.590  1.00  0.00    -0.014 A 
BRANCH  41  42
ATOM     42  C   UNL A   1      38.419  30.148  29.458  1.00  0.00     0.031 A 
ATOM     43  C   UNL A   1      39.490  29.196  29.015  1.00  0.00     0.074 A 
ATOM     44  C   UNL A   1      38.440  30.660  30.706  1.00  0.00     0.049 A 
ATOM     45  N   UNL A   1      40.474  28.682  29.707  1.00  0.00    -0.248 NA
ATOM     46  C   UNL A   1      39.420  28.730  27.622  1.00  0.00     0.031 C 
ATOM     47  C   UNL A   1      37.424  31.550  31.281  1.00  0.00     0.029 A 
ATOM     48  N   UNL A   1      39.338  30.491  31.731  1.00  0.00    -0.354 N 
ATOM     49  C   UNL A   1      41.123  27.811  28.843  1.00  0.00     0.074 A 
ATOM     50  C   UNL A   1      40.399  27.836  27.590  1.00  0.00     0.031 C 
ATOM     51  C   UNL A   1      37.771  31.869  32.537  1.00  0.00     0.029 A 
ATOM     52  C   UNL A   1      39.001  31.167  32.881  1.00  0.00     0.049 A 
ATOM     53  H   UNL A   1      40.149  29.937  31.651  1.00  0.00     0.167 HD
ATOM     54  C   UNL A   1      42.235  27.071  29.070  1.00  0.00     0.037 A 
ATOM     55  C   UNL A   1      39.604  31.203  34.083  1.00  0.00     0.037 A 
ATOM     56  C   UNL A   1      42.976  27.082  30.302  1.00  0.00     0.049 A 
ATOM     57  C   UNL A   1      40.843  30.383  34.302  1.00  0.00     0.074 A 
ATOM     58  C   UNL A   1      44.148  26.414  30.610  1.00  0.00     0.029 A 
ATOM     59  N   UNL A   1      42.621  27.809  31.428  1.00  0.00    -0.354 N 
ATOM     60  N   UNL A   1      41.464  29.590  33.464  1.00  0.00    -0.248 NA
ATOM     61  C   UNL A   1      41.457  30.452  35.636  1.00  0.00     0.031 C 
ATOM     62  C   UNL A   1      44.493  26.723  31.930  1.00  0.00     0.029 A 
ATOM     63  C   UNL A   1      43.548  27.601  32.436  1.00  0.00     0.049 A 
ATOM     64  H   UNL A   1      41.828  28.388  31.501  1.00  0.00     0.167 HD
ATOM     65  C   UNL A   1      42.550  29.078  34.161  1.00  0.00     0.074 A 
ATOM     66  C   UNL A   1      42.511  29.661  35.487  1.00  0.00     0.031 C 
ATOM     67  C   UNL A   1      43.491  28.198  33.743  1.00  0.00     0.037 A 
BRANCH  54  68
ATOM     68  C   UNL A   1      42.719  26.201  27.950  1.00  0.00     0.057 A 
ATOM     69  C   UNL A   1      42.298  24.871  27.821  1.00  0.00     0.134 A 
ATOM     70  C   UNL A   1      43.597  26.699  26.980  1.00  0.00     0.134 A 
ATOM     71  F   UNL A   1      41.468  24.331  28.727  1.00  0.00    -0.206 F 
ATOM     72  C   UNL A   1      42.753  24.058  26.783  1.00  0.00     0.040 A 
ATOM     73  C   UNL A   1      44.043  25.903  25.924  1.00  0.00     0.040 A 
ATOM     74  F   UNL A   1      44.036  27.965  27.044  1.00  0.00    -0.206 F 
ATOM     75  C   UNL A   1      43.626  24.577  25.827  1.00  0.00     0.006 A 
ENDBRANCH  54  68
BRANCH  55  76
ATOM     76  C   UNL A   1      39.055  32.046  35.175  1.00  0.00     0.057 A 
ATOM     77  C   UNL A   1      39.304  33.423  35.209  1.00  0.00     0.134 A 
ATOM     78  C   UNL A   1      38.290  31.503  36.213  1.00  0.00     0.134 A 
ATOM     79  F   UNL A   1      40.048  33.997  34.251  1.00  0.00    -0.206 F 
ATOM     80  C   UNL A   1      38.830  34.228  36.245  1.00  0.00     0.040 A 
ATOM     81  C   UNL A   1      37.792  32.299  37.246  1.00  0.00     0.040 A 
ATOM     82  F   UNL A   1      38.011  30.192  36.234  1.00  0.00    -0.206 F 
ATOM     83  C   UNL A   1      38.068  33.665  37.267  1.00  0.00     0.006 A 
ENDBRANCH  55  76
BRANCH  67  84
ATOM     84  C   UNL A   1      44.561  27.832  34.724  1.00  0.00     0.057 A 
ATOM     85  C   UNL A   1      45.729  28.594  34.847  1.00  0.00     0.134 A 
ATOM     86  C   UNL A   1      44.399  26.739  35.583  1.00  0.00     0.134 A 
ATOM     87  F   UNL A   1      45.946  29.643  34.039  1.00  0.00    -0.206 F 
ATOM     88  C   UNL A   1      46.706  28.273  35.790  1.00  0.00     0.040 A 
ATOM     89  C   UNL A   1      45.360  26.421  36.541  1.00  0.00     0.040 A 
ATOM     90  F   UNL A   1      43.298  25.976  35.512  1.00  0.00    -0.206 F 
ATOM     91  C   UNL A   1      46.519  27.188  36.645  1.00  0.00     0.006 A 
ENDBRANCH  67  84
ENDBRANCH  41  42
ENDBRANCH  33  36
ENDBRANCH  31  32
ENDBRANCH  30  31
ENDBRANCH   1  30
TORSDOF 14
ENDMDL
MODEL 2
REMARK VINA RESULT:     -13.9      3.226      6.572
REMARK SMILES O=C(NCCCNC(=O)c1ccc(-c2c3nc(c(-c4c(F)cccc4F)c4ccc([nH]4)c(-c4c(F)cccc4F)c4nc(c(-c5c(F)cccc5F)c5ccc2[nH]5)C=C4)C=C3)cc1)C1=Cc2cc(Cl)cc(-c3ccc(CO)cc3)c2O[C@@H]1C(F)(F)F
REMARK SMILES IDX 4 1 3 2 1 3 2 4 64 6 65 7 82 8 66 9 81 10 67 11 80 12 68 13
REMARK SMILES IDX 71 14 69 15 70 16 83 17 84 18 85 19 86 20 72 21 73 22 79 23
REMARK SMILES IDX 74 24 78 25 75 26 76 27 77 28 5 30 6 31 7 32 8 33 9 35 10 36
REMARK SMILES IDX 11 37 63 38 12 39 62 40 13 41 14 42 15 43 56 44 16 45 61 46
REMARK SMILES IDX 55 47 57 48 17 49 60 50 54 51 53 52 18 54 44 55 27 56 43 57
REMARK SMILES IDX 28 58 31 59 42 60 58 61 29 62 30 63 41 65 59 66 32 67 19 68
REMARK SMILES IDX 20 69 25 70 21 71 22 72 24 73 26 74 23 75 45 76 46 77 51 78
REMARK SMILES IDX 47 79 48 80 50 81 52 82 49 83 33 84 34 85 39 86 35 87 36 88
REMARK SMILES IDX 38 89 40 90 37 91
REMARK H PARENT 3 5 77 29 7 34 57 53 31 64
REMARK Flexibility Score: inf
ROOT
ATOM      1  C   UNL A   1      32.372  27.443  26.263  1.00  0.00     0.118 C 
ENDROOT
BRANCH   1   2
ATOM      2  N   UNL A   1      31.668  26.276  26.807  1.00  0.00    -0.352 N 
ATOM      3  O   UNL A   1      31.364  24.082  27.308  1.00  0.00    -0.270 OA
ATOM      4  C   UNL A   1      31.888  24.935  26.607  1.00  0.00     0.251 C 
ATOM      5  H   UNL A   1      30.919  26.487  27.410  1.00  0.00     0.163 HD
BRANCH   4   6
ATOM      6  C   UNL A   1      32.830  24.573  25.540  1.00  0.00     0.067 C 
ATOM      7  C   UNL A   1      34.129  24.804  25.769  1.00  0.00     0.025 C 
ATOM      8  C   UNL A   1      32.347  23.653  24.466  1.00  0.00     0.314 C 
ATOM      9  C   UNL A   1      35.022  23.746  25.287  1.00  0.00     0.019 A 
ATOM     10  O   UNL A   1      33.133  22.437  24.441  1.00  0.00    -0.475 OA
ATOM     11  C   UNL A   1      36.360  23.791  25.685  1.00  0.00     0.032 A 
ATOM     12  C   UNL A   1      34.452  22.539  24.825  1.00  0.00     0.135 A 
ATOM     13  C   UNL A   1      37.096  22.612  25.727  1.00  0.00     0.042 A 
ATOM     14  C   UNL A   1      35.176  21.340  24.924  1.00  0.00     0.026 A 
ATOM     15  Cl  UNL A   1      38.687  22.637  26.380  1.00  0.00    -0.084 Cl
ATOM     16  C   UNL A   1      36.508  21.397  25.376  1.00  0.00     0.033 A 
BRANCH   8  17
ATOM     17  C   UNL A   1      32.290  24.336  23.089  1.00  0.00     0.429 C 
ATOM     18  F   UNL A   1      31.076  24.169  22.509  1.00  0.00    -0.167 F 
ATOM     19  F   UNL A   1      32.493  25.671  23.183  1.00  0.00    -0.167 F 
ATOM     20  F   UNL A   1      33.214  23.850  22.226  1.00  0.00    -0.167 F 
ENDBRANCH   8  17
BRANCH  14  21
ATOM     21  C   UNL A   1      34.532  20.023  24.795  1.00  0.00    -0.015 A 
ATOM     22  C   UNL A   1      33.229  19.835  25.289  1.00  0.00     0.009 A 
ATOM     23  C   UNL A   1      35.210  18.916  24.280  1.00  0.00     0.009 A 
ATOM     24  C   UNL A   1      32.655  18.568  25.358  1.00  0.00     0.007 A 
ATOM     25  C   UNL A   1      34.628  17.644  24.327  1.00  0.00     0.007 A 
ATOM     26  C   UNL A   1      33.358  17.457  24.891  1.00  0.00    -0.023 A 
BRANCH  26  27
ATOM     27  C   UNL A   1      32.789  16.079  25.091  1.00  0.00     0.191 C 
BRANCH  27  28
ATOM     28  O   UNL A   1      32.528  15.849  26.470  1.00  0.00    -0.392 OA
ATOM     29  H   UNL A   1      31.711  15.337  26.564  1.00  0.00     0.211 HD
ENDBRANCH  27  28
ENDBRANCH  26  27
ENDBRANCH  14  21
ENDBRANCH   4   6
ENDBRANCH   1   2
BRANCH   1  30
ATOM     30  C   UNL A   1      32.398  28.624  27.233  1.00  0.00     0.042 C 
BRANCH  30  31
ATOM     31  C   UNL A   1      33.136  29.846  26.685  1.00  0.00     0.118 C 
BRANCH  31  32
ATOM     32  N   UNL A   1      33.345  30.935  27.628  1.00  0.00    -0.352 N 
ATOM     33  C   UNL A   1      34.465  31.239  28.379  1.00  0.00     0.251 C 
ATOM     34  H   UNL A   1      32.580  31.544  27.746  1.00  0.00     0.163 HD
ATOM     35  O   UNL A   1      34.480  32.252  29.074  1.00  0.00    -0.269 OA
BRANCH  33  36
ATOM     36  C   UNL A   1      35.585  30.270  28.466  1.00  0.00     0.039 A 
ATOM     37  C   UNL A   1      36.378  30.094  27.326  1.00  0.00     0.014 A 
ATOM     38  C   UNL A   1      35.960  29.680  29.671  1.00  0.00     0.014 A 
ATOM     39  C   UNL A   1      37.637  29.504  27.443  1.00  0.00     0.010 A 
ATOM     40  C   UNL A   1      37.251  29.180  29.808  1.00  0.00     0.010 A 
ATOM     41  C   UNL A   1      38.124  29.153  28.709  1.00  0.00    -0.014 A 
BRANCH  41  42
ATOM     42  C   UNL A   1      39.568  28.890  28.944  1.00  0.00     0.031 A 
ATOM     43  C   UNL A   1      40.465  29.978  29.456  1.00  0.00     0.074 A 
ATOM     44  C   UNL A   1      40.089  27.708  28.555  1.00  0.00     0.049 A 
ATOM     45  N   UNL A   1      41.770  30.005  29.526  1.00  0.00    -0.248 NA
ATOM     46  C   UNL A   1      39.807  31.212  29.910  1.00  0.00     0.031 C 
ATOM     47  C   UNL A   1      39.332  26.589  27.982  1.00  0.00     0.029 A 
ATOM     48  N   UNL A   1      41.385  27.252  28.560  1.00  0.00    -0.354 N 
ATOM     49  C   UNL A   1      42.093  31.268  30.005  1.00  0.00     0.074 A 
ATOM     50  C   UNL A   1      40.850  31.990  30.170  1.00  0.00     0.031 C 
ATOM     51  C   UNL A   1      40.169  25.573  27.720  1.00  0.00     0.029 A 
ATOM     52  C   UNL A   1      41.527  25.982  28.053  1.00  0.00     0.049 A 
ATOM     53  H   UNL A   1      42.142  27.787  28.895  1.00  0.00     0.167 HD
ATOM     54  C   UNL A   1      43.316  31.772  30.297  1.00  0.00     0.037 A 
ATOM     55  C   UNL A   1      42.631  25.236  27.859  1.00  0.00     0.037 A 
ATOM     56  C   UNL A   1      44.545  31.035  30.172  1.00  0.00     0.049 A 
ATOM     57  C   UNL A   1      43.972  25.816  28.205  1.00  0.00     0.074 A 
ATOM     58  C   UNL A   1      45.828  31.437  30.500  1.00  0.00     0.029 A 
ATOM     59  N   UNL A   1      44.641  29.739  29.690  1.00  0.00    -0.354 N 
ATOM     60  N   UNL A   1      44.258  26.999  28.689  1.00  0.00    -0.248 NA
ATOM     61  C   UNL A   1      45.145  24.962  27.966  1.00  0.00     0.031 C 
ATOM     62  C   UNL A   1      46.704  30.388  30.198  1.00  0.00     0.029 A 
ATOM     63  C   UNL A   1      45.963  29.327  29.705  1.00  0.00     0.049 A 
ATOM     64  H   UNL A   1      43.882  29.192  29.384  1.00  0.00     0.167 HD
ATOM     65  C   UNL A   1      45.638  27.028  28.829  1.00  0.00     0.074 A 
ATOM     66  C   UNL A   1      46.132  25.739  28.391  1.00  0.00     0.031 C 
ATOM     67  C   UNL A   1      46.427  28.036  29.272  1.00  0.00     0.037 A 
BRANCH  54  68
ATOM     68  C   UNL A   1      43.374  33.183  30.796  1.00  0.00     0.057 A 
ATOM     69  C   UNL A   1      43.329  33.479  32.165  1.00  0.00     0.134 A 
ATOM     70  C   UNL A   1      43.494  34.256  29.905  1.00  0.00     0.134 A 
ATOM     71  F   UNL A   1      43.200  32.495  33.067  1.00  0.00    -0.206 F 
ATOM     72  C   UNL A   1      43.376  34.794  32.629  1.00  0.00     0.040 A 
ATOM     73  C   UNL A   1      43.564  35.575  30.358  1.00  0.00     0.040 A 
ATOM     74  F   UNL A   1      43.545  34.041  28.582  1.00  0.00    -0.206 F 
ATOM     75  C   UNL A   1      43.499  35.846  31.724  1.00  0.00     0.006 A 
ENDBRANCH  54  68
BRANCH  55  76
ATOM     76  C   UNL A   1      42.521  23.858  27.317  1.00  0.00     0.057 A 
ATOM     77  C   UNL A   1      42.345  22.765  28.173  1.00  0.00     0.134 A 
ATOM     78  C   UNL A   1      42.608  23.596  25.945  1.00  0.00     0.134 A 
ATOM     79  F   UNL A   1      42.274  22.953  29.500  1.00  0.00    -0.206 F 
ATOM     80  C   UNL A   1      42.277  21.458  27.688  1.00  0.00     0.040 A 
ATOM     81  C   UNL A   1      42.523  22.296  25.444  1.00  0.00     0.040 A 
ATOM     82  F   UNL A   1      42.771  24.601  25.072  1.00  0.00    -0.206 F 
ATOM     83  C   UNL A   1      42.363  21.222  26.318  1.00  0.00     0.006 A 
ENDBRANCH  55  76
BRANCH  67  84
ATOM     84  C   UNL A   1      47.900  27.772  29.323  1.00  0.00     0.057 A 
ATOM     85  C   UNL A   1      48.736  28.089  28.245  1.00  0.00     0.134 A 
ATOM     86  C   UNL A   1      48.491  27.242  30.476  1.00  0.00     0.134 A 
ATOM     87  F   UNL A   1      48.222  28.584  27.109  1.00  0.00    -0.206 F 
ATOM     88  C   UNL A   1      50.113  27.879  28.311  1.00  0.00     0.040 A 
ATOM     89  C   UNL A   1      49.869  27.046  30.559  1.00  0.00     0.040 A 
ATOM     90  F   UNL A   1      47.740  26.923  31.540  1.00  0.00    -0.206 F 
ATOM     91  C   UNL A   1      50.684  27.363  29.474  1.00  0.00     0.006 A 
ENDBRANCH  67  84
ENDBRANCH  41  42
ENDBRANCH  33  36
ENDBRANCH  31  32
ENDBRANCH  30  31
ENDBRANCH   1  30
TORSDOF 14
ENDMDL
MODEL 3
REMARK VINA RESULT:     -13.6      3.593      7.618
REMARK SMILES O=C(NCCCNC(=O)c1ccc(-c2c3nc(c(-c4c(F)cccc4F)c4ccc([nH]4)c(-c4c(F)cccc4F)c4nc(c(-c5c(F)cccc5F)c5ccc2[nH]5)C=C4)C=C3)cc1)C1=Cc2cc(Cl)cc(-c3ccc(CO)cc3)c2O[C@@H]1C(F)(F)F
REMARK SMILES IDX 4 1 3 2 1 3 2 4 64 6 65 7 82 8 66 9 81 10 67 11 80 12 68 13
REMARK SMILES IDX 71 14 69 15 70 16 83 17 84 18 85 19 86 20 72 21 73 22 79 23
REMARK SMILES IDX 74 24 78 25 75 26 76 27 77 28 5 30 6 31 7 32 8 33 9 35 10 36
REMARK SMILES IDX 11 37 63 38 12 39 62 40 13 41 14 42 15 43 56 44 16 45 61 46
REMARK SMILES IDX 55 47 57 48 17 49 60 50 54 51 53 52 18 54 44 55 27 56 43 57
REMARK SMILES IDX 28 58 31 59 42 60 58 61 29 62 30 63 41 65 59 66 32 67 19 68
REMARK SMILES IDX 20 69 25 70 21 71 22 72 24 73 26 74 23 75 45 76 46 77 51 78
REMARK SMILES IDX 47 79 48 80 50 81 52 82 49 83 33 84 34 85 39 86 35 87 36 88
REMARK SMILES IDX 38 89 40 90 37 91
REMARK H PARENT 3 5 77 29 7 34 57 53 31 64
REMARK Flexibility Score: inf
ROOT
ATOM      1  C   UNL A   1      35.616  23.623  24.870  1.00  0.00     0.118 C 
ENDROOT
BRANCH   1   2
ATOM      2  N   UNL A   1      35.107  24.052  23.562  1.00  0.00    -0.352 N 
ATOM      3  O   UNL A   1      34.009  25.401  22.102  1.00  0.00    -0.270 OA
ATOM      4  C   UNL A   1      34.160  24.996  23.245  1.00  0.00     0.251 C 
ATOM      5  H   UNL A   1      35.507  23.591  22.789  1.00  0.00     0.163 HD
BRANCH   4   6
ATOM      6  C   UNL A   1      33.369  25.537  24.358  1.00  0.00     0.067 C 
ATOM      7  C   UNL A   1      34.020  26.272  25.268  1.00  0.00     0.025 C 
ATOM      8  C   UNL A   1      31.882  25.559  24.210  1.00  0.00     0.314 C 
ATOM      9  C   UNL A   1      33.280  27.449  25.732  1.00  0.00     0.019 A 
ATOM     10  O   UNL A   1      31.381  26.916  24.280  1.00  0.00    -0.475 OA
ATOM     11  C   UNL A   1      33.968  28.392  26.498  1.00  0.00     0.032 A 
ATOM     12  C   UNL A   1      32.086  27.803  25.065  1.00  0.00     0.135 A 
ATOM     13  C   UNL A   1      33.527  29.711  26.510  1.00  0.00     0.042 A 
ATOM     14  C   UNL A   1      31.675  29.144  25.028  1.00  0.00     0.026 A 
ATOM     15  Cl  UNL A   1      34.470  30.906  27.311  1.00  0.00    -0.084 Cl
ATOM     16  C   UNL A   1      32.410  30.091  25.766  1.00  0.00     0.033 A 
BRANCH   8  17
ATOM     17  C   UNL A   1      31.178  24.628  25.212  1.00  0.00     0.429 C 
ATOM     18  F   UNL A   1      30.424  25.334  26.090  1.00  0.00    -0.167 F 
ATOM     19  F   UNL A   1      30.340  23.765  24.590  1.00  0.00    -0.167 F 
ATOM     20  F   UNL A   1      32.048  23.888  25.939  1.00  0.00    -0.167 F 
ENDBRANCH   8  17
BRANCH  14  21
ATOM     21  C   UNL A   1      30.659  29.627  24.078  1.00  0.00    -0.015 A 
ATOM     22  C   UNL A   1      30.661  29.150  22.756  1.00  0.00     0.009 A 
ATOM     23  C   UNL A   1      29.742  30.623  24.420  1.00  0.00     0.009 A 
ATOM     24  C   UNL A   1      29.844  29.714  21.780  1.00  0.00     0.007 A 
ATOM     25  C   UNL A   1      28.902  31.177  23.447  1.00  0.00     0.007 A 
ATOM     26  C   UNL A   1      28.967  30.746  22.115  1.00  0.00    -0.023 A 
BRANCH  26  27
ATOM     27  C   UNL A   1      28.186  31.439  21.033  1.00  0.00     0.191 C 
BRANCH  27  28
ATOM     28  O   UNL A   1      27.855  32.763  21.436  1.00  0.00    -0.392 OA
ATOM     29  H   UNL A   1      28.609  33.350  21.270  1.00  0.00     0.211 HD
ENDBRANCH  27  28
ENDBRANCH  26  27
ENDBRANCH  14  21
ENDBRANCH   4   6
ENDBRANCH   1   2
BRANCH   1  30
ATOM     30  C   UNL A   1      37.140  23.520  24.907  1.00  0.00     0.042 C 
BRANCH  30  31
ATOM     31  C   UNL A   1      37.652  22.370  25.776  1.00  0.00     0.118 C 
BRANCH  31  32
ATOM     32  N   UNL A   1      39.090  22.148  25.750  1.00  0.00    -0.352 N 
ATOM     33  C   UNL A   1      40.106  22.928  26.271  1.00  0.00     0.251 C 
ATOM     34  H   UNL A   1      39.382  21.324  25.298  1.00  0.00     0.163 HD
ATOM     35  O   UNL A   1      41.269  22.537  26.213  1.00  0.00    -0.269 OA
BRANCH  33  36
ATOM     36  C   UNL A   1      39.813  24.298  26.759  1.00  0.00     0.039 A 
ATOM     37  C   UNL A   1      39.139  24.418  27.981  1.00  0.00     0.014 A 
ATOM     38  C   UNL A   1      40.331  25.431  26.138  1.00  0.00     0.014 A 
ATOM     39  C   UNL A   1      39.164  25.632  28.668  1.00  0.00     0.010 A 
ATOM     40  C   UNL A   1      40.439  26.613  26.862  1.00  0.00     0.010 A 
ATOM     41  C   UNL A   1      39.917  26.701  28.163  1.00  0.00    -0.014 A 
BRANCH  41  42
ATOM     42  C   UNL A   1      40.295  27.859  29.014  1.00  0.00     0.031 A 
ATOM     43  C   UNL A   1      41.558  27.828  29.821  1.00  0.00     0.074 A 
ATOM     44  C   UNL A   1      39.418  28.874  29.163  1.00  0.00     0.049 A 
ATOM     45  N   UNL A   1      41.951  28.640  30.769  1.00  0.00    -0.248 NA
ATOM     46  C   UNL A   1      42.481  26.716  29.554  1.00  0.00     0.031 C 
ATOM     47  C   UNL A   1      38.124  28.992  28.481  1.00  0.00     0.029 A 
ATOM     48  N   UNL A   1      39.469  29.995  29.954  1.00  0.00    -0.354 N 
ATOM     49  C   UNL A   1      43.152  28.120  31.232  1.00  0.00     0.074 A 
ATOM     50  C   UNL A   1      43.403  26.904  30.489  1.00  0.00     0.031 C 
ATOM     51  C   UNL A   1      37.523  30.130  28.860  1.00  0.00     0.029 A 
ATOM     52  C   UNL A   1      38.357  30.798  29.851  1.00  0.00     0.049 A 
ATOM     53  H   UNL A   1      40.232  30.205  30.542  1.00  0.00     0.167 HD
ATOM     54  C   UNL A   1      43.979  28.624  32.179  1.00  0.00     0.037 A 
ATOM     55  C   UNL A   1      38.035  31.934  30.496  1.00  0.00     0.037 A 
ATOM     56  C   UNL A   1      43.746  29.855  32.884  1.00  0.00     0.049 A 
ATOM     57  C   UNL A   1      38.978  32.477  31.531  1.00  0.00     0.074 A 
ATOM     58  C   UNL A   1      44.554  30.480  33.819  1.00  0.00     0.029 A 
ATOM     59  N   UNL A   1      42.625  30.655  32.723  1.00  0.00    -0.354 N 
ATOM     60  N   UNL A   1      40.126  31.992  31.934  1.00  0.00    -0.248 NA
ATOM     61  C   UNL A   1      38.574  33.716  32.211  1.00  0.00     0.031 C 
ATOM     62  C   UNL A   1      43.912  31.652  34.236  1.00  0.00     0.029 A 
ATOM     63  C   UNL A   1      42.716  31.766  33.545  1.00  0.00     0.049 A 
ATOM     64  H   UNL A   1      41.877  30.463  32.113  1.00  0.00     0.167 HD
ATOM     65  C   UNL A   1      40.591  32.872  32.901  1.00  0.00     0.074 A 
ATOM     66  C   UNL A   1      39.607  33.929  33.014  1.00  0.00     0.031 C 
ATOM     67  C   UNL A   1      41.727  32.807  33.634  1.00  0.00     0.037 A 
BRANCH  54  68
ATOM     68  C   UNL A   1      45.219  27.843  32.491  1.00  0.00     0.057 A 
ATOM     69  C   UNL A   1      46.431  28.102  31.838  1.00  0.00     0.134 A 
ATOM     70  C   UNL A   1      45.210  26.836  33.464  1.00  0.00     0.134 A 
ATOM     71  F   UNL A   1      46.500  29.045  30.885  1.00  0.00    -0.206 F 
ATOM     72  C   UNL A   1      47.585  27.371  32.123  1.00  0.00     0.040 A 
ATOM     73  C   UNL A   1      46.363  26.112  33.774  1.00  0.00     0.040 A 
ATOM     74  F   UNL A   1      44.083  26.541  34.128  1.00  0.00    -0.206 F 
ATOM     75  C   UNL A   1      47.553  26.375  33.097  1.00  0.00     0.006 A 
ENDBRANCH  54  68
BRANCH  55  76
ATOM     76  C   UNL A   1      36.769  32.644  30.183  1.00  0.00     0.057 A 
ATOM     77  C   UNL A   1      35.612  32.407  30.935  1.00  0.00     0.134 A 
ATOM     78  C   UNL A   1      36.675  33.553  29.123  1.00  0.00     0.134 A 
ATOM     79  F   UNL A   1      35.636  31.531  31.951  1.00  0.00    -0.206 F 
ATOM     80  C   UNL A   1      34.402  33.035  30.635  1.00  0.00     0.040 A 
ATOM     81  C   UNL A   1      35.476  34.203  28.823  1.00  0.00     0.040 A 
ATOM     82  F   UNL A   1      37.749  33.827  28.369  1.00  0.00    -0.206 F 
ATOM     83  C   UNL A   1      34.334  33.938  29.577  1.00  0.00     0.006 A 
ENDBRANCH  55  76
BRANCH  67  84
ATOM     84  C   UNL A   1      41.972  33.919  34.606  1.00  0.00     0.057 A 
ATOM     85  C   UNL A   1      41.600  33.808  35.951  1.00  0.00     0.134 A 
ATOM     86  C   UNL A   1      42.628  35.089  34.204  1.00  0.00     0.134 A 
ATOM     87  F   UNL A   1      40.954  32.717  36.390  1.00  0.00    -0.206 F 
ATOM     88  C   UNL A   1      41.866  34.830  36.863  1.00  0.00     0.040 A 
ATOM     89  C   UNL A   1      42.914  36.108  35.110  1.00  0.00     0.040 A 
ATOM     90  F   UNL A   1      43.011  35.249  32.928  1.00  0.00    -0.206 F 
ATOM     91  C   UNL A   1      42.532  35.981  36.444  1.00  0.00     0.006 A 
ENDBRANCH  67  84
ENDBRANCH  41  42
ENDBRANCH  33  36
ENDBRANCH  31  32
ENDBRANCH  30  31
ENDBRANCH   1  30
TORSDOF 14
ENDMDL
