MODEL 1
REMARK VINA RESULT:     -11.9      0.000      0.000
REMARK SMILES COc1ccc(/C=C/c2ncc(C(=O)NCCCNC(=O)c3ccc(-c4c5nc(c(-c6c(F)cccc6F)c6ccc([nH]6)c(-c6c(F)cccc6F)c6nc(c(-c7c(F)cccc7F)c7ccc4[nH]7)C=C6)C=C5)cc3)s2)cc1O
REMARK SMILES IDX 16 1 15 2 13 3 14 4 12 6 9 7 10 8 76 9 11 10 8 11 7 12 6 13
REMARK SMILES IDX 3 14 4 15 78 16 5 17 77 18 2 19 1 20 79 21 17 23 18 24 19 25
REMARK SMILES IDX 20 26 21 28 22 29 23 30 75 31 24 32 74 33 25 34 26 35 27 36
REMARK SMILES IDX 68 37 28 38 73 39 67 40 69 41 29 42 72 43 66 44 65 45 30 47
REMARK SMILES IDX 56 48 39 49 55 50 40 51 43 52 54 53 70 54 41 55 42 56 53 58
REMARK SMILES IDX 71 59 44 60 31 61 32 62 37 63 33 64 34 65 36 66 38 67 35 68
REMARK SMILES IDX 57 69 58 70 63 71 59 72 60 73 62 74 64 75 61 76 45 77 46 78
REMARK SMILES IDX 51 79 47 80 48 81 50 82 52 83 49 84
REMARK H PARENT 15 5 79 22 19 27 69 46 43 57
REMARK Flexibility Score: inf
ROOT
ATOM      1  C   UNL A   1      33.200  28.146  24.384  1.00  0.00     0.118 C 
ENDROOT
BRANCH   1   2
ATOM      2  N   UNL A   1      32.033  28.266  23.530  1.00  0.00    -0.351 N 
ATOM      3  C   UNL A   1      31.465  27.409  22.617  1.00  0.00     0.263 C 
ATOM      4  O   UNL A   1      30.410  27.805  22.117  1.00  0.00    -0.268 OA
ATOM      5  H   UNL A   1      31.560  29.125  23.620  1.00  0.00     0.163 HD
BRANCH   3   6
ATOM      6  C   UNL A   1      32.061  26.127  22.306  1.00  0.00     0.112 A 
ATOM      7  C   UNL A   1      32.827  23.799  22.444  1.00  0.00     0.116 A 
ATOM      8  N   UNL A   1      33.257  24.364  21.331  1.00  0.00    -0.244 NA
ATOM      9  S   UNL A   1      31.829  24.823  23.409  1.00  0.00    -0.109 S 
ATOM     10  C   UNL A   1      32.788  25.661  21.233  1.00  0.00     0.137 A 
BRANCH   7  11
ATOM     11  C   UNL A   1      33.105  22.475  22.891  1.00  0.00     0.040 C 
ATOM     12  C   UNL A   1      32.124  21.561  22.949  1.00  0.00     0.011 C 
BRANCH  12  13
ATOM     13  C   UNL A   1      32.282  20.177  23.421  1.00  0.00    -0.022 A 
ATOM     14  C   UNL A   1      32.853  17.586  24.405  1.00  0.00     0.160 A 
ATOM     15  C   UNL A   1      32.702  17.812  23.035  1.00  0.00     0.051 A 
ATOM     16  C   UNL A   1      32.729  18.670  25.276  1.00  0.00     0.158 A 
ATOM     17  C   UNL A   1      32.425  19.095  22.544  1.00  0.00     0.012 A 
ATOM     18  C   UNL A   1      32.423  19.946  24.795  1.00  0.00     0.058 A 
BRANCH  14  19
ATOM     19  O   UNL A   1      33.195  16.307  24.741  1.00  0.00    -0.493 OA
ATOM     20  C   UNL A   1      34.542  16.089  25.150  1.00  0.00     0.278 C 
ENDBRANCH  14  19
BRANCH  16  21
ATOM     21  O   UNL A   1      32.991  18.582  26.614  1.00  0.00    -0.504 OA
ATOM     22  H   UNL A   1      32.877  17.766  27.059  1.00  0.00     0.293 HD
ENDBRANCH  16  21
ENDBRANCH  12  13
ENDBRANCH   7  11
ENDBRANCH   3   6
ENDBRANCH   1   2
BRANCH   1  23
ATOM     23  C   UNL A   1      32.807  28.058  25.859  1.00  0.00     0.042 C 
BRANCH  23  24
ATOM     24  C   UNL A   1      33.939  28.425  26.819  1.00  0.00     0.118 C 
BRANCH  24  25
ATOM     25  N   UNL A   1      33.803  29.778  27.342  1.00  0.00    -0.352 N 
ATOM     26  C   UNL A   1      34.657  30.519  28.119  1.00  0.00     0.251 C 
ATOM     27  H   UNL A   1      32.965  30.233  27.099  1.00  0.00     0.163 HD
ATOM     28  O   UNL A   1      34.259  31.568  28.617  1.00  0.00    -0.269 OA
BRANCH  26  29
ATOM     29  C   UNL A   1      36.044  30.070  28.375  1.00  0.00     0.039 A 
ATOM     30  C   UNL A   1      36.983  30.181  27.345  1.00  0.00     0.014 A 
ATOM     31  C   UNL A   1      36.408  29.483  29.590  1.00  0.00     0.014 A 
ATOM     32  C   UNL A   1      38.297  29.752  27.548  1.00  0.00     0.010 A 
ATOM     33  C   UNL A   1      37.733  29.107  29.811  1.00  0.00     0.010 A 
ATOM     34  C   UNL A   1      38.688  29.234  28.792  1.00  0.00    -0.014 A 
BRANCH  34  35
ATOM     35  C   UNL A   1      40.091  28.818  29.043  1.00  0.00     0.031 A 
ATOM     36  C   UNL A   1      41.066  29.773  29.674  1.00  0.00     0.074 A 
ATOM     37  C   UNL A   1      40.506  27.601  28.641  1.00  0.00     0.049 A 
ATOM     38  N   UNL A   1      42.347  29.622  29.894  1.00  0.00    -0.248 NA
ATOM     39  C   UNL A   1      40.534  31.080  30.090  1.00  0.00     0.031 C 
ATOM     40  C   UNL A   1      39.669  26.599  27.978  1.00  0.00     0.029 A 
ATOM     41  N   UNL A   1      41.741  27.008  28.716  1.00  0.00    -0.354 N 
ATOM     42  C   UNL A   1      42.779  30.820  30.450  1.00  0.00     0.074 A 
ATOM     43  C   UNL A   1      41.631  31.699  30.501  1.00  0.00     0.031 C 
ATOM     44  C   UNL A   1      40.412  25.511  27.719  1.00  0.00     0.029 A 
ATOM     45  C   UNL A   1      41.780  25.750  28.167  1.00  0.00     0.049 A 
ATOM     46  H   UNL A   1      42.523  27.442  29.124  1.00  0.00     0.167 HD
ATOM     47  C   UNL A   1      44.016  31.149  30.892  1.00  0.00     0.037 A 
ATOM     48  C   UNL A   1      42.805  24.889  28.033  1.00  0.00     0.037 A 
ATOM     49  C   UNL A   1      45.150  30.262  30.872  1.00  0.00     0.049 A 
ATOM     50  C   UNL A   1      44.163  25.270  28.549  1.00  0.00     0.074 A 
ATOM     51  C   UNL A   1      46.426  30.483  31.361  1.00  0.00     0.029 A 
ATOM     52  N   UNL A   1      45.141  28.984  30.337  1.00  0.00    -0.354 N 
ATOM     53  N   UNL A   1      44.543  26.384  29.126  1.00  0.00    -0.248 NA
ATOM     54  C   UNL A   1      45.233  24.274  28.401  1.00  0.00     0.031 C 
ATOM     55  C   UNL A   1      47.199  29.348  31.092  1.00  0.00     0.029 A 
ATOM     56  C   UNL A   1      46.395  28.408  30.468  1.00  0.00     0.049 A 
ATOM     57  H   UNL A   1      44.361  28.549  29.924  1.00  0.00     0.167 HD
ATOM     58  C   UNL A   1      45.888  26.215  29.428  1.00  0.00     0.074 A 
ATOM     59  C   UNL A   1      46.254  24.887  28.982  1.00  0.00     0.031 C 
ATOM     60  C   UNL A   1      46.741  27.084  30.022  1.00  0.00     0.037 A 
BRANCH  47  61
ATOM     61  C   UNL A   1      44.207  32.534  31.436  1.00  0.00     0.057 A 
ATOM     62  C   UNL A   1      44.010  32.828  32.791  1.00  0.00     0.134 A 
ATOM     63  C   UNL A   1      44.621  33.580  30.601  1.00  0.00     0.134 A 
ATOM     64  F   UNL A   1      43.602  31.872  33.641  1.00  0.00    -0.206 F 
ATOM     65  C   UNL A   1      44.192  34.117  33.293  1.00  0.00     0.040 A 
ATOM     66  C   UNL A   1      44.829  34.869  31.097  1.00  0.00     0.040 A 
ATOM     67  F   UNL A   1      44.833  33.366  29.295  1.00  0.00    -0.206 F 
ATOM     68  C   UNL A   1      44.608  35.142  32.445  1.00  0.00     0.006 A 
ENDBRANCH  47  61
BRANCH  48  69
ATOM     69  C   UNL A   1      42.579  23.567  27.401  1.00  0.00     0.057 A 
ATOM     70  C   UNL A   1      42.725  23.396  26.019  1.00  0.00     0.134 A 
ATOM     71  C   UNL A   1      42.222  22.446  28.158  1.00  0.00     0.134 A 
ATOM     72  F   UNL A   1      43.047  24.440  25.241  1.00  0.00    -0.206 F 
ATOM     73  C   UNL A   1      42.511  22.159  25.409  1.00  0.00     0.040 A 
ATOM     74  C   UNL A   1      42.026  21.198  27.564  1.00  0.00     0.040 A 
ATOM     75  F   UNL A   1      42.075  22.545  29.487  1.00  0.00    -0.206 F 
ATOM     76  C   UNL A   1      42.165  21.054  26.185  1.00  0.00     0.006 A 
ENDBRANCH  48  69
BRANCH  60  77
ATOM     77  C   UNL A   1      48.147  26.614  30.248  1.00  0.00     0.057 A 
ATOM     78  C   UNL A   1      49.164  26.864  29.319  1.00  0.00     0.134 A 
ATOM     79  C   UNL A   1      48.492  25.932  31.421  1.00  0.00     0.134 A 
ATOM     80  F   UNL A   1      48.894  27.500  28.169  1.00  0.00    -0.206 F 
ATOM     81  C   UNL A   1      50.474  26.437  29.543  1.00  0.00     0.040 A 
ATOM     82  C   UNL A   1      49.802  25.520  31.666  1.00  0.00     0.040 A 
ATOM     83  F   UNL A   1      47.563  25.666  32.353  1.00  0.00    -0.206 F 
ATOM     84  C   UNL A   1      50.798  25.769  30.722  1.00  0.00     0.006 A 
ENDBRANCH  60  77
ENDBRANCH  34  35
ENDBRANCH  26  29
ENDBRANCH  24  25
ENDBRANCH  23  24
ENDBRANCH   1  23
TORSDOF 14
ENDMDL
MODEL 2
REMARK VINA RESULT:     -11.9      3.228      8.677
REMARK SMILES COc1ccc(/C=C/c2ncc(C(=O)NCCCNC(=O)c3ccc(-c4c5nc(c(-c6c(F)cccc6F)c6ccc([nH]6)c(-c6c(F)cccc6F)c6nc(c(-c7c(F)cccc7F)c7ccc4[nH]7)C=C6)C=C5)cc3)s2)cc1O
REMARK SMILES IDX 16 1 15 2 13 3 14 4 12 6 9 7 10 8 76 9 11 10 8 11 7 12 6 13
REMARK SMILES IDX 3 14 4 15 78 16 5 17 77 18 2 19 1 20 79 21 17 23 18 24 19 25
REMARK SMILES IDX 20 26 21 28 22 29 23 30 75 31 24 32 74 33 25 34 26 35 27 36
REMARK SMILES IDX 68 37 28 38 73 39 67 40 69 41 29 42 72 43 66 44 65 45 30 47
REMARK SMILES IDX 56 48 39 49 55 50 40 51 43 52 54 53 70 54 41 55 42 56 53 58
REMARK SMILES IDX 71 59 44 60 31 61 32 62 37 63 33 64 34 65 36 66 38 67 35 68
REMARK SMILES IDX 57 69 58 70 63 71 59 72 60 73 62 74 64 75 61 76 45 77 46 78
REMARK SMILES IDX 51 79 47 80 48 81 50 82 52 83 49 84
REMARK H PARENT 15 5 79 22 19 27 69 46 43 57
REMARK Flexibility Score: inf
ROOT
ATOM      1  C   UNL A   1      35.017  21.731  26.236  1.00  0.00     0.118 C 
ENDROOT
BRANCH   1   2
ATOM      2  N   UNL A   1      33.976  20.854  25.733  1.00  0.00    -0.351 N 
ATOM      3  C   UNL A   1      32.631  21.046  25.520  1.00  0.00     0.263 C 
ATOM      4  O   UNL A   1      32.047  20.095  24.995  1.00  0.00    -0.268 OA
ATOM      5  H   UNL A   1      34.292  19.951  25.501  1.00  0.00     0.163 HD
BRANCH   3   6
ATOM      6  C   UNL A   1      31.977  22.290  25.862  1.00  0.00     0.112 A 
ATOM      7  C   UNL A   1      30.878  24.481  25.722  1.00  0.00     0.116 A 
ATOM      8  N   UNL A   1      31.088  24.147  26.982  1.00  0.00    -0.244 NA
ATOM      9  S   UNL A   1      31.370  23.278  24.587  1.00  0.00    -0.109 S 
ATOM     10  C   UNL A   1      31.666  22.894  27.062  1.00  0.00     0.137 A 
BRANCH   7  11
ATOM     11  C   UNL A   1      30.303  25.695  25.246  1.00  0.00     0.040 C 
ATOM     12  C   UNL A   1      30.173  25.909  23.927  1.00  0.00     0.011 C 
BRANCH  12  13
ATOM     13  C   UNL A   1      29.626  27.132  23.318  1.00  0.00    -0.022 A 
ATOM     14  C   UNL A   1      28.727  29.629  22.339  1.00  0.00     0.160 A 
ATOM     15  C   UNL A   1      27.857  28.773  23.017  1.00  0.00     0.051 A 
ATOM     16  C   UNL A   1      30.054  29.230  22.168  1.00  0.00     0.158 A 
ATOM     17  C   UNL A   1      28.300  27.539  23.508  1.00  0.00     0.012 A 
ATOM     18  C   UNL A   1      30.495  27.987  22.628  1.00  0.00     0.058 A 
BRANCH  14  19
ATOM     19  O   UNL A   1      28.186  30.832  21.980  1.00  0.00    -0.493 OA
ATOM     20  C   UNL A   1      27.656  31.636  23.029  1.00  0.00     0.278 C 
ENDBRANCH  14  19
BRANCH  16  21
ATOM     21  O   UNL A   1      31.014  30.047  21.640  1.00  0.00    -0.504 OA
ATOM     22  H   UNL A   1      31.915  29.906  21.852  1.00  0.00     0.293 HD
ENDBRANCH  16  21
ENDBRANCH  12  13
ENDBRANCH   7  11
ENDBRANCH   3   6
ENDBRANCH   1   2
BRANCH   1  23
ATOM     23  C   UNL A   1      35.503  22.699  25.158  1.00  0.00     0.042 C 
BRANCH  23  24
ATOM     24  C   UNL A   1      36.821  23.393  25.506  1.00  0.00     0.118 C 
BRANCH  24  25
ATOM     25  N   UNL A   1      37.834  22.454  25.967  1.00  0.00    -0.352 N 
ATOM     26  C   UNL A   1      39.078  22.681  26.500  1.00  0.00     0.251 C 
ATOM     27  H   UNL A   1      37.588  21.504  25.882  1.00  0.00     0.163 HD
ATOM     28  O   UNL A   1      39.855  21.740  26.637  1.00  0.00    -0.269 OA
BRANCH  26  29
ATOM     29  C   UNL A   1      39.501  24.041  26.903  1.00  0.00     0.039 A 
ATOM     30  C   UNL A   1      39.275  24.448  28.222  1.00  0.00     0.014 A 
ATOM     31  C   UNL A   1      40.053  24.936  25.982  1.00  0.00     0.014 A 
ATOM     32  C   UNL A   1      39.648  25.730  28.631  1.00  0.00     0.010 A 
ATOM     33  C   UNL A   1      40.477  26.195  26.405  1.00  0.00     0.010 A 
ATOM     34  C   UNL A   1      40.275  26.607  27.731  1.00  0.00    -0.014 A 
BRANCH  34  35
ATOM     35  C   UNL A   1      40.723  27.955  28.159  1.00  0.00     0.031 A 
ATOM     36  C   UNL A   1      42.185  28.304  28.169  1.00  0.00     0.074 A 
ATOM     37  C   UNL A   1      39.816  28.846  28.605  1.00  0.00     0.049 A 
ATOM     38  N   UNL A   1      42.773  29.395  28.588  1.00  0.00    -0.248 NA
ATOM     39  C   UNL A   1      43.111  27.279  27.663  1.00  0.00     0.031 C 
ATOM     40  C   UNL A   1      38.372  28.615  28.686  1.00  0.00     0.029 A 
ATOM     41  N   UNL A   1      39.977  30.121  29.089  1.00  0.00    -0.354 N 
ATOM     42  C   UNL A   1      44.134  29.180  28.420  1.00  0.00     0.074 A 
ATOM     43  C   UNL A   1      44.288  27.841  27.893  1.00  0.00     0.031 C 
ATOM     44  C   UNL A   1      37.779  29.715  29.178  1.00  0.00     0.029 A 
ATOM     45  C   UNL A   1      38.801  30.714  29.475  1.00  0.00     0.049 A 
ATOM     46  H   UNL A   1      40.852  30.565  29.153  1.00  0.00     0.167 HD
ATOM     47  C   UNL A   1      45.162  30.028  28.667  1.00  0.00     0.037 A 
ATOM     48  C   UNL A   1      38.572  31.925  30.016  1.00  0.00     0.037 A 
ATOM     49  C   UNL A   1      45.006  31.373  29.158  1.00  0.00     0.049 A 
ATOM     50  C   UNL A   1      39.726  32.855  30.261  1.00  0.00     0.074 A 
ATOM     51  C   UNL A   1      45.982  32.330  29.374  1.00  0.00     0.029 A 
ATOM     52  N   UNL A   1      43.795  31.949  29.507  1.00  0.00    -0.354 N 
ATOM     53  N   UNL A   1      41.004  32.660  30.042  1.00  0.00    -0.248 NA
ATOM     54  C   UNL A   1      39.407  34.174  30.824  1.00  0.00     0.031 C 
ATOM     55  C   UNL A   1      45.364  33.477  29.885  1.00  0.00     0.029 A 
ATOM     56  C   UNL A   1      44.000  33.245  29.953  1.00  0.00     0.049 A 
ATOM     57  H   UNL A   1      42.919  31.504  29.449  1.00  0.00     0.167 HD
ATOM     58  C   UNL A   1      41.637  33.836  30.419  1.00  0.00     0.074 A 
ATOM     59  C   UNL A   1      40.602  34.744  30.870  1.00  0.00     0.031 C 
ATOM     60  C   UNL A   1      42.958  34.136  30.394  1.00  0.00     0.037 A 
BRANCH  47  61
ATOM     61  C   UNL A   1      46.550  29.523  28.408  1.00  0.00     0.057 A 
ATOM     62  C   UNL A   1      47.301  28.886  29.404  1.00  0.00     0.134 A 
ATOM     63  C   UNL A   1      47.132  29.648  27.140  1.00  0.00     0.134 A 
ATOM     64  F   UNL A   1      46.805  28.744  30.643  1.00  0.00    -0.206 F 
ATOM     65  C   UNL A   1      48.591  28.415  29.156  1.00  0.00     0.040 A 
ATOM     66  C   UNL A   1      48.413  29.160  26.875  1.00  0.00     0.040 A 
ATOM     67  F   UNL A   1      46.466  30.243  26.140  1.00  0.00    -0.206 F 
ATOM     68  C   UNL A   1      49.149  28.547  27.886  1.00  0.00     0.006 A 
ENDBRANCH  47  61
BRANCH  48  69
ATOM     69  C   UNL A   1      37.185  32.337  30.339  1.00  0.00     0.057 A 
ATOM     70  C   UNL A   1      36.605  32.005  31.569  1.00  0.00     0.134 A 
ATOM     71  C   UNL A   1      36.413  33.076  29.437  1.00  0.00     0.134 A 
ATOM     72  F   UNL A   1      37.293  31.282  32.466  1.00  0.00    -0.206 F 
ATOM     73  C   UNL A   1      35.300  32.382  31.887  1.00  0.00     0.040 A 
ATOM     74  C   UNL A   1      35.113  33.478  29.749  1.00  0.00     0.040 A 
ATOM     75  F   UNL A   1      36.916  33.431  28.246  1.00  0.00    -0.206 F 
ATOM     76  C   UNL A   1      34.551  33.126  30.976  1.00  0.00     0.006 A 
ENDBRANCH  48  69
BRANCH  60  77
ATOM     77  C   UNL A   1      43.355  35.511  30.841  1.00  0.00     0.057 A 
ATOM     78  C   UNL A   1      43.506  36.565  29.932  1.00  0.00     0.134 A 
ATOM     79  C   UNL A   1      43.557  35.790  32.198  1.00  0.00     0.134 A 
ATOM     80  F   UNL A   1      43.340  36.358  28.616  1.00  0.00    -0.206 F 
ATOM     81  C   UNL A   1      43.861  37.847  30.357  1.00  0.00     0.040 A 
ATOM     82  C   UNL A   1      43.891  37.071  32.636  1.00  0.00     0.040 A 
ATOM     83  F   UNL A   1      43.423  34.823  33.120  1.00  0.00    -0.206 F 
ATOM     84  C   UNL A   1      44.048  38.104  31.713  1.00  0.00     0.006 A 
ENDBRANCH  60  77
ENDBRANCH  34  35
ENDBRANCH  26  29
ENDBRANCH  24  25
ENDBRANCH  23  24
ENDBRANCH   1  23
TORSDOF 14
ENDMDL
MODEL 3
REMARK VINA RESULT:     -11.8      3.238      8.714
REMARK SMILES COc1ccc(/C=C/c2ncc(C(=O)NCCCNC(=O)c3ccc(-c4c5nc(c(-c6c(F)cccc6F)c6ccc([nH]6)c(-c6c(F)cccc6F)c6nc(c(-c7c(F)cccc7F)c7ccc4[nH]7)C=C6)C=C5)cc3)s2)cc1O
REMARK SMILES IDX 16 1 15 2 13 3 14 4 12 6 9 7 10 8 76 9 11 10 8 11 7 12 6 13
REMARK SMILES IDX 3 14 4 15 78 16 5 17 77 18 2 19 1 20 79 21 17 23 18 24 19 25
REMARK SMILES IDX 20 26 21 28 22 29 23 30 75 31 24 32 74 33 25 34 26 35 27 36
REMARK SMILES IDX 68 37 28 38 73 39 67 40 69 41 29 42 72 43 66 44 65 45 30 47
REMARK SMILES IDX 56 48 39 49 55 50 40 51 43 52 54 53 70 54 41 55 42 56 53 58
REMARK SMILES IDX 71 59 44 60 31 61 32 62 37 63 33 64 34 65 36 66 38 67 35 68
REMARK SMILES IDX 57 69 58 70 63 71 59 72 60 73 62 74 64 75 61 76 45 77 46 78
REMARK SMILES IDX 51 79 47 80 48 81 50 82 52 83 49 84
REMARK H PARENT 15 5 79 22 19 27 69 46 43 57
REMARK Flexibility Score: inf
ROOT
ATOM      1  C   UNL A   1      35.028  22.204  26.151  1.00  0.00     0.118 C 
ENDROOT
BRANCH   1   2
ATOM      2  N   UNL A   1      34.041  21.237  25.708  1.00  0.00    -0.351 N 
ATOM      3  C   UNL A   1      32.681  21.322  25.529  1.00  0.00     0.263 C 
ATOM      4  O   UNL A   1      32.155  20.314  25.054  1.00  0.00    -0.268 OA
ATOM      5  H   UNL A   1      34.417  20.352  25.497  1.00  0.00     0.163 HD
BRANCH   3   6
ATOM      6  C   UNL A   1      31.946  22.527  25.850  1.00  0.00     0.112 A 
ATOM      7  C   UNL A   1      30.663  24.612  25.670  1.00  0.00     0.116 A 
ATOM      8  N   UNL A   1      30.971  24.364  26.929  1.00  0.00    -0.244 NA
ATOM      9  S   UNL A   1      31.187  23.393  24.567  1.00  0.00    -0.109 S 
ATOM     10  C   UNL A   1      31.656  23.167  27.035  1.00  0.00     0.137 A 
BRANCH   7  11
ATOM     11  C   UNL A   1      29.963  25.748  25.171  1.00  0.00     0.040 C 
ATOM     12  C   UNL A   1      30.397  26.379  24.069  1.00  0.00     0.011 C 
BRANCH  12  13
ATOM     13  C   UNL A   1      29.779  27.577  23.479  1.00  0.00    -0.022 A 
ATOM     14  C   UNL A   1      28.475  29.705  22.147  1.00  0.00     0.160 A 
ATOM     15  C   UNL A   1      29.865  29.576  22.096  1.00  0.00     0.051 A 
ATOM     16  C   UNL A   1      27.744  28.752  22.858  1.00  0.00     0.158 A 
ATOM     17  C   UNL A   1      30.513  28.520  22.750  1.00  0.00     0.012 A 
ATOM     18  C   UNL A   1      28.387  27.714  23.537  1.00  0.00     0.058 A 
BRANCH  14  19
ATOM     19  O   UNL A   1      27.967  30.735  21.405  1.00  0.00    -0.493 OA
ATOM     20  C   UNL A   1      27.933  32.017  22.025  1.00  0.00     0.278 C 
ENDBRANCH  14  19
BRANCH  16  21
ATOM     21  O   UNL A   1      26.378  28.711  22.857  1.00  0.00    -0.504 OA
ATOM     22  H   UNL A   1      25.933  27.978  23.235  1.00  0.00     0.293 HD
ENDBRANCH  16  21
ENDBRANCH  12  13
ENDBRANCH   7  11
ENDBRANCH   3   6
ENDBRANCH   1   2
BRANCH   1  23
ATOM     23  C   UNL A   1      35.560  23.035  24.984  1.00  0.00     0.042 C 
BRANCH  23  24
ATOM     24  C   UNL A   1      36.897  23.718  25.275  1.00  0.00     0.118 C 
BRANCH  24  25
ATOM     25  N   UNL A   1      37.961  22.759  25.537  1.00  0.00    -0.352 N 
ATOM     26  C   UNL A   1      39.187  22.932  26.128  1.00  0.00     0.251 C 
ATOM     27  H   UNL A   1      37.771  21.839  25.241  1.00  0.00     0.163 HD
ATOM     28  O   UNL A   1      40.017  22.029  26.069  1.00  0.00    -0.269 OA
BRANCH  26  29
ATOM     29  C   UNL A   1      39.527  24.191  26.828  1.00  0.00     0.039 A 
ATOM     30  C   UNL A   1      39.092  24.362  28.147  1.00  0.00     0.014 A 
ATOM     31  C   UNL A   1      40.210  25.224  26.180  1.00  0.00     0.014 A 
ATOM     32  C   UNL A   1      39.384  25.544  28.830  1.00  0.00     0.010 A 
ATOM     33  C   UNL A   1      40.549  26.380  26.881  1.00  0.00     0.010 A 
ATOM     34  C   UNL A   1      40.136  26.554  28.211  1.00  0.00    -0.014 A 
BRANCH  34  35
ATOM     35  C   UNL A   1      40.497  27.797  28.937  1.00  0.00     0.031 A 
ATOM     36  C   UNL A   1      41.845  27.931  29.591  1.00  0.00     0.074 A 
ATOM     37  C   UNL A   1      39.586  28.781  29.065  1.00  0.00     0.049 A 
ATOM     38  N   UNL A   1      42.309  28.901  30.337  1.00  0.00    -0.248 NA
ATOM     39  C   UNL A   1      42.785  26.817  29.400  1.00  0.00     0.031 C 
ATOM     40  C   UNL A   1      38.230  28.754  28.515  1.00  0.00     0.029 A 
ATOM     41  N   UNL A   1      39.659  29.988  29.715  1.00  0.00    -0.354 N 
ATOM     42  C   UNL A   1      43.582  28.504  30.725  1.00  0.00     0.074 A 
ATOM     43  C   UNL A   1      43.804  27.190  30.160  1.00  0.00     0.031 C 
ATOM     44  C   UNL A   1      37.602  29.896  28.839  1.00  0.00     0.029 A 
ATOM     45  C   UNL A   1      38.499  30.720  29.644  1.00  0.00     0.049 A 
ATOM     46  H   UNL A   1      40.465  30.298  30.186  1.00  0.00     0.167 HD
ATOM     47  C   UNL A   1      44.489  29.180  31.470  1.00  0.00     0.037 A 
ATOM     48  C   UNL A   1      38.190  31.916  30.176  1.00  0.00     0.037 A 
ATOM     49  C   UNL A   1      44.281  30.501  32.003  1.00  0.00     0.049 A 
ATOM     50  C   UNL A   1      39.220  32.655  30.982  1.00  0.00     0.074 A 
ATOM     51  C   UNL A   1      45.166  31.295  32.711  1.00  0.00     0.029 A 
ATOM     52  N   UNL A   1      43.104  31.223  31.883  1.00  0.00    -0.354 N 
ATOM     53  N   UNL A   1      40.442  32.293  31.290  1.00  0.00    -0.248 NA
ATOM     54  C   UNL A   1      38.831  33.971  31.508  1.00  0.00     0.031 C 
ATOM     55  C   UNL A   1      44.513  32.486  33.047  1.00  0.00     0.029 A 
ATOM     56  C   UNL A   1      43.234  32.448  32.518  1.00  0.00     0.049 A 
ATOM     57  H   UNL A   1      42.295  30.912  31.416  1.00  0.00     0.167 HD
ATOM     58  C   UNL A   1      40.974  33.342  32.028  1.00  0.00     0.074 A 
ATOM     59  C   UNL A   1      39.946  34.360  32.110  1.00  0.00     0.031 C 
ATOM     60  C   UNL A   1      42.203  33.451  32.587  1.00  0.00     0.037 A 
BRANCH  47  61
ATOM     61  C   UNL A   1      45.794  28.497  31.753  1.00  0.00     0.057 A 
ATOM     62  C   UNL A   1      45.977  27.695  32.886  1.00  0.00     0.134 A 
ATOM     63  C   UNL A   1      46.873  28.621  30.868  1.00  0.00     0.134 A 
ATOM     64  F   UNL A   1      44.985  27.545  33.779  1.00  0.00    -0.206 F 
ATOM     65  C   UNL A   1      47.192  27.059  33.143  1.00  0.00     0.040 A 
ATOM     66  C   UNL A   1      48.086  27.971  31.103  1.00  0.00     0.040 A 
ATOM     67  F   UNL A   1      46.764  29.370  29.761  1.00  0.00    -0.206 F 
ATOM     68  C   UNL A   1      48.250  27.193  32.246  1.00  0.00     0.006 A 
ENDBRANCH  47  61
BRANCH  48  69
ATOM     69  C   UNL A   1      36.849  32.503  29.941  1.00  0.00     0.057 A 
ATOM     70  C   UNL A   1      36.629  33.397  28.887  1.00  0.00     0.134 A 
ATOM     71  C   UNL A   1      35.757  32.179  30.755  1.00  0.00     0.134 A 
ATOM     72  F   UNL A   1      37.643  33.757  28.087  1.00  0.00    -0.206 F 
ATOM     73  C   UNL A   1      35.373  33.960  28.656  1.00  0.00     0.040 A 
ATOM     74  C   UNL A   1      34.491  32.719  30.523  1.00  0.00     0.040 A 
ATOM     75  F   UNL A   1      35.903  31.323  31.775  1.00  0.00    -0.206 F 
ATOM     76  C   UNL A   1      34.298  33.616  29.473  1.00  0.00     0.006 A 
ENDBRANCH  48  69
BRANCH  60  77
ATOM     77  C   UNL A   1      42.514  34.726  33.312  1.00  0.00     0.057 A 
ATOM     78  C   UNL A   1      42.268  34.871  34.682  1.00  0.00     0.134 A 
ATOM     79  C   UNL A   1      43.094  35.807  32.638  1.00  0.00     0.134 A 
ATOM     80  F   UNL A   1      41.699  33.876  35.381  1.00  0.00    -0.206 F 
ATOM     81  C   UNL A   1      42.574  36.055  35.354  1.00  0.00     0.040 A 
ATOM     82  C   UNL A   1      43.425  36.987  33.304  1.00  0.00     0.040 A 
ATOM     83  F   UNL A   1      43.360  35.728  31.324  1.00  0.00    -0.206 F 
ATOM     84  C   UNL A   1      43.160  37.116  34.666  1.00  0.00     0.006 A 
ENDBRANCH  60  77
ENDBRANCH  34  35
ENDBRANCH  26  29
ENDBRANCH  24  25
ENDBRANCH  23  24
ENDBRANCH   1  23
TORSDOF 14
ENDMDL
