MODEL 1
REMARK VINA RESULT:     -10.5      0.000      0.000
REMARK SMILES CC(C)(O)CCOc1ccc(C(=O)NCCCNC(=O)c2ccc(-c3c4nc(c(-c5c(F)cccc5F)c5ccc([nH]5)c(-c5c(F)cccc5F)c5nc(c(-c6c(F)cccc6F)c6ccc3[nH]6)C=C5)C=C4)cc2)cc1
REMARK SMILES IDX 12 1 13 2 14 3 11 5 8 6 9 7 76 8 10 9 75 10 7 11 6 12 5 13
REMARK SMILES IDX 2 14 1 15 3 16 4 17 15 19 16 20 17 21 18 22 19 23 20 25
REMARK SMILES IDX 21 26 22 27 74 28 23 29 73 30 24 31 25 32 26 33 67 34 27 35
REMARK SMILES IDX 72 36 66 37 68 38 28 39 71 40 65 41 64 42 29 44 55 45 38 46
REMARK SMILES IDX 54 47 39 48 42 49 53 50 69 51 40 52 41 53 52 55 70 56 43 57
REMARK SMILES IDX 30 58 31 59 36 60 32 61 33 62 35 63 37 64 34 65 56 66 57 67
REMARK SMILES IDX 62 68 58 69 59 70 61 71 63 72 60 73 44 74 45 75 50 76 46 77
REMARK SMILES IDX 47 78 49 79 51 80 48 81
REMARK H PARENT 14 4 4 18 18 24 68 43 42 54
REMARK Flexibility Score: inf
ROOT
ATOM      1  C   UNL A   1      37.384  23.506  25.881  1.00  0.00     0.251 C 
ATOM      2  O   UNL A   1      38.058  24.411  26.366  1.00  0.00    -0.269 OA
ATOM      3  N   UNL A   1      38.023  22.454  25.263  1.00  0.00    -0.352 N 
ATOM      4  H   UNL A   1      39.004  22.471  25.343  1.00  0.00     0.163 HD
ENDROOT
BRANCH   1   5
ATOM      5  C   UNL A   1      35.905  23.601  25.915  1.00  0.00     0.040 A 
ATOM      6  C   UNL A   1      33.130  23.461  25.617  1.00  0.00     0.119 A 
ATOM      7  C   UNL A   1      33.878  24.322  24.810  1.00  0.00     0.047 A 
ATOM      8  C   UNL A   1      33.746  22.867  26.716  1.00  0.00     0.047 A 
ATOM      9  C   UNL A   1      35.265  24.397  24.959  1.00  0.00     0.017 A 
ATOM     10  C   UNL A   1      35.136  22.920  26.858  1.00  0.00     0.017 A 
BRANCH   6  11
ATOM     11  O   UNL A   1      31.865  23.203  25.172  1.00  0.00    -0.493 OA
BRANCH  11  12
ATOM     12  C   UNL A   1      31.685  22.570  23.901  1.00  0.00     0.232 C 
BRANCH  12  13
ATOM     13  C   UNL A   1      32.730  21.498  23.513  1.00  0.00     0.076 C 
BRANCH  13  14
ATOM     14  C   UNL A   1      32.730  20.151  24.274  1.00  0.00     0.062 C 
ATOM     15  C   UNL A   1      34.119  19.785  24.808  1.00  0.00     0.042 C 
ATOM     16  C   UNL A   1      32.267  19.001  23.367  1.00  0.00     0.042 C 
BRANCH  14  17
ATOM     17  O   UNL A   1      31.776  20.205  25.334  1.00  0.00    -0.390 OA
ATOM     18  H   UNL A   1      31.960  20.975  25.896  1.00  0.00     0.211 HD
ENDBRANCH  14  17
ENDBRANCH  13  14
ENDBRANCH  12  13
ENDBRANCH  11  12
ENDBRANCH   6  11
ENDBRANCH   1   5
BRANCH   3  19
ATOM     19  C   UNL A   1      37.499  21.321  24.512  1.00  0.00     0.118 C 
BRANCH  19  20
ATOM     20  C   UNL A   1      38.154  19.992  24.880  1.00  0.00     0.042 C 
BRANCH  20  21
ATOM     21  C   UNL A   1      39.117  20.049  26.062  1.00  0.00     0.118 C 
BRANCH  21  22
ATOM     22  N   UNL A   1      40.233  19.119  25.937  1.00  0.00    -0.352 N 
ATOM     23  C   UNL A   1      41.588  19.330  26.027  1.00  0.00     0.251 C 
ATOM     24  H   UNL A   1      39.973  18.187  25.760  1.00  0.00     0.163 HD
ATOM     25  O   UNL A   1      42.358  18.415  25.730  1.00  0.00    -0.269 OA
BRANCH  23  26
ATOM     26  C   UNL A   1      42.141  20.636  26.451  1.00  0.00     0.039 A 
ATOM     27  C   UNL A   1      42.626  21.513  25.473  1.00  0.00     0.014 A 
ATOM     28  C   UNL A   1      42.222  20.994  27.799  1.00  0.00     0.014 A 
ATOM     29  C   UNL A   1      43.119  22.768  25.841  1.00  0.00     0.010 A 
ATOM     30  C   UNL A   1      42.635  22.276  28.157  1.00  0.00     0.010 A 
ATOM     31  C   UNL A   1      43.089  23.177  27.184  1.00  0.00    -0.014 A 
BRANCH  31  32
ATOM     32  C   UNL A   1      43.521  24.541  27.587  1.00  0.00     0.031 A 
ATOM     33  C   UNL A   1      42.504  25.585  27.961  1.00  0.00     0.074 A 
ATOM     34  C   UNL A   1      44.828  24.865  27.548  1.00  0.00     0.049 A 
ATOM     35  N   UNL A   1      42.685  26.841  28.284  1.00  0.00    -0.248 NA
ATOM     36  C   UNL A   1      41.094  25.168  27.941  1.00  0.00     0.031 C 
ATOM     37  C   UNL A   1      45.912  23.959  27.164  1.00  0.00     0.029 A 
ATOM     38  N   UNL A   1      45.467  26.048  27.828  1.00  0.00    -0.354 N 
ATOM     39  C   UNL A   1      41.415  27.367  28.487  1.00  0.00     0.074 A 
ATOM     40  C   UNL A   1      40.472  26.310  28.192  1.00  0.00     0.031 C 
ATOM     41  C   UNL A   1      47.083  24.606  27.271  1.00  0.00     0.029 A 
ATOM     42  C   UNL A   1      46.832  25.983  27.683  1.00  0.00     0.049 A 
ATOM     43  H   UNL A   1      44.993  26.864  28.105  1.00  0.00     0.167 HD
ATOM     44  C   UNL A   1      41.065  28.610  28.899  1.00  0.00     0.037 A 
ATOM     45  C   UNL A   1      47.775  26.926  27.862  1.00  0.00     0.037 A 
ATOM     46  C   UNL A   1      42.008  29.656  29.200  1.00  0.00     0.049 A 
ATOM     47  C   UNL A   1      47.363  28.308  28.288  1.00  0.00     0.074 A 
ATOM     48  C   UNL A   1      41.761  30.927  29.688  1.00  0.00     0.029 A 
ATOM     49  N   UNL A   1      43.382  29.556  29.028  1.00  0.00    -0.354 N 
ATOM     50  N   UNL A   1      46.165  28.770  28.550  1.00  0.00    -0.248 NA
ATOM     51  C   UNL A   1      48.438  29.297  28.444  1.00  0.00     0.031 C 
ATOM     52  C   UNL A   1      42.977  31.616  29.751  1.00  0.00     0.029 A 
ATOM     53  C   UNL A   1      43.991  30.755  29.364  1.00  0.00     0.049 A 
ATOM     54  H   UNL A   1      43.853  28.752  28.712  1.00  0.00     0.167 HD
ATOM     55  C   UNL A   1      46.343  30.093  28.934  1.00  0.00     0.074 A 
ATOM     56  C   UNL A   1      47.767  30.355  28.879  1.00  0.00     0.031 C 
ATOM     57  C   UNL A   1      45.410  31.005  29.303  1.00  0.00     0.037 A 
BRANCH  44  58
ATOM     58  C   UNL A   1      39.595  28.904  29.025  1.00  0.00     0.057 A 
ATOM     59  C   UNL A   1      38.907  28.758  30.239  1.00  0.00     0.134 A 
ATOM     60  C   UNL A   1      38.854  29.333  27.917  1.00  0.00     0.134 A 
ATOM     61  F   UNL A   1      39.551  28.342  31.340  1.00  0.00    -0.206 F 
ATOM     62  C   UNL A   1      37.531  28.981  30.333  1.00  0.00     0.040 A 
ATOM     63  C   UNL A   1      37.485  29.592  28.006  1.00  0.00     0.040 A 
ATOM     64  F   UNL A   1      39.447  29.506  26.726  1.00  0.00    -0.206 F 
ATOM     65  C   UNL A   1      36.817  29.402  29.214  1.00  0.00     0.006 A 
ENDBRANCH  44  58
BRANCH  45  66
ATOM     66  C   UNL A   1      49.208  26.581  27.683  1.00  0.00     0.057 A 
ATOM     67  C   UNL A   1      49.984  26.167  28.772  1.00  0.00     0.134 A 
ATOM     68  C   UNL A   1      49.832  26.638  26.431  1.00  0.00     0.134 A 
ATOM     69  F   UNL A   1      49.449  26.109  30.000  1.00  0.00    -0.206 F 
ATOM     70  C   UNL A   1      51.332  25.831  28.625  1.00  0.00     0.040 A 
ATOM     71  C   UNL A   1      51.171  26.281  26.265  1.00  0.00     0.040 A 
ATOM     72  F   UNL A   1      49.141  27.019  25.347  1.00  0.00    -0.206 F 
ATOM     73  C   UNL A   1      51.926  25.882  27.366  1.00  0.00     0.006 A 
ENDBRANCH  45  66
BRANCH  57  74
ATOM     74  C   UNL A   1      45.903  32.365  29.714  1.00  0.00     0.057 A 
ATOM     75  C   UNL A   1      46.014  33.423  28.803  1.00  0.00     0.134 A 
ATOM     76  C   UNL A   1      46.238  32.626  31.049  1.00  0.00     0.134 A 
ATOM     77  F   UNL A   1      45.722  33.237  27.506  1.00  0.00    -0.206 F 
ATOM     78  C   UNL A   1      46.464  34.683  29.200  1.00  0.00     0.040 A 
ATOM     79  C   UNL A   1      46.660  33.890  31.464  1.00  0.00     0.040 A 
ATOM     80  F   UNL A   1      46.148  31.660  31.976  1.00  0.00    -0.206 F 
ATOM     81  C   UNL A   1      46.782  34.921  30.536  1.00  0.00     0.006 A 
ENDBRANCH  57  74
ENDBRANCH  31  32
ENDBRANCH  23  26
ENDBRANCH  21  22
ENDBRANCH  20  21
ENDBRANCH  19  20
ENDBRANCH   3  19
TORSDOF 15
ENDMDL
MODEL 2
REMARK VINA RESULT:     -10.1      2.758      7.774
REMARK SMILES CC(C)(O)CCOc1ccc(C(=O)NCCCNC(=O)c2ccc(-c3c4nc(c(-c5c(F)cccc5F)c5ccc([nH]5)c(-c5c(F)cccc5F)c5nc(c(-c6c(F)cccc6F)c6ccc3[nH]6)C=C5)C=C4)cc2)cc1
REMARK SMILES IDX 12 1 13 2 14 3 11 5 8 6 9 7 76 8 10 9 75 10 7 11 6 12 5 13
REMARK SMILES IDX 2 14 1 15 3 16 4 17 15 19 16 20 17 21 18 22 19 23 20 25
REMARK SMILES IDX 21 26 22 27 74 28 23 29 73 30 24 31 25 32 26 33 67 34 27 35
REMARK SMILES IDX 72 36 66 37 68 38 28 39 71 40 65 41 64 42 29 44 55 45 38 46
REMARK SMILES IDX 54 47 39 48 42 49 53 50 69 51 40 52 41 53 52 55 70 56 43 57
REMARK SMILES IDX 30 58 31 59 36 60 32 61 33 62 35 63 37 64 34 65 56 66 57 67
REMARK SMILES IDX 62 68 58 69 59 70 61 71 63 72 60 73 44 74 45 75 50 76 46 77
REMARK SMILES IDX 47 78 49 79 51 80 48 81
REMARK H PARENT 14 4 4 18 18 24 68 43 42 54
REMARK Flexibility Score: inf
ROOT
ATOM      1  C   UNL A   1      32.691  23.973  26.452  1.00  0.00     0.251 C 
ATOM      2  O   UNL A   1      31.739  24.361  27.124  1.00  0.00    -0.269 OA
ATOM      3  N   UNL A   1      33.686  24.868  26.124  1.00  0.00    -0.352 N 
ATOM      4  H   UNL A   1      33.592  25.753  26.545  1.00  0.00     0.163 HD
ENDROOT
BRANCH   1   5
ATOM      5  C   UNL A   1      32.714  22.576  25.957  1.00  0.00     0.040 A 
ATOM      6  C   UNL A   1      33.120  20.091  24.747  1.00  0.00     0.119 A 
ATOM      7  C   UNL A   1      32.322  21.051  24.122  1.00  0.00     0.047 A 
ATOM      8  C   UNL A   1      33.503  20.294  26.070  1.00  0.00     0.047 A 
ATOM      9  C   UNL A   1      32.114  22.294  24.726  1.00  0.00     0.017 A 
ATOM     10  C   UNL A   1      33.318  21.542  26.672  1.00  0.00     0.017 A 
BRANCH   6  11
ATOM     11  O   UNL A   1      33.540  19.072  23.939  1.00  0.00    -0.493 OA
BRANCH  11  12
ATOM     12  C   UNL A   1      32.653  17.983  23.665  1.00  0.00     0.232 C 
BRANCH  12  13
ATOM     13  C   UNL A   1      33.253  16.562  23.785  1.00  0.00     0.076 C 
BRANCH  13  14
ATOM     14  C   UNL A   1      33.655  16.041  25.185  1.00  0.00     0.062 C 
ATOM     15  C   UNL A   1      35.161  15.780  25.296  1.00  0.00     0.042 C 
ATOM     16  C   UNL A   1      32.933  14.726  25.514  1.00  0.00     0.042 C 
BRANCH  14  17
ATOM     17  O   UNL A   1      33.225  16.970  26.178  1.00  0.00    -0.390 OA
ATOM     18  H   UNL A   1      33.671  16.775  27.018  1.00  0.00     0.211 HD
ENDBRANCH  14  17
ENDBRANCH  13  14
ENDBRANCH  12  13
ENDBRANCH  11  12
ENDBRANCH   6  11
ENDBRANCH   1   5
BRANCH   3  19
ATOM     19  C   UNL A   1      34.852  24.732  25.261  1.00  0.00     0.118 C 
BRANCH  19  20
ATOM     20  C   UNL A   1      35.981  23.919  25.889  1.00  0.00     0.042 C 
BRANCH  20  21
ATOM     21  C   UNL A   1      37.036  23.411  24.911  1.00  0.00     0.118 C 
BRANCH  21  22
ATOM     22  N   UNL A   1      37.981  22.482  25.519  1.00  0.00    -0.352 N 
ATOM     23  C   UNL A   1      39.106  22.715  26.273  1.00  0.00     0.251 C 
ATOM     24  H   UNL A   1      37.779  21.532  25.364  1.00  0.00     0.163 HD
ATOM     25  O   UNL A   1      39.846  21.770  26.553  1.00  0.00    -0.269 OA
BRANCH  23  26
ATOM     26  C   UNL A   1      39.459  24.076  26.735  1.00  0.00     0.039 A 
ATOM     27  C   UNL A   1      39.129  24.452  28.042  1.00  0.00     0.014 A 
ATOM     28  C   UNL A   1      40.078  24.999  25.887  1.00  0.00     0.014 A 
ATOM     29  C   UNL A   1      39.484  25.718  28.517  1.00  0.00     0.010 A 
ATOM     30  C   UNL A   1      40.505  26.228  26.387  1.00  0.00     0.010 A 
ATOM     31  C   UNL A   1      40.212  26.603  27.706  1.00  0.00    -0.014 A 
BRANCH  31  32
ATOM     32  C   UNL A   1      40.682  27.917  28.219  1.00  0.00     0.031 A 
ATOM     33  C   UNL A   1      42.152  28.224  28.301  1.00  0.00     0.074 A 
ATOM     34  C   UNL A   1      39.784  28.809  28.682  1.00  0.00     0.049 A 
ATOM     35  N   UNL A   1      42.752  29.289  28.771  1.00  0.00    -0.248 NA
ATOM     36  C   UNL A   1      43.070  27.184  27.815  1.00  0.00     0.031 C 
ATOM     37  C   UNL A   1      38.333  28.619  28.697  1.00  0.00     0.029 A 
ATOM     38  N   UNL A   1      39.962  30.054  29.234  1.00  0.00    -0.354 N 
ATOM     39  C   UNL A   1      44.114  29.039  28.656  1.00  0.00     0.074 A 
ATOM     40  C   UNL A   1      44.249  27.699  28.127  1.00  0.00     0.031 C 
ATOM     41  C   UNL A   1      37.751  29.721  29.195  1.00  0.00     0.029 A 
ATOM     42  C   UNL A   1      38.787  30.676  29.577  1.00  0.00     0.049 A 
ATOM     43  H   UNL A   1      40.848  30.461  29.372  1.00  0.00     0.167 HD
ATOM     44  C   UNL A   1      45.155  29.855  28.945  1.00  0.00     0.037 A 
ATOM     45  C   UNL A   1      38.566  31.880  30.137  1.00  0.00     0.037 A 
ATOM     46  C   UNL A   1      45.014  31.192  29.463  1.00  0.00     0.049 A 
ATOM     47  C   UNL A   1      39.738  32.758  30.480  1.00  0.00     0.074 A 
ATOM     48  C   UNL A   1      46.002  32.125  29.726  1.00  0.00     0.029 A 
ATOM     49  N   UNL A   1      43.807  31.782  29.810  1.00  0.00    -0.354 N 
ATOM     50  N   UNL A   1      41.017  32.540  30.295  1.00  0.00    -0.248 NA
ATOM     51  C   UNL A   1      39.432  34.049  31.110  1.00  0.00     0.031 C 
ATOM     52  C   UNL A   1      45.399  33.254  30.291  1.00  0.00     0.029 A 
ATOM     53  C   UNL A   1      44.028  33.051  30.321  1.00  0.00     0.049 A 
ATOM     54  H   UNL A   1      42.923  31.360  29.710  1.00  0.00     0.167 HD
ATOM     55  C   UNL A   1      41.667  33.679  30.753  1.00  0.00     0.074 A 
ATOM     56  C   UNL A   1      40.638  34.588  31.216  1.00  0.00     0.031 C 
ATOM     57  C   UNL A   1      42.996  33.948  30.781  1.00  0.00     0.037 A 
BRANCH  44  58
ATOM     58  C   UNL A   1      46.540  29.309  28.724  1.00  0.00     0.057 A 
ATOM     59  C   UNL A   1      47.205  29.439  27.496  1.00  0.00     0.134 A 
ATOM     60  C   UNL A   1      47.216  28.638  29.750  1.00  0.00     0.134 A 
ATOM     61  F   UNL A   1      46.615  30.063  26.465  1.00  0.00    -0.206 F 
ATOM     62  C   UNL A   1      48.468  28.880  27.284  1.00  0.00     0.040 A 
ATOM     63  C   UNL A   1      48.492  28.104  29.562  1.00  0.00     0.040 A 
ATOM     64  F   UNL A   1      46.646  28.485  30.956  1.00  0.00    -0.206 F 
ATOM     65  C   UNL A   1      49.116  28.213  28.321  1.00  0.00     0.006 A 
ENDBRANCH  44  58
BRANCH  45  66
ATOM     66  C   UNL A   1      37.175  32.345  30.365  1.00  0.00     0.057 A 
ATOM     67  C   UNL A   1      36.514  33.119  29.404  1.00  0.00     0.134 A 
ATOM     68  C   UNL A   1      36.468  32.021  31.529  1.00  0.00     0.134 A 
ATOM     69  F   UNL A   1      37.144  33.477  28.276  1.00  0.00    -0.206 F 
ATOM     70  C   UNL A   1      35.203  33.561  29.595  1.00  0.00     0.040 A 
ATOM     71  C   UNL A   1      35.149  32.435  31.723  1.00  0.00     0.040 A 
ATOM     72  F   UNL A   1      37.043  31.276  32.484  1.00  0.00    -0.206 F 
ATOM     73  C   UNL A   1      34.515  33.212  30.755  1.00  0.00     0.006 A 
ENDBRANCH  45  66
BRANCH  57  74
ATOM     74  C   UNL A   1      43.414  35.296  31.299  1.00  0.00     0.057 A 
ATOM     75  C   UNL A   1      43.637  35.534  32.661  1.00  0.00     0.134 A 
ATOM     76  C   UNL A   1      43.629  36.361  30.414  1.00  0.00     0.134 A 
ATOM     77  F   UNL A   1      43.437  34.562  33.563  1.00  0.00    -0.206 F 
ATOM     78  C   UNL A   1      44.034  36.789  33.126  1.00  0.00     0.040 A 
ATOM     79  C   UNL A   1      44.055  37.611  30.864  1.00  0.00     0.040 A 
ATOM     80  F   UNL A   1      43.441  36.201  29.095  1.00  0.00    -0.206 F 
ATOM     81  C   UNL A   1      44.252  37.831  32.225  1.00  0.00     0.006 A 
ENDBRANCH  57  74
ENDBRANCH  31  32
ENDBRANCH  23  26
ENDBRANCH  21  22
ENDBRANCH  20  21
ENDBRANCH  19  20
ENDBRANCH   3  19
TORSDOF 15
ENDMDL
MODEL 3
REMARK VINA RESULT:     -10.1      2.844      7.281
REMARK SMILES CC(C)(O)CCOc1ccc(C(=O)NCCCNC(=O)c2ccc(-c3c4nc(c(-c5c(F)cccc5F)c5ccc([nH]5)c(-c5c(F)cccc5F)c5nc(c(-c6c(F)cccc6F)c6ccc3[nH]6)C=C5)C=C4)cc2)cc1
REMARK SMILES IDX 12 1 13 2 14 3 11 5 8 6 9 7 76 8 10 9 75 10 7 11 6 12 5 13
REMARK SMILES IDX 2 14 1 15 3 16 4 17 15 19 16 20 17 21 18 22 19 23 20 25
REMARK SMILES IDX 21 26 22 27 74 28 23 29 73 30 24 31 25 32 26 33 67 34 27 35
REMARK SMILES IDX 72 36 66 37 68 38 28 39 71 40 65 41 64 42 29 44 55 45 38 46
REMARK SMILES IDX 54 47 39 48 42 49 53 50 69 51 40 52 41 53 52 55 70 56 43 57
REMARK SMILES IDX 30 58 31 59 36 60 32 61 33 62 35 63 37 64 34 65 56 66 57 67
REMARK SMILES IDX 62 68 58 69 59 70 61 71 63 72 60 73 44 74 45 75 50 76 46 77
REMARK SMILES IDX 47 78 49 79 51 80 48 81
REMARK H PARENT 14 4 4 18 18 24 68 43 42 54
REMARK Flexibility Score: inf
ROOT
ATOM      1  C   UNL A   1      33.523  26.126  22.812  1.00  0.00     0.251 C 
ATOM      2  O   UNL A   1      33.780  26.353  21.633  1.00  0.00    -0.269 OA
ATOM      3  N   UNL A   1      33.466  27.179  23.698  1.00  0.00    -0.352 N 
ATOM      4  H   UNL A   1      33.551  28.066  23.281  1.00  0.00     0.163 HD
ENDROOT
BRANCH   1   5
ATOM      5  C   UNL A   1      33.348  24.724  23.263  1.00  0.00     0.040 A 
ATOM      6  C   UNL A   1      32.976  21.982  23.644  1.00  0.00     0.119 A 
ATOM      7  C   UNL A   1      31.871  22.826  23.505  1.00  0.00     0.047 A 
ATOM      8  C   UNL A   1      34.233  22.549  23.832  1.00  0.00     0.047 A 
ATOM      9  C   UNL A   1      32.053  24.198  23.318  1.00  0.00     0.017 A 
ATOM     10  C   UNL A   1      34.426  23.918  23.624  1.00  0.00     0.017 A 
BRANCH   6  11
ATOM     11  O   UNL A   1      32.714  20.652  23.473  1.00  0.00    -0.493 OA
BRANCH  11  12
ATOM     12  C   UNL A   1      32.376  19.852  24.610  1.00  0.00     0.232 C 
BRANCH  12  13
ATOM     13  C   UNL A   1      33.408  18.775  25.022  1.00  0.00     0.076 C 
BRANCH  13  14
ATOM     14  C   UNL A   1      33.130  17.299  24.652  1.00  0.00     0.062 C 
ATOM     15  C   UNL A   1      33.961  16.323  25.492  1.00  0.00     0.042 C 
ATOM     16  C   UNL A   1      33.455  17.029  23.175  1.00  0.00     0.042 C 
BRANCH  14  17
ATOM     17  O   UNL A   1      31.736  17.030  24.789  1.00  0.00    -0.390 OA
ATOM     18  H   UNL A   1      31.252  17.866  24.878  1.00  0.00     0.211 HD
ENDBRANCH  14  17
ENDBRANCH  13  14
ENDBRANCH  12  13
ENDBRANCH  11  12
ENDBRANCH   6  11
ENDBRANCH   1   5
BRANCH   3  19
ATOM     19  C   UNL A   1      33.302  27.207  25.145  1.00  0.00     0.118 C 
BRANCH  19  20
ATOM     20  C   UNL A   1      33.336  28.615  25.734  1.00  0.00     0.042 C 
BRANCH  20  21
ATOM     21  C   UNL A   1      33.801  28.701  27.185  1.00  0.00     0.118 C 
BRANCH  21  22
ATOM     22  N   UNL A   1      33.800  30.063  27.707  1.00  0.00    -0.352 N 
ATOM     23  C   UNL A   1      34.766  30.758  28.394  1.00  0.00     0.251 C 
ATOM     24  H   UNL A   1      32.972  30.566  27.539  1.00  0.00     0.163 HD
ATOM     25  O   UNL A   1      34.485  31.856  28.877  1.00  0.00    -0.269 OA
BRANCH  23  26
ATOM     26  C   UNL A   1      36.127  30.207  28.585  1.00  0.00     0.039 A 
ATOM     27  C   UNL A   1      37.036  30.268  27.522  1.00  0.00     0.014 A 
ATOM     28  C   UNL A   1      36.509  29.599  29.784  1.00  0.00     0.014 A 
ATOM     29  C   UNL A   1      38.339  29.789  27.685  1.00  0.00     0.010 A 
ATOM     30  C   UNL A   1      37.831  29.200  29.974  1.00  0.00     0.010 A 
ATOM     31  C   UNL A   1      38.760  29.288  28.928  1.00  0.00    -0.014 A 
BRANCH  31  32
ATOM     32  C   UNL A   1      40.166  28.861  29.154  1.00  0.00     0.031 A 
ATOM     33  C   UNL A   1      41.151  29.789  29.810  1.00  0.00     0.074 A 
ATOM     34  C   UNL A   1      40.577  27.660  28.701  1.00  0.00     0.049 A 
ATOM     35  N   UNL A   1      42.428  29.615  30.040  1.00  0.00    -0.248 NA
ATOM     36  C   UNL A   1      40.637  31.098  30.239  1.00  0.00     0.031 C 
ATOM     37  C   UNL A   1      39.733  26.682  28.013  1.00  0.00     0.029 A 
ATOM     38  N   UNL A   1      41.811  27.060  28.748  1.00  0.00    -0.354 N 
ATOM     39  C   UNL A   1      42.873  30.796  30.621  1.00  0.00     0.074 A 
ATOM     40  C   UNL A   1      41.742  31.698  30.654  1.00  0.00     0.031 C 
ATOM     41  C   UNL A   1      40.463  25.590  27.737  1.00  0.00     0.029 A 
ATOM     42  C   UNL A   1      41.835  25.807  28.185  1.00  0.00     0.049 A 
ATOM     43  H   UNL A   1      42.603  27.486  29.147  1.00  0.00     0.167 HD
ATOM     44  C   UNL A   1      44.104  31.097  31.102  1.00  0.00     0.037 A 
ATOM     45  C   UNL A   1      42.847  24.931  28.044  1.00  0.00     0.037 A 
ATOM     46  C   UNL A   1      45.224  30.191  31.076  1.00  0.00     0.049 A 
ATOM     47  C   UNL A   1      44.214  25.297  28.555  1.00  0.00     0.074 A 
ATOM     48  C   UNL A   1      46.493  30.373  31.596  1.00  0.00     0.029 A 
ATOM     49  N   UNL A   1      45.212  28.936  30.484  1.00  0.00    -0.354 N 
ATOM     50  N   UNL A   1      44.602  26.387  29.171  1.00  0.00    -0.248 NA
ATOM     51  C   UNL A   1      45.281  24.308  28.350  1.00  0.00     0.031 C 
ATOM     52  C   UNL A   1      47.267  29.255  31.264  1.00  0.00     0.029 A 
ATOM     53  C   UNL A   1      46.462  28.348  30.593  1.00  0.00     0.049 A 
ATOM     54  H   UNL A   1      44.431  28.525  30.049  1.00  0.00     0.167 HD
ATOM     55  C   UNL A   1      45.949  26.202  29.459  1.00  0.00     0.074 A 
ATOM     56  C   UNL A   1      46.306  24.891  28.956  1.00  0.00     0.031 C 
ATOM     57  C   UNL A   1      46.808  27.042  30.087  1.00  0.00     0.037 A 
BRANCH  44  58
ATOM     58  C   UNL A   1      44.300  32.473  31.677  1.00  0.00     0.057 A 
ATOM     59  C   UNL A   1      44.743  33.551  30.897  1.00  0.00     0.134 A 
ATOM     60  C   UNL A   1      44.048  32.724  33.032  1.00  0.00     0.134 A 
ATOM     61  F   UNL A   1      45.013  33.383  29.594  1.00  0.00    -0.206 F 
ATOM     62  C   UNL A   1      44.975  34.811  31.453  1.00  0.00     0.040 A 
ATOM     63  C   UNL A   1      44.242  33.987  33.592  1.00  0.00     0.040 A 
ATOM     64  F   UNL A   1      43.610  31.743  33.837  1.00  0.00    -0.206 F 
ATOM     65  C   UNL A   1      44.721  35.033  32.805  1.00  0.00     0.006 A 
ENDBRANCH  44  58
BRANCH  45  66
ATOM     66  C   UNL A   1      42.595  23.603  27.431  1.00  0.00     0.057 A 
ATOM     67  C   UNL A   1      42.277  22.497  28.228  1.00  0.00     0.134 A 
ATOM     68  C   UNL A   1      42.649  23.405  26.046  1.00  0.00     0.134 A 
ATOM     69  F   UNL A   1      42.228  22.619  29.563  1.00  0.00    -0.206 F 
ATOM     70  C   UNL A   1      42.030  21.240  27.672  1.00  0.00     0.040 A 
ATOM     71  C   UNL A   1      42.379  22.161  25.474  1.00  0.00     0.040 A 
ATOM     72  F   UNL A   1      42.940  24.426  25.227  1.00  0.00    -0.206 F 
ATOM     73  C   UNL A   1      42.073  21.073  26.290  1.00  0.00     0.006 A 
ENDBRANCH  45  66
BRANCH  57  74
ATOM     74  C   UNL A   1      48.214  26.554  30.300  1.00  0.00     0.057 A 
ATOM     75  C   UNL A   1      48.582  25.820  31.434  1.00  0.00     0.134 A 
ATOM     76  C   UNL A   1      49.204  26.795  29.338  1.00  0.00     0.134 A 
ATOM     77  F   UNL A   1      47.687  25.566  32.401  1.00  0.00    -0.206 F 
ATOM     78  C   UNL A   1      49.890  25.364  31.615  1.00  0.00     0.040 A 
ATOM     79  C   UNL A   1      50.506  26.318  29.493  1.00  0.00     0.040 A 
ATOM     80  F   UNL A   1      48.918  27.486  28.223  1.00  0.00    -0.206 F 
ATOM     81  C   UNL A   1      50.854  25.607  30.639  1.00  0.00     0.006 A 
ENDBRANCH  57  74
ENDBRANCH  31  32
ENDBRANCH  23  26
ENDBRANCH  21  22
ENDBRANCH  20  21
ENDBRANCH  19  20
ENDBRANCH   3  19
TORSDOF 15
ENDMDL
