MODEL 1
REMARK VINA RESULT:      -9.7      0.000      0.000
REMARK SMILES CS(=O)(=O)c1ccc(/C=C(/C(=O)NCCCNC(=O)c2ccc(-c3c4nc(c(-c5c(F)cccc5F)c5ccc([nH]5)c(-c5c(F)cccc5F)c5nc(c(-c6c(F)cccc6F)c6ccc3[nH]6)C=C5)C=C4)cc2)c2ccc(-c3ccc(S(C)(=O)=O)cc3)cc2)cc1
REMARK SMILES IDX 14 1 13 2 11 3 12 4 10 6 9 7 8 8 5 9 6 10 91 11 7 12 90 13
REMARK SMILES IDX 2 14 1 15 3 16 4 17 74 18 75 19 89 20 76 21 88 22 77 23
REMARK SMILES IDX 78 24 79 25 87 26 80 27 86 28 81 29 82 30 83 31 84 32 85 33
REMARK SMILES IDX 15 34 16 35 17 36 18 37 19 39 20 40 21 41 73 42 22 43 72 44
REMARK SMILES IDX 23 45 24 46 25 47 66 48 26 49 71 50 65 51 67 52 27 53 70 54
REMARK SMILES IDX 64 55 63 56 28 58 54 59 37 60 53 61 38 62 41 63 52 64 68 65
REMARK SMILES IDX 39 66 40 67 51 69 69 70 42 71 29 72 30 73 35 74 31 75 32 76
REMARK SMILES IDX 34 77 36 78 33 79 55 80 56 81 61 82 57 83 58 84 60 85 62 86
REMARK SMILES IDX 59 87 43 88 44 89 49 90 45 91 46 92 48 93 50 94 47 95
REMARK H PARENT 13 5 17 38 67 57 41 68
REMARK Flexibility Score: inf
ROOT
ATOM      1  C   UNL A   1      35.958  32.322  31.445  1.00  0.00     0.118 C 
ENDROOT
BRANCH   1   2
ATOM      2  N   UNL A   1      37.167  33.008  31.030  1.00  0.00    -0.352 N 
ATOM      3  C   UNL A   1      38.266  33.471  31.680  1.00  0.00     0.251 C 
ATOM      4  O   UNL A   1      39.099  34.047  30.976  1.00  0.00    -0.269 OA
ATOM      5  H   UNL A   1      37.197  33.177  30.061  1.00  0.00     0.163 HD
BRANCH   3   6
ATOM      6  C   UNL A   1      38.529  33.249  33.152  1.00  0.00     0.047 C 
ATOM      7  C   UNL A   1      38.183  34.165  34.087  1.00  0.00     0.022 C 
BRANCH   7   8
ATOM      8  C   UNL A   1      38.296  34.102  35.562  1.00  0.00    -0.025 A 
ATOM      9  C   UNL A   1      38.432  33.795  38.351  1.00  0.00     0.067 A 
ATOM     10  C   UNL A   1      39.386  34.570  37.691  1.00  0.00     0.021 A 
ATOM     11  C   UNL A   1      37.375  33.223  37.646  1.00  0.00     0.021 A 
ATOM     12  C   UNL A   1      39.302  34.737  36.304  1.00  0.00     0.009 A 
ATOM     13  C   UNL A   1      37.314  33.375  36.256  1.00  0.00     0.009 A 
BRANCH   9  14
ATOM     14  S   UNL A   1      38.547  33.580  40.112  1.00  0.00     0.175 S 
ATOM     15  C   UNL A   1      37.319  32.348  40.459  1.00  0.00     0.163 C 
ATOM     16  O   UNL A   1      38.128  34.818  40.736  1.00  0.00    -0.224 OA
ATOM     17  O   UNL A   1      39.856  33.011  40.388  1.00  0.00    -0.224 OA
ENDBRANCH   9  14
ENDBRANCH   7   8
BRANCH   6  18
ATOM     18  C   UNL A   1      39.369  32.081  33.514  1.00  0.00    -0.013 A 
ATOM     19  C   UNL A   1      38.836  30.797  33.327  1.00  0.00     0.009 A 
ATOM     20  C   UNL A   1      40.698  32.201  33.932  1.00  0.00     0.009 A 
ATOM     21  C   UNL A   1      39.631  29.664  33.483  1.00  0.00     0.009 A 
ATOM     22  C   UNL A   1      41.501  31.058  34.069  1.00  0.00     0.009 A 
ATOM     23  C   UNL A   1      40.990  29.772  33.812  1.00  0.00    -0.018 A 
BRANCH  23  24
ATOM     24  C   UNL A   1      41.849  28.574  33.816  1.00  0.00    -0.018 A 
ATOM     25  C   UNL A   1      41.563  27.503  34.689  1.00  0.00     0.010 A 
ATOM     26  C   UNL A   1      42.953  28.443  32.957  1.00  0.00     0.010 A 
ATOM     27  C   UNL A   1      42.352  26.352  34.715  1.00  0.00     0.021 A 
ATOM     28  C   UNL A   1      43.751  27.294  32.975  1.00  0.00     0.021 A 
ATOM     29  C   UNL A   1      43.450  26.260  33.863  1.00  0.00     0.067 A 
BRANCH  29  30
ATOM     30  S   UNL A   1      44.444  24.789  33.902  1.00  0.00     0.175 S 
ATOM     31  C   UNL A   1      44.653  24.383  32.186  1.00  0.00     0.163 C 
ATOM     32  O   UNL A   1      45.737  25.165  34.443  1.00  0.00    -0.224 OA
ATOM     33  O   UNL A   1      43.655  23.737  34.512  1.00  0.00    -0.224 OA
ENDBRANCH  29  30
ENDBRANCH  23  24
ENDBRANCH   6  18
ENDBRANCH   3   6
ENDBRANCH   1   2
BRANCH   1  34
ATOM     34  C   UNL A   1      34.752  32.808  30.638  1.00  0.00     0.042 C 
BRANCH  34  35
ATOM     35  C   UNL A   1      34.913  32.646  29.126  1.00  0.00     0.118 C 
BRANCH  35  36
ATOM     36  N   UNL A   1      34.212  31.477  28.618  1.00  0.00    -0.352 N 
ATOM     37  C   UNL A   1      34.703  30.276  28.175  1.00  0.00     0.251 C 
ATOM     38  H   UNL A   1      33.231  31.561  28.589  1.00  0.00     0.163 HD
ATOM     39  O   UNL A   1      33.955  29.495  27.593  1.00  0.00    -0.269 OA
BRANCH  37  40
ATOM     40  C   UNL A   1      36.123  29.912  28.379  1.00  0.00     0.039 A 
ATOM     41  C   UNL A   1      36.512  29.395  29.619  1.00  0.00     0.014 A 
ATOM     42  C   UNL A   1      37.081  30.133  27.385  1.00  0.00     0.014 A 
ATOM     43  C   UNL A   1      37.848  29.055  29.846  1.00  0.00     0.010 A 
ATOM     44  C   UNL A   1      38.404  29.741  27.591  1.00  0.00     0.010 A 
ATOM     45  C   UNL A   1      38.800  29.202  28.826  1.00  0.00    -0.014 A 
BRANCH  45  46
ATOM     46  C   UNL A   1      40.215  28.801  29.032  1.00  0.00     0.031 A 
ATOM     47  C   UNL A   1      41.200  29.770  29.623  1.00  0.00     0.074 A 
ATOM     48  C   UNL A   1      40.626  27.583  28.632  1.00  0.00     0.049 A 
ATOM     49  N   UNL A   1      42.490  29.631  29.806  1.00  0.00    -0.248 NA
ATOM     50  C   UNL A   1      40.672  31.077  30.041  1.00  0.00     0.031 C 
ATOM     51  C   UNL A   1      39.777  26.565  28.012  1.00  0.00     0.029 A 
ATOM     52  N   UNL A   1      41.867  26.999  28.676  1.00  0.00    -0.354 N 
ATOM     53  C   UNL A   1      42.928  30.835  30.341  1.00  0.00     0.074 A 
ATOM     54  C   UNL A   1      41.776  31.707  30.418  1.00  0.00     0.031 C 
ATOM     55  C   UNL A   1      40.518  25.477  27.749  1.00  0.00     0.029 A 
ATOM     56  C   UNL A   1      41.899  25.732  28.149  1.00  0.00     0.049 A 
ATOM     57  H   UNL A   1      42.660  27.447  29.050  1.00  0.00     0.167 HD
ATOM     58  C   UNL A   1      44.174  31.177  30.748  1.00  0.00     0.037 A 
ATOM     59  C   UNL A   1      42.925  24.874  27.997  1.00  0.00     0.037 A 
ATOM     60  C   UNL A   1      45.314  30.300  30.701  1.00  0.00     0.049 A 
ATOM     61  C   UNL A   1      44.297  25.276  28.460  1.00  0.00     0.074 A 
ATOM     62  C   UNL A   1      46.604  30.536  31.144  1.00  0.00     0.029 A 
ATOM     63  N   UNL A   1      45.299  29.016  30.178  1.00  0.00    -0.354 N 
ATOM     64  N   UNL A   1      44.686  26.399  29.014  1.00  0.00    -0.248 NA
ATOM     65  C   UNL A   1      45.372  24.289  28.282  1.00  0.00     0.031 C 
ATOM     66  C   UNL A   1      47.378  29.406  30.861  1.00  0.00     0.029 A 
ATOM     67  C   UNL A   1      46.562  28.452  30.274  1.00  0.00     0.049 A 
ATOM     68  H   UNL A   1      44.509  28.571  29.796  1.00  0.00     0.167 HD
ATOM     69  C   UNL A   1      46.040  26.245  29.273  1.00  0.00     0.074 A 
ATOM     70  C   UNL A   1      46.406  24.917  28.825  1.00  0.00     0.031 C 
ATOM     71  C   UNL A   1      46.906  27.126  29.831  1.00  0.00     0.037 A 
BRANCH  58  72
ATOM     72  C   UNL A   1      44.367  32.565  31.286  1.00  0.00     0.057 A 
ATOM     73  C   UNL A   1      44.456  32.817  32.662  1.00  0.00     0.134 A 
ATOM     74  C   UNL A   1      44.495  33.657  30.420  1.00  0.00     0.134 A 
ATOM     75  F   UNL A   1      44.329  31.816  33.546  1.00  0.00    -0.206 F 
ATOM     76  C   UNL A   1      44.639  34.109  33.157  1.00  0.00     0.040 A 
ATOM     77  C   UNL A   1      44.703  34.951  30.902  1.00  0.00     0.040 A 
ATOM     78  F   UNL A   1      44.426  33.484  29.091  1.00  0.00    -0.206 F 
ATOM     79  C   UNL A   1      44.769  35.181  32.275  1.00  0.00     0.006 A 
ENDBRANCH  58  72
BRANCH  59  80
ATOM     80  C   UNL A   1      42.690  23.538  27.399  1.00  0.00     0.057 A 
ATOM     81  C   UNL A   1      42.811  23.337  26.019  1.00  0.00     0.134 A 
ATOM     82  C   UNL A   1      42.339  22.434  28.186  1.00  0.00     0.134 A 
ATOM     83  F   UNL A   1      43.125  24.361  25.214  1.00  0.00    -0.206 F 
ATOM     84  C   UNL A   1      42.578  22.089  25.440  1.00  0.00     0.040 A 
ATOM     85  C   UNL A   1      42.124  21.176  27.623  1.00  0.00     0.040 A 
ATOM     86  F   UNL A   1      42.214  22.563  29.515  1.00  0.00    -0.206 F 
ATOM     87  C   UNL A   1      42.238  21.003  26.244  1.00  0.00     0.006 A 
ENDBRANCH  59  80
BRANCH  71  88
ATOM     88  C   UNL A   1      48.321  26.669  30.018  1.00  0.00     0.057 A 
ATOM     89  C   UNL A   1      48.707  25.897  31.120  1.00  0.00     0.134 A 
ATOM     90  C   UNL A   1      49.301  26.976  29.066  1.00  0.00     0.134 A 
ATOM     91  F   UNL A   1      47.817  25.582  32.074  1.00  0.00    -0.206 F 
ATOM     92  C   UNL A   1      50.024  25.461  31.279  1.00  0.00     0.040 A 
ATOM     93  C   UNL A   1      50.615  26.529  29.202  1.00  0.00     0.040 A 
ATOM     94  F   UNL A   1      48.993  27.707  27.984  1.00  0.00    -0.206 F 
ATOM     95  C   UNL A   1      50.980  25.773  30.314  1.00  0.00     0.006 A 
ENDBRANCH  71  88
ENDBRANCH  45  46
ENDBRANCH  37  40
ENDBRANCH  35  36
ENDBRANCH  34  35
ENDBRANCH   1  34
TORSDOF 15
ENDMDL
MODEL 2
REMARK VINA RESULT:      -9.5      4.054     11.027
REMARK SMILES CS(=O)(=O)c1ccc(/C=C(/C(=O)NCCCNC(=O)c2ccc(-c3c4nc(c(-c5c(F)cccc5F)c5ccc([nH]5)c(-c5c(F)cccc5F)c5nc(c(-c6c(F)cccc6F)c6ccc3[nH]6)C=C5)C=C4)cc2)c2ccc(-c3ccc(S(C)(=O)=O)cc3)cc2)cc1
REMARK SMILES IDX 14 1 13 2 11 3 12 4 10 6 9 7 8 8 5 9 6 10 91 11 7 12 90 13
REMARK SMILES IDX 2 14 1 15 3 16 4 17 74 18 75 19 89 20 76 21 88 22 77 23
REMARK SMILES IDX 78 24 79 25 87 26 80 27 86 28 81 29 82 30 83 31 84 32 85 33
REMARK SMILES IDX 15 34 16 35 17 36 18 37 19 39 20 40 21 41 73 42 22 43 72 44
REMARK SMILES IDX 23 45 24 46 25 47 66 48 26 49 71 50 65 51 67 52 27 53 70 54
REMARK SMILES IDX 64 55 63 56 28 58 54 59 37 60 53 61 38 62 41 63 52 64 68 65
REMARK SMILES IDX 39 66 40 67 51 69 69 70 42 71 29 72 30 73 35 74 31 75 32 76
REMARK SMILES IDX 34 77 36 78 33 79 55 80 56 81 61 82 57 83 58 84 60 85 62 86
REMARK SMILES IDX 59 87 43 88 44 89 49 90 45 91 46 92 48 93 50 94 47 95
REMARK H PARENT 13 5 17 38 67 57 41 68
REMARK Flexibility Score: inf
ROOT
ATOM      1  C   UNL A   1      43.310  23.656  25.910  1.00  0.00     0.118 C 
ENDROOT
BRANCH   1   2
ATOM      2  N   UNL A   1      43.709  23.849  27.290  1.00  0.00    -0.352 N 
ATOM      3  C   UNL A   1      44.743  24.485  27.900  1.00  0.00     0.251 C 
ATOM      4  O   UNL A   1      44.768  24.406  29.131  1.00  0.00    -0.269 OA
ATOM      5  H   UNL A   1      43.092  23.424  27.929  1.00  0.00     0.163 HD
BRANCH   3   6
ATOM      6  C   UNL A   1      45.774  25.311  27.165  1.00  0.00     0.047 C 
ATOM      7  C   UNL A   1      46.930  24.773  26.709  1.00  0.00     0.022 C 
BRANCH   7   8
ATOM      8  C   UNL A   1      48.018  25.395  25.920  1.00  0.00    -0.025 A 
ATOM      9  C   UNL A   1      49.939  26.675  24.320  1.00  0.00     0.067 A 
ATOM     10  C   UNL A   1      50.241  26.353  25.643  1.00  0.00     0.021 A 
ATOM     11  C   UNL A   1      48.713  26.311  23.765  1.00  0.00     0.021 A 
ATOM     12  C   UNL A   1      49.288  25.697  26.430  1.00  0.00     0.009 A 
ATOM     13  C   UNL A   1      47.758  25.677  24.568  1.00  0.00     0.009 A 
BRANCH   9  14
ATOM     14  S   UNL A   1      51.149  27.516  23.326  1.00  0.00     0.175 S 
ATOM     15  C   UNL A   1      50.425  27.521  21.707  1.00  0.00     0.163 C 
ATOM     16  O   UNL A   1      52.336  26.686  23.282  1.00  0.00    -0.224 OA
ATOM     17  O   UNL A   1      51.215  28.887  23.802  1.00  0.00    -0.224 OA
ENDBRANCH   9  14
ENDBRANCH   7   8
BRANCH   6  18
ATOM     18  C   UNL A   1      45.565  26.780  27.143  1.00  0.00    -0.013 A 
ATOM     19  C   UNL A   1      44.377  27.273  26.583  1.00  0.00     0.009 A 
ATOM     20  C   UNL A   1      46.446  27.681  27.749  1.00  0.00     0.009 A 
ATOM     21  C   UNL A   1      44.044  28.622  26.688  1.00  0.00     0.009 A 
ATOM     22  C   UNL A   1      46.097  29.035  27.870  1.00  0.00     0.009 A 
ATOM     23  C   UNL A   1      44.874  29.521  27.373  1.00  0.00    -0.018 A 
BRANCH  23  24
ATOM     24  C   UNL A   1      44.429  30.907  27.609  1.00  0.00    -0.018 A 
ATOM     25  C   UNL A   1      43.823  31.255  28.835  1.00  0.00     0.010 A 
ATOM     26  C   UNL A   1      44.603  31.921  26.652  1.00  0.00     0.010 A 
ATOM     27  C   UNL A   1      43.396  32.558  29.094  1.00  0.00     0.021 A 
ATOM     28  C   UNL A   1      44.178  33.230  26.901  1.00  0.00     0.021 A 
ATOM     29  C   UNL A   1      43.566  33.537  28.117  1.00  0.00     0.067 A 
BRANCH  29  30
ATOM     30  S   UNL A   1      43.023  35.193  28.459  1.00  0.00     0.175 S 
ATOM     31  C   UNL A   1      42.539  35.809  26.866  1.00  0.00     0.163 C 
ATOM     32  O   UNL A   1      41.837  35.087  29.288  1.00  0.00    -0.224 OA
ATOM     33  O   UNL A   1      44.175  35.956  28.897  1.00  0.00    -0.224 OA
ENDBRANCH  29  30
ENDBRANCH  23  24
ENDBRANCH   6  18
ENDBRANCH   3   6
ENDBRANCH   1   2
BRANCH   1  34
ATOM     34  C   UNL A   1      42.589  22.318  25.733  1.00  0.00     0.042 C 
BRANCH  34  35
ATOM     35  C   UNL A   1      41.402  22.124  26.677  1.00  0.00     0.118 C 
BRANCH  35  36
ATOM     36  N   UNL A   1      40.126  22.324  26.009  1.00  0.00    -0.352 N 
ATOM     37  C   UNL A   1      39.202  23.328  26.151  1.00  0.00     0.251 C 
ATOM     38  H   UNL A   1      39.890  21.631  25.350  1.00  0.00     0.163 HD
ATOM     39  O   UNL A   1      38.091  23.202  25.642  1.00  0.00    -0.269 OA
BRANCH  37  40
ATOM     40  C   UNL A   1      39.520  24.552  26.919  1.00  0.00     0.039 A 
ATOM     41  C   UNL A   1      39.014  24.681  28.216  1.00  0.00     0.014 A 
ATOM     42  C   UNL A   1      40.255  25.597  26.350  1.00  0.00     0.014 A 
ATOM     43  C   UNL A   1      39.285  25.832  28.961  1.00  0.00     0.010 A 
ATOM     44  C   UNL A   1      40.574  26.720  27.114  1.00  0.00     0.010 A 
ATOM     45  C   UNL A   1      40.088  26.849  28.424  1.00  0.00    -0.014 A 
BRANCH  45  46
ATOM     46  C   UNL A   1      40.427  28.058  29.218  1.00  0.00     0.031 A 
ATOM     47  C   UNL A   1      41.743  28.150  29.938  1.00  0.00     0.074 A 
ATOM     48  C   UNL A   1      39.523  29.049  29.339  1.00  0.00     0.049 A 
ATOM     49  N   UNL A   1      42.184  29.085  30.742  1.00  0.00    -0.248 NA
ATOM     50  C   UNL A   1      42.678  27.030  29.750  1.00  0.00     0.031 C 
ATOM     51  C   UNL A   1      38.196  29.064  28.721  1.00  0.00     0.029 A 
ATOM     52  N   UNL A   1      39.579  30.230  30.036  1.00  0.00    -0.354 N 
ATOM     53  C   UNL A   1      43.435  28.660  31.168  1.00  0.00     0.074 A 
ATOM     54  C   UNL A   1      43.668  27.365  30.566  1.00  0.00     0.031 C 
ATOM     55  C   UNL A   1      37.572  30.206  29.052  1.00  0.00     0.029 A 
ATOM     56  C   UNL A   1      38.437  30.985  29.932  1.00  0.00     0.049 A 
ATOM     57  H   UNL A   1      40.364  30.509  30.561  1.00  0.00     0.167 HD
ATOM     58  C   UNL A   1      44.317  29.299  31.974  1.00  0.00     0.037 A 
ATOM     59  C   UNL A   1      38.119  32.168  30.489  1.00  0.00     0.037 A 
ATOM     60  C   UNL A   1      44.098  30.599  32.548  1.00  0.00     0.049 A 
ATOM     61  C   UNL A   1      39.117  32.858  31.376  1.00  0.00     0.074 A 
ATOM     62  C   UNL A   1      44.957  31.354  33.330  1.00  0.00     0.029 A 
ATOM     63  N   UNL A   1      42.937  31.341  32.402  1.00  0.00    -0.354 N 
ATOM     64  N   UNL A   1      40.318  32.468  31.728  1.00  0.00    -0.248 NA
ATOM     65  C   UNL A   1      38.716  34.155  31.940  1.00  0.00     0.031 C 
ATOM     66  C   UNL A   1      44.302  32.538  33.683  1.00  0.00     0.029 A 
ATOM     67  C   UNL A   1      43.049  32.538  33.091  1.00  0.00     0.049 A 
ATOM     68  H   UNL A   1      42.147  31.059  31.885  1.00  0.00     0.167 HD
ATOM     69  C   UNL A   1      40.825  33.479  32.531  1.00  0.00     0.074 A 
ATOM     70  C   UNL A   1      39.807  34.506  32.608  1.00  0.00     0.031 C 
ATOM     71  C   UNL A   1      42.028  33.552  33.151  1.00  0.00     0.037 A 
BRANCH  58  72
ATOM     72  C   UNL A   1      45.607  28.594  32.279  1.00  0.00     0.057 A 
ATOM     73  C   UNL A   1      45.685  27.587  33.250  1.00  0.00     0.134 A 
ATOM     74  C   UNL A   1      46.776  28.906  31.576  1.00  0.00     0.134 A 
ATOM     75  F   UNL A   1      44.604  27.250  33.969  1.00  0.00    -0.206 F 
ATOM     76  C   UNL A   1      46.887  26.933  33.528  1.00  0.00     0.040 A 
ATOM     77  C   UNL A   1      47.978  28.241  31.827  1.00  0.00     0.040 A 
ATOM     78  F   UNL A   1      46.769  29.856  30.628  1.00  0.00    -0.206 F 
ATOM     79  C   UNL A   1      48.037  27.256  32.810  1.00  0.00     0.006 A 
ENDBRANCH  58  72
BRANCH  59  80
ATOM     80  C   UNL A   1      36.803  32.789  30.205  1.00  0.00     0.057 A 
ATOM     81  C   UNL A   1      35.708  32.573  31.050  1.00  0.00     0.134 A 
ATOM     82  C   UNL A   1      36.606  33.610  29.088  1.00  0.00     0.134 A 
ATOM     83  F   UNL A   1      35.833  31.781  32.124  1.00  0.00    -0.206 F 
ATOM     84  C   UNL A   1      34.460  33.138  30.787  1.00  0.00     0.040 A 
ATOM     85  C   UNL A   1      35.369  34.199  28.825  1.00  0.00     0.040 A 
ATOM     86  F   UNL A   1      37.619  33.860  28.245  1.00  0.00    -0.206 F 
ATOM     87  C   UNL A   1      34.289  33.958  29.674  1.00  0.00     0.006 A 
ENDBRANCH  59  80
BRANCH  71  88
ATOM     88  C   UNL A   1      42.318  34.795  33.938  1.00  0.00     0.057 A 
ATOM     89  C   UNL A   1      42.024  34.888  35.303  1.00  0.00     0.134 A 
ATOM     90  C   UNL A   1      42.930  35.897  33.328  1.00  0.00     0.134 A 
ATOM     91  F   UNL A   1      41.425  33.870  35.940  1.00  0.00    -0.206 F 
ATOM     92  C   UNL A   1      42.312  36.043  36.032  1.00  0.00     0.040 A 
ATOM     93  C   UNL A   1      43.242  37.049  34.051  1.00  0.00     0.040 A 
ATOM     94  F   UNL A   1      43.242  35.868  32.024  1.00  0.00    -0.206 F 
ATOM     95  C   UNL A   1      42.928  37.125  35.406  1.00  0.00     0.006 A 
ENDBRANCH  71  88
ENDBRANCH  45  46
ENDBRANCH  37  40
ENDBRANCH  35  36
ENDBRANCH  34  35
ENDBRANCH   1  34
TORSDOF 15
ENDMDL
MODEL 3
REMARK VINA RESULT:      -9.4      5.508     12.716
REMARK SMILES CS(=O)(=O)c1ccc(/C=C(/C(=O)NCCCNC(=O)c2ccc(-c3c4nc(c(-c5c(F)cccc5F)c5ccc([nH]5)c(-c5c(F)cccc5F)c5nc(c(-c6c(F)cccc6F)c6ccc3[nH]6)C=C5)C=C4)cc2)c2ccc(-c3ccc(S(C)(=O)=O)cc3)cc2)cc1
REMARK SMILES IDX 14 1 13 2 11 3 12 4 10 6 9 7 8 8 5 9 6 10 91 11 7 12 90 13
REMARK SMILES IDX 2 14 1 15 3 16 4 17 74 18 75 19 89 20 76 21 88 22 77 23
REMARK SMILES IDX 78 24 79 25 87 26 80 27 86 28 81 29 82 30 83 31 84 32 85 33
REMARK SMILES IDX 15 34 16 35 17 36 18 37 19 39 20 40 21 41 73 42 22 43 72 44
REMARK SMILES IDX 23 45 24 46 25 47 66 48 26 49 71 50 65 51 67 52 27 53 70 54
REMARK SMILES IDX 64 55 63 56 28 58 54 59 37 60 53 61 38 62 41 63 52 64 68 65
REMARK SMILES IDX 39 66 40 67 51 69 69 70 42 71 29 72 30 73 35 74 31 75 32 76
REMARK SMILES IDX 34 77 36 78 33 79 55 80 56 81 61 82 57 83 58 84 60 85 62 86
REMARK SMILES IDX 59 87 43 88 44 89 49 90 45 91 46 92 48 93 50 94 47 95
REMARK H PARENT 13 5 17 38 67 57 41 68
REMARK Flexibility Score: inf
ROOT
ATOM      1  C   UNL A   1      40.138  21.652  26.197  1.00  0.00     0.118 C 
ENDROOT
BRANCH   1   2
ATOM      2  N   UNL A   1      39.555  22.970  26.356  1.00  0.00    -0.352 N 
ATOM      3  C   UNL A   1      38.329  23.502  26.110  1.00  0.00     0.251 C 
ATOM      4  O   UNL A   1      38.212  24.706  26.349  1.00  0.00    -0.269 OA
ATOM      5  H   UNL A   1      40.189  23.627  26.724  1.00  0.00     0.163 HD
BRANCH   3   6
ATOM      6  C   UNL A   1      37.139  22.694  25.647  1.00  0.00     0.047 C 
ATOM      7  C   UNL A   1      37.197  21.349  25.508  1.00  0.00     0.022 C 
BRANCH   7   8
ATOM      8  C   UNL A   1      36.133  20.388  25.135  1.00  0.00    -0.025 A 
ATOM      9  C   UNL A   1      34.224  18.420  24.525  1.00  0.00     0.067 A 
ATOM     10  C   UNL A   1      33.819  19.739  24.734  1.00  0.00     0.021 A 
ATOM     11  C   UNL A   1      35.576  18.082  24.554  1.00  0.00     0.021 A 
ATOM     12  C   UNL A   1      34.777  20.719  25.018  1.00  0.00     0.009 A 
ATOM     13  C   UNL A   1      36.523  19.065  24.862  1.00  0.00     0.009 A 
BRANCH   9  14
ATOM     14  S   UNL A   1      33.003  17.176  24.173  1.00  0.00     0.175 S 
ATOM     15  C   UNL A   1      33.676  15.714  24.918  1.00  0.00     0.163 C 
ATOM     16  O   UNL A   1      32.979  16.977  22.738  1.00  0.00    -0.224 OA
ATOM     17  O   UNL A   1      31.797  17.544  24.895  1.00  0.00    -0.224 OA
ENDBRANCH   9  14
ENDBRANCH   7   8
BRANCH   6  18
ATOM     18  C   UNL A   1      35.964  23.454  25.151  1.00  0.00    -0.013 A 
ATOM     19  C   UNL A   1      35.078  23.995  26.094  1.00  0.00     0.009 A 
ATOM     20  C   UNL A   1      35.762  23.742  23.798  1.00  0.00     0.009 A 
ATOM     21  C   UNL A   1      34.059  24.861  25.702  1.00  0.00     0.009 A 
ATOM     22  C   UNL A   1      34.747  24.629  23.409  1.00  0.00     0.009 A 
ATOM     23  C   UNL A   1      33.901  25.232  24.359  1.00  0.00    -0.018 A 
BRANCH  23  24
ATOM     24  C   UNL A   1      32.920  26.268  23.987  1.00  0.00    -0.018 A 
ATOM     25  C   UNL A   1      31.541  26.031  24.165  1.00  0.00     0.010 A 
ATOM     26  C   UNL A   1      33.311  27.515  23.470  1.00  0.00     0.010 A 
ATOM     27  C   UNL A   1      30.587  26.993  23.829  1.00  0.00     0.021 A 
ATOM     28  C   UNL A   1      32.363  28.485  23.130  1.00  0.00     0.021 A 
ATOM     29  C   UNL A   1      31.005  28.213  23.302  1.00  0.00     0.067 A 
BRANCH  29  30
ATOM     30  S   UNL A   1      29.783  29.430  22.882  1.00  0.00     0.175 S 
ATOM     31  C   UNL A   1      28.247  28.559  23.065  1.00  0.00     0.163 C 
ATOM     32  O   UNL A   1      29.846  30.463  23.899  1.00  0.00    -0.224 OA
ATOM     33  O   UNL A   1      29.943  29.753  21.478  1.00  0.00    -0.224 OA
ENDBRANCH  29  30
ENDBRANCH  23  24
ENDBRANCH   6  18
ENDBRANCH   3   6
ENDBRANCH   1   2
BRANCH   1  34
ATOM     34  C   UNL A   1      41.657  21.743  26.040  1.00  0.00     0.042 C 
BRANCH  34  35
ATOM     35  C   UNL A   1      42.133  23.028  25.360  1.00  0.00     0.118 C 
BRANCH  35  36
ATOM     36  N   UNL A   1      43.584  23.134  25.333  1.00  0.00    -0.352 N 
ATOM     37  C   UNL A   1      44.415  24.034  25.948  1.00  0.00     0.251 C 
ATOM     38  H   UNL A   1      44.039  22.451  24.788  1.00  0.00     0.163 HD
ATOM     39  O   UNL A   1      45.601  24.076  25.630  1.00  0.00    -0.269 OA
BRANCH  37  40
ATOM     40  C   UNL A   1      43.902  24.963  26.980  1.00  0.00     0.039 A 
ATOM     41  C   UNL A   1      43.072  24.456  27.985  1.00  0.00     0.014 A 
ATOM     42  C   UNL A   1      44.180  26.332  26.929  1.00  0.00     0.014 A 
ATOM     43  C   UNL A   1      42.562  25.311  28.966  1.00  0.00     0.010 A 
ATOM     44  C   UNL A   1      43.717  27.175  27.940  1.00  0.00     0.010 A 
ATOM     45  C   UNL A   1      42.900  26.672  28.965  1.00  0.00    -0.014 A 
BRANCH  45  46
ATOM     46  C   UNL A   1      42.406  27.586  30.026  1.00  0.00     0.031 A 
ATOM     47  C   UNL A   1      43.072  27.618  31.373  1.00  0.00     0.074 A 
ATOM     48  C   UNL A   1      41.319  28.346  29.796  1.00  0.00     0.049 A 
ATOM     49  N   UNL A   1      42.737  28.287  32.448  1.00  0.00    -0.248 NA
ATOM     50  C   UNL A   1      44.258  26.764  31.543  1.00  0.00     0.031 C 
ATOM     51  C   UNL A   1      40.560  28.380  28.544  1.00  0.00     0.029 A 
ATOM     52  N   UNL A   1      40.654  29.227  30.612  1.00  0.00    -0.354 N 
ATOM     53  C   UNL A   1      43.656  27.923  33.423  1.00  0.00     0.074 A 
ATOM     54  C   UNL A   1      44.539  26.945  32.826  1.00  0.00     0.031 C 
ATOM     55  C   UNL A   1      39.545  29.250  28.671  1.00  0.00     0.029 A 
ATOM     56  C   UNL A   1      39.560  29.808  30.020  1.00  0.00     0.049 A 
ATOM     57  H   UNL A   1      40.935  29.424  31.534  1.00  0.00     0.167 HD
ATOM     58  C   UNL A   1      43.764  28.376  34.695  1.00  0.00     0.037 A 
ATOM     59  C   UNL A   1      38.664  30.685  30.510  1.00  0.00     0.037 A 
ATOM     60  C   UNL A   1      42.905  29.372  35.279  1.00  0.00     0.049 A 
ATOM     61  C   UNL A   1      38.809  31.176  31.923  1.00  0.00     0.074 A 
ATOM     62  C   UNL A   1      42.973  29.938  36.541  1.00  0.00     0.029 A 
ATOM     63  N   UNL A   1      41.821  29.951  34.639  1.00  0.00    -0.354 N 
ATOM     64  N   UNL A   1      39.716  30.863  32.817  1.00  0.00    -0.248 NA
ATOM     65  C   UNL A   1      37.809  32.145  32.393  1.00  0.00     0.031 C 
ATOM     66  C   UNL A   1      41.909  30.836  36.676  1.00  0.00     0.029 A 
ATOM     67  C   UNL A   1      41.201  30.857  35.485  1.00  0.00     0.049 A 
ATOM     68  H   UNL A   1      41.533  29.749  33.720  1.00  0.00     0.167 HD
ATOM     69  C   UNL A   1      39.412  31.612  33.944  1.00  0.00     0.074 A 
ATOM     70  C   UNL A   1      38.243  32.404  33.620  1.00  0.00     0.031 C 
ATOM     71  C   UNL A   1      40.044  31.643  35.143  1.00  0.00     0.037 A 
BRANCH  58  72
ATOM     72  C   UNL A   1      44.860  27.797  35.542  1.00  0.00     0.057 A 
ATOM     73  C   UNL A   1      44.657  26.657  36.331  1.00  0.00     0.134 A 
ATOM     74  C   UNL A   1      46.138  28.368  35.547  1.00  0.00     0.134 A 
ATOM     75  F   UNL A   1      43.452  26.070  36.381  1.00  0.00    -0.206 F 
ATOM     76  C   UNL A   1      45.680  26.120  37.114  1.00  0.00     0.040 A 
ATOM     77  C   UNL A   1      47.177  27.825  36.307  1.00  0.00     0.040 A 
ATOM     78  F   UNL A   1      46.402  29.457  34.808  1.00  0.00    -0.206 F 
ATOM     79  C   UNL A   1      46.947  26.702  37.099  1.00  0.00     0.006 A 
ENDBRANCH  58  72
BRANCH  59  80
ATOM     80  C   UNL A   1      37.562  31.176  29.648  1.00  0.00     0.057 A 
ATOM     81  C   UNL A   1      36.400  30.418  29.466  1.00  0.00     0.134 A 
ATOM     82  C   UNL A   1      37.642  32.408  28.987  1.00  0.00     0.134 A 
ATOM     83  F   UNL A   1      36.276  29.222  30.058  1.00  0.00    -0.206 F 
ATOM     84  C   UNL A   1      35.361  30.860  28.646  1.00  0.00     0.040 A 
ATOM     85  C   UNL A   1      36.601  32.872  28.182  1.00  0.00     0.040 A 
ATOM     86  F   UNL A   1      38.728  33.183  29.128  1.00  0.00    -0.206 F 
ATOM     87  C   UNL A   1      35.459  32.093  28.005  1.00  0.00     0.006 A 
ENDBRANCH  59  80
BRANCH  71  88
ATOM     88  C   UNL A   1      39.504  32.584  36.177  1.00  0.00     0.057 A 
ATOM     89  C   UNL A   1      39.981  33.895  36.301  1.00  0.00     0.134 A 
ATOM     90  C   UNL A   1      38.471  32.185  37.034  1.00  0.00     0.134 A 
ATOM     91  F   UNL A   1      40.979  34.331  35.518  1.00  0.00    -0.206 F 
ATOM     92  C   UNL A   1      39.462  34.771  37.256  1.00  0.00     0.040 A 
ATOM     93  C   UNL A   1      37.929  33.058  37.978  1.00  0.00     0.040 A 
ATOM     94  F   UNL A   1      37.967  30.944  36.961  1.00  0.00    -0.206 F 
ATOM     95  C   UNL A   1      38.428  34.354  38.094  1.00  0.00     0.006 A 
ENDBRANCH  71  88
ENDBRANCH  45  46
ENDBRANCH  37  40
ENDBRANCH  35  36
ENDBRANCH  34  35
ENDBRANCH   1  34
TORSDOF 15
ENDMDL
