MODEL 1
REMARK VINA RESULT:     -11.5      0.000      0.000
REMARK SMILES C[C@@H](C(=O)NCCCNC(=O)c1ccc(-c2c3nc(c(-c4c(F)cccc4F)c4ccc([nH]4)c(-c4c(F)cccc4F)c4nc(c(-c5c(F)cccc5F)c5ccc2[nH]5)C=C4)C=C3)cc1)c1cccc(C(=O)c2ccccc2)c1
REMARK SMILES IDX 6 1 5 2 3 3 4 4 2 6 1 7 66 8 67 9 79 10 68 11 70 12 69 13
REMARK SMILES IDX 71 14 72 15 73 16 74 17 78 18 75 19 77 20 76 21 7 22 8 23
REMARK SMILES IDX 9 24 10 25 11 27 12 28 13 29 65 30 14 31 64 32 15 33 16 34
REMARK SMILES IDX 17 35 58 36 18 37 63 38 57 39 59 40 19 41 62 42 56 43 55 44
REMARK SMILES IDX 20 46 46 47 29 48 45 49 30 50 33 51 44 52 60 53 31 54 32 55
REMARK SMILES IDX 43 57 61 58 34 59 21 60 22 61 27 62 23 63 24 64 26 65 28 66
REMARK SMILES IDX 25 67 47 68 48 69 53 70 49 71 50 72 52 73 54 74 51 75 35 76
REMARK SMILES IDX 36 77 41 78 37 79 38 80 40 81 42 82 39 83
REMARK H PARENT 5 5 9 26 59 45 33 56
REMARK Flexibility Score: inf
ROOT
ATOM      1  C   UNL A   1      31.817  28.257  27.124  1.00  0.00     0.117 C 
ENDROOT
BRANCH   1   2
ATOM      2  N   UNL A   1      31.205  26.943  27.091  1.00  0.00    -0.356 N 
ATOM      3  C   UNL A   1      30.441  26.338  26.136  1.00  0.00     0.227 C 
ATOM      4  O   UNL A   1      29.948  25.249  26.441  1.00  0.00    -0.274 OA
ATOM      5  H   UNL A   1      31.368  26.394  27.892  1.00  0.00     0.163 HD
BRANCH   3   6
ATOM      6  C   UNL A   1      30.263  26.982  24.745  1.00  0.00     0.105 C 
ATOM      7  C   UNL A   1      29.049  26.375  24.035  1.00  0.00     0.023 C 
BRANCH   6   8
ATOM      8  C   UNL A   1      31.559  26.906  23.929  1.00  0.00    -0.035 A 
ATOM      9  C   UNL A   1      32.102  28.001  23.237  1.00  0.00     0.004 A 
ATOM     10  C   UNL A   1      32.230  25.670  23.839  1.00  0.00     0.016 A 
ATOM     11  C   UNL A   1      33.258  27.863  22.466  1.00  0.00     0.001 A 
ATOM     12  C   UNL A   1      33.355  25.509  23.019  1.00  0.00     0.023 A 
ATOM     13  C   UNL A   1      33.876  26.621  22.349  1.00  0.00     0.012 A 
BRANCH  12  14
ATOM     14  C   UNL A   1      34.047  24.201  22.853  1.00  0.00     0.193 C 
ATOM     15  O   UNL A   1      33.730  23.459  21.925  1.00  0.00    -0.289 OA
BRANCH  14  16
ATOM     16  C   UNL A   1      35.140  23.765  23.754  1.00  0.00     0.022 A 
ATOM     17  C   UNL A   1      36.005  22.763  23.299  1.00  0.00     0.012 A 
ATOM     18  C   UNL A   1      35.307  24.303  25.036  1.00  0.00     0.012 A 
ATOM     19  C   UNL A   1      37.060  22.332  24.102  1.00  0.00     0.001 A 
ATOM     20  C   UNL A   1      36.366  23.869  25.837  1.00  0.00     0.001 A 
ATOM     21  C   UNL A   1      37.245  22.891  25.367  1.00  0.00     0.000 A 
ENDBRANCH  14  16
ENDBRANCH  12  14
ENDBRANCH   6   8
ENDBRANCH   3   6
ENDBRANCH   1   2
BRANCH   1  22
ATOM     22  C   UNL A   1      33.328  28.179  26.900  1.00  0.00     0.042 C 
BRANCH  22  23
ATOM     23  C   UNL A   1      33.925  29.367  26.151  1.00  0.00     0.118 C 
BRANCH  23  24
ATOM     24  N   UNL A   1      33.768  30.620  26.869  1.00  0.00    -0.352 N 
ATOM     25  C   UNL A   1      34.520  31.153  27.885  1.00  0.00     0.251 C 
ATOM     26  H   UNL A   1      33.005  31.171  26.583  1.00  0.00     0.163 HD
ATOM     27  O   UNL A   1      34.112  32.161  28.463  1.00  0.00    -0.269 OA
BRANCH  25  28
ATOM     28  C   UNL A   1      35.800  30.539  28.307  1.00  0.00     0.039 A 
ATOM     29  C   UNL A   1      35.794  29.694  29.422  1.00  0.00     0.014 A 
ATOM     30  C   UNL A   1      37.011  30.840  27.676  1.00  0.00     0.014 A 
ATOM     31  C   UNL A   1      36.987  29.135  29.888  1.00  0.00     0.010 A 
ATOM     32  C   UNL A   1      38.194  30.229  28.100  1.00  0.00     0.010 A 
ATOM     33  C   UNL A   1      38.196  29.391  29.226  1.00  0.00    -0.014 A 
BRANCH  33  34
ATOM     34  C   UNL A   1      39.476  28.838  29.739  1.00  0.00     0.031 A 
ATOM     35  C   UNL A   1      40.119  29.435  30.961  1.00  0.00     0.074 A 
ATOM     36  C   UNL A   1      40.078  27.820  29.095  1.00  0.00     0.049 A 
ATOM     37  N   UNL A   1      41.246  29.113  31.546  1.00  0.00    -0.248 NA
ATOM     38  C   UNL A   1      39.414  30.559  31.598  1.00  0.00     0.031 C 
ATOM     39  C   UNL A   1      39.585  27.182  27.874  1.00  0.00     0.029 A 
ATOM     40  N   UNL A   1      41.239  27.147  29.379  1.00  0.00    -0.354 N 
ATOM     41  C   UNL A   1      41.391  30.003  32.603  1.00  0.00     0.074 A 
ATOM     42  C   UNL A   1      40.264  30.908  32.550  1.00  0.00     0.031 C 
ATOM     43  C   UNL A   1      40.430  26.199  27.523  1.00  0.00     0.029 A 
ATOM     44  C   UNL A   1      41.530  26.149  28.481  1.00  0.00     0.049 A 
ATOM     45  H   UNL A   1      41.809  27.359  30.153  1.00  0.00     0.167 HD
ATOM     46  C   UNL A   1      42.361  30.050  33.548  1.00  0.00     0.037 A 
ATOM     47  C   UNL A   1      42.564  25.288  28.440  1.00  0.00     0.037 A 
ATOM     48  C   UNL A   1      43.467  29.133  33.623  1.00  0.00     0.049 A 
ATOM     49  C   UNL A   1      43.604  25.328  29.525  1.00  0.00     0.074 A 
ATOM     50  C   UNL A   1      44.483  29.078  34.561  1.00  0.00     0.029 A 
ATOM     51  N   UNL A   1      43.695  28.101  32.726  1.00  0.00    -0.354 N 
ATOM     52  N   UNL A   1      43.703  26.145  30.545  1.00  0.00    -0.248 NA
ATOM     53  C   UNL A   1      44.665  24.312  29.463  1.00  0.00     0.031 C 
ATOM     54  C   UNL A   1      45.338  28.022  34.219  1.00  0.00     0.029 A 
ATOM     55  C   UNL A   1      44.834  27.401  33.087  1.00  0.00     0.049 A 
ATOM     56  H   UNL A   1      43.130  27.895  31.946  1.00  0.00     0.167 HD
ATOM     57  C   UNL A   1      44.817  25.728  31.260  1.00  0.00     0.074 A 
ATOM     58  C   UNL A   1      45.355  24.577  30.563  1.00  0.00     0.031 C 
ATOM     59  C   UNL A   1      45.347  26.250  32.392  1.00  0.00     0.037 A 
BRANCH  46  60
ATOM     60  C   UNL A   1      42.256  31.131  34.583  1.00  0.00     0.057 A 
ATOM     61  C   UNL A   1      42.864  32.381  34.404  1.00  0.00     0.134 A 
ATOM     62  C   UNL A   1      41.538  30.926  35.766  1.00  0.00     0.134 A 
ATOM     63  F   UNL A   1      43.580  32.636  33.298  1.00  0.00    -0.206 F 
ATOM     64  C   UNL A   1      42.787  33.378  35.378  1.00  0.00     0.040 A 
ATOM     65  C   UNL A   1      41.432  31.923  36.737  1.00  0.00     0.040 A 
ATOM     66  F   UNL A   1      40.928  29.754  35.999  1.00  0.00    -0.206 F 
ATOM     67  C   UNL A   1      42.064  33.151  36.547  1.00  0.00     0.006 A 
ENDBRANCH  46  60
BRANCH  47  68
ATOM     68  C   UNL A   1      42.642  24.283  27.353  1.00  0.00     0.057 A 
ATOM     69  C   UNL A   1      42.118  22.996  27.522  1.00  0.00     0.134 A 
ATOM     70  C   UNL A   1      43.232  24.585  26.122  1.00  0.00     0.134 A 
ATOM     71  F   UNL A   1      41.555  22.645  28.687  1.00  0.00    -0.206 F 
ATOM     72  C   UNL A   1      42.193  22.039  26.510  1.00  0.00     0.040 A 
ATOM     73  C   UNL A   1      43.296  23.644  25.093  1.00  0.00     0.040 A 
ATOM     74  F   UNL A   1      43.745  25.804  25.897  1.00  0.00    -0.206 F 
ATOM     75  C   UNL A   1      42.780  22.364  25.289  1.00  0.00     0.006 A 
ENDBRANCH  47  68
BRANCH  59  76
ATOM     76  C   UNL A   1      46.545  25.558  32.969  1.00  0.00     0.057 A 
ATOM     77  C   UNL A   1      47.850  25.910  32.603  1.00  0.00     0.134 A 
ATOM     78  C   UNL A   1      46.389  24.547  33.926  1.00  0.00     0.134 A 
ATOM     79  F   UNL A   1      48.064  26.861  31.682  1.00  0.00    -0.206 F 
ATOM     80  C   UNL A   1      48.958  25.264  33.153  1.00  0.00     0.040 A 
ATOM     81  C   UNL A   1      47.490  23.910  34.498  1.00  0.00     0.040 A 
ATOM     82  F   UNL A   1      45.164  24.169  34.325  1.00  0.00    -0.206 F 
ATOM     83  C   UNL A   1      48.779  24.264  34.107  1.00  0.00     0.006 A 
ENDBRANCH  59  76
ENDBRANCH  33  34
ENDBRANCH  25  28
ENDBRANCH  23  24
ENDBRANCH  22  23
ENDBRANCH   1  22
TORSDOF 13
ENDMDL
MODEL 2
REMARK VINA RESULT:     -11.5      3.094      8.050
REMARK SMILES C[C@@H](C(=O)NCCCNC(=O)c1ccc(-c2c3nc(c(-c4c(F)cccc4F)c4ccc([nH]4)c(-c4c(F)cccc4F)c4nc(c(-c5c(F)cccc5F)c5ccc2[nH]5)C=C4)C=C3)cc1)c1cccc(C(=O)c2ccccc2)c1
REMARK SMILES IDX 6 1 5 2 3 3 4 4 2 6 1 7 66 8 67 9 79 10 68 11 70 12 69 13
REMARK SMILES IDX 71 14 72 15 73 16 74 17 78 18 75 19 77 20 76 21 7 22 8 23
REMARK SMILES IDX 9 24 10 25 11 27 12 28 13 29 65 30 14 31 64 32 15 33 16 34
REMARK SMILES IDX 17 35 58 36 18 37 63 38 57 39 59 40 19 41 62 42 56 43 55 44
REMARK SMILES IDX 20 46 46 47 29 48 45 49 30 50 33 51 44 52 60 53 31 54 32 55
REMARK SMILES IDX 43 57 61 58 34 59 21 60 22 61 27 62 23 63 24 64 26 65 28 66
REMARK SMILES IDX 25 67 47 68 48 69 53 70 49 71 50 72 52 73 54 74 51 75 35 76
REMARK SMILES IDX 36 77 41 78 37 79 38 80 40 81 42 82 39 83
REMARK H PARENT 5 5 9 26 59 45 33 56
REMARK Flexibility Score: inf
ROOT
ATOM      1  C   UNL A   1      36.268  19.735  24.993  1.00  0.00     0.117 C 
ENDROOT
BRANCH   1   2
ATOM      2  N   UNL A   1      35.900  20.899  25.777  1.00  0.00    -0.356 N 
ATOM      3  C   UNL A   1      35.562  22.163  25.391  1.00  0.00     0.227 C 
ATOM      4  O   UNL A   1      35.419  22.989  26.297  1.00  0.00    -0.274 OA
ATOM      5  H   UNL A   1      35.892  20.753  26.750  1.00  0.00     0.163 HD
BRANCH   3   6
ATOM      6  C   UNL A   1      35.334  22.499  23.902  1.00  0.00     0.105 C 
ATOM      7  C   UNL A   1      36.628  23.031  23.278  1.00  0.00     0.023 C 
BRANCH   6   8
ATOM      8  C   UNL A   1      34.130  23.432  23.723  1.00  0.00    -0.035 A 
ATOM      9  C   UNL A   1      32.842  22.977  23.398  1.00  0.00     0.004 A 
ATOM     10  C   UNL A   1      34.326  24.821  23.859  1.00  0.00     0.016 A 
ATOM     11  C   UNL A   1      31.793  23.876  23.196  1.00  0.00     0.001 A 
ATOM     12  C   UNL A   1      33.293  25.731  23.598  1.00  0.00     0.023 A 
ATOM     13  C   UNL A   1      32.019  25.247  23.285  1.00  0.00     0.012 A 
BRANCH  12  14
ATOM     14  C   UNL A   1      33.485  27.207  23.671  1.00  0.00     0.193 C 
ATOM     15  O   UNL A   1      33.877  27.819  22.679  1.00  0.00    -0.289 OA
BRANCH  14  16
ATOM     16  C   UNL A   1      33.187  27.982  24.899  1.00  0.00     0.022 A 
ATOM     17  C   UNL A   1      32.898  29.344  24.759  1.00  0.00     0.012 A 
ATOM     18  C   UNL A   1      33.215  27.401  26.172  1.00  0.00     0.012 A 
ATOM     19  C   UNL A   1      32.593  30.113  25.881  1.00  0.00     0.001 A 
ATOM     20  C   UNL A   1      32.907  28.174  27.293  1.00  0.00     0.001 A 
ATOM     21  C   UNL A   1      32.589  29.526  27.147  1.00  0.00     0.000 A 
ENDBRANCH  14  16
ENDBRANCH  12  14
ENDBRANCH   6   8
ENDBRANCH   3   6
ENDBRANCH   1   2
BRANCH   1  22
ATOM     22  C   UNL A   1      37.746  19.766  24.601  1.00  0.00     0.042 C 
BRANCH  22  23
ATOM     23  C   UNL A   1      38.702  20.098  25.744  1.00  0.00     0.118 C 
BRANCH  23  24
ATOM     24  N   UNL A   1      39.874  19.242  25.763  1.00  0.00    -0.352 N 
ATOM     25  C   UNL A   1      41.182  19.545  26.042  1.00  0.00     0.251 C 
ATOM     26  H   UNL A   1      39.704  18.298  25.540  1.00  0.00     0.163 HD
ATOM     27  O   UNL A   1      42.048  18.693  25.840  1.00  0.00    -0.269 OA
BRANCH  25  28
ATOM     28  C   UNL A   1      41.576  20.873  26.566  1.00  0.00     0.039 A 
ATOM     29  C   UNL A   1      41.437  21.112  27.938  1.00  0.00     0.014 A 
ATOM     30  C   UNL A   1      42.004  21.906  25.726  1.00  0.00     0.014 A 
ATOM     31  C   UNL A   1      41.746  22.368  28.468  1.00  0.00     0.010 A 
ATOM     32  C   UNL A   1      42.376  23.139  26.264  1.00  0.00     0.010 A 
ATOM     33  C   UNL A   1      42.227  23.390  27.637  1.00  0.00    -0.014 A 
BRANCH  33  34
ATOM     34  C   UNL A   1      42.517  24.740  28.183  1.00  0.00     0.031 A 
ATOM     35  C   UNL A   1      43.917  25.098  28.606  1.00  0.00     0.074 A 
ATOM     36  C   UNL A   1      41.525  25.638  28.328  1.00  0.00     0.049 A 
ATOM     37  N   UNL A   1      44.365  26.210  29.132  1.00  0.00    -0.248 NA
ATOM     38  C   UNL A   1      44.944  24.058  28.438  1.00  0.00     0.031 C 
ATOM     39  C   UNL A   1      40.117  25.402  28.002  1.00  0.00     0.029 A 
ATOM     40  N   UNL A   1      41.549  26.929  28.794  1.00  0.00    -0.354 N 
ATOM     41  C   UNL A   1      45.717  25.998  29.372  1.00  0.00     0.074 A 
ATOM     42  C   UNL A   1      46.005  24.635  28.981  1.00  0.00     0.031 C 
ATOM     43  C   UNL A   1      39.416  26.518  28.261  1.00  0.00     0.029 A 
ATOM     44  C   UNL A   1      40.318  27.538  28.788  1.00  0.00     0.049 A 
ATOM     45  H   UNL A   1      42.370  27.374  29.102  1.00  0.00     0.167 HD
ATOM     46  C   UNL A   1      46.642  26.863  29.851  1.00  0.00     0.037 A 
ATOM     47  C   UNL A   1      39.960  28.782  29.159  1.00  0.00     0.037 A 
ATOM     48  C   UNL A   1      46.367  28.229  30.212  1.00  0.00     0.049 A 
ATOM     49  C   UNL A   1      41.011  29.740  29.644  1.00  0.00     0.074 A 
ATOM     50  C   UNL A   1      47.243  29.195  30.676  1.00  0.00     0.029 A 
ATOM     51  N   UNL A   1      45.118  28.825  30.138  1.00  0.00    -0.354 N 
ATOM     52  N   UNL A   1      42.294  29.540  29.821  1.00  0.00    -0.248 NA
ATOM     53  C   UNL A   1      40.567  31.106  29.963  1.00  0.00     0.031 C 
ATOM     54  C   UNL A   1      46.518  30.371  30.902  1.00  0.00     0.029 A 
ATOM     55  C   UNL A   1      45.198  30.146  30.546  1.00  0.00     0.049 A 
ATOM     56  H   UNL A   1      44.294  28.376  29.839  1.00  0.00     0.167 HD
ATOM     57  C   UNL A   1      42.814  30.755  30.244  1.00  0.00     0.074 A 
ATOM     58  C   UNL A   1      41.710  31.692  30.287  1.00  0.00     0.031 C 
ATOM     59  C   UNL A   1      44.093  31.068  30.568  1.00  0.00     0.037 A 
BRANCH  46  60
ATOM     60  C   UNL A   1      48.044  26.352  30.003  1.00  0.00     0.057 A 
ATOM     61  C   UNL A   1      48.492  25.779  31.200  1.00  0.00     0.134 A 
ATOM     62  C   UNL A   1      48.955  26.426  28.942  1.00  0.00     0.134 A 
ATOM     63  F   UNL A   1      47.673  25.692  32.260  1.00  0.00    -0.206 F 
ATOM     64  C   UNL A   1      49.804  25.325  31.348  1.00  0.00     0.040 A 
ATOM     65  C   UNL A   1      50.262  25.954  29.069  1.00  0.00     0.040 A 
ATOM     66  F   UNL A   1      48.590  26.959  27.766  1.00  0.00    -0.206 F 
ATOM     67  C   UNL A   1      50.692  25.408  30.278  1.00  0.00     0.006 A 
ENDBRANCH  46  60
BRANCH  47  68
ATOM     68  C   UNL A   1      38.544  29.206  29.043  1.00  0.00     0.057 A 
ATOM     69  C   UNL A   1      38.019  29.640  27.821  1.00  0.00     0.134 A 
ATOM     70  C   UNL A   1      37.683  29.179  30.145  1.00  0.00     0.134 A 
ATOM     71  F   UNL A   1      38.803  29.702  26.735  1.00  0.00    -0.206 F 
ATOM     72  C   UNL A   1      36.691  30.050  27.701  1.00  0.00     0.040 A 
ATOM     73  C   UNL A   1      36.346  29.566  30.036  1.00  0.00     0.040 A 
ATOM     74  F   UNL A   1      38.126  28.764  31.342  1.00  0.00    -0.206 F 
ATOM     75  C   UNL A   1      35.849  30.009  28.811  1.00  0.00     0.006 A 
ENDBRANCH  47  68
BRANCH  59  76
ATOM     76  C   UNL A   1      44.372  32.488  30.956  1.00  0.00     0.057 A 
ATOM     77  C   UNL A   1      44.327  32.913  32.290  1.00  0.00     0.134 A 
ATOM     78  C   UNL A   1      44.719  33.436  29.985  1.00  0.00     0.134 A 
ATOM     79  F   UNL A   1      43.988  32.056  33.265  1.00  0.00    -0.206 F 
ATOM     80  C   UNL A   1      44.596  34.237  32.641  1.00  0.00     0.040 A 
ATOM     81  C   UNL A   1      45.012  34.756  30.326  1.00  0.00     0.040 A 
ATOM     82  F   UNL A   1      44.787  33.090  28.690  1.00  0.00    -0.206 F 
ATOM     83  C   UNL A   1      44.945  35.161  31.658  1.00  0.00     0.006 A 
ENDBRANCH  59  76
ENDBRANCH  33  34
ENDBRANCH  25  28
ENDBRANCH  23  24
ENDBRANCH  22  23
ENDBRANCH   1  22
TORSDOF 13
ENDMDL
MODEL 3
REMARK VINA RESULT:     -11.5      3.874      8.449
REMARK SMILES C[C@@H](C(=O)NCCCNC(=O)c1ccc(-c2c3nc(c(-c4c(F)cccc4F)c4ccc([nH]4)c(-c4c(F)cccc4F)c4nc(c(-c5c(F)cccc5F)c5ccc2[nH]5)C=C4)C=C3)cc1)c1cccc(C(=O)c2ccccc2)c1
REMARK SMILES IDX 6 1 5 2 3 3 4 4 2 6 1 7 66 8 67 9 79 10 68 11 70 12 69 13
REMARK SMILES IDX 71 14 72 15 73 16 74 17 78 18 75 19 77 20 76 21 7 22 8 23
REMARK SMILES IDX 9 24 10 25 11 27 12 28 13 29 65 30 14 31 64 32 15 33 16 34
REMARK SMILES IDX 17 35 58 36 18 37 63 38 57 39 59 40 19 41 62 42 56 43 55 44
REMARK SMILES IDX 20 46 46 47 29 48 45 49 30 50 33 51 44 52 60 53 31 54 32 55
REMARK SMILES IDX 43 57 61 58 34 59 21 60 22 61 27 62 23 63 24 64 26 65 28 66
REMARK SMILES IDX 25 67 47 68 48 69 53 70 49 71 50 72 52 73 54 74 51 75 35 76
REMARK SMILES IDX 36 77 41 78 37 79 38 80 40 81 42 82 39 83
REMARK H PARENT 5 5 9 26 59 45 33 56
REMARK Flexibility Score: inf
ROOT
ATOM      1  C   UNL A   1      35.053  23.245  23.459  1.00  0.00     0.117 C 
ENDROOT
BRANCH   1   2
ATOM      2  N   UNL A   1      34.237  22.174  23.996  1.00  0.00    -0.356 N 
ATOM      3  C   UNL A   1      33.814  21.927  25.270  1.00  0.00     0.227 C 
ATOM      4  O   UNL A   1      33.228  20.857  25.452  1.00  0.00    -0.274 OA
ATOM      5  H   UNL A   1      33.936  21.513  23.331  1.00  0.00     0.163 HD
BRANCH   3   6
ATOM      6  C   UNL A   1      34.031  22.969  26.388  1.00  0.00     0.105 C 
ATOM      7  C   UNL A   1      33.923  22.298  27.761  1.00  0.00     0.023 C 
BRANCH   6   8
ATOM      8  C   UNL A   1      33.096  24.173  26.211  1.00  0.00    -0.035 A 
ATOM      9  C   UNL A   1      31.704  24.099  26.375  1.00  0.00     0.004 A 
ATOM     10  C   UNL A   1      33.653  25.412  25.835  1.00  0.00     0.016 A 
ATOM     11  C   UNL A   1      30.894  25.215  26.152  1.00  0.00     0.001 A 
ATOM     12  C   UNL A   1      32.842  26.518  25.550  1.00  0.00     0.023 A 
ATOM     13  C   UNL A   1      31.459  26.416  25.731  1.00  0.00     0.012 A 
BRANCH  12  14
ATOM     14  C   UNL A   1      33.396  27.822  25.089  1.00  0.00     0.193 C 
ATOM     15  O   UNL A   1      33.789  27.939  23.930  1.00  0.00    -0.289 OA
BRANCH  14  16
ATOM     16  C   UNL A   1      33.462  29.009  25.974  1.00  0.00     0.022 A 
ATOM     17  C   UNL A   1      34.580  29.146  26.804  1.00  0.00     0.012 A 
ATOM     18  C   UNL A   1      32.438  29.963  26.017  1.00  0.00     0.012 A 
ATOM     19  C   UNL A   1      34.698  30.255  27.641  1.00  0.00     0.001 A 
ATOM     20  C   UNL A   1      32.561  31.073  26.856  1.00  0.00     0.001 A 
ATOM     21  C   UNL A   1      33.693  31.222  27.660  1.00  0.00     0.000 A 
ENDBRANCH  14  16
ENDBRANCH  12  14
ENDBRANCH   6   8
ENDBRANCH   3   6
ENDBRANCH   1   2
BRANCH   1  22
ATOM     22  C   UNL A   1      36.545  22.930  23.584  1.00  0.00     0.042 C 
BRANCH  22  23
ATOM     23  C   UNL A   1      37.207  23.470  24.848  1.00  0.00     0.118 C 
BRANCH  23  24
ATOM     24  N   UNL A   1      38.103  22.510  25.468  1.00  0.00    -0.352 N 
ATOM     25  C   UNL A   1      39.198  22.715  26.267  1.00  0.00     0.251 C 
ATOM     26  H   UNL A   1      37.892  21.566  25.285  1.00  0.00     0.163 HD
ATOM     27  O   UNL A   1      39.915  21.756  26.554  1.00  0.00    -0.269 OA
BRANCH  25  28
ATOM     28  C   UNL A   1      39.542  24.061  26.781  1.00  0.00     0.039 A 
ATOM     29  C   UNL A   1      40.216  24.944  25.930  1.00  0.00     0.014 A 
ATOM     30  C   UNL A   1      39.283  24.439  28.103  1.00  0.00     0.014 A 
ATOM     31  C   UNL A   1      40.608  26.204  26.390  1.00  0.00     0.010 A 
ATOM     32  C   UNL A   1      39.614  25.723  28.542  1.00  0.00     0.010 A 
ATOM     33  C   UNL A   1      40.302  26.608  27.698  1.00  0.00    -0.014 A 
BRANCH  33  34
ATOM     34  C   UNL A   1      40.751  27.928  28.211  1.00  0.00     0.031 A 
ATOM     35  C   UNL A   1      42.216  28.272  28.224  1.00  0.00     0.074 A 
ATOM     36  C   UNL A   1      39.853  28.807  28.691  1.00  0.00     0.049 A 
ATOM     37  N   UNL A   1      42.809  29.356  28.656  1.00  0.00    -0.248 NA
ATOM     38  C   UNL A   1      43.141  27.251  27.704  1.00  0.00     0.031 C 
ATOM     39  C   UNL A   1      38.410  28.580  28.778  1.00  0.00     0.029 A 
ATOM     40  N   UNL A   1      40.024  30.070  29.200  1.00  0.00    -0.354 N 
ATOM     41  C   UNL A   1      44.170  29.142  28.477  1.00  0.00     0.074 A 
ATOM     42  C   UNL A   1      44.319  27.805  27.943  1.00  0.00     0.031 C 
ATOM     43  C   UNL A   1      37.825  29.674  29.294  1.00  0.00     0.029 A 
ATOM     44  C   UNL A   1      38.852  30.669  29.590  1.00  0.00     0.049 A 
ATOM     45  H   UNL A   1      40.904  30.504  29.279  1.00  0.00     0.167 HD
ATOM     46  C   UNL A   1      45.203  29.986  28.712  1.00  0.00     0.037 A 
ATOM     47  C   UNL A   1      38.629  31.887  30.119  1.00  0.00     0.037 A 
ATOM     48  C   UNL A   1      45.058  31.327  29.214  1.00  0.00     0.049 A 
ATOM     49  C   UNL A   1      39.785  32.825  30.328  1.00  0.00     0.074 A 
ATOM     50  C   UNL A   1      46.040  32.272  29.454  1.00  0.00     0.029 A 
ATOM     51  N   UNL A   1      43.847  31.916  29.543  1.00  0.00    -0.354 N 
ATOM     52  N   UNL A   1      41.062  32.625  30.109  1.00  0.00    -0.248 NA
ATOM     53  C   UNL A   1      39.466  34.167  30.839  1.00  0.00     0.031 C 
ATOM     54  C   UNL A   1      45.424  33.428  29.949  1.00  0.00     0.029 A 
ATOM     55  C   UNL A   1      44.055  33.212  29.983  1.00  0.00     0.049 A 
ATOM     56  H   UNL A   1      42.968  31.478  29.474  1.00  0.00     0.167 HD
ATOM     57  C   UNL A   1      41.694  33.819  30.429  1.00  0.00     0.074 A 
ATOM     58  C   UNL A   1      40.659  34.743  30.846  1.00  0.00     0.031 C 
ATOM     59  C   UNL A   1      43.014  34.123  30.380  1.00  0.00     0.037 A 
BRANCH  46  60
ATOM     60  C   UNL A   1      46.583  29.478  28.416  1.00  0.00     0.057 A 
ATOM     61  C   UNL A   1      47.166  29.627  27.151  1.00  0.00     0.134 A 
ATOM     62  C   UNL A   1      47.341  28.838  29.404  1.00  0.00     0.134 A 
ATOM     63  F   UNL A   1      46.487  30.218  26.155  1.00  0.00    -0.206 F 
ATOM     64  C   UNL A   1      48.441  29.133  26.870  1.00  0.00     0.040 A 
ATOM     65  C   UNL A   1      48.626  28.361  29.144  1.00  0.00     0.040 A 
ATOM     66  F   UNL A   1      46.845  28.666  30.639  1.00  0.00    -0.206 F 
ATOM     67  C   UNL A   1      49.176  28.502  27.871  1.00  0.00     0.006 A 
ENDBRANCH  46  60
BRANCH  47  68
ATOM     68  C   UNL A   1      37.245  32.306  30.448  1.00  0.00     0.057 A 
ATOM     69  C   UNL A   1      36.485  33.057  29.544  1.00  0.00     0.134 A 
ATOM     70  C   UNL A   1      36.649  31.960  31.665  1.00  0.00     0.134 A 
ATOM     71  F   UNL A   1      37.011  33.431  28.369  1.00  0.00    -0.206 F 
ATOM     72  C   UNL A   1      35.185  33.464  29.846  1.00  0.00     0.040 A 
ATOM     73  C   UNL A   1      35.342  32.342  31.972  1.00  0.00     0.040 A 
ATOM     74  F   UNL A   1      37.325  31.234  32.569  1.00  0.00    -0.206 F 
ATOM     75  C   UNL A   1      34.609  33.102  31.062  1.00  0.00     0.006 A 
ENDBRANCH  47  68
BRANCH  59  76
ATOM     76  C   UNL A   1      43.407  35.521  30.749  1.00  0.00     0.057 A 
ATOM     77  C   UNL A   1      43.718  35.879  32.067  1.00  0.00     0.134 A 
ATOM     78  C   UNL A   1      43.505  36.515  29.766  1.00  0.00     0.134 A 
ATOM     79  F   UNL A   1      43.630  34.976  33.055  1.00  0.00    -0.206 F 
ATOM     80  C   UNL A   1      44.091  37.183  32.398  1.00  0.00     0.040 A 
ATOM     81  C   UNL A   1      43.898  37.815  30.081  1.00  0.00     0.040 A 
ATOM     82  F   UNL A   1      43.228  36.234  28.483  1.00  0.00    -0.206 F 
ATOM     83  C   UNL A   1      44.186  38.154  31.402  1.00  0.00     0.006 A 
ENDBRANCH  59  76
ENDBRANCH  33  34
ENDBRANCH  25  28
ENDBRANCH  23  24
ENDBRANCH  22  23
ENDBRANCH   1  22
TORSDOF 13
ENDMDL
