MODEL 1
REMARK VINA RESULT:     -11.8      0.000      0.000
REMARK SMILES O=C(NCCCNC(=O)c1cccnc1NC[C@H](c1ccccc1)[NH+]1CCOCC1)c1ccc(-c2c3nc(c(-c4c(F)cccc4F)c4ccc([nH]4)c(-c4c(F)cccc4F)c4nc(c(-c5c(F)cccc5F)c5ccc2[nH]5)C=C4)C=C3)cc1
REMARK SMILES IDX 6 1 5 2 4 3 3 4 1 5 2 6 31 8 32 9 84 10 33 11 83 12 34 13
REMARK SMILES IDX 35 14 36 15 77 16 37 17 82 18 76 19 78 20 38 21 81 22 75 23
REMARK SMILES IDX 74 24 39 26 65 27 48 28 64 29 49 30 52 31 63 32 79 33 50 34
REMARK SMILES IDX 51 35 62 37 80 38 53 39 40 40 41 41 46 42 42 43 43 44 45 45
REMARK SMILES IDX 47 46 44 47 66 48 67 49 72 50 68 51 69 52 71 53 73 54 70 55
REMARK SMILES IDX 54 56 55 57 60 58 56 59 57 60 59 61 61 62 58 63 7 64 8 65
REMARK SMILES IDX 9 67 10 68 11 69 15 70 12 71 14 72 13 73 16 74 17 76 18 77
REMARK SMILES IDX 25 78 26 79 30 80 27 82 29 83 28 84 19 85 20 86 24 87 21 88
REMARK SMILES IDX 23 89 22 90
REMARK H PARENT 3 7 78 25 52 36 7 66 16 75 25 81
REMARK Flexibility Score: inf
ROOT
ATOM      1  C   UNL A   1      31.105  30.655  25.924  1.00  0.00     0.118 C 
ENDROOT
BRANCH   1   2
ATOM      2  C   UNL A   1      31.261  32.156  26.138  1.00  0.00     0.042 C 
BRANCH   2   3
ATOM      3  C   UNL A   1      32.414  32.555  27.050  1.00  0.00     0.118 C 
BRANCH   3   4
ATOM      4  N   UNL A   1      32.332  33.938  27.499  1.00  0.00    -0.352 N 
ATOM      5  O   UNL A   1      32.690  35.746  28.786  1.00  0.00    -0.269 OA
ATOM      6  C   UNL A   1      33.058  34.620  28.442  1.00  0.00     0.251 C 
ATOM      7  H   UNL A   1      31.639  34.474  27.051  1.00  0.00     0.163 HD
BRANCH   6   8
ATOM      8  C   UNL A   1      34.258  34.025  29.069  1.00  0.00     0.039 A 
ATOM      9  C   UNL A   1      35.546  34.409  28.692  1.00  0.00     0.014 A 
ATOM     10  C   UNL A   1      34.086  33.095  30.101  1.00  0.00     0.014 A 
ATOM     11  C   UNL A   1      36.655  33.764  29.236  1.00  0.00     0.010 A 
ATOM     12  C   UNL A   1      35.200  32.510  30.706  1.00  0.00     0.010 A 
ATOM     13  C   UNL A   1      36.494  32.816  30.255  1.00  0.00    -0.014 A 
BRANCH  13  14
ATOM     14  C   UNL A   1      37.679  32.174  30.879  1.00  0.00     0.031 A 
ATOM     15  C   UNL A   1      38.426  31.086  30.160  1.00  0.00     0.074 A 
ATOM     16  C   UNL A   1      38.065  32.554  32.111  1.00  0.00     0.049 A 
ATOM     17  N   UNL A   1      39.421  30.348  30.582  1.00  0.00    -0.248 NA
ATOM     18  C   UNL A   1      37.987  30.777  28.791  1.00  0.00     0.031 C 
ATOM     19  C   UNL A   1      37.422  33.600  32.909  1.00  0.00     0.029 A 
ATOM     20  N   UNL A   1      39.079  32.097  32.913  1.00  0.00    -0.354 N 
ATOM     21  C   UNL A   1      39.714  29.474  29.543  1.00  0.00     0.074 A 
ATOM     22  C   UNL A   1      38.771  29.755  28.480  1.00  0.00     0.031 C 
ATOM     23  C   UNL A   1      38.062  33.711  34.082  1.00  0.00     0.029 A 
ATOM     24  C   UNL A   1      39.117  32.704  34.144  1.00  0.00     0.049 A 
ATOM     25  H   UNL A   1      39.718  31.403  32.634  1.00  0.00     0.167 HD
ATOM     26  C   UNL A   1      40.682  28.527  29.481  1.00  0.00     0.037 A 
ATOM     27  C   UNL A   1      39.887  32.458  35.219  1.00  0.00     0.037 A 
ATOM     28  C   UNL A   1      41.619  28.258  30.543  1.00  0.00     0.049 A 
ATOM     29  C   UNL A   1      40.923  31.375  35.146  1.00  0.00     0.074 A 
ATOM     30  C   UNL A   1      42.658  27.345  30.564  1.00  0.00     0.029 A 
ATOM     31  N   UNL A   1      41.621  28.893  31.777  1.00  0.00    -0.354 N 
ATOM     32  N   UNL A   1      41.211  30.574  34.148  1.00  0.00    -0.248 NA
ATOM     33  C   UNL A   1      41.743  31.158  36.347  1.00  0.00     0.031 C 
ATOM     34  C   UNL A   1      43.254  27.388  31.830  1.00  0.00     0.029 A 
ATOM     35  C   UNL A   1      42.626  28.373  32.575  1.00  0.00     0.049 A 
ATOM     36  H   UNL A   1      40.999  29.608  32.044  1.00  0.00     0.167 HD
ATOM     37  C   UNL A   1      42.262  29.781  34.586  1.00  0.00     0.074 A 
ATOM     38  C   UNL A   1      42.562  30.197  35.942  1.00  0.00     0.031 C 
ATOM     39  C   UNL A   1      42.922  28.803  33.920  1.00  0.00     0.037 A 
BRANCH  26  40
ATOM     40  C   UNL A   1      40.751  27.689  28.235  1.00  0.00     0.057 A 
ATOM     41  C   UNL A   1      40.077  26.467  28.119  1.00  0.00     0.134 A 
ATOM     42  C   UNL A   1      41.494  28.122  27.128  1.00  0.00     0.134 A 
ATOM     43  F   UNL A   1      39.355  25.988  29.144  1.00  0.00    -0.206 F 
ATOM     44  C   UNL A   1      40.170  25.687  26.965  1.00  0.00     0.040 A 
ATOM     45  C   UNL A   1      41.570  27.366  25.958  1.00  0.00     0.040 A 
ATOM     46  F   UNL A   1      42.156  29.288  27.165  1.00  0.00    -0.206 F 
ATOM     47  C   UNL A   1      40.916  26.139  25.877  1.00  0.00     0.006 A 
ENDBRANCH  26  40
BRANCH  27  48
ATOM     48  C   UNL A   1      39.689  33.257  36.453  1.00  0.00     0.057 A 
ATOM     49  C   UNL A   1      38.790  32.849  37.443  1.00  0.00     0.134 A 
ATOM     50  C   UNL A   1      40.429  34.422  36.691  1.00  0.00     0.134 A 
ATOM     51  F   UNL A   1      38.044  31.750  37.266  1.00  0.00    -0.206 F 
ATOM     52  C   UNL A   1      38.630  33.574  38.626  1.00  0.00     0.040 A 
ATOM     53  C   UNL A   1      40.299  35.142  37.878  1.00  0.00     0.040 A 
ATOM     54  F   UNL A   1      41.316  34.858  35.784  1.00  0.00    -0.206 F 
ATOM     55  C   UNL A   1      39.393  34.718  38.849  1.00  0.00     0.006 A 
ENDBRANCH  27  48
BRANCH  39  56
ATOM     56  C   UNL A   1      44.074  28.143  34.622  1.00  0.00     0.057 A 
ATOM     57  C   UNL A   1      43.925  26.948  35.336  1.00  0.00     0.134 A 
ATOM     58  C   UNL A   1      45.363  28.682  34.522  1.00  0.00     0.134 A 
ATOM     59  F   UNL A   1      42.714  26.389  35.482  1.00  0.00    -0.206 F 
ATOM     60  C   UNL A   1      45.017  26.319  35.935  1.00  0.00     0.040 A 
ATOM     61  C   UNL A   1      46.466  28.047  35.095  1.00  0.00     0.040 A 
ATOM     62  F   UNL A   1      45.576  29.822  33.846  1.00  0.00    -0.206 F 
ATOM     63  C   UNL A   1      46.294  26.863  35.807  1.00  0.00     0.006 A 
ENDBRANCH  39  56
ENDBRANCH  13  14
ENDBRANCH   6   8
ENDBRANCH   3   4
ENDBRANCH   2   3
ENDBRANCH   1   2
BRANCH   1  64
ATOM     64  N   UNL A   1      31.843  30.160  24.769  1.00  0.00    -0.352 N 
ATOM     65  C   UNL A   1      31.419  29.441  23.673  1.00  0.00     0.255 C 
ATOM     66  H   UNL A   1      32.803  30.374  24.772  1.00  0.00     0.163 HD
ATOM     67  O   UNL A   1      32.254  29.047  22.860  1.00  0.00    -0.269 OA
BRANCH  65  68
ATOM     68  C   UNL A   1      29.985  29.149  23.459  1.00  0.00     0.082 A 
ATOM     69  C   UNL A   1      29.087  30.203  23.250  1.00  0.00     0.019 A 
ATOM     70  C   UNL A   1      29.518  27.824  23.396  1.00  0.00     0.139 A 
ATOM     71  C   UNL A   1      27.736  29.930  23.105  1.00  0.00     0.021 A 
ATOM     72  N   UNL A   1      28.194  27.565  23.296  1.00  0.00    -0.239 NA
ATOM     73  C   UNL A   1      27.340  28.606  23.155  1.00  0.00     0.113 A 
BRANCH  70  74
ATOM     74  N   UNL A   1      30.401  26.752  23.426  1.00  0.00    -0.363 N 
ATOM     75  H   UNL A   1      31.168  26.747  22.808  1.00  0.00     0.162 HD
BRANCH  74  76
ATOM     76  C   UNL A   1      30.227  25.630  24.349  1.00  0.00     0.184 C 
BRANCH  76  77
ATOM     77  C   UNL A   1      31.540  25.253  25.141  1.00  0.00     0.234 C 
BRANCH  77  78
ATOM     78  N   UNL A   1      32.623  24.396  24.560  1.00  0.00    -0.323 N 
ATOM     79  C   UNL A   1      32.440  23.870  23.190  1.00  0.00     0.291 C 
ATOM     80  C   UNL A   1      33.143  23.290  25.380  1.00  0.00     0.291 C 
ATOM     81  H   UNL A   1      33.314  25.145  24.533  1.00  0.00     0.348 HD
ATOM     82  C   UNL A   1      31.580  22.601  23.134  1.00  0.00     0.221 C 
ATOM     83  C   UNL A   1      32.299  22.005  25.302  1.00  0.00     0.221 C 
ATOM     84  O   UNL A   1      32.146  21.562  23.944  1.00  0.00    -0.370 OA
ENDBRANCH  77  78
BRANCH  77  85
ATOM     85  C   UNL A   1      32.121  26.498  25.845  1.00  0.00     0.011 A 
ATOM     86  C   UNL A   1      33.426  26.954  25.576  1.00  0.00     0.010 A 
ATOM     87  C   UNL A   1      31.411  27.099  26.898  1.00  0.00     0.010 A 
ATOM     88  C   UNL A   1      34.036  27.902  26.400  1.00  0.00     0.001 A 
ATOM     89  C   UNL A   1      32.012  28.072  27.700  1.00  0.00     0.001 A 
ATOM     90  C   UNL A   1      33.334  28.449  27.469  1.00  0.00     0.000 A 
ENDBRANCH  77  85
ENDBRANCH  76  77
ENDBRANCH  74  76
ENDBRANCH  70  74
ENDBRANCH  65  68
ENDBRANCH   1  64
TORSDOF 15
ENDMDL
MODEL 2
REMARK VINA RESULT:     -11.7      4.546      9.551
REMARK SMILES O=C(NCCCNC(=O)c1cccnc1NC[C@H](c1ccccc1)[NH+]1CCOCC1)c1ccc(-c2c3nc(c(-c4c(F)cccc4F)c4ccc([nH]4)c(-c4c(F)cccc4F)c4nc(c(-c5c(F)cccc5F)c5ccc2[nH]5)C=C4)C=C3)cc1
REMARK SMILES IDX 6 1 5 2 4 3 3 4 1 5 2 6 31 8 32 9 84 10 33 11 83 12 34 13
REMARK SMILES IDX 35 14 36 15 77 16 37 17 82 18 76 19 78 20 38 21 81 22 75 23
REMARK SMILES IDX 74 24 39 26 65 27 48 28 64 29 49 30 52 31 63 32 79 33 50 34
REMARK SMILES IDX 51 35 62 37 80 38 53 39 40 40 41 41 46 42 42 43 43 44 45 45
REMARK SMILES IDX 47 46 44 47 66 48 67 49 72 50 68 51 69 52 71 53 73 54 70 55
REMARK SMILES IDX 54 56 55 57 60 58 56 59 57 60 59 61 61 62 58 63 7 64 8 65
REMARK SMILES IDX 9 67 10 68 11 69 15 70 12 71 14 72 13 73 16 74 17 76 18 77
REMARK SMILES IDX 25 78 26 79 30 80 27 82 29 83 28 84 19 85 20 86 24 87 21 88
REMARK SMILES IDX 23 89 22 90
REMARK H PARENT 3 7 78 25 52 36 7 66 16 75 25 81
REMARK Flexibility Score: inf
ROOT
ATOM      1  C   UNL A   1      36.898  20.732  24.618  1.00  0.00     0.118 C 
ENDROOT
BRANCH   1   2
ATOM      2  C   UNL A   1      37.968  19.668  24.837  1.00  0.00     0.042 C 
BRANCH   2   3
ATOM      3  C   UNL A   1      38.948  19.970  25.963  1.00  0.00     0.118 C 
BRANCH   3   4
ATOM      4  N   UNL A   1      40.174  19.187  25.876  1.00  0.00    -0.352 N 
ATOM      5  O   UNL A   1      42.373  18.753  25.722  1.00  0.00    -0.269 OA
ATOM      6  C   UNL A   1      41.486  19.556  26.021  1.00  0.00     0.251 C 
ATOM      7  H   UNL A   1      40.036  18.232  25.679  1.00  0.00     0.163 HD
BRANCH   6   8
ATOM      8  C   UNL A   1      41.858  20.903  26.506  1.00  0.00     0.039 A 
ATOM      9  C   UNL A   1      42.103  21.955  25.623  1.00  0.00     0.014 A 
ATOM     10  C   UNL A   1      41.910  21.130  27.886  1.00  0.00     0.014 A 
ATOM     11  C   UNL A   1      42.540  23.187  26.107  1.00  0.00     0.010 A 
ATOM     12  C   UNL A   1      42.266  22.389  28.374  1.00  0.00     0.010 A 
ATOM     13  C   UNL A   1      42.617  23.418  27.487  1.00  0.00    -0.014 A 
BRANCH  13  14
ATOM     14  C   UNL A   1      43.023  24.750  28.004  1.00  0.00     0.031 A 
ATOM     15  C   UNL A   1      41.989  25.788  28.338  1.00  0.00     0.074 A 
ATOM     16  C   UNL A   1      44.332  25.034  28.144  1.00  0.00     0.049 A 
ATOM     17  N   UNL A   1      42.157  27.032  28.711  1.00  0.00    -0.248 NA
ATOM     18  C   UNL A   1      40.582  25.378  28.227  1.00  0.00     0.031 C 
ATOM     19  C   UNL A   1      45.429  24.109  27.855  1.00  0.00     0.029 A 
ATOM     20  N   UNL A   1      44.961  26.183  28.551  1.00  0.00    -0.354 N 
ATOM     21  C   UNL A   1      40.880  27.559  28.856  1.00  0.00     0.074 A 
ATOM     22  C   UNL A   1      39.948  26.509  28.504  1.00  0.00     0.031 C 
ATOM     23  C   UNL A   1      46.596  24.723  28.102  1.00  0.00     0.029 A 
ATOM     24  C   UNL A   1      46.331  26.101  28.505  1.00  0.00     0.049 A 
ATOM     25  H   UNL A   1      44.478  26.987  28.848  1.00  0.00     0.167 HD
ATOM     26  C   UNL A   1      40.519  28.806  29.250  1.00  0.00     0.037 A 
ATOM     27  C   UNL A   1      47.272  27.036  28.725  1.00  0.00     0.037 A 
ATOM     28  C   UNL A   1      41.454  29.844  29.603  1.00  0.00     0.049 A 
ATOM     29  C   UNL A   1      46.851  28.422  29.116  1.00  0.00     0.074 A 
ATOM     30  C   UNL A   1      41.189  31.127  30.048  1.00  0.00     0.029 A 
ATOM     31  N   UNL A   1      42.835  29.722  29.538  1.00  0.00    -0.354 N 
ATOM     32  N   UNL A   1      45.642  28.902  29.279  1.00  0.00    -0.248 NA
ATOM     33  C   UNL A   1      47.923  29.399  29.354  1.00  0.00     0.031 C 
ATOM     34  C   UNL A   1      42.408  31.799  30.199  1.00  0.00     0.029 A 
ATOM     35  C   UNL A   1      43.434  30.914  29.909  1.00  0.00     0.049 A 
ATOM     36  H   UNL A   1      43.317  28.907  29.268  1.00  0.00     0.167 HD
ATOM     37  C   UNL A   1      45.805  30.224  29.668  1.00  0.00     0.074 A 
ATOM     38  C   UNL A   1      47.233  30.471  29.717  1.00  0.00     0.031 C 
ATOM     39  C   UNL A   1      44.857  31.145  29.965  1.00  0.00     0.037 A 
BRANCH  26  40
ATOM     40  C   UNL A   1      39.050  29.122  29.284  1.00  0.00     0.057 A 
ATOM     41  C   UNL A   1      38.348  29.531  28.144  1.00  0.00     0.134 A 
ATOM     42  C   UNL A   1      38.325  29.002  30.477  1.00  0.00     0.134 A 
ATOM     43  F   UNL A   1      38.981  29.676  26.970  1.00  0.00    -0.206 F 
ATOM     44  C   UNL A   1      36.988  29.845  28.196  1.00  0.00     0.040 A 
ATOM     45  C   UNL A   1      36.960  29.284  30.536  1.00  0.00     0.040 A 
ATOM     46  F   UNL A   1      38.931  28.605  31.607  1.00  0.00    -0.206 F 
ATOM     47  C   UNL A   1      36.289  29.718  29.395  1.00  0.00     0.006 A 
ENDBRANCH  26  40
BRANCH  27  48
ATOM     48  C   UNL A   1      48.703  26.678  28.567  1.00  0.00     0.057 A 
ATOM     49  C   UNL A   1      49.447  26.181  29.641  1.00  0.00     0.134 A 
ATOM     50  C   UNL A   1      49.346  26.780  27.327  1.00  0.00     0.134 A 
ATOM     51  F   UNL A   1      48.890  26.073  30.856  1.00  0.00    -0.206 F 
ATOM     52  C   UNL A   1      50.782  25.802  29.489  1.00  0.00     0.040 A 
ATOM     53  C   UNL A   1      50.670  26.381  27.155  1.00  0.00     0.040 A 
ATOM     54  F   UNL A   1      48.681  27.239  26.256  1.00  0.00    -0.206 F 
ATOM     55  C   UNL A   1      51.394  25.893  28.241  1.00  0.00     0.006 A 
ENDBRANCH  27  48
BRANCH  39  56
ATOM     56  C   UNL A   1      45.324  32.497  30.422  1.00  0.00     0.057 A 
ATOM     57  C   UNL A   1      45.486  33.568  29.536  1.00  0.00     0.134 A 
ATOM     58  C   UNL A   1      45.548  32.742  31.784  1.00  0.00     0.134 A 
ATOM     59  F   UNL A   1      45.301  33.395  28.219  1.00  0.00    -0.206 F 
ATOM     60  C   UNL A   1      45.866  34.833  29.987  1.00  0.00     0.040 A 
ATOM     61  C   UNL A   1      45.903  34.009  32.248  1.00  0.00     0.040 A 
ATOM     62  F   UNL A   1      45.403  31.760  32.686  1.00  0.00    -0.206 F 
ATOM     63  C   UNL A   1      46.066  35.059  31.349  1.00  0.00     0.006 A 
ENDBRANCH  39  56
ENDBRANCH  13  14
ENDBRANCH   6   8
ENDBRANCH   3   4
ENDBRANCH   2   3
ENDBRANCH   1   2
BRANCH   1  64
ATOM     64  N   UNL A   1      36.157  21.058  25.829  1.00  0.00    -0.352 N 
ATOM     65  C   UNL A   1      34.820  21.332  26.018  1.00  0.00     0.255 C 
ATOM     66  H   UNL A   1      36.701  21.088  26.648  1.00  0.00     0.163 HD
ATOM     67  O   UNL A   1      34.435  21.680  27.133  1.00  0.00    -0.269 OA
BRANCH  65  68
ATOM     68  C   UNL A   1      33.850  21.205  24.908  1.00  0.00     0.082 A 
ATOM     69  C   UNL A   1      33.320  19.948  24.591  1.00  0.00     0.019 A 
ATOM     70  C   UNL A   1      33.400  22.339  24.208  1.00  0.00     0.139 A 
ATOM     71  C   UNL A   1      32.455  19.825  23.515  1.00  0.00     0.021 A 
ATOM     72  N   UNL A   1      32.588  22.206  23.134  1.00  0.00    -0.239 NA
ATOM     73  C   UNL A   1      32.138  20.971  22.812  1.00  0.00     0.113 A 
BRANCH  70  74
ATOM     74  N   UNL A   1      33.769  23.618  24.605  1.00  0.00    -0.363 N 
ATOM     75  H   UNL A   1      34.711  23.795  24.831  1.00  0.00     0.162 HD
BRANCH  74  76
ATOM     76  C   UNL A   1      32.800  24.712  24.695  1.00  0.00     0.184 C 
BRANCH  76  77
ATOM     77  C   UNL A   1      33.443  26.143  24.522  1.00  0.00     0.234 C 
BRANCH  77  78
ATOM     78  N   UNL A   1      33.373  26.916  23.241  1.00  0.00    -0.323 N 
ATOM     79  C   UNL A   1      32.206  27.796  23.017  1.00  0.00     0.291 C 
ATOM     80  C   UNL A   1      33.613  26.192  21.983  1.00  0.00     0.291 C 
ATOM     81  H   UNL A   1      34.184  27.497  23.452  1.00  0.00     0.348 HD
ATOM     82  C   UNL A   1      30.974  27.051  22.487  1.00  0.00     0.221 C 
ATOM     83  C   UNL A   1      32.371  25.468  21.432  1.00  0.00     0.221 C 
ATOM     84  O   UNL A   1      31.271  26.377  21.257  1.00  0.00    -0.370 OA
ENDBRANCH  77  78
BRANCH  77  85
ATOM     85  C   UNL A   1      33.115  27.033  25.739  1.00  0.00     0.011 A 
ATOM     86  C   UNL A   1      31.870  26.957  26.393  1.00  0.00     0.010 A 
ATOM     87  C   UNL A   1      33.999  28.060  26.111  1.00  0.00     0.010 A 
ATOM     88  C   UNL A   1      31.482  27.937  27.307  1.00  0.00     0.001 A 
ATOM     89  C   UNL A   1      33.621  29.021  27.052  1.00  0.00     0.001 A 
ATOM     90  C   UNL A   1      32.352  28.976  27.626  1.00  0.00     0.000 A 
ENDBRANCH  77  85
ENDBRANCH  76  77
ENDBRANCH  74  76
ENDBRANCH  70  74
ENDBRANCH  65  68
ENDBRANCH   1  64
TORSDOF 15
ENDMDL
MODEL 3
REMARK VINA RESULT:     -11.7      4.757      8.403
REMARK SMILES O=C(NCCCNC(=O)c1cccnc1NC[C@H](c1ccccc1)[NH+]1CCOCC1)c1ccc(-c2c3nc(c(-c4c(F)cccc4F)c4ccc([nH]4)c(-c4c(F)cccc4F)c4nc(c(-c5c(F)cccc5F)c5ccc2[nH]5)C=C4)C=C3)cc1
REMARK SMILES IDX 6 1 5 2 4 3 3 4 1 5 2 6 31 8 32 9 84 10 33 11 83 12 34 13
REMARK SMILES IDX 35 14 36 15 77 16 37 17 82 18 76 19 78 20 38 21 81 22 75 23
REMARK SMILES IDX 74 24 39 26 65 27 48 28 64 29 49 30 52 31 63 32 79 33 50 34
REMARK SMILES IDX 51 35 62 37 80 38 53 39 40 40 41 41 46 42 42 43 43 44 45 45
REMARK SMILES IDX 47 46 44 47 66 48 67 49 72 50 68 51 69 52 71 53 73 54 70 55
REMARK SMILES IDX 54 56 55 57 60 58 56 59 57 60 59 61 61 62 58 63 7 64 8 65
REMARK SMILES IDX 9 67 10 68 11 69 15 70 12 71 14 72 13 73 16 74 17 76 18 77
REMARK SMILES IDX 25 78 26 79 30 80 27 82 29 83 28 84 19 85 20 86 24 87 21 88
REMARK SMILES IDX 23 89 22 90
REMARK H PARENT 3 7 78 25 52 36 7 66 16 75 25 81
REMARK Flexibility Score: inf
ROOT
ATOM      1  C   UNL A   1      32.398  29.356  26.465  1.00  0.00     0.118 C 
ENDROOT
BRANCH   1   2
ATOM      2  C   UNL A   1      33.901  29.408  26.212  1.00  0.00     0.042 C 
BRANCH   2   3
ATOM      3  C   UNL A   1      34.764  29.043  27.413  1.00  0.00     0.118 C 
BRANCH   3   4
ATOM      4  N   UNL A   1      34.784  30.081  28.435  1.00  0.00    -0.352 N 
ATOM      5  O   UNL A   1      35.516  31.271  30.195  1.00  0.00    -0.269 OA
ATOM      6  C   UNL A   1      35.784  30.489  29.279  1.00  0.00     0.251 C 
ATOM      7  H   UNL A   1      33.936  30.572  28.537  1.00  0.00     0.163 HD
BRANCH   6   8
ATOM      8  C   UNL A   1      37.169  29.994  29.129  1.00  0.00     0.039 A 
ATOM      9  C   UNL A   1      37.866  29.436  30.202  1.00  0.00     0.014 A 
ATOM     10  C   UNL A   1      37.765  30.040  27.864  1.00  0.00     0.014 A 
ATOM     11  C   UNL A   1      39.200  29.063  30.051  1.00  0.00     0.010 A 
ATOM     12  C   UNL A   1      39.075  29.587  27.693  1.00  0.00     0.010 A 
ATOM     13  C   UNL A   1      39.815  29.126  28.793  1.00  0.00    -0.014 A 
BRANCH  13  14
ATOM     14  C   UNL A   1      41.217  28.669  28.618  1.00  0.00     0.031 A 
ATOM     15  C   UNL A   1      42.356  29.645  28.714  1.00  0.00     0.074 A 
ATOM     16  C   UNL A   1      41.462  27.374  28.344  1.00  0.00     0.049 A 
ATOM     17  N   UNL A   1      43.632  29.450  28.500  1.00  0.00    -0.248 NA
ATOM     18  C   UNL A   1      42.014  31.025  29.087  1.00  0.00     0.031 C 
ATOM     19  C   UNL A   1      40.441  26.332  28.228  1.00  0.00     0.029 A 
ATOM     20  N   UNL A   1      42.640  26.717  28.099  1.00  0.00    -0.354 N 
ATOM     21  C   UNL A   1      44.242  30.683  28.688  1.00  0.00     0.074 A 
ATOM     22  C   UNL A   1      43.192  31.627  29.007  1.00  0.00     0.031 C 
ATOM     23  C   UNL A   1      41.038  25.164  27.944  1.00  0.00     0.029 A 
ATOM     24  C   UNL A   1      42.472  25.389  27.794  1.00  0.00     0.049 A 
ATOM     25  H   UNL A   1      43.521  27.155  28.137  1.00  0.00     0.167 HD
ATOM     26  C   UNL A   1      45.558  30.998  28.605  1.00  0.00     0.037 A 
ATOM     27  C   UNL A   1      43.363  24.461  27.403  1.00  0.00     0.037 A 
ATOM     28  C   UNL A   1      46.598  30.051  28.291  1.00  0.00     0.049 A 
ATOM     29  C   UNL A   1      44.809  24.840  27.274  1.00  0.00     0.074 A 
ATOM     30  C   UNL A   1      47.963  30.262  28.218  1.00  0.00     0.029 A 
ATOM     31  N   UNL A   1      46.385  28.714  27.985  1.00  0.00    -0.354 N 
ATOM     32  N   UNL A   1      45.379  26.002  27.484  1.00  0.00    -0.248 NA
ATOM     33  C   UNL A   1      45.738  23.782  26.853  1.00  0.00     0.031 C 
ATOM     34  C   UNL A   1      48.571  29.068  27.814  1.00  0.00     0.029 A 
ATOM     35  C   UNL A   1      47.590  28.096  27.697  1.00  0.00     0.049 A 
ATOM     36  H   UNL A   1      45.506  28.271  27.975  1.00  0.00     0.167 HD
ATOM     37  C   UNL A   1      46.733  25.810  27.252  1.00  0.00     0.074 A 
ATOM     38  C   UNL A   1      46.901  24.418  26.885  1.00  0.00     0.031 C 
ATOM     39  C   UNL A   1      47.746  26.706  27.344  1.00  0.00     0.037 A 
BRANCH  26  40
ATOM     40  C   UNL A   1      45.941  32.435  28.824  1.00  0.00     0.057 A 
ATOM     41  C   UNL A   1      46.217  32.948  30.098  1.00  0.00     0.134 A 
ATOM     42  C   UNL A   1      46.049  33.315  27.739  1.00  0.00     0.134 A 
ATOM     43  F   UNL A   1      46.124  32.164  31.183  1.00  0.00    -0.206 F 
ATOM     44  C   UNL A   1      46.547  34.292  30.289  1.00  0.00     0.040 A 
ATOM     45  C   UNL A   1      46.407  34.652  27.914  1.00  0.00     0.040 A 
ATOM     46  F   UNL A   1      45.809  32.890  26.489  1.00  0.00    -0.206 F 
ATOM     47  C   UNL A   1      46.648  35.148  29.194  1.00  0.00     0.006 A 
ENDBRANCH  26  40
BRANCH  27  48
ATOM     48  C   UNL A   1      42.894  23.086  27.101  1.00  0.00     0.057 A 
ATOM     49  C   UNL A   1      42.571  22.189  28.123  1.00  0.00     0.134 A 
ATOM     50  C   UNL A   1      42.715  22.653  25.780  1.00  0.00     0.134 A 
ATOM     51  F   UNL A   1      42.735  22.542  29.407  1.00  0.00    -0.206 F 
ATOM     52  C   UNL A   1      42.088  20.909  27.845  1.00  0.00     0.040 A 
ATOM     53  C   UNL A   1      42.210  21.387  25.488  1.00  0.00     0.040 A 
ATOM     54  F   UNL A   1      42.997  23.472  24.755  1.00  0.00    -0.206 F 
ATOM     55  C   UNL A   1      41.898  20.509  26.524  1.00  0.00     0.006 A 
ENDBRANCH  27  48
BRANCH  39  56
ATOM     56  C   UNL A   1      49.139  26.204  27.095  1.00  0.00     0.057 A 
ATOM     57  C   UNL A   1      49.748  26.289  25.838  1.00  0.00     0.134 A 
ATOM     58  C   UNL A   1      49.902  25.690  28.152  1.00  0.00     0.134 A 
ATOM     59  F   UNL A   1      49.067  26.758  24.782  1.00  0.00    -0.206 F 
ATOM     60  C   UNL A   1      51.064  25.870  25.638  1.00  0.00     0.040 A 
ATOM     61  C   UNL A   1      51.227  25.292  27.969  1.00  0.00     0.040 A 
ATOM     62  F   UNL A   1      49.380  25.588  29.384  1.00  0.00    -0.206 F 
ATOM     63  C   UNL A   1      51.811  25.379  26.708  1.00  0.00     0.006 A 
ENDBRANCH  39  56
ENDBRANCH  13  14
ENDBRANCH   6   8
ENDBRANCH   3   4
ENDBRANCH   2   3
ENDBRANCH   1   2
BRANCH   1  64
ATOM     64  N   UNL A   1      31.937  28.049  26.914  1.00  0.00    -0.352 N 
ATOM     65  C   UNL A   1      31.469  26.967  26.201  1.00  0.00     0.255 C 
ATOM     66  H   UNL A   1      31.964  27.917  27.889  1.00  0.00     0.163 HD
ATOM     67  O   UNL A   1      31.040  25.990  26.814  1.00  0.00    -0.269 OA
BRANCH  65  68
ATOM     68  C   UNL A   1      31.485  26.963  24.722  1.00  0.00     0.082 A 
ATOM     69  C   UNL A   1      30.484  27.641  24.016  1.00  0.00     0.019 A 
ATOM     70  C   UNL A   1      32.530  26.344  24.012  1.00  0.00     0.139 A 
ATOM     71  C   UNL A   1      30.471  27.588  22.631  1.00  0.00     0.021 A 
ATOM     72  N   UNL A   1      32.490  26.261  22.663  1.00  0.00    -0.239 NA
ATOM     73  C   UNL A   1      31.477  26.875  22.007  1.00  0.00     0.113 A 
BRANCH  70  74
ATOM     74  N   UNL A   1      33.629  25.812  24.675  1.00  0.00    -0.363 N 
ATOM     75  H   UNL A   1      33.904  26.205  25.535  1.00  0.00     0.162 HD
BRANCH  74  76
ATOM     76  C   UNL A   1      34.390  24.685  24.134  1.00  0.00     0.184 C 
BRANCH  76  77
ATOM     77  C   UNL A   1      34.567  23.493  25.154  1.00  0.00     0.234 C 
BRANCH  77  78
ATOM     78  N   UNL A   1      33.657  22.303  25.180  1.00  0.00    -0.323 N 
ATOM     79  C   UNL A   1      32.530  22.262  24.225  1.00  0.00     0.291 C 
ATOM     80  C   UNL A   1      33.135  21.862  26.482  1.00  0.00     0.291 C 
ATOM     81  H   UNL A   1      34.374  21.647  24.868  1.00  0.00     0.348 HD
ATOM     82  C   UNL A   1      31.302  23.051  24.697  1.00  0.00     0.221 C 
ATOM     83  C   UNL A   1      31.884  22.630  26.946  1.00  0.00     0.221 C 
ATOM     84  O   UNL A   1      30.837  22.565  25.963  1.00  0.00    -0.370 OA
ENDBRANCH  77  78
BRANCH  77  85
ATOM     85  C   UNL A   1      36.050  23.075  25.243  1.00  0.00     0.011 A 
ATOM     86  C   UNL A   1      36.487  21.815  24.791  1.00  0.00     0.010 A 
ATOM     87  C   UNL A   1      36.964  23.886  25.936  1.00  0.00     0.010 A 
ATOM     88  C   UNL A   1      37.759  21.342  25.116  1.00  0.00     0.001 A 
ATOM     89  C   UNL A   1      38.248  23.423  26.231  1.00  0.00     0.001 A 
ATOM     90  C   UNL A   1      38.634  22.140  25.848  1.00  0.00     0.000 A 
ENDBRANCH  77  85
ENDBRANCH  76  77
ENDBRANCH  74  76
ENDBRANCH  70  74
ENDBRANCH  65  68
ENDBRANCH   1  64
TORSDOF 15
ENDMDL
