MODEL 1
REMARK VINA RESULT:     -12.8      0.000      0.000
REMARK SMILES O=C(NC1(C(=O)NCCCNC(=O)c2ccc(-c3c4nc(c(-c5c(F)cccc5F)c5ccc([nH]5)c(-c5c(F)cccc5F)c5nc(c(-c6c(F)cccc6F)c6ccc3[nH]6)C=C5)C=C4)cc2)CC[NH2+]CC1)OCC1c2ccccc2-c2ccccc21
REMARK SMILES IDX 8 1 7 2 5 3 6 4 4 6 68 7 72 8 69 9 71 10 70 11 3 14 1 15
REMARK SMILES IDX 2 16 73 18 74 19 75 20 76 21 87 22 77 23 81 24 82 25 86 26
REMARK SMILES IDX 78 27 80 28 83 29 85 30 79 31 84 32 9 33 10 34 11 35 12 36
REMARK SMILES IDX 13 38 14 39 15 40 67 41 16 42 66 43 17 44 18 45 19 46 60 47
REMARK SMILES IDX 20 48 65 49 59 50 61 51 21 52 64 53 58 54 57 55 22 57 48 58
REMARK SMILES IDX 31 59 47 60 32 61 35 62 46 63 62 64 33 65 34 66 45 68 63 69
REMARK SMILES IDX 36 70 23 71 24 72 29 73 25 74 26 75 28 76 30 77 27 78 49 79
REMARK SMILES IDX 50 80 55 81 51 82 52 83 54 84 56 85 53 86 37 87 38 88 43 89
REMARK SMILES IDX 39 90 40 91 42 92 44 93 41 94
REMARK H PARENT 7 5 70 12 70 13 3 17 11 37 61 56 35 67
REMARK Flexibility Score: inf
ROOT
ATOM      1  C   UNL A   1      34.009  26.725  25.582  1.00  0.00     0.117 C 
ENDROOT
BRANCH   1   2
ATOM      2  N   UNL A   1      34.039  26.530  24.146  1.00  0.00    -0.354 N 
ATOM      3  C   UNL A   1      33.110  26.505  23.161  1.00  0.00     0.246 C 
ATOM      4  O   UNL A   1      33.605  26.450  22.020  1.00  0.00    -0.272 OA
ATOM      5  H   UNL A   1      34.950  26.377  23.806  1.00  0.00     0.163 HD
BRANCH   3   6
ATOM      6  C   UNL A   1      31.549  26.496  23.281  1.00  0.00     0.132 C 
ATOM      7  C   UNL A   1      30.773  26.754  24.548  1.00  0.00     0.100 C 
ATOM      8  C   UNL A   1      31.035  27.667  22.378  1.00  0.00     0.100 C 
ATOM      9  C   UNL A   1      29.293  26.437  24.253  1.00  0.00     0.263 C 
ATOM     10  C   UNL A   1      29.621  28.250  22.682  1.00  0.00     0.263 C 
ATOM     11  N   UNL A   1      28.670  27.456  23.445  1.00  0.00    -0.346 N 
ATOM     12  H   UNL A   1      28.146  28.079  24.059  1.00  0.00     0.346 HD
ATOM     13  H   UNL A   1      28.066  26.981  22.773  1.00  0.00     0.346 HD
BRANCH   6  14
ATOM     14  N   UNL A   1      31.205  25.116  22.778  1.00  0.00    -0.307 N 
ATOM     15  O   UNL A   1      30.862  22.876  23.099  1.00  0.00    -0.225 OA
ATOM     16  C   UNL A   1      31.440  23.902  23.415  1.00  0.00     0.408 C 
ATOM     17  H   UNL A   1      30.764  25.070  21.899  1.00  0.00     0.168 HD
BRANCH  16  18
ATOM     18  O   UNL A   1      32.286  23.998  24.472  1.00  0.00    -0.449 OA
BRANCH  18  19
ATOM     19  C   UNL A   1      32.373  22.979  25.564  1.00  0.00     0.248 C 
BRANCH  19  20
ATOM     20  C   UNL A   1      33.551  22.015  25.168  1.00  0.00     0.088 C 
ATOM     21  C   UNL A   1      35.039  22.301  25.137  1.00  0.00    -0.029 A 
ATOM     22  C   UNL A   1      33.485  20.669  24.413  1.00  0.00    -0.029 A 
ATOM     23  C   UNL A   1      35.746  23.444  25.438  1.00  0.00     0.005 A 
ATOM     24  C   UNL A   1      35.698  21.045  24.953  1.00  0.00    -0.014 A 
ATOM     25  C   UNL A   1      34.712  20.021  24.662  1.00  0.00    -0.014 A 
ATOM     26  C   UNL A   1      32.485  19.969  23.770  1.00  0.00     0.005 A 
ATOM     27  C   UNL A   1      37.135  23.323  25.548  1.00  0.00     0.000 A 
ATOM     28  C   UNL A   1      37.067  20.931  25.065  1.00  0.00     0.009 A 
ATOM     29  C   UNL A   1      34.786  18.637  24.700  1.00  0.00     0.009 A 
ATOM     30  C   UNL A   1      32.552  18.566  23.778  1.00  0.00     0.000 A 
ATOM     31  C   UNL A   1      37.785  22.084  25.371  1.00  0.00     0.001 A 
ATOM     32  C   UNL A   1      33.661  17.905  24.323  1.00  0.00     0.001 A 
ENDBRANCH  19  20
ENDBRANCH  18  19
ENDBRANCH  16  18
ENDBRANCH   6  14
ENDBRANCH   3   6
ENDBRANCH   1   2
BRANCH   1  33
ATOM     33  C   UNL A   1      33.954  28.205  25.978  1.00  0.00     0.042 C 
BRANCH  33  34
ATOM     34  C   UNL A   1      33.347  28.553  27.343  1.00  0.00     0.118 C 
BRANCH  34  35
ATOM     35  N   UNL A   1      33.478  29.967  27.683  1.00  0.00    -0.352 N 
ATOM     36  C   UNL A   1      34.488  30.712  28.248  1.00  0.00     0.251 C 
ATOM     37  H   UNL A   1      32.679  30.497  27.463  1.00  0.00     0.163 HD
ATOM     38  O   UNL A   1      34.226  31.874  28.564  1.00  0.00    -0.269 OA
BRANCH  36  39
ATOM     39  C   UNL A   1      35.863  30.198  28.511  1.00  0.00     0.039 A 
ATOM     40  C   UNL A   1      36.781  30.201  27.447  1.00  0.00     0.014 A 
ATOM     41  C   UNL A   1      36.260  29.633  29.723  1.00  0.00     0.014 A 
ATOM     42  C   UNL A   1      38.084  29.712  27.615  1.00  0.00     0.010 A 
ATOM     43  C   UNL A   1      37.586  29.213  29.915  1.00  0.00     0.010 A 
ATOM     44  C   UNL A   1      38.519  29.252  28.866  1.00  0.00    -0.014 A 
BRANCH  44  45
ATOM     45  C   UNL A   1      39.939  28.842  29.093  1.00  0.00     0.031 A 
ATOM     46  C   UNL A   1      40.940  29.794  29.700  1.00  0.00     0.074 A 
ATOM     47  C   UNL A   1      40.353  27.620  28.698  1.00  0.00     0.049 A 
ATOM     48  N   UNL A   1      42.226  29.630  29.897  1.00  0.00    -0.248 NA
ATOM     49  C   UNL A   1      40.436  31.108  30.125  1.00  0.00     0.031 C 
ATOM     50  C   UNL A   1      39.507  26.606  28.064  1.00  0.00     0.029 A 
ATOM     51  N   UNL A   1      41.590  27.023  28.760  1.00  0.00    -0.354 N 
ATOM     52  C   UNL A   1      42.686  30.818  30.455  1.00  0.00     0.074 A 
ATOM     53  C   UNL A   1      41.549  31.713  30.520  1.00  0.00     0.031 C 
ATOM     54  C   UNL A   1      40.243  25.513  27.810  1.00  0.00     0.029 A 
ATOM     55  C   UNL A   1      41.621  25.756  28.222  1.00  0.00     0.049 A 
ATOM     56  H   UNL A   1      42.379  27.460  29.152  1.00  0.00     0.167 HD
ATOM     57  C   UNL A   1      43.930  31.132  30.892  1.00  0.00     0.037 A 
ATOM     58  C   UNL A   1      42.641  24.891  28.064  1.00  0.00     0.037 A 
ATOM     59  C   UNL A   1      45.063  30.241  30.845  1.00  0.00     0.049 A 
ATOM     60  C   UNL A   1      44.017  25.273  28.537  1.00  0.00     0.074 A 
ATOM     61  C   UNL A   1      46.350  30.459  31.308  1.00  0.00     0.029 A 
ATOM     62  N   UNL A   1      45.046  28.964  30.304  1.00  0.00    -0.354 N 
ATOM     63  N   UNL A   1      44.416  26.380  29.116  1.00  0.00    -0.248 NA
ATOM     64  C   UNL A   1      45.085  24.281  28.341  1.00  0.00     0.031 C 
ATOM     65  C   UNL A   1      47.124  29.334  31.004  1.00  0.00     0.029 A 
ATOM     66  C   UNL A   1      46.306  28.393  30.402  1.00  0.00     0.049 A 
ATOM     67  H   UNL A   1      44.258  28.529  29.908  1.00  0.00     0.167 HD
ATOM     68  C   UNL A   1      45.770  26.205  29.377  1.00  0.00     0.074 A 
ATOM     69  C   UNL A   1      46.119  24.878  28.916  1.00  0.00     0.031 C 
ATOM     70  C   UNL A   1      46.646  27.069  29.945  1.00  0.00     0.037 A 
BRANCH  57  71
ATOM     71  C   UNL A   1      44.144  32.502  31.473  1.00  0.00     0.057 A 
ATOM     72  C   UNL A   1      44.498  33.596  30.672  1.00  0.00     0.134 A 
ATOM     73  C   UNL A   1      43.930  32.746  32.836  1.00  0.00     0.134 A 
ATOM     74  F   UNL A   1      44.724  33.431  29.359  1.00  0.00    -0.206 F 
ATOM     75  C   UNL A   1      44.652  34.876  31.207  1.00  0.00     0.040 A 
ATOM     76  C   UNL A   1      44.053  34.027  33.378  1.00  0.00     0.040 A 
ATOM     77  F   UNL A   1      43.576  31.748  33.660  1.00  0.00    -0.206 F 
ATOM     78  C   UNL A   1      44.420  35.096  32.563  1.00  0.00     0.006 A 
ENDBRANCH  57  71
BRANCH  58  79
ATOM     79  C   UNL A   1      42.410  23.568  27.425  1.00  0.00     0.057 A 
ATOM     80  C   UNL A   1      42.080  22.443  28.190  1.00  0.00     0.134 A 
ATOM     81  C   UNL A   1      42.546  23.388  26.044  1.00  0.00     0.134 A 
ATOM     82  F   UNL A   1      41.956  22.544  29.522  1.00  0.00    -0.206 F 
ATOM     83  C   UNL A   1      41.924  21.182  27.610  1.00  0.00     0.040 A 
ATOM     84  C   UNL A   1      42.362  22.140  25.446  1.00  0.00     0.040 A 
ATOM     85  F   UNL A   1      42.853  24.426  25.252  1.00  0.00    -0.206 F 
ATOM     86  C   UNL A   1      42.061  21.030  26.233  1.00  0.00     0.006 A 
ENDBRANCH  58  79
BRANCH  70  87
ATOM     87  C   UNL A   1      48.058  26.592  30.133  1.00  0.00     0.057 A 
ATOM     88  C   UNL A   1      49.048  26.802  29.163  1.00  0.00     0.134 A 
ATOM     89  C   UNL A   1      48.439  25.933  31.308  1.00  0.00     0.134 A 
ATOM     90  F   UNL A   1      48.748  27.416  28.008  1.00  0.00    -0.206 F 
ATOM     91  C   UNL A   1      50.355  26.345  29.342  1.00  0.00     0.040 A 
ATOM     92  C   UNL A   1      49.749  25.498  31.512  1.00  0.00     0.040 A 
ATOM     93  F   UNL A   1      47.545  25.708  32.284  1.00  0.00    -0.206 F 
ATOM     94  C   UNL A   1      50.710  25.696  30.523  1.00  0.00     0.006 A 
ENDBRANCH  70  87
ENDBRANCH  44  45
ENDBRANCH  36  39
ENDBRANCH  34  35
ENDBRANCH  33  34
ENDBRANCH   1  33
TORSDOF 14
ENDMDL
MODEL 2
REMARK VINA RESULT:     -12.6      1.270      2.125
REMARK SMILES O=C(NC1(C(=O)NCCCNC(=O)c2ccc(-c3c4nc(c(-c5c(F)cccc5F)c5ccc([nH]5)c(-c5c(F)cccc5F)c5nc(c(-c6c(F)cccc6F)c6ccc3[nH]6)C=C5)C=C4)cc2)CC[NH2+]CC1)OCC1c2ccccc2-c2ccccc21
REMARK SMILES IDX 8 1 7 2 5 3 6 4 4 6 68 7 72 8 69 9 71 10 70 11 3 14 1 15
REMARK SMILES IDX 2 16 73 18 74 19 75 20 76 21 87 22 77 23 81 24 82 25 86 26
REMARK SMILES IDX 78 27 80 28 83 29 85 30 79 31 84 32 9 33 10 34 11 35 12 36
REMARK SMILES IDX 13 38 14 39 15 40 67 41 16 42 66 43 17 44 18 45 19 46 60 47
REMARK SMILES IDX 20 48 65 49 59 50 61 51 21 52 64 53 58 54 57 55 22 57 48 58
REMARK SMILES IDX 31 59 47 60 32 61 35 62 46 63 62 64 33 65 34 66 45 68 63 69
REMARK SMILES IDX 36 70 23 71 24 72 29 73 25 74 26 75 28 76 30 77 27 78 49 79
REMARK SMILES IDX 50 80 55 81 51 82 52 83 54 84 56 85 53 86 37 87 38 88 43 89
REMARK SMILES IDX 39 90 40 91 42 92 44 93 41 94
REMARK H PARENT 7 5 70 12 70 13 3 17 11 37 61 56 35 67
REMARK Flexibility Score: inf
ROOT
ATOM      1  C   UNL A   1      32.298  28.203  24.521  1.00  0.00     0.117 C 
ENDROOT
BRANCH   1   2
ATOM      2  N   UNL A   1      31.383  27.638  25.494  1.00  0.00    -0.354 N 
ATOM      3  C   UNL A   1      30.885  26.403  25.738  1.00  0.00     0.246 C 
ATOM      4  O   UNL A   1      30.226  26.340  26.793  1.00  0.00    -0.272 OA
ATOM      5  H   UNL A   1      31.041  28.313  26.125  1.00  0.00     0.163 HD
BRANCH   3   6
ATOM      6  C   UNL A   1      30.998  25.106  24.868  1.00  0.00     0.132 C 
ATOM      7  C   UNL A   1      30.537  24.975  23.439  1.00  0.00     0.100 C 
ATOM      8  C   UNL A   1      32.529  24.818  24.711  1.00  0.00     0.100 C 
ATOM      9  C   UNL A   1      30.645  23.486  23.056  1.00  0.00     0.263 C 
ATOM     10  C   UNL A   1      32.981  23.942  23.503  1.00  0.00     0.263 C 
ATOM     11  N   UNL A   1      32.012  23.077  22.846  1.00  0.00    -0.346 N 
ATOM     12  H   UNL A   1      32.201  23.082  21.844  1.00  0.00     0.346 HD
ATOM     13  H   UNL A   1      32.115  22.146  23.252  1.00  0.00     0.346 HD
BRANCH   6  14
ATOM     14  N   UNL A   1      30.252  24.101  25.709  1.00  0.00    -0.307 N 
ATOM     15  O   UNL A   1      30.002  22.838  27.602  1.00  0.00    -0.225 OA
ATOM     16  C   UNL A   1      30.738  23.381  26.795  1.00  0.00     0.408 C 
ATOM     17  H   UNL A   1      29.313  23.936  25.461  1.00  0.00     0.168 HD
BRANCH  16  18
ATOM     18  O   UNL A   1      32.089  23.432  26.919  1.00  0.00    -0.449 OA
BRANCH  18  19
ATOM     19  C   UNL A   1      32.901  22.380  27.606  1.00  0.00     0.248 C 
BRANCH  19  20
ATOM     20  C   UNL A   1      33.849  21.773  26.507  1.00  0.00     0.088 C 
ATOM     21  C   UNL A   1      35.178  22.304  26.005  1.00  0.00    -0.029 A 
ATOM     22  C   UNL A   1      33.533  20.694  25.450  1.00  0.00    -0.029 A 
ATOM     23  C   UNL A   1      35.896  23.423  26.361  1.00  0.00     0.005 A 
ATOM     24  C   UNL A   1      35.753  21.276  25.195  1.00  0.00    -0.014 A 
ATOM     25  C   UNL A   1      34.779  20.219  24.993  1.00  0.00    -0.014 A 
ATOM     26  C   UNL A   1      32.388  20.037  25.050  1.00  0.00     0.005 A 
ATOM     27  C   UNL A   1      37.210  23.512  25.889  1.00  0.00     0.000 A 
ATOM     28  C   UNL A   1      37.049  21.367  24.734  1.00  0.00     0.009 A 
ATOM     29  C   UNL A   1      34.921  18.910  24.558  1.00  0.00     0.009 A 
ATOM     30  C   UNL A   1      32.511  18.718  24.586  1.00  0.00     0.000 A 
ATOM     31  C   UNL A   1      37.780  22.497  25.093  1.00  0.00     0.001 A 
ATOM     32  C   UNL A   1      33.774  18.129  24.426  1.00  0.00     0.001 A 
ENDBRANCH  19  20
ENDBRANCH  18  19
ENDBRANCH  16  18
ENDBRANCH   6  14
ENDBRANCH   3   6
ENDBRANCH   1   2
BRANCH   1  33
ATOM     33  C   UNL A   1      33.750  28.214  25.010  1.00  0.00     0.042 C 
BRANCH  33  34
ATOM     34  C   UNL A   1      33.990  28.194  26.525  1.00  0.00     0.118 C 
BRANCH  34  35
ATOM     35  N   UNL A   1      33.856  29.510  27.142  1.00  0.00    -0.352 N 
ATOM     36  C   UNL A   1      34.698  30.283  27.909  1.00  0.00     0.251 C 
ATOM     37  H   UNL A   1      32.983  29.933  26.975  1.00  0.00     0.163 HD
ATOM     38  O   UNL A   1      34.223  31.296  28.427  1.00  0.00    -0.269 OA
BRANCH  36  39
ATOM     39  C   UNL A   1      36.132  29.964  28.161  1.00  0.00     0.039 A 
ATOM     40  C   UNL A   1      36.486  29.486  29.436  1.00  0.00     0.014 A 
ATOM     41  C   UNL A   1      37.152  30.197  27.238  1.00  0.00     0.014 A 
ATOM     42  C   UNL A   1      37.819  29.187  29.751  1.00  0.00     0.010 A 
ATOM     43  C   UNL A   1      38.475  29.826  27.527  1.00  0.00     0.010 A 
ATOM     44  C   UNL A   1      38.828  29.311  28.784  1.00  0.00    -0.014 A 
BRANCH  44  45
ATOM     45  C   UNL A   1      40.232  28.881  29.066  1.00  0.00     0.031 A 
ATOM     46  C   UNL A   1      41.215  29.809  29.734  1.00  0.00     0.074 A 
ATOM     47  C   UNL A   1      40.649  27.660  28.667  1.00  0.00     0.049 A 
ATOM     48  N   UNL A   1      42.489  29.626  29.985  1.00  0.00    -0.248 NA
ATOM     49  C   UNL A   1      40.708  31.121  30.160  1.00  0.00     0.031 C 
ATOM     50  C   UNL A   1      39.821  26.669  27.977  1.00  0.00     0.029 A 
ATOM     51  N   UNL A   1      41.875  27.047  28.772  1.00  0.00    -0.354 N 
ATOM     52  C   UNL A   1      42.937  30.798  30.584  1.00  0.00     0.074 A 
ATOM     53  C   UNL A   1      41.808  31.705  30.616  1.00  0.00     0.031 C 
ATOM     54  C   UNL A   1      40.554  25.571  27.736  1.00  0.00     0.029 A 
ATOM     55  C   UNL A   1      41.916  25.791  28.213  1.00  0.00     0.049 A 
ATOM     56  H   UNL A   1      42.651  27.468  29.207  1.00  0.00     0.167 HD
ATOM     57  C   UNL A   1      44.164  31.089  31.082  1.00  0.00     0.037 A 
ATOM     58  C   UNL A   1      42.932  24.916  28.084  1.00  0.00     0.037 A 
ATOM     59  C   UNL A   1      45.288  30.185  31.069  1.00  0.00     0.049 A 
ATOM     60  C   UNL A   1      44.289  25.272  28.625  1.00  0.00     0.074 A 
ATOM     61  C   UNL A   1      46.555  30.379  31.593  1.00  0.00     0.029 A 
ATOM     62  N   UNL A   1      45.281  28.919  30.504  1.00  0.00    -0.354 N 
ATOM     63  N   UNL A   1      44.675  26.364  29.242  1.00  0.00    -0.248 NA
ATOM     64  C   UNL A   1      45.354  24.272  28.458  1.00  0.00     0.031 C 
ATOM     65  C   UNL A   1      47.329  29.250  31.302  1.00  0.00     0.029 A 
ATOM     66  C   UNL A   1      46.528  28.330  30.647  1.00  0.00     0.049 A 
ATOM     67  H   UNL A   1      44.506  28.500  30.065  1.00  0.00     0.167 HD
ATOM     68  C   UNL A   1      46.013  26.168  29.559  1.00  0.00     0.074 A 
ATOM     69  C   UNL A   1      46.368  24.846  29.089  1.00  0.00     0.031 C 
ATOM     70  C   UNL A   1      46.873  27.011  30.182  1.00  0.00     0.037 A 
BRANCH  57  71
ATOM     71  C   UNL A   1      44.367  32.446  31.697  1.00  0.00     0.057 A 
ATOM     72  C   UNL A   1      44.140  32.678  33.061  1.00  0.00     0.134 A 
ATOM     73  C   UNL A   1      44.857  33.515  30.935  1.00  0.00     0.134 A 
ATOM     74  F   UNL A   1      43.666  31.700  33.847  1.00  0.00    -0.206 F 
ATOM     75  C   UNL A   1      44.373  33.928  33.639  1.00  0.00     0.040 A 
ATOM     76  C   UNL A   1      45.120  34.761  31.508  1.00  0.00     0.040 A 
ATOM     77  F   UNL A   1      45.109  33.360  29.627  1.00  0.00    -0.206 F 
ATOM     78  C   UNL A   1      44.873  34.971  32.863  1.00  0.00     0.006 A 
ENDBRANCH  57  71
BRANCH  58  79
ATOM     79  C   UNL A   1      42.714  23.607  27.412  1.00  0.00     0.057 A 
ATOM     80  C   UNL A   1      42.887  23.466  26.030  1.00  0.00     0.134 A 
ATOM     81  C   UNL A   1      42.294  22.479  28.126  1.00  0.00     0.134 A 
ATOM     82  F   UNL A   1      43.268  24.515  25.286  1.00  0.00    -0.206 F 
ATOM     83  C   UNL A   1      42.623  22.259  25.378  1.00  0.00     0.040 A 
ATOM     84  C   UNL A   1      42.057  21.258  27.491  1.00  0.00     0.040 A 
ATOM     85  F   UNL A   1      42.116  22.544  29.454  1.00  0.00    -0.206 F 
ATOM     86  C   UNL A   1      42.210  21.150  26.111  1.00  0.00     0.006 A 
ENDBRANCH  58  79
BRANCH  70  87
ATOM     87  C   UNL A   1      48.270  26.514  30.423  1.00  0.00     0.057 A 
ATOM     88  C   UNL A   1      49.311  26.755  29.516  1.00  0.00     0.134 A 
ATOM     89  C   UNL A   1      48.583  25.802  31.588  1.00  0.00     0.134 A 
ATOM     90  F   UNL A   1      49.077  27.419  28.374  1.00  0.00    -0.206 F 
ATOM     91  C   UNL A   1      50.604  26.279  29.744  1.00  0.00     0.040 A 
ATOM     92  C   UNL A   1      49.878  25.347  31.842  1.00  0.00     0.040 A 
ATOM     93  F   UNL A   1      47.637  25.544  32.505  1.00  0.00    -0.206 F 
ATOM     94  C   UNL A   1      50.891  25.577  30.913  1.00  0.00     0.006 A 
ENDBRANCH  70  87
ENDBRANCH  44  45
ENDBRANCH  36  39
ENDBRANCH  34  35
ENDBRANCH  33  34
ENDBRANCH   1  33
TORSDOF 14
ENDMDL
MODEL 3
REMARK VINA RESULT:     -12.6      2.748      8.286
REMARK SMILES O=C(NC1(C(=O)NCCCNC(=O)c2ccc(-c3c4nc(c(-c5c(F)cccc5F)c5ccc([nH]5)c(-c5c(F)cccc5F)c5nc(c(-c6c(F)cccc6F)c6ccc3[nH]6)C=C5)C=C4)cc2)CC[NH2+]CC1)OCC1c2ccccc2-c2ccccc21
REMARK SMILES IDX 8 1 7 2 5 3 6 4 4 6 68 7 72 8 69 9 71 10 70 11 3 14 1 15
REMARK SMILES IDX 2 16 73 18 74 19 75 20 76 21 87 22 77 23 81 24 82 25 86 26
REMARK SMILES IDX 78 27 80 28 83 29 85 30 79 31 84 32 9 33 10 34 11 35 12 36
REMARK SMILES IDX 13 38 14 39 15 40 67 41 16 42 66 43 17 44 18 45 19 46 60 47
REMARK SMILES IDX 20 48 65 49 59 50 61 51 21 52 64 53 58 54 57 55 22 57 48 58
REMARK SMILES IDX 31 59 47 60 32 61 35 62 46 63 62 64 33 65 34 66 45 68 63 69
REMARK SMILES IDX 36 70 23 71 24 72 29 73 25 74 26 75 28 76 30 77 27 78 49 79
REMARK SMILES IDX 50 80 55 81 51 82 52 83 54 84 56 85 53 86 37 87 38 88 43 89
REMARK SMILES IDX 39 90 40 91 42 92 44 93 41 94
REMARK H PARENT 7 5 70 12 70 13 3 17 11 37 61 56 35 67
REMARK Flexibility Score: inf
ROOT
ATOM      1  C   UNL A   1      34.925  24.518  25.751  1.00  0.00     0.117 C 
ENDROOT
BRANCH   1   2
ATOM      2  N   UNL A   1      33.720  24.150  26.468  1.00  0.00    -0.354 N 
ATOM      3  C   UNL A   1      32.692  23.299  26.243  1.00  0.00     0.246 C 
ATOM      4  O   UNL A   1      31.924  23.187  27.217  1.00  0.00    -0.272 OA
ATOM      5  H   UNL A   1      33.626  24.635  27.320  1.00  0.00     0.163 HD
BRANCH   3   6
ATOM      6  C   UNL A   1      32.342  22.500  24.942  1.00  0.00     0.132 C 
ATOM      7  C   UNL A   1      33.245  22.352  23.744  1.00  0.00     0.100 C 
ATOM      8  C   UNL A   1      32.184  21.004  25.378  1.00  0.00     0.100 C 
ATOM      9  C   UNL A   1      32.421  21.676  22.629  1.00  0.00     0.263 C 
ATOM     10  C   UNL A   1      32.359  19.908  24.283  1.00  0.00     0.263 C 
ATOM     11  N   UNL A   1      32.218  20.271  22.880  1.00  0.00    -0.346 N 
ATOM     12  H   UNL A   1      32.902  19.743  22.339  1.00  0.00     0.346 HD
ATOM     13  H   UNL A   1      31.259  20.051  22.607  1.00  0.00     0.346 HD
BRANCH   6  14
ATOM     14  N   UNL A   1      31.062  23.166  24.502  1.00  0.00    -0.307 N 
ATOM     15  O   UNL A   1      29.916  24.786  23.362  1.00  0.00    -0.225 OA
ATOM     16  C   UNL A   1      30.913  24.444  23.976  1.00  0.00     0.408 C 
ATOM     17  H   UNL A   1      30.239  22.634  24.599  1.00  0.00     0.168 HD
BRANCH  16  18
ATOM     18  O   UNL A   1      32.014  25.224  24.122  1.00  0.00    -0.449 OA
BRANCH  18  19
ATOM     19  C   UNL A   1      32.331  26.390  23.241  1.00  0.00     0.248 C 
BRANCH  19  20
ATOM     20  C   UNL A   1      31.805  27.665  23.997  1.00  0.00     0.088 C 
ATOM     21  C   UNL A   1      32.353  28.315  25.252  1.00  0.00    -0.029 A 
ATOM     22  C   UNL A   1      30.441  28.376  23.856  1.00  0.00    -0.029 A 
ATOM     23  C   UNL A   1      33.425  27.980  26.048  1.00  0.00     0.005 A 
ATOM     24  C   UNL A   1      31.684  29.571  25.393  1.00  0.00    -0.014 A 
ATOM     25  C   UNL A   1      30.609  29.656  24.421  1.00  0.00    -0.014 A 
ATOM     26  C   UNL A   1      29.271  28.099  23.181  1.00  0.00     0.005 A 
ATOM     27  C   UNL A   1      33.826  28.920  27.004  1.00  0.00     0.000 A 
ATOM     28  C   UNL A   1      32.085  30.494  26.335  1.00  0.00     0.009 A 
ATOM     29  C   UNL A   1      29.882  30.739  23.950  1.00  0.00     0.009 A 
ATOM     30  C   UNL A   1      28.507  29.180  22.714  1.00  0.00     0.000 A 
ATOM     31  C   UNL A   1      33.170  30.160  27.141  1.00  0.00     0.001 A 
ATOM     32  C   UNL A   1      28.866  30.499  23.026  1.00  0.00     0.001 A 
ENDBRANCH  19  20
ENDBRANCH  18  19
ENDBRANCH  16  18
ENDBRANCH   6  14
ENDBRANCH   3   6
ENDBRANCH   1   2
BRANCH   1  33
ATOM     33  C   UNL A   1      36.091  23.560  26.021  1.00  0.00     0.042 C 
BRANCH  33  34
ATOM     34  C   UNL A   1      37.168  23.428  24.937  1.00  0.00     0.118 C 
BRANCH  34  35
ATOM     35  N   UNL A   1      38.303  22.611  25.354  1.00  0.00    -0.352 N 
ATOM     36  C   UNL A   1      39.454  22.884  26.059  1.00  0.00     0.251 C 
ATOM     37  H   UNL A   1      38.231  21.671  25.075  1.00  0.00     0.163 HD
ATOM     38  O   UNL A   1      40.311  22.000  26.106  1.00  0.00    -0.269 OA
BRANCH  36  39
ATOM     39  C   UNL A   1      39.728  24.177  26.749  1.00  0.00     0.039 A 
ATOM     40  C   UNL A   1      39.189  24.364  28.033  1.00  0.00     0.014 A 
ATOM     41  C   UNL A   1      40.410  25.241  26.158  1.00  0.00     0.014 A 
ATOM     42  C   UNL A   1      39.387  25.563  28.732  1.00  0.00     0.010 A 
ATOM     43  C   UNL A   1      40.674  26.412  26.886  1.00  0.00     0.010 A 
ATOM     44  C   UNL A   1      40.171  26.589  28.185  1.00  0.00    -0.014 A 
BRANCH  44  45
ATOM     45  C   UNL A   1      40.494  27.822  28.967  1.00  0.00     0.031 A 
ATOM     46  C   UNL A   1      41.800  27.957  29.710  1.00  0.00     0.074 A 
ATOM     47  C   UNL A   1      39.581  28.812  29.060  1.00  0.00     0.049 A 
ATOM     48  N   UNL A   1      42.209  28.924  30.497  1.00  0.00    -0.248 NA
ATOM     49  C   UNL A   1      42.765  26.858  29.566  1.00  0.00     0.031 C 
ATOM     50  C   UNL A   1      38.261  28.805  28.426  1.00  0.00     0.029 A 
ATOM     51  N   UNL A   1      39.615  30.011  29.731  1.00  0.00    -0.354 N 
ATOM     52  C   UNL A   1      43.468  28.545  30.949  1.00  0.00     0.074 A 
ATOM     53  C   UNL A   1      43.735  27.237  30.387  1.00  0.00     0.031 C 
ATOM     54  C   UNL A   1      37.621  29.946  28.724  1.00  0.00     0.029 A 
ATOM     55  C   UNL A   1      38.462  30.750  29.604  1.00  0.00     0.049 A 
ATOM     56  H   UNL A   1      40.393  30.312  30.254  1.00  0.00     0.167 HD
ATOM     57  C   UNL A   1      44.332  29.226  31.741  1.00  0.00     0.037 A 
ATOM     58  C   UNL A   1      38.110  31.934  30.142  1.00  0.00     0.037 A 
ATOM     59  C   UNL A   1      44.081  30.535  32.291  1.00  0.00     0.049 A 
ATOM     60  C   UNL A   1      39.080  32.659  31.035  1.00  0.00     0.074 A 
ATOM     61  C   UNL A   1      44.919  31.320  33.065  1.00  0.00     0.029 A 
ATOM     62  N   UNL A   1      42.905  31.252  32.127  1.00  0.00    -0.354 N 
ATOM     63  N   UNL A   1      40.289  32.309  31.402  1.00  0.00    -0.248 NA
ATOM     64  C   UNL A   1      38.637  33.949  31.585  1.00  0.00     0.031 C 
ATOM     65  C   UNL A   1      44.234  32.490  33.409  1.00  0.00     0.029 A 
ATOM     66  C   UNL A   1      42.989  32.459  32.804  1.00  0.00     0.049 A 
ATOM     67  H   UNL A   1      42.126  30.948  31.607  1.00  0.00     0.167 HD
ATOM     68  C   UNL A   1      40.759  33.346  32.199  1.00  0.00     0.074 A 
ATOM     69  C   UNL A   1      39.716  34.348  32.244  1.00  0.00     0.031 C 
ATOM     70  C   UNL A   1      41.948  33.455  32.840  1.00  0.00     0.037 A 
BRANCH  57  71
ATOM     71  C   UNL A   1      45.650  28.576  32.063  1.00  0.00     0.057 A 
ATOM     72  C   UNL A   1      45.806  27.738  33.175  1.00  0.00     0.134 A 
ATOM     73  C   UNL A   1      46.756  28.735  31.217  1.00  0.00     0.134 A 
ATOM     74  F   UNL A   1      44.789  27.547  34.030  1.00  0.00    -0.206 F 
ATOM     75  C   UNL A   1      47.018  27.099  33.447  1.00  0.00     0.040 A 
ATOM     76  C   UNL A   1      47.964  28.079  31.463  1.00  0.00     0.040 A 
ATOM     77  F   UNL A   1      46.674  29.512  30.127  1.00  0.00    -0.206 F 
ATOM     78  C   UNL A   1      48.099  27.263  32.583  1.00  0.00     0.006 A 
ENDBRANCH  57  71
BRANCH  58  79
ATOM     79  C   UNL A   1      36.774  32.520  29.856  1.00  0.00     0.057 A 
ATOM     80  C   UNL A   1      36.595  33.444  28.820  1.00  0.00     0.134 A 
ATOM     81  C   UNL A   1      35.653  32.199  30.631  1.00  0.00     0.134 A 
ATOM     82  F   UNL A   1      37.634  33.810  28.055  1.00  0.00    -0.206 F 
ATOM     83  C   UNL A   1      35.359  34.050  28.583  1.00  0.00     0.040 A 
ATOM     84  C   UNL A   1      34.404  32.773  30.385  1.00  0.00     0.040 A 
ATOM     85  F   UNL A   1      35.753  31.315  31.635  1.00  0.00    -0.206 F 
ATOM     86  C   UNL A   1      34.258  33.711  29.365  1.00  0.00     0.006 A 
ENDBRANCH  58  79
BRANCH  70  87
ATOM     87  C   UNL A   1      42.199  34.718  33.614  1.00  0.00     0.057 A 
ATOM     88  C   UNL A   1      42.821  35.832  33.036  1.00  0.00     0.134 A 
ATOM     89  C   UNL A   1      41.794  34.828  34.950  1.00  0.00     0.134 A 
ATOM     90  F   UNL A   1      43.246  35.790  31.764  1.00  0.00    -0.206 F 
ATOM     91  C   UNL A   1      43.060  36.997  33.768  1.00  0.00     0.040 A 
ATOM     92  C   UNL A   1      41.999  35.998  35.683  1.00  0.00     0.040 A 
ATOM     93  F   UNL A   1      41.182  33.803  35.564  1.00  0.00    -0.206 F 
ATOM     94  C   UNL A   1      42.643  37.084  35.095  1.00  0.00     0.006 A 
ENDBRANCH  70  87
ENDBRANCH  44  45
ENDBRANCH  36  39
ENDBRANCH  34  35
ENDBRANCH  33  34
ENDBRANCH   1  33
TORSDOF 14
ENDMDL
