MODEL 1
REMARK VINA RESULT:     -11.8      0.000      0.000
REMARK SMILES C[NH2+][C@@]1(C(=O)NCCCNC(=O)c2ccc(-c3c4nc(c(-c5c(F)cccc5F)c5ccc([nH]5)c(-c5c(F)cccc5F)c5nc(c(-c6c(F)cccc6F)c6ccc3[nH]6)C=C5)C=C4)cc2)CC[C@H](Sc2ccc(C)c(C)c2)C1
REMARK SMILES IDX 8 1 7 2 6 3 4 4 5 5 3 7 67 8 79 9 68 10 69 11 2 12 1 13
REMARK SMILES IDX 70 16 71 17 72 18 78 19 73 20 76 21 74 22 77 23 75 24 9 25
REMARK SMILES IDX 10 26 11 27 12 29 13 30 14 31 66 32 15 33 65 34 16 35 17 36
REMARK SMILES IDX 18 37 59 38 19 39 64 40 58 41 60 42 20 43 63 44 57 45 56 46
REMARK SMILES IDX 21 48 47 49 30 50 46 51 31 52 34 53 45 54 61 55 32 56 33 57
REMARK SMILES IDX 44 59 62 60 35 61 22 62 23 63 28 64 24 65 25 66 27 67 29 68
REMARK SMILES IDX 26 69 48 70 49 71 54 72 50 73 51 74 53 75 55 76 52 77 36 78
REMARK SMILES IDX 37 79 42 80 38 81 39 82 41 83 43 84 40 85
REMARK H PARENT 6 6 2 14 2 15 10 28 60 47 34 58
REMARK Flexibility Score: inf
ROOT
ATOM      1  C   UNL A   1      31.054  31.927  26.482  1.00  0.00     0.042 C 
ENDROOT
BRANCH   1   2
ATOM      2  C   UNL A   1      31.066  30.937  25.332  1.00  0.00     0.118 C 
BRANCH   2   3
ATOM      3  N   UNL A   1      32.184  30.020  25.371  1.00  0.00    -0.351 N 
ATOM      4  C   UNL A   1      32.545  28.989  24.561  1.00  0.00     0.281 C 
ATOM      5  O   UNL A   1      33.685  28.550  24.769  1.00  0.00    -0.268 OA
ATOM      6  H   UNL A   1      32.798  30.171  26.126  1.00  0.00     0.163 HD
BRANCH   4   7
ATOM      7  C   UNL A   1      31.653  28.416  23.392  1.00  0.00     0.176 C 
ATOM      8  C   UNL A   1      30.211  28.175  23.899  1.00  0.00     0.080 C 
ATOM      9  C   UNL A   1      32.099  27.069  22.789  1.00  0.00     0.094 C 
ATOM     10  C   UNL A   1      30.011  26.667  24.017  1.00  0.00     0.022 C 
ATOM     11  C   UNL A   1      30.932  26.075  22.961  1.00  0.00     0.058 C 
BRANCH   7  12
ATOM     12  N   UNL A   1      31.538  29.455  22.318  1.00  0.00    -0.336 N 
ATOM     13  C   UNL A   1      30.172  29.782  21.909  1.00  0.00     0.331 C 
ATOM     14  H   UNL A   1      31.979  30.309  22.657  1.00  0.00     0.346 HD
ATOM     15  H   UNL A   1      31.992  29.061  21.493  1.00  0.00     0.346 HD
ENDBRANCH   7  12
BRANCH  11  16
ATOM     16  S   UNL A   1      31.586  24.346  23.070  1.00  0.00    -0.122 SA
BRANCH  16  17
ATOM     17  C   UNL A   1      33.170  24.369  23.893  1.00  0.00     0.008 A 
ATOM     18  C   UNL A   1      33.359  24.822  25.194  1.00  0.00     0.015 A 
ATOM     19  C   UNL A   1      34.251  23.738  23.253  1.00  0.00     0.018 A 
ATOM     20  C   UNL A   1      34.606  24.697  25.820  1.00  0.00     0.005 A 
ATOM     21  C   UNL A   1      35.513  23.602  23.868  1.00  0.00    -0.047 A 
ATOM     22  C   UNL A   1      35.693  24.087  25.173  1.00  0.00    -0.048 A 
ATOM     23  C   UNL A   1      36.610  22.889  23.129  1.00  0.00     0.044 C 
ATOM     24  C   UNL A   1      36.972  23.914  25.949  1.00  0.00     0.044 C 
ENDBRANCH  16  17
ENDBRANCH  11  16
ENDBRANCH   4   7
ENDBRANCH   2   3
ENDBRANCH   1   2
BRANCH   1  25
ATOM     25  C   UNL A   1      32.430  32.445  26.853  1.00  0.00     0.118 C 
BRANCH  25  26
ATOM     26  N   UNL A   1      32.404  33.774  27.456  1.00  0.00    -0.352 N 
ATOM     27  C   UNL A   1      33.153  34.395  28.425  1.00  0.00     0.251 C 
ATOM     28  H   UNL A   1      31.697  34.350  27.087  1.00  0.00     0.163 HD
ATOM     29  O   UNL A   1      32.792  35.511  28.806  1.00  0.00    -0.269 OA
BRANCH  27  30
ATOM     30  C   UNL A   1      34.341  33.772  29.058  1.00  0.00     0.039 A 
ATOM     31  C   UNL A   1      35.609  34.294  28.760  1.00  0.00     0.014 A 
ATOM     32  C   UNL A   1      34.254  32.667  29.899  1.00  0.00     0.014 A 
ATOM     33  C   UNL A   1      36.754  33.786  29.382  1.00  0.00     0.010 A 
ATOM     34  C   UNL A   1      35.371  32.226  30.599  1.00  0.00     0.010 A 
ATOM     35  C   UNL A   1      36.634  32.770  30.336  1.00  0.00    -0.014 A 
BRANCH  35  36
ATOM     36  C   UNL A   1      37.813  32.163  30.993  1.00  0.00     0.031 A 
ATOM     37  C   UNL A   1      38.550  31.066  30.278  1.00  0.00     0.074 A 
ATOM     38  C   UNL A   1      38.158  32.525  32.242  1.00  0.00     0.049 A 
ATOM     39  N   UNL A   1      39.531  30.312  30.703  1.00  0.00    -0.248 NA
ATOM     40  C   UNL A   1      38.096  30.750  28.914  1.00  0.00     0.031 C 
ATOM     41  C   UNL A   1      37.489  33.547  33.045  1.00  0.00     0.029 A 
ATOM     42  N   UNL A   1      39.149  32.052  33.063  1.00  0.00    -0.354 N 
ATOM     43  C   UNL A   1      39.794  29.427  29.667  1.00  0.00     0.074 A 
ATOM     44  C   UNL A   1      38.833  29.691  28.621  1.00  0.00     0.031 C 
ATOM     45  C   UNL A   1      38.092  33.630  34.243  1.00  0.00     0.029 A 
ATOM     46  C   UNL A   1      39.171  32.649  34.300  1.00  0.00     0.049 A 
ATOM     47  H   UNL A   1      39.786  31.351  32.792  1.00  0.00     0.167 HD
ATOM     48  C   UNL A   1      40.772  28.495  29.582  1.00  0.00     0.037 A 
ATOM     49  C   UNL A   1      39.972  32.418  35.358  1.00  0.00     0.037 A 
ATOM     50  C   UNL A   1      41.738  28.253  30.617  1.00  0.00     0.049 A 
ATOM     51  C   UNL A   1      41.046  31.370  35.244  1.00  0.00     0.074 A 
ATOM     52  C   UNL A   1      42.802  27.370  30.617  1.00  0.00     0.029 A 
ATOM     53  N   UNL A   1      41.753  28.904  31.842  1.00  0.00    -0.354 N 
ATOM     54  N   UNL A   1      41.335  30.588  34.230  1.00  0.00    -0.248 NA
ATOM     55  C   UNL A   1      41.912  31.178  36.415  1.00  0.00     0.031 C 
ATOM     56  C   UNL A   1      43.439  27.461  31.859  1.00  0.00     0.029 A 
ATOM     57  C   UNL A   1      42.797  28.430  32.614  1.00  0.00     0.049 A 
ATOM     58  H   UNL A   1      41.114  29.600  32.120  1.00  0.00     0.167 HD
ATOM     59  C   UNL A   1      42.435  29.840  34.627  1.00  0.00     0.074 A 
ATOM     60  C   UNL A   1      42.766  30.266  35.972  1.00  0.00     0.031 C 
ATOM     61  C   UNL A   1      43.115  28.887  33.943  1.00  0.00     0.037 A 
BRANCH  48  62
ATOM     62  C   UNL A   1      40.831  27.682  28.322  1.00  0.00     0.057 A 
ATOM     63  C   UNL A   1      41.587  28.091  27.216  1.00  0.00     0.134 A 
ATOM     64  C   UNL A   1      40.114  26.484  28.209  1.00  0.00     0.134 A 
ATOM     65  F   UNL A   1      42.279  29.240  27.253  1.00  0.00    -0.206 F 
ATOM     66  C   UNL A   1      41.600  27.358  26.028  1.00  0.00     0.040 A 
ATOM     67  C   UNL A   1      40.142  25.728  27.036  1.00  0.00     0.040 A 
ATOM     68  F   UNL A   1      39.370  26.035  29.230  1.00  0.00    -0.206 F 
ATOM     69  C   UNL A   1      40.879  26.170  25.938  1.00  0.00     0.006 A 
ENDBRANCH  48  62
BRANCH  49  70
ATOM     70  C   UNL A   1      39.818  33.213  36.604  1.00  0.00     0.057 A 
ATOM     71  C   UNL A   1      38.916  32.821  37.599  1.00  0.00     0.134 A 
ATOM     72  C   UNL A   1      40.547  34.387  36.820  1.00  0.00     0.134 A 
ATOM     73  F   UNL A   1      38.176  31.714  37.441  1.00  0.00    -0.206 F 
ATOM     74  C   UNL A   1      38.725  33.580  38.755  1.00  0.00     0.040 A 
ATOM     75  C   UNL A   1      40.383  35.145  37.982  1.00  0.00     0.040 A 
ATOM     76  F   UNL A   1      41.432  34.814  35.908  1.00  0.00    -0.206 F 
ATOM     77  C   UNL A   1      39.463  34.745  38.950  1.00  0.00     0.006 A 
ENDBRANCH  49  70
BRANCH  61  78
ATOM     78  C   UNL A   1      44.308  28.277  34.616  1.00  0.00     0.057 A 
ATOM     79  C   UNL A   1      44.212  27.099  35.365  1.00  0.00     0.134 A 
ATOM     80  C   UNL A   1      45.577  28.849  34.464  1.00  0.00     0.134 A 
ATOM     81  F   UNL A   1      43.022  26.510  35.558  1.00  0.00    -0.206 F 
ATOM     82  C   UNL A   1      45.336  26.519  35.955  1.00  0.00     0.040 A 
ATOM     83  C   UNL A   1      46.712  28.266  35.027  1.00  0.00     0.040 A 
ATOM     84  F   UNL A   1      45.736  29.974  33.750  1.00  0.00    -0.206 F 
ATOM     85  C   UNL A   1      46.592  27.098  35.779  1.00  0.00     0.006 A 
ENDBRANCH  61  78
ENDBRANCH  35  36
ENDBRANCH  27  30
ENDBRANCH  25  26
ENDBRANCH   1  25
TORSDOF 13
ENDMDL
MODEL 2
REMARK VINA RESULT:     -11.8      5.357     10.182
REMARK SMILES C[NH2+][C@@]1(C(=O)NCCCNC(=O)c2ccc(-c3c4nc(c(-c5c(F)cccc5F)c5ccc([nH]5)c(-c5c(F)cccc5F)c5nc(c(-c6c(F)cccc6F)c6ccc3[nH]6)C=C5)C=C4)cc2)CC[C@H](Sc2ccc(C)c(C)c2)C1
REMARK SMILES IDX 8 1 7 2 6 3 4 4 5 5 3 7 67 8 79 9 68 10 69 11 2 12 1 13
REMARK SMILES IDX 70 16 71 17 72 18 78 19 73 20 76 21 74 22 77 23 75 24 9 25
REMARK SMILES IDX 10 26 11 27 12 29 13 30 14 31 66 32 15 33 65 34 16 35 17 36
REMARK SMILES IDX 18 37 59 38 19 39 64 40 58 41 60 42 20 43 63 44 57 45 56 46
REMARK SMILES IDX 21 48 47 49 30 50 46 51 31 52 34 53 45 54 61 55 32 56 33 57
REMARK SMILES IDX 44 59 62 60 35 61 22 62 23 63 28 64 24 65 25 66 27 67 29 68
REMARK SMILES IDX 26 69 48 70 49 71 54 72 50 73 51 74 53 75 55 76 52 77 36 78
REMARK SMILES IDX 37 79 42 80 38 81 39 82 41 83 43 84 40 85
REMARK H PARENT 6 6 2 14 2 15 10 28 60 47 34 58
REMARK Flexibility Score: inf
ROOT
ATOM      1  C   UNL A   1      37.829  19.697  24.627  1.00  0.00     0.042 C 
ENDROOT
BRANCH   1   2
ATOM      2  C   UNL A   1      36.374  19.907  25.001  1.00  0.00     0.118 C 
BRANCH   2   3
ATOM      3  N   UNL A   1      36.119  21.181  25.635  1.00  0.00    -0.351 N 
ATOM      4  C   UNL A   1      34.968  21.787  26.033  1.00  0.00     0.281 C 
ATOM      5  O   UNL A   1      35.136  22.790  26.741  1.00  0.00    -0.268 OA
ATOM      6  H   UNL A   1      36.931  21.708  25.813  1.00  0.00     0.163 HD
BRANCH   4   7
ATOM      7  C   UNL A   1      33.519  21.253  25.710  1.00  0.00     0.176 C 
ATOM      8  C   UNL A   1      33.430  20.838  24.221  1.00  0.00     0.080 C 
ATOM      9  C   UNL A   1      32.360  22.248  25.921  1.00  0.00     0.094 C 
ATOM     10  C   UNL A   1      32.582  21.884  23.502  1.00  0.00     0.022 C 
ATOM     11  C   UNL A   1      31.631  22.406  24.571  1.00  0.00     0.058 C 
BRANCH   7  12
ATOM     12  N   UNL A   1      33.278  20.000  26.495  1.00  0.00    -0.336 N 
ATOM     13  C   UNL A   1      32.903  18.828  25.703  1.00  0.00     0.331 C 
ATOM     14  H   UNL A   1      34.134  19.776  27.002  1.00  0.00     0.346 HD
ATOM     15  H   UNL A   1      32.483  20.195  27.104  1.00  0.00     0.346 HD
ENDBRANCH   7  12
BRANCH  11  16
ATOM     16  S   UNL A   1      30.845  24.079  24.469  1.00  0.00    -0.122 SA
BRANCH  16  17
ATOM     17  C   UNL A   1      31.937  25.286  25.202  1.00  0.00     0.008 A 
ATOM     18  C   UNL A   1      33.251  25.488  24.796  1.00  0.00     0.015 A 
ATOM     19  C   UNL A   1      31.386  26.195  26.122  1.00  0.00     0.018 A 
ATOM     20  C   UNL A   1      34.011  26.535  25.331  1.00  0.00     0.005 A 
ATOM     21  C   UNL A   1      32.135  27.256  26.671  1.00  0.00    -0.047 A 
ATOM     22  C   UNL A   1      33.469  27.430  26.268  1.00  0.00    -0.048 A 
ATOM     23  C   UNL A   1      31.465  28.203  27.627  1.00  0.00     0.044 C 
ATOM     24  C   UNL A   1      34.326  28.580  26.727  1.00  0.00     0.044 C 
ENDBRANCH  16  17
ENDBRANCH  11  16
ENDBRANCH   4   7
ENDBRANCH   2   3
ENDBRANCH   1   2
BRANCH   1  25
ATOM     25  C   UNL A   1      38.799  20.046  25.738  1.00  0.00     0.118 C 
BRANCH  25  26
ATOM     26  N   UNL A   1      39.964  19.168  25.785  1.00  0.00    -0.352 N 
ATOM     27  C   UNL A   1      41.302  19.371  26.020  1.00  0.00     0.251 C 
ATOM     28  H   UNL A   1      39.742  18.224  25.612  1.00  0.00     0.163 HD
ATOM     29  O   UNL A   1      42.066  18.417  25.865  1.00  0.00    -0.269 OA
BRANCH  27  30
ATOM     30  C   UNL A   1      41.868  20.687  26.406  1.00  0.00     0.039 A 
ATOM     31  C   UNL A   1      42.165  21.612  25.393  1.00  0.00     0.014 A 
ATOM     32  C   UNL A   1      42.157  21.024  27.725  1.00  0.00     0.014 A 
ATOM     33  C   UNL A   1      42.636  22.890  25.709  1.00  0.00     0.010 A 
ATOM     34  C   UNL A   1      42.526  22.323  28.054  1.00  0.00     0.010 A 
ATOM     35  C   UNL A   1      42.784  23.264  27.049  1.00  0.00    -0.014 A 
BRANCH  35  36
ATOM     36  C   UNL A   1      43.322  24.585  27.443  1.00  0.00     0.031 A 
ATOM     37  C   UNL A   1      42.360  25.652  27.885  1.00  0.00     0.074 A 
ATOM     38  C   UNL A   1      44.634  24.851  27.319  1.00  0.00     0.049 A 
ATOM     39  N   UNL A   1      42.586  26.910  28.163  1.00  0.00    -0.248 NA
ATOM     40  C   UNL A   1      40.946  25.257  27.992  1.00  0.00     0.031 C 
ATOM     41  C   UNL A   1      45.652  23.905  26.861  1.00  0.00     0.029 A 
ATOM     42  N   UNL A   1      45.333  26.008  27.547  1.00  0.00    -0.354 N 
ATOM     43  C   UNL A   1      41.344  27.454  28.458  1.00  0.00     0.074 A 
ATOM     44  C   UNL A   1      40.361  26.412  28.264  1.00  0.00     0.031 C 
ATOM     45  C   UNL A   1      46.848  24.518  26.848  1.00  0.00     0.029 A 
ATOM     46  C   UNL A   1      46.675  25.905  27.270  1.00  0.00     0.049 A 
ATOM     47  H   UNL A   1      44.914  26.835  27.880  1.00  0.00     0.167 HD
ATOM     48  C   UNL A   1      41.050  28.705  28.883  1.00  0.00     0.037 A 
ATOM     49  C   UNL A   1      47.648  26.833  27.345  1.00  0.00     0.037 A 
ATOM     50  C   UNL A   1      42.035  29.729  29.094  1.00  0.00     0.049 A 
ATOM     51  C   UNL A   1      47.297  28.221  27.811  1.00  0.00     0.074 A 
ATOM     52  C   UNL A   1      41.857  31.014  29.571  1.00  0.00     0.029 A 
ATOM     53  N   UNL A   1      43.390  29.577  28.839  1.00  0.00    -0.354 N 
ATOM     54  N   UNL A   1      46.128  28.705  28.161  1.00  0.00    -0.248 NA
ATOM     55  C   UNL A   1      48.399  29.188  27.904  1.00  0.00     0.031 C 
ATOM     56  C   UNL A   1      43.102  31.653  29.569  1.00  0.00     0.029 A 
ATOM     57  C   UNL A   1      44.059  30.751  29.132  1.00  0.00     0.049 A 
ATOM     58  H   UNL A   1      43.813  28.754  28.500  1.00  0.00     0.167 HD
ATOM     59  C   UNL A   1      46.360  30.018  28.548  1.00  0.00     0.074 A 
ATOM     60  C   UNL A   1      47.782  30.252  28.397  1.00  0.00     0.031 C 
ATOM     61  C   UNL A   1      45.479  30.949  28.991  1.00  0.00     0.037 A 
BRANCH  48  62
ATOM     62  C   UNL A   1      39.606  29.015  29.144  1.00  0.00     0.057 A 
ATOM     63  C   UNL A   1      39.031  28.836  30.409  1.00  0.00     0.134 A 
ATOM     64  C   UNL A   1      38.777  29.484  28.118  1.00  0.00     0.134 A 
ATOM     65  F   UNL A   1      39.766  28.370  31.430  1.00  0.00    -0.206 F 
ATOM     66  C   UNL A   1      37.675  29.079  30.637  1.00  0.00     0.040 A 
ATOM     67  C   UNL A   1      37.426  29.756  28.339  1.00  0.00     0.040 A 
ATOM     68  F   UNL A   1      39.263  29.676  26.882  1.00  0.00    -0.206 F 
ATOM     69  C   UNL A   1      36.870  29.544  29.600  1.00  0.00     0.006 A 
ENDBRANCH  48  62
BRANCH  49  70
ATOM     70  C   UNL A   1      49.051  26.480  27.007  1.00  0.00     0.057 A 
ATOM     71  C   UNL A   1      49.547  26.668  25.712  1.00  0.00     0.134 A 
ATOM     72  C   UNL A   1      49.919  25.930  27.957  1.00  0.00     0.134 A 
ATOM     73  F   UNL A   1      48.757  27.175  24.755  1.00  0.00    -0.206 F 
ATOM     74  C   UNL A   1      50.848  26.299  25.365  1.00  0.00     0.040 A 
ATOM     75  C   UNL A   1      51.230  25.577  27.630  1.00  0.00     0.040 A 
ATOM     76  F   UNL A   1      49.508  25.730  29.217  1.00  0.00    -0.206 F 
ATOM     77  C   UNL A   1      51.694  25.754  26.328  1.00  0.00     0.006 A 
ENDBRANCH  49  70
BRANCH  61  78
ATOM     78  C   UNL A   1      46.033  32.285  29.388  1.00  0.00     0.057 A 
ATOM     79  C   UNL A   1      46.503  32.536  30.681  1.00  0.00     0.134 A 
ATOM     80  C   UNL A   1      46.146  33.313  28.443  1.00  0.00     0.134 A 
ATOM     81  F   UNL A   1      46.410  31.596  31.633  1.00  0.00    -0.206 F 
ATOM     82  C   UNL A   1      47.052  33.772  31.028  1.00  0.00     0.040 A 
ATOM     83  C   UNL A   1      46.717  34.543  28.770  1.00  0.00     0.040 A 
ATOM     84  F   UNL A   1      45.722  33.131  27.183  1.00  0.00    -0.206 F 
ATOM     85  C   UNL A   1      47.168  34.776  30.068  1.00  0.00     0.006 A 
ENDBRANCH  61  78
ENDBRANCH  35  36
ENDBRANCH  27  30
ENDBRANCH  25  26
ENDBRANCH   1  25
TORSDOF 13
ENDMDL
MODEL 3
REMARK VINA RESULT:     -11.7      4.343      9.389
REMARK SMILES C[NH2+][C@@]1(C(=O)NCCCNC(=O)c2ccc(-c3c4nc(c(-c5c(F)cccc5F)c5ccc([nH]5)c(-c5c(F)cccc5F)c5nc(c(-c6c(F)cccc6F)c6ccc3[nH]6)C=C5)C=C4)cc2)CC[C@H](Sc2ccc(C)c(C)c2)C1
REMARK SMILES IDX 8 1 7 2 6 3 4 4 5 5 3 7 67 8 79 9 68 10 69 11 2 12 1 13
REMARK SMILES IDX 70 16 71 17 72 18 78 19 73 20 76 21 74 22 77 23 75 24 9 25
REMARK SMILES IDX 10 26 11 27 12 29 13 30 14 31 66 32 15 33 65 34 16 35 17 36
REMARK SMILES IDX 18 37 59 38 19 39 64 40 58 41 60 42 20 43 63 44 57 45 56 46
REMARK SMILES IDX 21 48 47 49 30 50 46 51 31 52 34 53 45 54 61 55 32 56 33 57
REMARK SMILES IDX 44 59 62 60 35 61 22 62 23 63 28 64 24 65 25 66 27 67 29 68
REMARK SMILES IDX 26 69 48 70 49 71 54 72 50 73 51 74 53 75 55 76 52 77 36 78
REMARK SMILES IDX 37 79 42 80 38 81 39 82 41 83 43 84 40 85
REMARK H PARENT 6 6 2 14 2 15 10 28 60 47 34 58
REMARK Flexibility Score: inf
ROOT
ATOM      1  C   UNL A   1      33.722  34.173  28.434  1.00  0.00     0.042 C 
ENDROOT
BRANCH   1   2
ATOM      2  C   UNL A   1      33.921  34.684  29.848  1.00  0.00     0.118 C 
BRANCH   2   3
ATOM      3  N   UNL A   1      34.076  33.630  30.826  1.00  0.00    -0.351 N 
ATOM      4  C   UNL A   1      34.822  33.541  31.960  1.00  0.00     0.281 C 
ATOM      5  O   UNL A   1      34.548  32.568  32.678  1.00  0.00    -0.268 OA
ATOM      6  H   UNL A   1      33.541  32.826  30.635  1.00  0.00     0.163 HD
BRANCH   4   7
ATOM      7  C   UNL A   1      35.901  34.602  32.406  1.00  0.00     0.176 C 
ATOM      8  C   UNL A   1      37.026  34.686  31.345  1.00  0.00     0.080 C 
ATOM      9  C   UNL A   1      36.624  34.324  33.739  1.00  0.00     0.094 C 
ATOM     10  C   UNL A   1      38.267  34.026  31.938  1.00  0.00     0.022 C 
ATOM     11  C   UNL A   1      38.135  34.240  33.439  1.00  0.00     0.058 C 
BRANCH   7  12
ATOM     12  N   UNL A   1      35.265  35.959  32.431  1.00  0.00    -0.336 N 
ATOM     13  C   UNL A   1      34.232  36.146  33.450  1.00  0.00     0.331 C 
ATOM     14  H   UNL A   1      36.000  36.647  32.596  1.00  0.00     0.346 HD
ATOM     15  H   UNL A   1      34.798  36.070  31.532  1.00  0.00     0.346 HD
ENDBRANCH   7  12
BRANCH  11  16
ATOM     16  S   UNL A   1      38.964  33.140  34.676  1.00  0.00    -0.122 SA
BRANCH  16  17
ATOM     17  C   UNL A   1      38.883  31.450  34.106  1.00  0.00     0.008 A 
ATOM     18  C   UNL A   1      37.734  30.863  33.589  1.00  0.00     0.015 A 
ATOM     19  C   UNL A   1      40.087  30.729  34.019  1.00  0.00     0.018 A 
ATOM     20  C   UNL A   1      37.774  29.572  33.048  1.00  0.00     0.005 A 
ATOM     21  C   UNL A   1      40.147  29.429  33.477  1.00  0.00    -0.047 A 
ATOM     22  C   UNL A   1      38.972  28.841  32.981  1.00  0.00    -0.048 A 
ATOM     23  C   UNL A   1      41.477  28.735  33.392  1.00  0.00     0.044 C 
ATOM     24  C   UNL A   1      38.944  27.496  32.303  1.00  0.00     0.044 C 
ENDBRANCH  16  17
ENDBRANCH  11  16
ENDBRANCH   4   7
ENDBRANCH   2   3
ENDBRANCH   1   2
BRANCH   1  25
ATOM     25  C   UNL A   1      34.661  33.043  28.058  1.00  0.00     0.118 C 
BRANCH  25  26
ATOM     26  N   UNL A   1      33.971  31.784  27.789  1.00  0.00    -0.352 N 
ATOM     27  C   UNL A   1      34.371  30.471  27.739  1.00  0.00     0.251 C 
ATOM     28  H   UNL A   1      33.012  31.903  27.605  1.00  0.00     0.163 HD
ATOM     29  O   UNL A   1      33.551  29.633  27.357  1.00  0.00    -0.269 OA
BRANCH  27  30
ATOM     30  C   UNL A   1      35.743  30.026  28.082  1.00  0.00     0.039 A 
ATOM     31  C   UNL A   1      36.744  30.127  27.102  1.00  0.00     0.014 A 
ATOM     32  C   UNL A   1      36.070  29.473  29.315  1.00  0.00     0.014 A 
ATOM     33  C   UNL A   1      38.068  29.784  27.396  1.00  0.00     0.010 A 
ATOM     34  C   UNL A   1      37.398  29.228  29.648  1.00  0.00     0.010 A 
ATOM     35  C   UNL A   1      38.407  29.367  28.686  1.00  0.00    -0.014 A 
BRANCH  35  36
ATOM     36  C   UNL A   1      39.781  28.948  29.043  1.00  0.00     0.031 A 
ATOM     37  C   UNL A   1      40.667  29.923  29.765  1.00  0.00     0.074 A 
ATOM     38  C   UNL A   1      40.252  27.752  28.647  1.00  0.00     0.049 A 
ATOM     39  N   UNL A   1      41.934  29.822  30.074  1.00  0.00    -0.248 NA
ATOM     40  C   UNL A   1      40.053  31.202  30.158  1.00  0.00     0.031 C 
ATOM     41  C   UNL A   1      39.495  26.744  27.906  1.00  0.00     0.029 A 
ATOM     42  N   UNL A   1      41.495  27.192  28.795  1.00  0.00    -0.354 N 
ATOM     43  C   UNL A   1      42.266  31.026  30.678  1.00  0.00     0.074 A 
ATOM     44  C   UNL A   1      41.092  31.867  30.636  1.00  0.00     0.031 C 
ATOM     45  C   UNL A   1      40.287  25.684  27.669  1.00  0.00     0.029 A 
ATOM     46  C   UNL A   1      41.613  25.952  28.217  1.00  0.00     0.049 A 
ATOM     47  H   UNL A   1      42.234  27.637  29.272  1.00  0.00     0.167 HD
ATOM     48  C   UNL A   1      43.440  31.389  31.247  1.00  0.00     0.037 A 
ATOM     49  C   UNL A   1      42.679  25.132  28.138  1.00  0.00     0.037 A 
ATOM     50  C   UNL A   1      44.596  30.540  31.304  1.00  0.00     0.049 A 
ATOM     51  C   UNL A   1      43.976  25.560  28.769  1.00  0.00     0.074 A 
ATOM     52  C   UNL A   1      45.820  30.784  31.899  1.00  0.00     0.029 A 
ATOM     53  N   UNL A   1      44.667  29.274  30.741  1.00  0.00    -0.354 N 
ATOM     54  N   UNL A   1      44.260  26.673  29.405  1.00  0.00    -0.248 NA
ATOM     55  C   UNL A   1      45.100  24.618  28.681  1.00  0.00     0.031 C 
ATOM     56  C   UNL A   1      46.645  29.679  31.664  1.00  0.00     0.029 A 
ATOM     57  C   UNL A   1      45.920  28.731  30.960  1.00  0.00     0.049 A 
ATOM     58  H   UNL A   1      43.933  28.828  30.258  1.00  0.00     0.167 HD
ATOM     59  C   UNL A   1      45.578  26.548  29.823  1.00  0.00     0.074 A 
ATOM     60  C   UNL A   1      46.036  25.250  29.374  1.00  0.00     0.031 C 
ATOM     61  C   UNL A   1      46.343  27.426  30.518  1.00  0.00     0.037 A 
BRANCH  48  62
ATOM     62  C   UNL A   1      43.510  32.763  31.847  1.00  0.00     0.057 A 
ATOM     63  C   UNL A   1      43.319  32.978  33.218  1.00  0.00     0.134 A 
ATOM     64  C   UNL A   1      43.759  33.883  31.045  1.00  0.00     0.134 A 
ATOM     65  F   UNL A   1      43.056  31.949  34.038  1.00  0.00    -0.206 F 
ATOM     66  C   UNL A   1      43.336  34.262  33.765  1.00  0.00     0.040 A 
ATOM     67  C   UNL A   1      43.807  35.169  31.584  1.00  0.00     0.040 A 
ATOM     68  F   UNL A   1      43.951  33.747  29.724  1.00  0.00    -0.206 F 
ATOM     69  C   UNL A   1      43.585  35.362  32.947  1.00  0.00     0.006 A 
ENDBRANCH  48  62
BRANCH  49  70
ATOM     70  C   UNL A   1      42.562  23.810  27.470  1.00  0.00     0.057 A 
ATOM     71  C   UNL A   1      42.300  22.652  28.210  1.00  0.00     0.134 A 
ATOM     72  C   UNL A   1      42.730  23.669  26.088  1.00  0.00     0.134 A 
ATOM     73  F   UNL A   1      42.147  22.722  29.540  1.00  0.00    -0.206 F 
ATOM     74  C   UNL A   1      42.232  21.395  27.605  1.00  0.00     0.040 A 
ATOM     75  C   UNL A   1      42.642  22.421  25.466  1.00  0.00     0.040 A 
ATOM     76  F   UNL A   1      42.978  24.739  25.321  1.00  0.00    -0.206 F 
ATOM     77  C   UNL A   1      42.401  21.279  26.227  1.00  0.00     0.006 A 
ENDBRANCH  49  70
BRANCH  61  78
ATOM     78  C   UNL A   1      47.733  26.993  30.875  1.00  0.00     0.057 A 
ATOM     79  C   UNL A   1      48.834  27.307  30.071  1.00  0.00     0.134 A 
ATOM     80  C   UNL A   1      47.975  26.302  32.069  1.00  0.00     0.134 A 
ATOM     81  F   UNL A   1      48.666  27.957  28.909  1.00  0.00    -0.206 F 
ATOM     82  C   UNL A   1      50.129  26.932  30.433  1.00  0.00     0.040 A 
ATOM     83  C   UNL A   1      49.267  25.945  32.455  1.00  0.00     0.040 A 
ATOM     84  F   UNL A   1      46.962  25.980  32.888  1.00  0.00    -0.206 F 
ATOM     85  C   UNL A   1      50.348  26.256  31.633  1.00  0.00     0.006 A 
ENDBRANCH  61  78
ENDBRANCH  35  36
ENDBRANCH  27  30
ENDBRANCH  25  26
ENDBRANCH   1  25
TORSDOF 13
ENDMDL
