MODEL 1
REMARK VINA RESULT:     -11.1      0.000      0.000
REMARK SMILES C[C@@H]1[C@H](C(=O)NCCCNC(=O)c2ccc(-c3c4nc(c(-c5c(F)cccc5F)c5ccc([nH]5)c(-c5c(F)cccc5F)c5nc(c(-c6c(F)cccc6F)c6ccc3[nH]6)C=C5)C=C4)cc2)CCN1C(=O)COc1ccccc1O
REMARK SMILES IDX 4 1 5 2 6 3 3 5 1 6 2 7 69 8 67 9 68 10 70 11 71 12 72 13
REMARK SMILES IDX 73 14 74 15 75 16 79 17 76 18 78 19 77 20 80 21 7 23 8 24
REMARK SMILES IDX 9 25 10 26 11 27 12 29 13 30 14 31 66 32 15 33 65 34 16 35
REMARK SMILES IDX 17 36 18 37 59 38 19 39 64 40 58 41 60 42 20 43 63 44 57 45
REMARK SMILES IDX 56 46 21 48 47 49 30 50 46 51 31 52 34 53 45 54 61 55 32 56
REMARK SMILES IDX 33 57 44 59 62 60 35 61 22 62 23 63 28 64 24 65 25 66 27 67
REMARK SMILES IDX 29 68 26 69 48 70 49 71 54 72 50 73 51 74 53 75 55 76 52 77
REMARK SMILES IDX 36 78 37 79 42 80 38 81 39 82 41 83 43 84 40 85
REMARK H PARENT 6 4 80 22 10 28 60 47 34 58
REMARK Flexibility Score: inf
ROOT
ATOM      1  C   UNL A   1      31.611  28.228  26.660  1.00  0.00     0.225 C 
ATOM      2  O   UNL A   1      31.930  27.597  27.673  1.00  0.00    -0.275 OA
ATOM      3  N   UNL A   1      31.778  29.572  26.707  1.00  0.00    -0.356 N 
ATOM      4  H   UNL A   1      32.209  29.888  27.533  1.00  0.00     0.163 HD
ENDROOT
BRANCH   1   5
ATOM      5  C   UNL A   1      31.048  27.488  25.461  1.00  0.00     0.102 C 
ATOM      6  C   UNL A   1      33.472  27.399  24.485  1.00  0.00     0.032 C 
ATOM      7  C   UNL A   1      31.971  27.282  24.252  1.00  0.00     0.094 C 
ATOM      8  N   UNL A   1      31.612  25.955  23.728  1.00  0.00    -0.336 N 
ATOM      9  C   UNL A   1      30.358  26.159  25.757  1.00  0.00     0.037 C 
ATOM     10  C   UNL A   1      30.757  25.216  24.638  1.00  0.00     0.121 C 
BRANCH   8  11
ATOM     11  C   UNL A   1      32.082  25.313  22.588  1.00  0.00     0.260 C 
ATOM     12  O   UNL A   1      31.855  25.774  21.466  1.00  0.00    -0.271 OA
BRANCH  11  13
ATOM     13  C   UNL A   1      32.913  24.030  22.735  1.00  0.00     0.329 C 
BRANCH  13  14
ATOM     14  O   UNL A   1      34.318  24.130  22.547  1.00  0.00    -0.480 OA
BRANCH  14  15
ATOM     15  C   UNL A   1      35.090  23.733  23.602  1.00  0.00     0.161 A 
ATOM     16  C   UNL A   1      34.575  24.029  24.866  1.00  0.00     0.050 A 
ATOM     17  C   UNL A   1      36.365  23.173  23.504  1.00  0.00     0.157 A 
ATOM     18  C   UNL A   1      35.304  23.718  26.015  1.00  0.00     0.004 A 
ATOM     19  C   UNL A   1      37.082  22.833  24.647  1.00  0.00     0.050 A 
ATOM     20  C   UNL A   1      36.553  23.110  25.905  1.00  0.00     0.004 A 
BRANCH  17  21
ATOM     21  O   UNL A   1      37.021  22.996  22.322  1.00  0.00    -0.504 OA
ATOM     22  H   UNL A   1      36.650  22.451  21.656  1.00  0.00     0.293 HD
ENDBRANCH  17  21
ENDBRANCH  14  15
ENDBRANCH  13  14
ENDBRANCH  11  13
ENDBRANCH   8  11
ENDBRANCH   1   5
BRANCH   3  23
ATOM     23  C   UNL A   1      31.445  30.640  25.777  1.00  0.00     0.117 C 
BRANCH  23  24
ATOM     24  C   UNL A   1      31.305  31.991  26.474  1.00  0.00     0.042 C 
BRANCH  24  25
ATOM     25  C   UNL A   1      32.591  32.525  27.083  1.00  0.00     0.118 C 
BRANCH  25  26
ATOM     26  N   UNL A   1      32.437  33.867  27.613  1.00  0.00    -0.352 N 
ATOM     27  C   UNL A   1      33.172  34.528  28.569  1.00  0.00     0.251 C 
ATOM     28  H   UNL A   1      31.693  34.384  27.229  1.00  0.00     0.163 HD
ATOM     29  O   UNL A   1      32.747  35.584  29.029  1.00  0.00    -0.269 OA
BRANCH  27  30
ATOM     30  C   UNL A   1      34.454  33.975  29.067  1.00  0.00     0.039 A 
ATOM     31  C   UNL A   1      34.435  33.140  30.189  1.00  0.00     0.014 A 
ATOM     32  C   UNL A   1      35.676  34.307  28.478  1.00  0.00     0.014 A 
ATOM     33  C   UNL A   1      35.627  32.601  30.682  1.00  0.00     0.010 A 
ATOM     34  C   UNL A   1      36.851  33.695  28.909  1.00  0.00     0.010 A 
ATOM     35  C   UNL A   1      36.844  32.852  30.029  1.00  0.00    -0.014 A 
BRANCH  35  36
ATOM     36  C   UNL A   1      38.124  32.281  30.525  1.00  0.00     0.031 A 
ATOM     37  C   UNL A   1      38.658  31.002  29.934  1.00  0.00     0.074 A 
ATOM     38  C   UNL A   1      38.781  32.874  31.540  1.00  0.00     0.049 A 
ATOM     39  N   UNL A   1      39.708  30.302  30.284  1.00  0.00    -0.248 NA
ATOM     40  C   UNL A   1      37.892  30.416  28.822  1.00  0.00     0.031 C 
ATOM     41  C   UNL A   1      38.353  34.092  32.231  1.00  0.00     0.029 A 
ATOM     42  N   UNL A   1      39.948  32.527  32.174  1.00  0.00    -0.354 N 
ATOM     43  C   UNL A   1      39.714  29.187  29.454  1.00  0.00     0.074 A 
ATOM     44  C   UNL A   1      38.536  29.276  28.620  1.00  0.00     0.031 C 
ATOM     45  C   UNL A   1      39.257  34.405  33.173  1.00  0.00     0.029 A 
ATOM     46  C   UNL A   1      40.308  33.392  33.179  1.00  0.00     0.049 A 
ATOM     47  H   UNL A   1      40.476  31.732  31.932  1.00  0.00     0.167 HD
ATOM     48  C   UNL A   1      40.628  28.192  29.375  1.00  0.00     0.037 A 
ATOM     49  C   UNL A   1      41.366  33.370  34.013  1.00  0.00     0.037 A 
ATOM     50  C   UNL A   1      41.823  28.124  30.172  1.00  0.00     0.049 A 
ATOM     51  C   UNL A   1      42.374  32.262  33.897  1.00  0.00     0.074 A 
ATOM     52  C   UNL A   1      42.842  27.189  30.121  1.00  0.00     0.029 A 
ATOM     53  N   UNL A   1      42.163  29.034  31.161  1.00  0.00    -0.354 N 
ATOM     54  N   UNL A   1      42.392  31.243  33.071  1.00  0.00    -0.248 NA
ATOM     55  C   UNL A   1      43.514  32.303  34.824  1.00  0.00     0.031 C 
ATOM     56  C   UNL A   1      43.784  27.515  31.103  1.00  0.00     0.029 A 
ATOM     57  C   UNL A   1      43.370  28.675  31.737  1.00  0.00     0.049 A 
ATOM     58  H   UNL A   1      41.626  29.819  31.416  1.00  0.00     0.167 HD
ATOM     59  C   UNL A   1      43.554  30.539  33.361  1.00  0.00     0.074 A 
ATOM     60  C   UNL A   1      44.220  31.252  34.431  1.00  0.00     0.031 C 
ATOM     61  C   UNL A   1      44.026  29.403  32.793  1.00  0.00     0.037 A 
BRANCH  48  62
ATOM     62  C   UNL A   1      40.374  27.099  28.378  1.00  0.00     0.057 A 
ATOM     63  C   UNL A   1      39.512  26.030  28.657  1.00  0.00     0.134 A 
ATOM     64  C   UNL A   1      40.978  27.128  27.114  1.00  0.00     0.134 A 
ATOM     65  F   UNL A   1      38.913  25.936  29.854  1.00  0.00    -0.206 F 
ATOM     66  C   UNL A   1      39.280  25.016  27.727  1.00  0.00     0.040 A 
ATOM     67  C   UNL A   1      40.733  26.133  26.166  1.00  0.00     0.040 A 
ATOM     68  F   UNL A   1      41.810  28.125  26.780  1.00  0.00    -0.206 F 
ATOM     69  C   UNL A   1      39.887  25.070  26.474  1.00  0.00     0.006 A 
ENDBRANCH  48  62
BRANCH  49  70
ATOM     70  C   UNL A   1      41.542  34.450  35.015  1.00  0.00     0.057 A 
ATOM     71  C   UNL A   1      41.012  34.326  36.305  1.00  0.00     0.134 A 
ATOM     72  C   UNL A   1      42.234  35.627  34.711  1.00  0.00     0.134 A 
ATOM     73  F   UNL A   1      40.322  33.228  36.648  1.00  0.00    -0.206 F 
ATOM     74  C   UNL A   1      41.149  35.341  37.253  1.00  0.00     0.040 A 
ATOM     75  C   UNL A   1      42.398  36.642  35.656  1.00  0.00     0.040 A 
ATOM     76  F   UNL A   1      42.770  35.803  33.494  1.00  0.00    -0.206 F 
ATOM     77  C   UNL A   1      41.849  36.502  36.930  1.00  0.00     0.006 A 
ENDBRANCH  49  70
BRANCH  61  78
ATOM     78  C   UNL A   1      45.339  28.881  33.292  1.00  0.00     0.057 A 
ATOM     79  C   UNL A   1      45.416  27.953  34.337  1.00  0.00     0.134 A 
ATOM     80  C   UNL A   1      46.539  29.283  32.690  1.00  0.00     0.134 A 
ATOM     81  F   UNL A   1      44.304  27.539  34.962  1.00  0.00    -0.206 F 
ATOM     82  C   UNL A   1      46.643  27.456  34.780  1.00  0.00     0.040 A 
ATOM     83  C   UNL A   1      47.770  28.776  33.110  1.00  0.00     0.040 A 
ATOM     84  F   UNL A   1      46.533  30.164  31.678  1.00  0.00    -0.206 F 
ATOM     85  C   UNL A   1      47.824  27.863  34.161  1.00  0.00     0.006 A 
ENDBRANCH  61  78
ENDBRANCH  35  36
ENDBRANCH  27  30
ENDBRANCH  25  26
ENDBRANCH  24  25
ENDBRANCH  23  24
ENDBRANCH   3  23
TORSDOF 15
ENDMDL
MODEL 2
REMARK VINA RESULT:     -11.1      2.096      6.556
REMARK SMILES C[C@@H]1[C@H](C(=O)NCCCNC(=O)c2ccc(-c3c4nc(c(-c5c(F)cccc5F)c5ccc([nH]5)c(-c5c(F)cccc5F)c5nc(c(-c6c(F)cccc6F)c6ccc3[nH]6)C=C5)C=C4)cc2)CCN1C(=O)COc1ccccc1O
REMARK SMILES IDX 4 1 5 2 6 3 3 5 1 6 2 7 69 8 67 9 68 10 70 11 71 12 72 13
REMARK SMILES IDX 73 14 74 15 75 16 79 17 76 18 78 19 77 20 80 21 7 23 8 24
REMARK SMILES IDX 9 25 10 26 11 27 12 29 13 30 14 31 66 32 15 33 65 34 16 35
REMARK SMILES IDX 17 36 18 37 59 38 19 39 64 40 58 41 60 42 20 43 63 44 57 45
REMARK SMILES IDX 56 46 21 48 47 49 30 50 46 51 31 52 34 53 45 54 61 55 32 56
REMARK SMILES IDX 33 57 44 59 62 60 35 61 22 62 23 63 28 64 24 65 25 66 27 67
REMARK SMILES IDX 29 68 26 69 48 70 49 71 54 72 50 73 51 74 53 75 55 76 52 77
REMARK SMILES IDX 36 78 37 79 42 80 38 81 39 82 41 83 43 84 40 85
REMARK H PARENT 6 4 80 22 10 28 60 47 34 58
REMARK Flexibility Score: inf
ROOT
ATOM      1  C   UNL A   1      32.079  28.985  24.831  1.00  0.00     0.225 C 
ATOM      2  O   UNL A   1      32.231  28.860  23.612  1.00  0.00    -0.275 OA
ATOM      3  N   UNL A   1      31.616  30.182  25.264  1.00  0.00    -0.356 N 
ATOM      4  H   UNL A   1      31.383  30.802  24.537  1.00  0.00     0.163 HD
ENDROOT
BRANCH   1   5
ATOM      5  C   UNL A   1      32.427  27.830  25.752  1.00  0.00     0.102 C 
ATOM      6  C   UNL A   1      30.292  26.600  24.877  1.00  0.00     0.032 C 
ATOM      7  C   UNL A   1      31.377  26.725  25.939  1.00  0.00     0.094 C 
ATOM      8  N   UNL A   1      32.158  25.483  26.055  1.00  0.00    -0.336 N 
ATOM      9  C   UNL A   1      33.776  27.160  25.508  1.00  0.00     0.037 C 
ATOM     10  C   UNL A   1      33.551  25.672  25.699  1.00  0.00     0.121 C 
BRANCH   8  11
ATOM     11  C   UNL A   1      31.708  24.195  26.323  1.00  0.00     0.260 C 
ATOM     12  O   UNL A   1      31.004  23.965  27.309  1.00  0.00    -0.271 OA
BRANCH  11  13
ATOM     13  C   UNL A   1      32.077  23.055  25.362  1.00  0.00     0.329 C 
BRANCH  13  14
ATOM     14  O   UNL A   1      32.552  21.842  25.929  1.00  0.00    -0.480 OA
BRANCH  14  15
ATOM     15  C   UNL A   1      32.588  20.765  25.089  1.00  0.00     0.161 A 
ATOM     16  C   UNL A   1      32.274  21.035  23.756  1.00  0.00     0.050 A 
ATOM     17  C   UNL A   1      32.801  19.442  25.482  1.00  0.00     0.157 A 
ATOM     18  C   UNL A   1      32.226  20.001  22.819  1.00  0.00     0.004 A 
ATOM     19  C   UNL A   1      32.786  18.413  24.546  1.00  0.00     0.050 A 
ATOM     20  C   UNL A   1      32.494  18.691  23.212  1.00  0.00     0.004 A 
BRANCH  17  21
ATOM     21  O   UNL A   1      32.953  19.057  26.780  1.00  0.00    -0.504 OA
ATOM     22  H   UNL A   1      33.771  18.705  27.073  1.00  0.00     0.293 HD
ENDBRANCH  17  21
ENDBRANCH  14  15
ENDBRANCH  13  14
ENDBRANCH  11  13
ENDBRANCH   8  11
ENDBRANCH   1   5
BRANCH   3  23
ATOM     23  C   UNL A   1      31.395  30.733  26.593  1.00  0.00     0.117 C 
BRANCH  23  24
ATOM     24  C   UNL A   1      31.374  32.259  26.590  1.00  0.00     0.042 C 
BRANCH  24  25
ATOM     25  C   UNL A   1      32.705  32.911  26.926  1.00  0.00     0.118 C 
BRANCH  25  26
ATOM     26  N   UNL A   1      32.544  34.151  27.663  1.00  0.00    -0.352 N 
ATOM     27  C   UNL A   1      33.187  34.595  28.794  1.00  0.00     0.251 C 
ATOM     28  H   UNL A   1      31.873  34.770  27.295  1.00  0.00     0.163 HD
ATOM     29  O   UNL A   1      32.754  35.582  29.382  1.00  0.00    -0.269 OA
BRANCH  27  30
ATOM     30  C   UNL A   1      34.376  33.888  29.326  1.00  0.00     0.039 A 
ATOM     31  C   UNL A   1      34.187  32.858  30.253  1.00  0.00     0.014 A 
ATOM     32  C   UNL A   1      35.673  34.259  28.965  1.00  0.00     0.014 A 
ATOM     33  C   UNL A   1      35.289  32.171  30.771  1.00  0.00     0.010 A 
ATOM     34  C   UNL A   1      36.764  33.514  29.407  1.00  0.00     0.010 A 
ATOM     35  C   UNL A   1      36.587  32.474  30.332  1.00  0.00    -0.014 A 
BRANCH  35  36
ATOM     36  C   UNL A   1      37.775  31.750  30.859  1.00  0.00     0.031 A 
ATOM     37  C   UNL A   1      38.323  32.092  32.219  1.00  0.00     0.074 A 
ATOM     38  C   UNL A   1      38.395  30.827  30.099  1.00  0.00     0.049 A 
ATOM     39  N   UNL A   1      39.394  31.636  32.820  1.00  0.00    -0.248 NA
ATOM     40  C   UNL A   1      37.588  33.104  32.995  1.00  0.00     0.031 C 
ATOM     41  C   UNL A   1      37.993  30.431  28.748  1.00  0.00     0.029 A 
ATOM     42  N   UNL A   1      39.502  30.057  30.355  1.00  0.00    -0.354 N 
ATOM     43  C   UNL A   1      39.472  32.320  34.027  1.00  0.00     0.074 A 
ATOM     44  C   UNL A   1      38.372  33.259  34.052  1.00  0.00     0.031 C 
ATOM     45  C   UNL A   1      38.825  29.474  28.304  1.00  0.00     0.029 A 
ATOM     46  C   UNL A   1      39.839  29.216  29.322  1.00  0.00     0.049 A 
ATOM     47  H   UNL A   1      40.008  30.105  31.198  1.00  0.00     0.167 HD
ATOM     48  C   UNL A   1      40.362  32.166  35.035  1.00  0.00     0.037 A 
ATOM     49  C   UNL A   1      40.852  28.336  29.208  1.00  0.00     0.037 A 
ATOM     50  C   UNL A   1      41.430  31.203  35.033  1.00  0.00     0.049 A 
ATOM     51  C   UNL A   1      41.820  28.172  30.346  1.00  0.00     0.074 A 
ATOM     52  C   UNL A   1      42.345  30.927  36.033  1.00  0.00     0.029 A 
ATOM     53  N   UNL A   1      41.720  30.352  33.977  1.00  0.00    -0.354 N 
ATOM     54  N   UNL A   1      41.848  28.790  31.503  1.00  0.00    -0.248 NA
ATOM     55  C   UNL A   1      42.894  27.184  30.167  1.00  0.00     0.031 C 
ATOM     56  C   UNL A   1      43.211  29.930  35.571  1.00  0.00     0.029 A 
ATOM     57  C   UNL A   1      42.810  29.559  34.298  1.00  0.00     0.049 A 
ATOM     58  H   UNL A   1      41.226  30.316  33.127  1.00  0.00     0.167 HD
ATOM     59  C   UNL A   1      42.923  28.249  32.197  1.00  0.00     0.074 A 
ATOM     60  C   UNL A   1      43.514  27.245  31.337  1.00  0.00     0.031 C 
ATOM     61  C   UNL A   1      43.379  28.556  33.435  1.00  0.00     0.037 A 
BRANCH  48  62
ATOM     62  C   UNL A   1      40.208  33.055  36.235  1.00  0.00     0.057 A 
ATOM     63  C   UNL A   1      39.287  32.770  37.251  1.00  0.00     0.134 A 
ATOM     64  C   UNL A   1      41.009  34.194  36.389  1.00  0.00     0.134 A 
ATOM     65  F   UNL A   1      38.480  31.702  37.157  1.00  0.00    -0.206 F 
ATOM     66  C   UNL A   1      39.148  33.600  38.365  1.00  0.00     0.040 A 
ATOM     67  C   UNL A   1      40.897  35.017  37.511  1.00  0.00     0.040 A 
ATOM     68  F   UNL A   1      41.914  34.522  35.456  1.00  0.00    -0.206 F 
ATOM     69  C   UNL A   1      39.959  34.724  38.499  1.00  0.00     0.006 A 
ENDBRANCH  48  62
BRANCH  49  70
ATOM     70  C   UNL A   1      40.988  27.517  27.978  1.00  0.00     0.057 A 
ATOM     71  C   UNL A   1      40.302  26.304  27.843  1.00  0.00     0.134 A 
ATOM     72  C   UNL A   1      41.806  27.918  26.916  1.00  0.00     0.134 A 
ATOM     73  F   UNL A   1      39.518  25.858  28.837  1.00  0.00    -0.206 F 
ATOM     74  C   UNL A   1      40.435  25.510  26.703  1.00  0.00     0.040 A 
ATOM     75  C   UNL A   1      41.932  27.145  25.760  1.00  0.00     0.040 A 
ATOM     76  F   UNL A   1      42.484  29.072  26.983  1.00  0.00    -0.206 F 
ATOM     77  C   UNL A   1      41.249  25.934  25.655  1.00  0.00     0.006 A 
ENDBRANCH  49  70
BRANCH  61  78
ATOM     78  C   UNL A   1      44.552  27.776  33.947  1.00  0.00     0.057 A 
ATOM     79  C   UNL A   1      45.866  28.231  33.789  1.00  0.00     0.134 A 
ATOM     80  C   UNL A   1      44.358  26.575  34.642  1.00  0.00     0.134 A 
ATOM     81  F   UNL A   1      46.118  29.366  33.121  1.00  0.00    -0.206 F 
ATOM     82  C   UNL A   1      46.951  27.507  34.289  1.00  0.00     0.040 A 
ATOM     83  C   UNL A   1      45.433  25.855  35.165  1.00  0.00     0.040 A 
ATOM     84  F   UNL A   1      43.122  26.090  34.835  1.00  0.00    -0.206 F 
ATOM     85  C   UNL A   1      46.735  26.319  34.985  1.00  0.00     0.006 A 
ENDBRANCH  61  78
ENDBRANCH  35  36
ENDBRANCH  27  30
ENDBRANCH  25  26
ENDBRANCH  24  25
ENDBRANCH  23  24
ENDBRANCH   3  23
TORSDOF 15
ENDMDL
MODEL 3
REMARK VINA RESULT:     -11.1      2.201      2.819
REMARK SMILES C[C@@H]1[C@H](C(=O)NCCCNC(=O)c2ccc(-c3c4nc(c(-c5c(F)cccc5F)c5ccc([nH]5)c(-c5c(F)cccc5F)c5nc(c(-c6c(F)cccc6F)c6ccc3[nH]6)C=C5)C=C4)cc2)CCN1C(=O)COc1ccccc1O
REMARK SMILES IDX 4 1 5 2 6 3 3 5 1 6 2 7 69 8 67 9 68 10 70 11 71 12 72 13
REMARK SMILES IDX 73 14 74 15 75 16 79 17 76 18 78 19 77 20 80 21 7 23 8 24
REMARK SMILES IDX 9 25 10 26 11 27 12 29 13 30 14 31 66 32 15 33 65 34 16 35
REMARK SMILES IDX 17 36 18 37 59 38 19 39 64 40 58 41 60 42 20 43 63 44 57 45
REMARK SMILES IDX 56 46 21 48 47 49 30 50 46 51 31 52 34 53 45 54 61 55 32 56
REMARK SMILES IDX 33 57 44 59 62 60 35 61 22 62 23 63 28 64 24 65 25 66 27 67
REMARK SMILES IDX 29 68 26 69 48 70 49 71 54 72 50 73 51 74 53 75 55 76 52 77
REMARK SMILES IDX 36 78 37 79 42 80 38 81 39 82 41 83 43 84 40 85
REMARK H PARENT 6 4 80 22 10 28 60 47 34 58
REMARK Flexibility Score: inf
ROOT
ATOM      1  C   UNL A   1      32.148  28.954  24.808  1.00  0.00     0.225 C 
ATOM      2  O   UNL A   1      32.361  28.829  23.598  1.00  0.00    -0.275 OA
ATOM      3  N   UNL A   1      31.684  30.158  25.221  1.00  0.00    -0.356 N 
ATOM      4  H   UNL A   1      31.498  30.783  24.484  1.00  0.00     0.163 HD
ENDROOT
BRANCH   1   5
ATOM      5  C   UNL A   1      32.430  27.792  25.743  1.00  0.00     0.102 C 
ATOM      6  C   UNL A   1      30.319  26.601  24.760  1.00  0.00     0.032 C 
ATOM      7  C   UNL A   1      31.353  26.705  25.875  1.00  0.00     0.094 C 
ATOM      8  N   UNL A   1      32.105  25.450  26.026  1.00  0.00    -0.336 N 
ATOM      9  C   UNL A   1      33.778  27.098  25.564  1.00  0.00     0.037 C 
ATOM     10  C   UNL A   1      33.517  25.614  25.739  1.00  0.00     0.121 C 
BRANCH   8  11
ATOM     11  C   UNL A   1      31.620  24.169  26.268  1.00  0.00     0.260 C 
ATOM     12  O   UNL A   1      30.910  23.939  27.251  1.00  0.00    -0.271 OA
BRANCH  11  13
ATOM     13  C   UNL A   1      31.956  23.039  25.284  1.00  0.00     0.329 C 
BRANCH  13  14
ATOM     14  O   UNL A   1      32.528  21.852  25.814  1.00  0.00    -0.480 OA
BRANCH  14  15
ATOM     15  C   UNL A   1      32.544  20.772  24.976  1.00  0.00     0.161 A 
ATOM     16  C   UNL A   1      32.221  21.042  23.646  1.00  0.00     0.050 A 
ATOM     17  C   UNL A   1      32.744  19.447  25.371  1.00  0.00     0.157 A 
ATOM     18  C   UNL A   1      32.153  20.007  22.712  1.00  0.00     0.004 A 
ATOM     19  C   UNL A   1      32.708  18.416  24.438  1.00  0.00     0.050 A 
ATOM     20  C   UNL A   1      32.408  18.695  23.106  1.00  0.00     0.004 A 
BRANCH  17  21
ATOM     21  O   UNL A   1      32.903  19.064  26.669  1.00  0.00    -0.504 OA
ATOM     22  H   UNL A   1      33.417  19.586  27.253  1.00  0.00     0.293 HD
ENDBRANCH  17  21
ENDBRANCH  14  15
ENDBRANCH  13  14
ENDBRANCH  11  13
ENDBRANCH   8  11
ENDBRANCH   1   5
BRANCH   3  23
ATOM     23  C   UNL A   1      31.404  30.709  26.538  1.00  0.00     0.117 C 
BRANCH  23  24
ATOM     24  C   UNL A   1      31.400  32.236  26.536  1.00  0.00     0.042 C 
BRANCH  24  25
ATOM     25  C   UNL A   1      32.698  32.873  27.004  1.00  0.00     0.118 C 
BRANCH  25  26
ATOM     26  N   UNL A   1      32.488  34.169  27.623  1.00  0.00    -0.352 N 
ATOM     27  C   UNL A   1      33.073  34.719  28.738  1.00  0.00     0.251 C 
ATOM     28  H   UNL A   1      31.826  34.742  27.174  1.00  0.00     0.163 HD
ATOM     29  O   UNL A   1      32.602  35.745  29.219  1.00  0.00    -0.269 OA
BRANCH  27  30
ATOM     30  C   UNL A   1      34.247  34.081  29.380  1.00  0.00     0.039 A 
ATOM     31  C   UNL A   1      34.031  33.098  30.351  1.00  0.00     0.014 A 
ATOM     32  C   UNL A   1      35.553  34.474  29.078  1.00  0.00     0.014 A 
ATOM     33  C   UNL A   1      35.118  32.477  30.973  1.00  0.00     0.010 A 
ATOM     34  C   UNL A   1      36.636  33.789  29.626  1.00  0.00     0.010 A 
ATOM     35  C   UNL A   1      36.432  32.798  30.597  1.00  0.00    -0.014 A 
BRANCH  35  36
ATOM     36  C   UNL A   1      37.605  32.142  31.234  1.00  0.00     0.031 A 
ATOM     37  C   UNL A   1      38.351  31.057  30.503  1.00  0.00     0.074 A 
ATOM     38  C   UNL A   1      37.969  32.479  32.487  1.00  0.00     0.049 A 
ATOM     39  N   UNL A   1      39.343  30.310  30.917  1.00  0.00    -0.248 NA
ATOM     40  C   UNL A   1      37.902  30.750  29.135  1.00  0.00     0.031 C 
ATOM     41  C   UNL A   1      37.307  33.482  33.322  1.00  0.00     0.029 A 
ATOM     42  N   UNL A   1      38.985  32.005  33.279  1.00  0.00    -0.354 N 
ATOM     43  C   UNL A   1      39.618  29.433  29.875  1.00  0.00     0.074 A 
ATOM     44  C   UNL A   1      38.657  29.705  28.829  1.00  0.00     0.031 C 
ATOM     45  C   UNL A   1      37.949  33.568  34.499  1.00  0.00     0.029 A 
ATOM     46  C   UNL A   1      39.043  32.602  34.516  1.00  0.00     0.049 A 
ATOM     47  H   UNL A   1      39.611  31.303  32.990  1.00  0.00     0.167 HD
ATOM     48  C   UNL A   1      40.597  28.503  29.783  1.00  0.00     0.037 A 
ATOM     49  C   UNL A   1      39.883  32.392  35.547  1.00  0.00     0.037 A 
ATOM     50  C   UNL A   1      41.583  28.261  30.802  1.00  0.00     0.049 A 
ATOM     51  C   UNL A   1      40.970  31.363  35.417  1.00  0.00     0.074 A 
ATOM     52  C   UNL A   1      42.653  27.383  30.776  1.00  0.00     0.029 A 
ATOM     53  N   UNL A   1      41.622  28.905  32.029  1.00  0.00    -0.354 N 
ATOM     54  N   UNL A   1      41.250  30.579  34.403  1.00  0.00    -0.248 NA
ATOM     55  C   UNL A   1      41.865  31.193  36.571  1.00  0.00     0.031 C 
ATOM     56  C   UNL A   1      43.322  27.473  32.002  1.00  0.00     0.029 A 
ATOM     57  C   UNL A   1      42.691  28.434  32.774  1.00  0.00     0.049 A 
ATOM     58  H   UNL A   1      40.985  29.594  32.327  1.00  0.00     0.167 HD
ATOM     59  C   UNL A   1      42.364  29.844  34.787  1.00  0.00     0.074 A 
ATOM     60  C   UNL A   1      42.717  30.283  36.121  1.00  0.00     0.031 C 
ATOM     61  C   UNL A   1      43.035  28.890  34.096  1.00  0.00     0.037 A 
BRANCH  48  62
ATOM     62  C   UNL A   1      40.657  27.684  28.526  1.00  0.00     0.057 A 
ATOM     63  C   UNL A   1      41.408  28.090  27.415  1.00  0.00     0.134 A 
ATOM     64  C   UNL A   1      39.977  26.463  28.434  1.00  0.00     0.134 A 
ATOM     65  F   UNL A   1      42.072  29.256  27.434  1.00  0.00    -0.206 F 
ATOM     66  C   UNL A   1      41.461  27.325  26.250  1.00  0.00     0.040 A 
ATOM     67  C   UNL A   1      40.043  25.677  27.283  1.00  0.00     0.040 A 
ATOM     68  F   UNL A   1      39.244  26.012  29.462  1.00  0.00    -0.206 F 
ATOM     69  C   UNL A   1      40.781  26.111  26.184  1.00  0.00     0.006 A 
ENDBRANCH  48  62
BRANCH  49  70
ATOM     70  C   UNL A   1      39.748  33.195  36.788  1.00  0.00     0.057 A 
ATOM     71  C   UNL A   1      38.852  32.817  37.794  1.00  0.00     0.134 A 
ATOM     72  C   UNL A   1      40.501  34.357  36.995  1.00  0.00     0.134 A 
ATOM     73  F   UNL A   1      38.090  31.723  37.642  1.00  0.00    -0.206 F 
ATOM     74  C   UNL A   1      38.696  33.572  38.957  1.00  0.00     0.040 A 
ATOM     75  C   UNL A   1      40.371  35.110  38.164  1.00  0.00     0.040 A 
ATOM     76  F   UNL A   1      41.380  34.768  36.071  1.00  0.00    -0.206 F 
ATOM     77  C   UNL A   1      39.462  34.721  39.146  1.00  0.00     0.006 A 
ENDBRANCH  49  70
BRANCH  61  78
ATOM     78  C   UNL A   1      44.236  28.283  34.755  1.00  0.00     0.057 A 
ATOM     79  C   UNL A   1      44.147  27.112  35.517  1.00  0.00     0.134 A 
ATOM     80  C   UNL A   1      45.503  28.857  34.591  1.00  0.00     0.134 A 
ATOM     81  F   UNL A   1      42.960  26.523  35.722  1.00  0.00    -0.206 F 
ATOM     82  C   UNL A   1      45.275  26.542  36.110  1.00  0.00     0.040 A 
ATOM     83  C   UNL A   1      46.642  28.283  35.160  1.00  0.00     0.040 A 
ATOM     84  F   UNL A   1      45.657  29.975  33.866  1.00  0.00    -0.206 F 
ATOM     85  C   UNL A   1      46.528  27.124  35.925  1.00  0.00     0.006 A 
ENDBRANCH  61  78
ENDBRANCH  35  36
ENDBRANCH  27  30
ENDBRANCH  25  26
ENDBRANCH  24  25
ENDBRANCH  23  24
ENDBRANCH   3  23
TORSDOF 15
ENDMDL
