MODEL 1
REMARK VINA RESULT:      -9.8      0.000      0.000
REMARK SMILES Nc1nc(N)nc(N/C=C/C(=O)NCCCNC(=O)c2ccc(-c3c4nc(c(-c5c(F)cccc5F)c5ccc([nH]5)c(-c5c(F)cccc5F)c5nc(c(-c6c(F)cccc6F)c6ccc3[nH]6)C=C5)C=C4)cc2)n1
REMARK SMILES IDX 14 1 13 2 11 3 12 4 10 6 9 7 8 8 7 10 2 11 3 12 74 13 4 14
REMARK SMILES IDX 6 15 1 16 5 19 15 22 16 23 17 24 18 25 19 27 20 28 21 29
REMARK SMILES IDX 73 30 22 31 72 32 23 33 24 34 25 35 66 36 26 37 71 38 65 39
REMARK SMILES IDX 67 40 27 41 70 42 64 43 63 44 28 46 54 47 37 48 53 49 38 50
REMARK SMILES IDX 41 51 52 52 68 53 39 54 40 55 51 57 69 58 42 59 29 60 30 61
REMARK SMILES IDX 35 62 31 63 32 64 34 65 36 66 33 67 55 68 56 69 61 70 57 71
REMARK SMILES IDX 58 72 60 73 62 74 59 75 43 76 44 77 49 78 45 79 46 80 48 81
REMARK SMILES IDX 50 82 47 83
REMARK H PARENT 13 5 8 9 1 17 1 18 5 20 5 21 17 26 67 45 41 56
REMARK Flexibility Score: inf
ROOT
ATOM      1  C   UNL A   1      33.625  36.431  32.145  1.00  0.00     0.118 C 
ENDROOT
BRANCH   1   2
ATOM      2  N   UNL A   1      33.105  35.112  32.476  1.00  0.00    -0.352 N 
ATOM      3  C   UNL A   1      33.686  34.029  33.056  1.00  0.00     0.245 C 
ATOM      4  O   UNL A   1      32.989  33.051  33.325  1.00  0.00    -0.270 OA
ATOM      5  H   UNL A   1      32.159  34.981  32.235  1.00  0.00     0.163 HD
BRANCH   3   6
ATOM      6  C   UNL A   1      35.112  34.018  33.459  1.00  0.00     0.089 C 
ATOM      7  C   UNL A   1      35.737  32.992  34.044  1.00  0.00     0.091 C 
BRANCH   7   8
ATOM      8  N   UNL A   1      37.052  32.901  34.409  1.00  0.00    -0.330 N 
ATOM      9  H   UNL A   1      37.467  33.702  34.804  1.00  0.00     0.169 HD
BRANCH   8  10
ATOM     10  C   UNL A   1      37.856  31.767  34.270  1.00  0.00     0.233 A 
ATOM     11  C   UNL A   1      38.265  29.823  33.243  1.00  0.00     0.226 A 
ATOM     12  N   UNL A   1      39.270  29.532  34.052  1.00  0.00    -0.177 NA
ATOM     13  N   UNL A   1      37.515  30.911  33.317  1.00  0.00    -0.177 NA
ATOM     14  C   UNL A   1      39.521  30.440  34.977  1.00  0.00     0.226 A 
ATOM     15  N   UNL A   1      38.863  31.574  35.121  1.00  0.00    -0.177 NA
BRANCH  11  16
ATOM     16  N   UNL A   1      37.979  28.926  32.254  1.00  0.00    -0.368 N 
ATOM     17  H   UNL A   1      37.084  28.520  32.202  1.00  0.00     0.159 HD
ATOM     18  H   UNL A   1      38.669  28.685  31.593  1.00  0.00     0.159 HD
ENDBRANCH  11  16
BRANCH  14  19
ATOM     19  N   UNL A   1      40.522  30.178  35.870  1.00  0.00    -0.368 N 
ATOM     20  H   UNL A   1      41.432  29.984  35.547  1.00  0.00     0.159 HD
ATOM     21  H   UNL A   1      40.333  30.183  36.836  1.00  0.00     0.159 HD
ENDBRANCH  14  19
ENDBRANCH   8  10
ENDBRANCH   7   8
ENDBRANCH   3   6
ENDBRANCH   1   2
BRANCH   1  22
ATOM     22  C   UNL A   1      32.931  37.013  30.913  1.00  0.00     0.042 C 
BRANCH  22  23
ATOM     23  C   UNL A   1      33.570  36.579  29.595  1.00  0.00     0.118 C 
BRANCH  23  24
ATOM     24  N   UNL A   1      32.764  35.584  28.898  1.00  0.00    -0.352 N 
ATOM     25  C   UNL A   1      33.105  34.345  28.414  1.00  0.00     0.251 C 
ATOM     26  H   UNL A   1      31.825  35.842  28.749  1.00  0.00     0.163 HD
ATOM     27  O   UNL A   1      32.336  33.757  27.661  1.00  0.00    -0.269 OA
BRANCH  25  28
ATOM     28  C   UNL A   1      34.394  33.720  28.780  1.00  0.00     0.039 A 
ATOM     29  C   UNL A   1      35.527  34.016  28.015  1.00  0.00     0.014 A 
ATOM     30  C   UNL A   1      34.485  32.812  29.839  1.00  0.00     0.014 A 
ATOM     31  C   UNL A   1      36.763  33.459  28.354  1.00  0.00     0.010 A 
ATOM     32  C   UNL A   1      35.728  32.305  30.214  1.00  0.00     0.010 A 
ATOM     33  C   UNL A   1      36.879  32.628  29.480  1.00  0.00    -0.014 A 
BRANCH  33  34
ATOM     34  C   UNL A   1      38.195  32.104  29.923  1.00  0.00     0.031 A 
ATOM     35  C   UNL A   1      38.685  30.770  29.437  1.00  0.00     0.074 A 
ATOM     36  C   UNL A   1      38.910  32.795  30.833  1.00  0.00     0.049 A 
ATOM     37  N   UNL A   1      39.747  30.095  29.802  1.00  0.00    -0.248 NA
ATOM     38  C   UNL A   1      37.862  30.093  28.423  1.00  0.00     0.031 C 
ATOM     39  C   UNL A   1      38.525  34.086  31.409  1.00  0.00     0.029 A 
ATOM     40  N   UNL A   1      40.100  32.500  31.449  1.00  0.00    -0.354 N 
ATOM     41  C   UNL A   1      39.709  28.911  29.079  1.00  0.00     0.074 A 
ATOM     42  C   UNL A   1      38.498  28.939  28.285  1.00  0.00     0.031 C 
ATOM     43  C   UNL A   1      39.464  34.474  32.284  1.00  0.00     0.029 A 
ATOM     44  C   UNL A   1      40.494  33.444  32.367  1.00  0.00     0.049 A 
ATOM     45  H   UNL A   1      40.621  31.688  31.253  1.00  0.00     0.167 HD
ATOM     46  C   UNL A   1      40.609  27.898  29.065  1.00  0.00     0.037 A 
ATOM     47  C   UNL A   1      41.555  33.467  33.195  1.00  0.00     0.037 A 
ATOM     48  C   UNL A   1      41.822  27.883  29.842  1.00  0.00     0.049 A 
ATOM     49  C   UNL A   1      42.526  32.321  33.179  1.00  0.00     0.074 A 
ATOM     50  C   UNL A   1      42.828  26.932  29.850  1.00  0.00     0.029 A 
ATOM     51  N   UNL A   1      42.190  28.864  30.750  1.00  0.00    -0.354 N 
ATOM     52  N   UNL A   1      42.510  31.234  32.446  1.00  0.00    -0.248 NA
ATOM     53  C   UNL A   1      43.664  32.403  34.107  1.00  0.00     0.031 C 
ATOM     54  C   UNL A   1      43.784  27.314  30.797  1.00  0.00     0.029 A 
ATOM     55  C   UNL A   1      43.396  28.528  31.344  1.00  0.00     0.049 A 
ATOM     56  H   UNL A   1      41.672  29.678  30.944  1.00  0.00     0.167 HD
ATOM     57  C   UNL A   1      43.643  30.517  32.804  1.00  0.00     0.074 A 
ATOM     58  C   UNL A   1      44.332  31.297  33.812  1.00  0.00     0.031 C 
ATOM     59  C   UNL A   1      44.072  29.318  32.342  1.00  0.00     0.037 A 
BRANCH  46  60
ATOM     60  C   UNL A   1      40.316  26.720  28.183  1.00  0.00     0.057 A 
ATOM     61  C   UNL A   1      39.432  25.706  28.574  1.00  0.00     0.134 A 
ATOM     62  C   UNL A   1      40.894  26.616  26.911  1.00  0.00     0.134 A 
ATOM     63  F   UNL A   1      38.852  25.740  29.783  1.00  0.00    -0.206 F 
ATOM     64  C   UNL A   1      39.153  24.619  27.743  1.00  0.00     0.040 A 
ATOM     65  C   UNL A   1      40.602  25.548  26.061  1.00  0.00     0.040 A 
ATOM     66  F   UNL A   1      41.744  27.557  26.470  1.00  0.00    -0.206 F 
ATOM     67  C   UNL A   1      39.734  24.542  26.480  1.00  0.00     0.006 A 
ENDBRANCH  46  60
BRANCH  47  68
ATOM     68  C   UNL A   1      41.759  34.622  34.106  1.00  0.00     0.057 A 
ATOM     69  C   UNL A   1      42.408  35.781  33.665  1.00  0.00     0.134 A 
ATOM     70  C   UNL A   1      41.315  34.596  35.434  1.00  0.00     0.134 A 
ATOM     71  F   UNL A   1      42.873  35.857  32.409  1.00  0.00    -0.206 F 
ATOM     72  C   UNL A   1      42.624  36.866  34.515  1.00  0.00     0.040 A 
ATOM     73  C   UNL A   1      41.502  35.684  36.287  1.00  0.00     0.040 A 
ATOM     74  F   UNL A   1      40.679  33.518  35.915  1.00  0.00    -0.206 F 
ATOM     75  C   UNL A   1      42.164  36.821  35.830  1.00  0.00     0.006 A 
ENDBRANCH  47  68
BRANCH  59  76
ATOM     76  C   UNL A   1      45.362  28.789  32.895  1.00  0.00     0.057 A 
ATOM     77  C   UNL A   1      46.600  29.127  32.336  1.00  0.00     0.134 A 
ATOM     78  C   UNL A   1      45.368  27.970  34.032  1.00  0.00     0.134 A 
ATOM     79  F   UNL A   1      46.661  29.896  31.237  1.00  0.00    -0.206 F 
ATOM     80  C   UNL A   1      47.797  28.659  32.877  1.00  0.00     0.040 A 
ATOM     81  C   UNL A   1      46.560  27.516  34.598  1.00  0.00     0.040 A 
ATOM     82  F   UNL A   1      44.217  27.615  34.622  1.00  0.00    -0.206 F 
ATOM     83  C   UNL A   1      47.779  27.857  34.017  1.00  0.00     0.006 A 
ENDBRANCH  59  76
ENDBRANCH  33  34
ENDBRANCH  25  28
ENDBRANCH  23  24
ENDBRANCH  22  23
ENDBRANCH   1  22
TORSDOF 14
ENDMDL
MODEL 2
REMARK VINA RESULT:      -9.7      0.087      1.904
REMARK SMILES Nc1nc(N)nc(N/C=C/C(=O)NCCCNC(=O)c2ccc(-c3c4nc(c(-c5c(F)cccc5F)c5ccc([nH]5)c(-c5c(F)cccc5F)c5nc(c(-c6c(F)cccc6F)c6ccc3[nH]6)C=C5)C=C4)cc2)n1
REMARK SMILES IDX 14 1 13 2 11 3 12 4 10 6 9 7 8 8 7 10 2 11 3 12 74 13 4 14
REMARK SMILES IDX 6 15 1 16 5 19 15 22 16 23 17 24 18 25 19 27 20 28 21 29
REMARK SMILES IDX 73 30 22 31 72 32 23 33 24 34 25 35 66 36 26 37 71 38 65 39
REMARK SMILES IDX 67 40 27 41 70 42 64 43 63 44 28 46 54 47 37 48 53 49 38 50
REMARK SMILES IDX 41 51 52 52 68 53 39 54 40 55 51 57 69 58 42 59 29 60 30 61
REMARK SMILES IDX 35 62 31 63 32 64 34 65 36 66 33 67 55 68 56 69 61 70 57 71
REMARK SMILES IDX 58 72 60 73 62 74 59 75 43 76 44 77 49 78 45 79 46 80 48 81
REMARK SMILES IDX 50 82 47 83
REMARK H PARENT 13 5 8 9 1 17 1 18 5 20 5 21 17 26 67 45 41 56
REMARK Flexibility Score: inf
ROOT
ATOM      1  C   UNL A   1      33.671  36.459  32.074  1.00  0.00     0.118 C 
ENDROOT
BRANCH   1   2
ATOM      2  N   UNL A   1      33.137  35.153  32.434  1.00  0.00    -0.352 N 
ATOM      3  C   UNL A   1      33.723  34.053  32.977  1.00  0.00     0.245 C 
ATOM      4  O   UNL A   1      33.017  33.094  33.286  1.00  0.00    -0.270 OA
ATOM      5  H   UNL A   1      32.175  35.048  32.250  1.00  0.00     0.163 HD
BRANCH   3   6
ATOM      6  C   UNL A   1      35.169  34.004  33.293  1.00  0.00     0.089 C 
ATOM      7  C   UNL A   1      35.760  33.073  34.048  1.00  0.00     0.091 C 
BRANCH   7   8
ATOM      8  N   UNL A   1      37.088  32.947  34.351  1.00  0.00    -0.330 N 
ATOM      9  H   UNL A   1      37.562  33.758  34.644  1.00  0.00     0.169 HD
BRANCH   8  10
ATOM     10  C   UNL A   1      37.828  31.764  34.279  1.00  0.00     0.233 A 
ATOM     11  C   UNL A   1      39.517  30.513  35.043  1.00  0.00     0.226 A 
ATOM     12  N   UNL A   1      39.349  29.597  34.104  1.00  0.00    -0.177 NA
ATOM     13  N   UNL A   1      38.801  31.620  35.168  1.00  0.00    -0.177 NA
ATOM     14  C   UNL A   1      38.364  29.840  33.259  1.00  0.00     0.226 A 
ATOM     15  N   UNL A   1      37.567  30.890  33.309  1.00  0.00    -0.177 NA
BRANCH  11  16
ATOM     16  N   UNL A   1      40.509  30.297  35.956  1.00  0.00    -0.368 N 
ATOM     17  H   UNL A   1      40.305  29.846  36.808  1.00  0.00     0.159 HD
ATOM     18  H   UNL A   1      41.429  30.592  35.762  1.00  0.00     0.159 HD
ENDBRANCH  11  16
BRANCH  14  19
ATOM     19  N   UNL A   1      38.166  28.951  32.240  1.00  0.00    -0.368 N 
ATOM     20  H   UNL A   1      37.264  28.823  31.865  1.00  0.00     0.159 HD
ATOM     21  H   UNL A   1      38.926  28.438  31.879  1.00  0.00     0.159 HD
ENDBRANCH  14  19
ENDBRANCH   8  10
ENDBRANCH   7   8
ENDBRANCH   3   6
ENDBRANCH   1   2
BRANCH   1  22
ATOM     22  C   UNL A   1      32.946  37.045  30.861  1.00  0.00     0.042 C 
BRANCH  22  23
ATOM     23  C   UNL A   1      33.556  36.621  29.527  1.00  0.00     0.118 C 
BRANCH  23  24
ATOM     24  N   UNL A   1      32.742  35.622  28.846  1.00  0.00    -0.352 N 
ATOM     25  C   UNL A   1      33.076  34.377  28.372  1.00  0.00     0.251 C 
ATOM     26  H   UNL A   1      31.803  35.881  28.701  1.00  0.00     0.163 HD
ATOM     27  O   UNL A   1      32.300  33.783  27.630  1.00  0.00    -0.269 OA
BRANCH  25  28
ATOM     28  C   UNL A   1      34.366  33.751  28.735  1.00  0.00     0.039 A 
ATOM     29  C   UNL A   1      35.508  34.089  28.002  1.00  0.00     0.014 A 
ATOM     30  C   UNL A   1      34.449  32.804  29.760  1.00  0.00     0.014 A 
ATOM     31  C   UNL A   1      36.744  33.532  28.340  1.00  0.00     0.010 A 
ATOM     32  C   UNL A   1      35.691  32.297  30.136  1.00  0.00     0.010 A 
ATOM     33  C   UNL A   1      36.851  32.660  29.434  1.00  0.00    -0.014 A 
BRANCH  33  34
ATOM     34  C   UNL A   1      38.165  32.133  29.879  1.00  0.00     0.031 A 
ATOM     35  C   UNL A   1      38.656  30.800  29.389  1.00  0.00     0.074 A 
ATOM     36  C   UNL A   1      38.878  32.820  30.794  1.00  0.00     0.049 A 
ATOM     37  N   UNL A   1      39.716  30.123  29.754  1.00  0.00    -0.248 NA
ATOM     38  C   UNL A   1      37.834  30.128  28.370  1.00  0.00     0.031 C 
ATOM     39  C   UNL A   1      38.492  34.108  31.374  1.00  0.00     0.029 A 
ATOM     40  N   UNL A   1      40.066  32.520  31.412  1.00  0.00    -0.354 N 
ATOM     41  C   UNL A   1      39.679  28.942  29.026  1.00  0.00     0.074 A 
ATOM     42  C   UNL A   1      38.471  28.975  28.228  1.00  0.00     0.031 C 
ATOM     43  C   UNL A   1      39.429  34.492  32.254  1.00  0.00     0.029 A 
ATOM     44  C   UNL A   1      40.458  33.460  32.335  1.00  0.00     0.049 A 
ATOM     45  H   UNL A   1      40.587  31.709  31.214  1.00  0.00     0.167 HD
ATOM     46  C   UNL A   1      40.578  27.929  29.010  1.00  0.00     0.037 A 
ATOM     47  C   UNL A   1      41.517  33.479  33.166  1.00  0.00     0.037 A 
ATOM     48  C   UNL A   1      41.789  27.910  29.790  1.00  0.00     0.049 A 
ATOM     49  C   UNL A   1      42.487  32.332  33.148  1.00  0.00     0.074 A 
ATOM     50  C   UNL A   1      42.794  26.958  29.797  1.00  0.00     0.029 A 
ATOM     51  N   UNL A   1      42.156  28.886  30.703  1.00  0.00    -0.354 N 
ATOM     52  N   UNL A   1      42.472  31.249  32.411  1.00  0.00    -0.248 NA
ATOM     53  C   UNL A   1      43.622  32.410  34.080  1.00  0.00     0.031 C 
ATOM     54  C   UNL A   1      43.748  27.335  30.749  1.00  0.00     0.029 A 
ATOM     55  C   UNL A   1      43.360  28.546  31.300  1.00  0.00     0.049 A 
ATOM     56  H   UNL A   1      41.638  29.700  30.900  1.00  0.00     0.167 HD
ATOM     57  C   UNL A   1      43.603  30.529  32.769  1.00  0.00     0.074 A 
ATOM     58  C   UNL A   1      44.290  31.304  33.782  1.00  0.00     0.031 C 
ATOM     59  C   UNL A   1      44.033  29.331  32.303  1.00  0.00     0.037 A 
BRANCH  46  60
ATOM     60  C   UNL A   1      40.287  26.755  28.122  1.00  0.00     0.057 A 
ATOM     61  C   UNL A   1      40.853  26.635  26.846  1.00  0.00     0.134 A 
ATOM     62  C   UNL A   1      39.462  25.711  28.562  1.00  0.00     0.134 A 
ATOM     63  F   UNL A   1      41.645  27.603  26.360  1.00  0.00    -0.206 F 
ATOM     64  C   UNL A   1      40.589  25.533  26.030  1.00  0.00     0.040 A 
ATOM     65  C   UNL A   1      39.213  24.592  27.766  1.00  0.00     0.040 A 
ATOM     66  F   UNL A   1      38.894  25.757  29.777  1.00  0.00    -0.206 F 
ATOM     67  C   UNL A   1      39.772  24.505  26.493  1.00  0.00     0.006 A 
ENDBRANCH  46  60
BRANCH  47  68
ATOM     68  C   UNL A   1      41.719  34.630  34.082  1.00  0.00     0.057 A 
ATOM     69  C   UNL A   1      41.245  34.593  35.399  1.00  0.00     0.134 A 
ATOM     70  C   UNL A   1      42.383  35.790  33.668  1.00  0.00     0.134 A 
ATOM     71  F   UNL A   1      40.583  33.516  35.848  1.00  0.00    -0.206 F 
ATOM     72  C   UNL A   1      41.410  35.675  36.266  1.00  0.00     0.040 A 
ATOM     73  C   UNL A   1      42.577  36.869  34.532  1.00  0.00     0.040 A 
ATOM     74  F   UNL A   1      42.867  35.885  32.421  1.00  0.00    -0.206 F 
ATOM     75  C   UNL A   1      42.084  36.815  35.834  1.00  0.00     0.006 A 
ENDBRANCH  47  68
BRANCH  59  76
ATOM     76  C   UNL A   1      45.321  28.800  32.858  1.00  0.00     0.057 A 
ATOM     77  C   UNL A   1      45.352  27.964  33.981  1.00  0.00     0.134 A 
ATOM     78  C   UNL A   1      46.541  29.088  32.232  1.00  0.00     0.134 A 
ATOM     79  F   UNL A   1      44.219  27.663  34.635  1.00  0.00    -0.206 F 
ATOM     80  C   UNL A   1      46.551  27.446  34.471  1.00  0.00     0.040 A 
ATOM     81  C   UNL A   1      47.744  28.556  32.698  1.00  0.00     0.040 A 
ATOM     82  F   UNL A   1      46.580  29.876  31.147  1.00  0.00    -0.206 F 
ATOM     83  C   UNL A   1      47.751  27.736  33.824  1.00  0.00     0.006 A 
ENDBRANCH  59  76
ENDBRANCH  33  34
ENDBRANCH  25  28
ENDBRANCH  23  24
ENDBRANCH  22  23
ENDBRANCH   1  22
TORSDOF 14
ENDMDL
MODEL 3
REMARK VINA RESULT:      -9.5      0.817      6.453
REMARK SMILES Nc1nc(N)nc(N/C=C/C(=O)NCCCNC(=O)c2ccc(-c3c4nc(c(-c5c(F)cccc5F)c5ccc([nH]5)c(-c5c(F)cccc5F)c5nc(c(-c6c(F)cccc6F)c6ccc3[nH]6)C=C5)C=C4)cc2)n1
REMARK SMILES IDX 14 1 13 2 11 3 12 4 10 6 9 7 8 8 7 10 2 11 3 12 74 13 4 14
REMARK SMILES IDX 6 15 1 16 5 19 15 22 16 23 17 24 18 25 19 27 20 28 21 29
REMARK SMILES IDX 73 30 22 31 72 32 23 33 24 34 25 35 66 36 26 37 71 38 65 39
REMARK SMILES IDX 67 40 27 41 70 42 64 43 63 44 28 46 54 47 37 48 53 49 38 50
REMARK SMILES IDX 41 51 52 52 68 53 39 54 40 55 51 57 69 58 42 59 29 60 30 61
REMARK SMILES IDX 35 62 31 63 32 64 34 65 36 66 33 67 55 68 56 69 61 70 57 71
REMARK SMILES IDX 58 72 60 73 62 74 59 75 43 76 44 77 49 78 45 79 46 80 48 81
REMARK SMILES IDX 50 82 47 83
REMARK H PARENT 13 5 8 9 1 17 1 18 5 20 5 21 17 26 67 45 41 56
REMARK Flexibility Score: inf
ROOT
ATOM      1  C   UNL A   1      33.568  36.527  32.287  1.00  0.00     0.118 C 
ENDROOT
BRANCH   1   2
ATOM      2  N   UNL A   1      33.019  35.206  32.560  1.00  0.00    -0.352 N 
ATOM      3  C   UNL A   1      33.589  34.072  33.045  1.00  0.00     0.245 C 
ATOM      4  O   UNL A   1      32.873  33.101  33.284  1.00  0.00    -0.270 OA
ATOM      5  H   UNL A   1      32.060  35.119  32.354  1.00  0.00     0.163 HD
BRANCH   3   6
ATOM      6  C   UNL A   1      35.030  33.993  33.381  1.00  0.00     0.089 C 
ATOM      7  C   UNL A   1      35.528  33.943  34.620  1.00  0.00     0.091 C 
BRANCH   7   8
ATOM      8  N   UNL A   1      36.838  33.834  35.001  1.00  0.00    -0.330 N 
ATOM      9  H   UNL A   1      37.420  34.609  34.834  1.00  0.00     0.169 HD
BRANCH   8  10
ATOM     10  C   UNL A   1      37.416  32.717  35.609  1.00  0.00     0.233 A 
ATOM     11  C   UNL A   1      38.529  30.788  35.405  1.00  0.00     0.226 A 
ATOM     12  N   UNL A   1      38.418  30.512  36.694  1.00  0.00    -0.177 NA
ATOM     13  N   UNL A   1      38.035  31.860  34.807  1.00  0.00    -0.177 NA
ATOM     14  C   UNL A   1      37.772  31.419  37.403  1.00  0.00     0.226 A 
ATOM     15  N   UNL A   1      37.269  32.539  36.920  1.00  0.00    -0.177 NA
BRANCH  11  16
ATOM     16  N   UNL A   1      39.208  29.891  34.631  1.00  0.00    -0.368 N 
ATOM     17  H   UNL A   1      39.986  29.413  34.999  1.00  0.00     0.159 HD
ATOM     18  H   UNL A   1      38.919  29.722  33.704  1.00  0.00     0.159 HD
ENDBRANCH  11  16
BRANCH  14  19
ATOM     19  N   UNL A   1      37.587  31.172  38.735  1.00  0.00    -0.368 N 
ATOM     20  H   UNL A   1      36.720  31.373  39.157  1.00  0.00     0.159 HD
ATOM     21  H   UNL A   1      38.320  30.794  39.272  1.00  0.00     0.159 HD
ENDBRANCH  14  19
ENDBRANCH   8  10
ENDBRANCH   7   8
ENDBRANCH   3   6
ENDBRANCH   1   2
BRANCH   1  22
ATOM     22  C   UNL A   1      32.985  37.121  31.004  1.00  0.00     0.042 C 
BRANCH  22  23
ATOM     23  C   UNL A   1      33.683  36.631  29.738  1.00  0.00     0.118 C 
BRANCH  23  24
ATOM     24  N   UNL A   1      32.845  35.720  28.968  1.00  0.00    -0.352 N 
ATOM     25  C   UNL A   1      33.121  34.475  28.459  1.00  0.00     0.251 C 
ATOM     26  H   UNL A   1      31.936  36.050  28.783  1.00  0.00     0.163 HD
ATOM     27  O   UNL A   1      32.352  33.967  27.650  1.00  0.00    -0.269 OA
BRANCH  25  28
ATOM     28  C   UNL A   1      34.343  33.746  28.866  1.00  0.00     0.039 A 
ATOM     29  C   UNL A   1      35.533  33.988  28.172  1.00  0.00     0.014 A 
ATOM     30  C   UNL A   1      34.313  32.797  29.891  1.00  0.00     0.014 A 
ATOM     31  C   UNL A   1      36.707  33.332  28.552  1.00  0.00     0.010 A 
ATOM     32  C   UNL A   1      35.495  32.190  30.309  1.00  0.00     0.010 A 
ATOM     33  C   UNL A   1      36.704  32.456  29.648  1.00  0.00    -0.014 A 
BRANCH  33  34
ATOM     34  C   UNL A   1      37.955  31.824  30.137  1.00  0.00     0.031 A 
ATOM     35  C   UNL A   1      38.828  32.535  31.132  1.00  0.00     0.074 A 
ATOM     36  C   UNL A   1      38.347  30.643  29.618  1.00  0.00     0.049 A 
ATOM     37  N   UNL A   1      40.009  32.198  31.586  1.00  0.00    -0.248 NA
ATOM     38  C   UNL A   1      38.315  33.804  31.672  1.00  0.00     0.031 C 
ATOM     39  C   UNL A   1      37.605  29.870  28.620  1.00  0.00     0.029 A 
ATOM     40  N   UNL A   1      39.476  29.896  29.843  1.00  0.00    -0.354 N 
ATOM     41  C   UNL A   1      40.388  33.219  32.447  1.00  0.00     0.074 A 
ATOM     42  C   UNL A   1      39.330  34.208  32.422  1.00  0.00     0.031 C 
ATOM     43  C   UNL A   1      38.292  28.756  28.326  1.00  0.00     0.029 A 
ATOM     44  C   UNL A   1      39.542  28.756  29.080  1.00  0.00     0.049 A 
ATOM     45  H   UNL A   1      40.173  30.155  30.489  1.00  0.00     0.167 HD
ATOM     46  C   UNL A   1      41.509  33.317  33.202  1.00  0.00     0.037 A 
ATOM     47  C   UNL A   1      40.510  27.825  28.984  1.00  0.00     0.037 A 
ATOM     48  C   UNL A   1      42.549  32.321  33.240  1.00  0.00     0.049 A 
ATOM     49  C   UNL A   1      41.754  27.968  29.813  1.00  0.00     0.074 A 
ATOM     50  C   UNL A   1      43.693  32.299  34.019  1.00  0.00     0.029 A 
ATOM     51  N   UNL A   1      42.573  31.175  32.461  1.00  0.00    -0.354 N 
ATOM     52  N   UNL A   1      42.073  28.908  30.669  1.00  0.00    -0.248 NA
ATOM     53  C   UNL A   1      42.775  26.920  29.663  1.00  0.00     0.031 C 
ATOM     54  C   UNL A   1      44.432  31.162  33.679  1.00  0.00     0.029 A 
ATOM     55  C   UNL A   1      43.726  30.451  32.721  1.00  0.00     0.049 A 
ATOM     56  H   UNL A   1      41.875  30.914  31.817  1.00  0.00     0.167 HD
ATOM     57  C   UNL A   1      43.315  28.555  31.177  1.00  0.00     0.074 A 
ATOM     58  C   UNL A   1      43.688  27.307  30.543  1.00  0.00     0.031 C 
ATOM     59  C   UNL A   1      44.080  29.207  32.086  1.00  0.00     0.037 A 
BRANCH  46  60
ATOM     60  C   UNL A   1      41.669  34.543  34.052  1.00  0.00     0.057 A 
ATOM     61  C   UNL A   1      41.206  34.593  35.373  1.00  0.00     0.134 A 
ATOM     62  C   UNL A   1      42.329  35.676  33.557  1.00  0.00     0.134 A 
ATOM     63  F   UNL A   1      40.557  33.546  35.905  1.00  0.00    -0.206 F 
ATOM     64  C   UNL A   1      41.371  35.733  36.163  1.00  0.00     0.040 A 
ATOM     65  C   UNL A   1      42.523  36.811  34.346  1.00  0.00     0.040 A 
ATOM     66  F   UNL A   1      42.805  35.693  32.303  1.00  0.00    -0.206 F 
ATOM     67  C   UNL A   1      42.037  36.843  35.651  1.00  0.00     0.006 A 
ENDBRANCH  46  60
BRANCH  47  68
ATOM     68  C   UNL A   1      40.336  26.668  28.069  1.00  0.00     0.057 A 
ATOM     69  C   UNL A   1      40.963  26.640  26.818  1.00  0.00     0.134 A 
ATOM     70  C   UNL A   1      39.542  25.569  28.418  1.00  0.00     0.134 A 
ATOM     71  F   UNL A   1      41.720  27.672  26.418  1.00  0.00    -0.206 F 
ATOM     72  C   UNL A   1      40.792  25.568  25.939  1.00  0.00     0.040 A 
ATOM     73  C   UNL A   1      39.384  24.480  27.560  1.00  0.00     0.040 A 
ATOM     74  F   UNL A   1      38.921  25.532  29.606  1.00  0.00    -0.206 F 
ATOM     75  C   UNL A   1      40.006  24.481  26.313  1.00  0.00     0.006 A 
ENDBRANCH  47  68
BRANCH  59  76
ATOM     76  C   UNL A   1      45.381  28.570  32.474  1.00  0.00     0.057 A 
ATOM     77  C   UNL A   1      46.578  28.877  31.817  1.00  0.00     0.134 A 
ATOM     78  C   UNL A   1      45.444  27.674  33.550  1.00  0.00     0.134 A 
ATOM     79  F   UNL A   1      46.583  29.716  30.770  1.00  0.00    -0.206 F 
ATOM     80  C   UNL A   1      47.790  28.305  32.206  1.00  0.00     0.040 A 
ATOM     81  C   UNL A   1      46.653  27.115  33.964  1.00  0.00     0.040 A 
ATOM     82  F   UNL A   1      44.334  27.343  34.226  1.00  0.00    -0.206 F 
ATOM     83  C   UNL A   1      47.830  27.427  33.288  1.00  0.00     0.006 A 
ENDBRANCH  59  76
ENDBRANCH  33  34
ENDBRANCH  25  28
ENDBRANCH  23  24
ENDBRANCH  22  23
ENDBRANCH   1  22
TORSDOF 14
ENDMDL
