MODEL 1
REMARK VINA RESULT:     -14.4      0.000      0.000
REMARK SMILES O=C(Cn1cc(/C=C2\SC(N3CCOCC3)=[NH+]C2=O)c2ccccc21)NCCCNC(=O)c1ccc(-c2c3nc(c(-c4c(F)cccc4F)c4ccc([nH]4)c(-c4c(F)cccc4F)c4nc(c(-c5c(F)cccc5F)c5ccc2[nH]5)C=C4)C=C3)cc1
REMARK SMILES IDX 28 1 27 2 26 3 1 4 2 5 3 7 4 8 5 9 25 10 6 11 20 12 24 13
REMARK SMILES IDX 21 14 23 15 22 16 7 17 8 18 9 19 18 20 10 21 17 22 19 23
REMARK SMILES IDX 11 24 12 26 16 27 13 28 15 29 14 30 29 31 30 32 31 33 32 35
REMARK SMILES IDX 33 36 34 37 86 38 35 39 85 40 36 41 37 42 38 43 79 44 39 45
REMARK SMILES IDX 84 46 78 47 80 48 40 49 83 50 77 51 76 52 41 54 67 55 50 56
REMARK SMILES IDX 66 57 51 58 54 59 65 60 81 61 52 62 53 63 64 65 82 66 55 67
REMARK SMILES IDX 42 68 43 69 48 70 44 71 45 72 47 73 49 74 46 75 68 76 69 77
REMARK SMILES IDX 74 78 70 79 71 80 73 81 75 82 72 83 56 84 57 85 62 86 58 87
REMARK SMILES IDX 59 88 61 89 63 90 60 91
REMARK H PARENT 26 6 17 25 30 34 80 53 54 64
REMARK Flexibility Score: inf
ROOT
ATOM      1  C   UNL A   1      40.181  24.437  26.975  1.00  0.00     0.042 C 
ENDROOT
BRANCH   1   2
ATOM      2  C   UNL A   1      38.729  24.455  26.504  1.00  0.00     0.117 C 
BRANCH   2   3
ATOM      3  N   UNL A   1      38.188  23.113  26.413  1.00  0.00    -0.354 N 
ATOM      4  O   UNL A   1      37.155  23.389  24.389  1.00  0.00    -0.273 OA
ATOM      5  C   UNL A   1      37.469  22.659  25.326  1.00  0.00     0.239 C 
ATOM      6  H   UNL A   1      38.340  22.495  27.164  1.00  0.00     0.163 HD
BRANCH   5   7
ATOM      7  C   UNL A   1      37.017  21.210  25.392  1.00  0.00     0.222 C 
BRANCH   7   8
ATOM      8  N   UNL A   1      35.568  21.079  25.459  1.00  0.00    -0.337 N 
ATOM      9  C   UNL A   1      34.720  22.054  25.921  1.00  0.00     0.095 A 
ATOM     10  C   UNL A   1      34.835  19.981  25.050  1.00  0.00     0.049 A 
ATOM     11  C   UNL A   1      33.442  21.551  25.908  1.00  0.00     0.001 A 
ATOM     12  C   UNL A   1      33.494  20.244  25.361  1.00  0.00     0.007 A 
ATOM     13  C   UNL A   1      35.227  18.778  24.442  1.00  0.00     0.027 A 
ATOM     14  C   UNL A   1      32.519  19.272  25.066  1.00  0.00     0.011 A 
ATOM     15  C   UNL A   1      34.239  17.829  24.160  1.00  0.00     0.002 A 
ATOM     16  C   UNL A   1      32.904  18.070  24.468  1.00  0.00     0.001 A 
BRANCH  11  17
ATOM     17  C   UNL A   1      32.289  22.279  26.326  1.00  0.00     0.034 C 
ATOM     18  C   UNL A   1      31.967  23.511  25.906  1.00  0.00     0.110 C 
ATOM     19  S   UNL A   1      32.796  24.457  24.733  1.00  0.00     0.006 SA
ATOM     20  C   UNL A   1      30.778  24.267  26.391  1.00  0.00     0.346 C 
ATOM     21  C   UNL A   1      31.658  25.760  24.989  1.00  0.00     0.319 C 
ATOM     22  N   UNL A   1      30.735  25.542  25.864  1.00  0.00    -0.200 N 
ATOM     23  O   UNL A   1      29.956  23.795  27.164  1.00  0.00    -0.240 OA
ATOM     24  N   UNL A   1      31.872  26.918  24.300  1.00  0.00    -0.251 N 
ATOM     25  H   UNL A   1      30.067  26.216  26.128  1.00  0.00     0.316 HD
ATOM     26  C   UNL A   1      31.930  26.998  22.838  1.00  0.00     0.265 C 
ATOM     27  C   UNL A   1      32.003  28.212  24.964  1.00  0.00     0.265 C 
ATOM     28  C   UNL A   1      33.217  27.717  22.416  1.00  0.00     0.206 C 
ATOM     29  C   UNL A   1      33.303  28.878  24.475  1.00  0.00     0.206 C 
ATOM     30  O   UNL A   1      33.320  29.009  23.042  1.00  0.00    -0.373 OA
ENDBRANCH  11  17
ENDBRANCH   7   8
ENDBRANCH   5   7
ENDBRANCH   2   3
ENDBRANCH   1   2
BRANCH   1  31
ATOM     31  C   UNL A   1      41.102  25.401  26.219  1.00  0.00     0.118 C 
BRANCH  31  32
ATOM     32  N   UNL A   1      40.648  26.783  26.248  1.00  0.00    -0.352 N 
ATOM     33  C   UNL A   1      40.439  27.722  27.230  1.00  0.00     0.251 C 
ATOM     34  H   UNL A   1      40.444  27.129  25.349  1.00  0.00     0.163 HD
ATOM     35  O   UNL A   1      40.116  28.847  26.837  1.00  0.00    -0.269 OA
BRANCH  33  36
ATOM     36  C   UNL A   1      40.409  27.483  28.713  1.00  0.00     0.039 A 
ATOM     37  C   UNL A   1      39.458  26.762  29.373  1.00  0.00     0.014 A 
ATOM     38  C   UNL A   1      40.930  28.536  29.503  1.00  0.00     0.014 A 
ATOM     39  C   UNL A   1      38.820  27.507  30.499  1.00  0.00     0.010 A 
ATOM     40  C   UNL A   1      40.590  28.720  30.841  1.00  0.00     0.010 A 
ATOM     41  C   UNL A   1      39.253  28.948  30.912  1.00  0.00    -0.014 A 
BRANCH  41  42
ATOM     42  C   UNL A   1      38.908  30.225  32.180  1.00  0.00     0.031 A 
ATOM     43  C   UNL A   1      37.698  30.832  30.880  1.00  0.00     0.074 A 
ATOM     44  C   UNL A   1      39.413  30.627  33.763  1.00  0.00     0.049 A 
ATOM     45  N   UNL A   1      38.041  31.479  29.772  1.00  0.00    -0.248 NA
ATOM     46  C   UNL A   1      36.263  30.204  30.223  1.00  0.00     0.031 C 
ATOM     47  C   UNL A   1      40.284  30.106  35.219  1.00  0.00     0.029 A 
ATOM     48  N   UNL A   1      39.404  31.879  34.667  1.00  0.00    -0.354 N 
ATOM     49  C   UNL A   1      36.835  32.075  29.320  1.00  0.00     0.074 A 
ATOM     50  C   UNL A   1      35.789  31.152  29.380  1.00  0.00     0.031 C 
ATOM     51  C   UNL A   1      40.182  30.677  36.523  1.00  0.00     0.029 A 
ATOM     52  C   UNL A   1      39.396  31.911  36.188  1.00  0.00     0.049 A 
ATOM     53  H   UNL A   1      39.401  32.750  34.210  1.00  0.00     0.167 HD
ATOM     54  C   UNL A   1      36.631  33.381  29.569  1.00  0.00     0.037 A 
ATOM     55  C   UNL A   1      38.794  32.903  37.041  1.00  0.00     0.037 A 
ATOM     56  C   UNL A   1      37.886  33.892  30.008  1.00  0.00     0.049 A 
ATOM     57  C   UNL A   1      38.338  33.868  36.002  1.00  0.00     0.074 A 
ATOM     58  C   UNL A   1      39.126  33.866  29.402  1.00  0.00     0.029 A 
ATOM     59  N   UNL A   1      38.080  33.731  31.346  1.00  0.00    -0.354 N 
ATOM     60  N   UNL A   1      39.190  34.532  35.256  1.00  0.00    -0.248 NA
ATOM     61  C   UNL A   1      37.099  33.380  35.382  1.00  0.00     0.031 C 
ATOM     62  C   UNL A   1      40.079  33.657  30.423  1.00  0.00     0.029 A 
ATOM     63  C   UNL A   1      39.405  33.692  31.633  1.00  0.00     0.049 A 
ATOM     64  H   UNL A   1      37.359  33.652  32.011  1.00  0.00     0.167 HD
ATOM     65  C   UNL A   1      38.872  34.146  33.954  1.00  0.00     0.074 A 
ATOM     66  C   UNL A   1      37.483  33.481  34.098  1.00  0.00     0.031 C 
ATOM     67  C   UNL A   1      39.839  33.824  32.981  1.00  0.00     0.037 A 
BRANCH  54  68
ATOM     68  C   UNL A   1      35.330  34.030  29.894  1.00  0.00     0.057 A 
ATOM     69  C   UNL A   1      34.725  34.265  31.152  1.00  0.00     0.134 A 
ATOM     70  C   UNL A   1      34.746  34.648  28.795  1.00  0.00     0.134 A 
ATOM     71  F   UNL A   1      35.191  33.760  32.304  1.00  0.00    -0.206 F 
ATOM     72  C   UNL A   1      33.628  35.115  31.285  1.00  0.00     0.040 A 
ATOM     73  C   UNL A   1      33.751  35.599  28.939  1.00  0.00     0.040 A 
ATOM     74  F   UNL A   1      35.179  34.361  27.558  1.00  0.00    -0.206 F 
ATOM     75  C   UNL A   1      33.225  35.873  30.195  1.00  0.00     0.006 A 
ENDBRANCH  54  68
BRANCH  55  76
ATOM     76  C   UNL A   1      37.941  32.704  38.375  1.00  0.00     0.057 A 
ATOM     77  C   UNL A   1      38.122  33.719  39.330  1.00  0.00     0.134 A 
ATOM     78  C   UNL A   1      37.216  31.589  38.915  1.00  0.00     0.134 A 
ATOM     79  F   UNL A   1      38.813  34.810  38.989  1.00  0.00    -0.206 F 
ATOM     80  C   UNL A   1      37.663  33.681  40.663  1.00  0.00     0.040 A 
ATOM     81  C   UNL A   1      36.655  31.581  40.242  1.00  0.00     0.040 A 
ATOM     82  F   UNL A   1      37.020  30.460  38.212  1.00  0.00    -0.206 F 
ATOM     83  C   UNL A   1      36.860  32.648  41.111  1.00  0.00     0.006 A 
ENDBRANCH  55  76
BRANCH  67  84
ATOM     84  C   UNL A   1      41.395  33.823  33.158  1.00  0.00     0.057 A 
ATOM     85  C   UNL A   1      41.964  35.053  33.441  1.00  0.00     0.134 A 
ATOM     86  C   UNL A   1      42.376  32.819  32.898  1.00  0.00     0.134 A 
ATOM     87  F   UNL A   1      41.199  36.151  33.433  1.00  0.00    -0.206 F 
ATOM     88  C   UNL A   1      43.328  35.213  33.696  1.00  0.00     0.040 A 
ATOM     89  C   UNL A   1      43.709  32.903  33.332  1.00  0.00     0.040 A 
ATOM     90  F   UNL A   1      42.125  31.735  32.163  1.00  0.00    -0.206 F 
ATOM     91  C   UNL A   1      44.165  34.110  33.812  1.00  0.00     0.006 A 
ENDBRANCH  67  84
ENDBRANCH  41  42
ENDBRANCH  33  36
ENDBRANCH  31  32
ENDBRANCH   1  31
TORSDOF 12
ENDMDL
MODEL 2
REMARK VINA RESULT:     -14.3      1.947      4.620
REMARK SMILES O=C(Cn1cc(/C=C2\SC(N3CCOCC3)=[NH+]C2=O)c2ccccc21)NCCCNC(=O)c1ccc(-c2c3nc(c(-c4c(F)cccc4F)c4ccc([nH]4)c(-c4c(F)cccc4F)c4nc(c(-c5c(F)cccc5F)c5ccc2[nH]5)C=C4)C=C3)cc1
REMARK SMILES IDX 28 1 27 2 26 3 1 4 2 5 3 7 4 8 5 9 25 10 6 11 20 12 24 13
REMARK SMILES IDX 21 14 23 15 22 16 7 17 8 18 9 19 18 20 10 21 17 22 19 23
REMARK SMILES IDX 11 24 12 26 16 27 13 28 15 29 14 30 29 31 30 32 31 33 32 35
REMARK SMILES IDX 33 36 34 37 86 38 35 39 85 40 36 41 37 42 38 43 79 44 39 45
REMARK SMILES IDX 84 46 78 47 80 48 40 49 83 50 77 51 76 52 41 54 67 55 50 56
REMARK SMILES IDX 66 57 51 58 54 59 65 60 81 61 52 62 53 63 64 65 82 66 55 67
REMARK SMILES IDX 42 68 43 69 48 70 44 71 45 72 47 73 49 74 46 75 68 76 69 77
REMARK SMILES IDX 74 78 70 79 71 80 73 81 75 82 72 83 56 84 57 85 62 86 58 87
REMARK SMILES IDX 59 88 61 89 63 90 60 91
REMARK H PARENT 26 6 17 25 30 34 80 53 54 64
REMARK Flexibility Score: inf
ROOT
ATOM      1  C   UNL A   1      36.536  29.484  28.598  1.00  0.00     0.042 C 
ENDROOT
BRANCH   1   2
ATOM      2  C   UNL A   1      35.423  30.351  28.015  1.00  0.00     0.117 C 
BRANCH   2   3
ATOM      3  N   UNL A   1      34.955  29.825  26.748  1.00  0.00    -0.354 N 
ATOM      4  O   UNL A   1      32.747  30.348  27.051  1.00  0.00    -0.273 OA
ATOM      5  C   UNL A   1      33.641  29.904  26.334  1.00  0.00     0.239 C 
ATOM      6  H   UNL A   1      35.607  29.389  26.153  1.00  0.00     0.163 HD
BRANCH   5   7
ATOM      7  C   UNL A   1      33.347  29.334  24.957  1.00  0.00     0.222 C 
BRANCH   7   8
ATOM      8  N   UNL A   1      32.183  28.458  24.952  1.00  0.00    -0.337 N 
ATOM      9  C   UNL A   1      32.000  27.406  25.813  1.00  0.00     0.095 A 
ATOM     10  C   UNL A   1      31.093  28.565  24.109  1.00  0.00     0.049 A 
ATOM     11  C   UNL A   1      30.836  26.765  25.465  1.00  0.00     0.001 A 
ATOM     12  C   UNL A   1      30.249  27.483  24.392  1.00  0.00     0.007 A 
ATOM     13  C   UNL A   1      30.773  29.510  23.121  1.00  0.00     0.027 A 
ATOM     14  C   UNL A   1      29.057  27.334  23.657  1.00  0.00     0.011 A 
ATOM     15  C   UNL A   1      29.583  29.339  22.407  1.00  0.00     0.002 A 
ATOM     16  C   UNL A   1      28.737  28.267  22.667  1.00  0.00     0.001 A 
BRANCH  11  17
ATOM     17  C   UNL A   1      30.320  25.617  26.135  1.00  0.00     0.034 C 
ATOM     18  C   UNL A   1      30.991  24.471  26.320  1.00  0.00     0.110 C 
ATOM     19  S   UNL A   1      32.619  24.140  25.876  1.00  0.00     0.006 SA
ATOM     20  C   UNL A   1      30.413  23.271  26.987  1.00  0.00     0.346 C 
ATOM     21  C   UNL A   1      32.443  22.506  26.473  1.00  0.00     0.319 C 
ATOM     22  N   UNL A   1      31.287  22.203  26.961  1.00  0.00    -0.200 N 
ATOM     23  O   UNL A   1      29.296  23.258  27.487  1.00  0.00    -0.240 OA
ATOM     24  N   UNL A   1      33.508  21.668  26.317  1.00  0.00    -0.251 N 
ATOM     25  H   UNL A   1      31.053  21.303  27.284  1.00  0.00     0.316 HD
ATOM     26  C   UNL A   1      34.840  21.930  26.868  1.00  0.00     0.265 C 
ATOM     27  C   UNL A   1      33.400  20.384  25.630  1.00  0.00     0.265 C 
ATOM     28  C   UNL A   1      35.888  21.800  25.756  1.00  0.00     0.206 C 
ATOM     29  C   UNL A   1      34.493  20.321  24.547  1.00  0.00     0.206 C 
ATOM     30  O   UNL A   1      35.803  20.517  25.110  1.00  0.00    -0.373 OA
ENDBRANCH  11  17
ENDBRANCH   7   8
ENDBRANCH   5   7
ENDBRANCH   2   3
ENDBRANCH   1   2
BRANCH   1  31
ATOM     31  C   UNL A   1      37.951  29.989  28.300  1.00  0.00     0.118 C 
BRANCH  31  32
ATOM     32  N   UNL A   1      38.873  28.937  27.897  1.00  0.00    -0.352 N 
ATOM     33  C   UNL A   1      39.550  27.931  28.546  1.00  0.00     0.251 C 
ATOM     34  H   UNL A   1      39.052  28.946  26.929  1.00  0.00     0.163 HD
ATOM     35  O   UNL A   1      40.195  27.166  27.822  1.00  0.00    -0.269 OA
BRANCH  33  36
ATOM     36  C   UNL A   1      39.710  27.765  30.030  1.00  0.00     0.039 A 
ATOM     37  C   UNL A   1      38.763  27.258  30.870  1.00  0.00     0.014 A 
ATOM     38  C   UNL A   1      40.522  28.740  30.661  1.00  0.00     0.014 A 
ATOM     39  C   UNL A   1      38.447  28.154  32.022  1.00  0.00     0.010 A 
ATOM     40  C   UNL A   1      40.430  29.040  32.018  1.00  0.00     0.010 A 
ATOM     41  C   UNL A   1      39.180  29.509  32.266  1.00  0.00    -0.014 A 
BRANCH  41  42
ATOM     42  C   UNL A   1      39.262  30.880  33.478  1.00  0.00     0.031 A 
ATOM     43  C   UNL A   1      37.752  31.472  32.534  1.00  0.00     0.074 A 
ATOM     44  C   UNL A   1      40.216  31.353  34.816  1.00  0.00     0.049 A 
ATOM     45  N   UNL A   1      37.784  32.028  31.329  1.00  0.00    -0.248 NA
ATOM     46  C   UNL A   1      36.166  30.887  32.363  1.00  0.00     0.031 C 
ATOM     47  C   UNL A   1      41.451  30.876  35.999  1.00  0.00     0.029 A 
ATOM     48  N   UNL A   1      40.513  32.657  35.587  1.00  0.00    -0.354 N 
ATOM     49  C   UNL A   1      36.522  32.662  31.194  1.00  0.00     0.074 A 
ATOM     50  C   UNL A   1      35.504  31.806  31.620  1.00  0.00     0.031 C 
ATOM     51  C   UNL A   1      41.750  31.532  37.231  1.00  0.00     0.029 A 
ATOM     52  C   UNL A   1      40.946  32.785  37.040  1.00  0.00     0.049 A 
ATOM     53  H   UNL A   1      40.410  33.497  35.084  1.00  0.00     0.167 HD
ATOM     54  C   UNL A   1      36.445  33.991  31.391  1.00  0.00     0.037 A 
ATOM     55  C   UNL A   1      40.651  33.861  37.951  1.00  0.00     0.037 A 
ATOM     56  C   UNL A   1      37.791  34.456  31.414  1.00  0.00     0.049 A 
ATOM     57  C   UNL A   1      39.950  34.783  37.014  1.00  0.00     0.074 A 
ATOM     58  C   UNL A   1      38.802  34.322  30.483  1.00  0.00     0.029 A 
ATOM     59  N   UNL A   1      38.356  34.368  32.649  1.00  0.00    -0.354 N 
ATOM     60  N   UNL A   1      40.575  35.350  36.007  1.00  0.00    -0.248 NA
ATOM     61  C   UNL A   1      38.568  34.328  36.811  1.00  0.00     0.031 C 
ATOM     62  C   UNL A   1      40.001  34.124  31.204  1.00  0.00     0.029 A 
ATOM     63  C   UNL A   1      39.706  34.273  32.548  1.00  0.00     0.049 A 
ATOM     64  H   UNL A   1      37.856  34.373  33.496  1.00  0.00     0.167 HD
ATOM     65  C   UNL A   1      39.881  34.901  34.883  1.00  0.00     0.074 A 
ATOM     66  C   UNL A   1      38.570  34.326  35.468  1.00  0.00     0.031 C 
ATOM     67  C   UNL A   1      40.514  34.465  33.703  1.00  0.00     0.037 A 
BRANCH  54  68
ATOM     68  C   UNL A   1      35.317  34.732  32.023  1.00  0.00     0.057 A 
ATOM     69  C   UNL A   1      35.163  35.179  33.356  1.00  0.00     0.134 A 
ATOM     70  C   UNL A   1      34.391  35.196  31.096  1.00  0.00     0.134 A 
ATOM     71  F   UNL A   1      35.994  34.839  34.352  1.00  0.00    -0.206 F 
ATOM     72  C   UNL A   1      34.161  36.082  33.711  1.00  0.00     0.040 A 
ATOM     73  C   UNL A   1      33.488  36.196  31.411  1.00  0.00     0.040 A 
ATOM     74  F   UNL A   1      34.392  34.707  29.848  1.00  0.00    -0.206 F 
ATOM     75  C   UNL A   1      33.406  36.679  32.711  1.00  0.00     0.006 A 
ENDBRANCH  54  68
BRANCH  55  76
ATOM     76  C   UNL A   1      40.212  33.795  39.483  1.00  0.00     0.057 A 
ATOM     77  C   UNL A   1      41.043  34.525  40.352  1.00  0.00     0.134 A 
ATOM     78  C   UNL A   1      39.299  32.954  40.203  1.00  0.00     0.134 A 
ATOM     79  F   UNL A   1      41.975  35.327  39.829  1.00  0.00    -0.206 F 
ATOM     80  C   UNL A   1      41.011  34.464  41.760  1.00  0.00     0.040 A 
ATOM     81  C   UNL A   1      39.188  32.959  41.640  1.00  0.00     0.040 A 
ATOM     82  F   UNL A   1      38.484  32.089  39.577  1.00  0.00    -0.206 F 
ATOM     83  C   UNL A   1      40.034  33.740  42.420  1.00  0.00     0.006 A 
ENDBRANCH  55  76
BRANCH  67  84
ATOM     84  C   UNL A   1      42.055  34.386  33.429  1.00  0.00     0.057 A 
ATOM     85  C   UNL A   1      42.724  35.597  33.441  1.00  0.00     0.134 A 
ATOM     86  C   UNL A   1      42.882  33.313  32.979  1.00  0.00     0.134 A 
ATOM     87  F   UNL A   1      42.030  36.734  33.567  1.00  0.00    -0.206 F 
ATOM     88  C   UNL A   1      44.109  35.696  33.284  1.00  0.00     0.040 A 
ATOM     89  C   UNL A   1      44.285  33.350  33.007  1.00  0.00     0.040 A 
ATOM     90  F   UNL A   1      42.390  32.201  32.432  1.00  0.00    -0.206 F 
ATOM     91  C   UNL A   1      44.903  34.557  33.242  1.00  0.00     0.006 A 
ENDBRANCH  67  84
ENDBRANCH  41  42
ENDBRANCH  33  36
ENDBRANCH  31  32
ENDBRANCH   1  31
TORSDOF 12
ENDMDL
MODEL 3
REMARK VINA RESULT:     -14.1      6.699     11.505
REMARK SMILES O=C(Cn1cc(/C=C2\SC(N3CCOCC3)=[NH+]C2=O)c2ccccc21)NCCCNC(=O)c1ccc(-c2c3nc(c(-c4c(F)cccc4F)c4ccc([nH]4)c(-c4c(F)cccc4F)c4nc(c(-c5c(F)cccc5F)c5ccc2[nH]5)C=C4)C=C3)cc1
REMARK SMILES IDX 28 1 27 2 26 3 1 4 2 5 3 7 4 8 5 9 25 10 6 11 20 12 24 13
REMARK SMILES IDX 21 14 23 15 22 16 7 17 8 18 9 19 18 20 10 21 17 22 19 23
REMARK SMILES IDX 11 24 12 26 16 27 13 28 15 29 14 30 29 31 30 32 31 33 32 35
REMARK SMILES IDX 33 36 34 37 86 38 35 39 85 40 36 41 37 42 38 43 79 44 39 45
REMARK SMILES IDX 84 46 78 47 80 48 40 49 83 50 77 51 76 52 41 54 67 55 50 56
REMARK SMILES IDX 66 57 51 58 54 59 65 60 81 61 52 62 53 63 64 65 82 66 55 67
REMARK SMILES IDX 42 68 43 69 48 70 44 71 45 72 47 73 49 74 46 75 68 76 69 77
REMARK SMILES IDX 74 78 70 79 71 80 73 81 75 82 72 83 56 84 57 85 62 86 58 87
REMARK SMILES IDX 59 88 61 89 63 90 60 91
REMARK H PARENT 26 6 17 25 30 34 80 53 54 64
REMARK Flexibility Score: inf
ROOT
ATOM      1  C   UNL A   1      39.784  23.981  27.446  1.00  0.00     0.042 C 
ENDROOT
BRANCH   1   2
ATOM      2  C   UNL A   1      39.254  23.012  26.393  1.00  0.00     0.117 C 
BRANCH   2   3
ATOM      3  N   UNL A   1      37.831  22.786  26.553  1.00  0.00    -0.354 N 
ATOM      4  O   UNL A   1      37.619  21.263  24.858  1.00  0.00    -0.273 OA
ATOM      5  C   UNL A   1      37.117  21.882  25.793  1.00  0.00     0.239 C 
ATOM      6  H   UNL A   1      37.349  23.304  27.238  1.00  0.00     0.163 HD
BRANCH   5   7
ATOM      7  C   UNL A   1      35.643  21.752  26.133  1.00  0.00     0.222 C 
BRANCH   7   8
ATOM      8  N   UNL A   1      34.790  21.805  24.954  1.00  0.00    -0.337 N 
ATOM      9  C   UNL A   1      34.777  22.837  24.050  1.00  0.00     0.095 A 
ATOM     10  C   UNL A   1      33.897  20.827  24.556  1.00  0.00     0.049 A 
ATOM     11  C   UNL A   1      33.801  22.579  23.118  1.00  0.00     0.001 A 
ATOM     12  C   UNL A   1      33.235  21.314  23.421  1.00  0.00     0.007 A 
ATOM     13  C   UNL A   1      33.605  19.563  25.092  1.00  0.00     0.027 A 
ATOM     14  C   UNL A   1      32.245  20.519  22.812  1.00  0.00     0.011 A 
ATOM     15  C   UNL A   1      32.618  18.794  24.468  1.00  0.00     0.002 A 
ATOM     16  C   UNL A   1      31.945  19.264  23.345  1.00  0.00     0.001 A 
BRANCH  11  17
ATOM     17  C   UNL A   1      33.491  23.436  22.022  1.00  0.00     0.034 C 
ATOM     18  C   UNL A   1      33.242  24.750  22.123  1.00  0.00     0.110 C 
ATOM     19  S   UNL A   1      33.312  25.712  23.547  1.00  0.00     0.006 SA
ATOM     20  C   UNL A   1      32.879  25.616  20.966  1.00  0.00     0.346 C 
ATOM     21  C   UNL A   1      32.801  27.106  22.623  1.00  0.00     0.319 C 
ATOM     22  N   UNL A   1      32.588  26.904  21.366  1.00  0.00    -0.200 N 
ATOM     23  O   UNL A   1      32.847  25.210  19.813  1.00  0.00    -0.240 OA
ATOM     24  N   UNL A   1      32.606  28.269  23.308  1.00  0.00    -0.251 N 
ATOM     25  H   UNL A   1      32.252  27.600  20.754  1.00  0.00     0.316 HD
ATOM     26  C   UNL A   1      33.645  28.934  24.099  1.00  0.00     0.265 C 
ATOM     27  C   UNL A   1      31.344  29.003  23.263  1.00  0.00     0.265 C 
ATOM     28  C   UNL A   1      33.111  29.218  25.508  1.00  0.00     0.206 C 
ATOM     29  C   UNL A   1      30.886  29.265  24.710  1.00  0.00     0.206 C 
ATOM     30  O   UNL A   1      31.889  29.975  25.458  1.00  0.00    -0.373 OA
ENDBRANCH  11  17
ENDBRANCH   7   8
ENDBRANCH   5   7
ENDBRANCH   2   3
ENDBRANCH   1   2
BRANCH   1  31
ATOM     31  C   UNL A   1      39.747  25.454  27.025  1.00  0.00     0.118 C 
BRANCH  31  32
ATOM     32  N   UNL A   1      39.122  26.326  28.008  1.00  0.00    -0.352 N 
ATOM     33  C   UNL A   1      39.293  27.632  28.403  1.00  0.00     0.251 C 
ATOM     34  H   UNL A   1      38.406  25.874  28.509  1.00  0.00     0.163 HD
ATOM     35  O   UNL A   1      38.488  28.048  29.242  1.00  0.00    -0.269 OA
BRANCH  33  36
ATOM     36  C   UNL A   1      40.433  28.540  28.041  1.00  0.00     0.039 A 
ATOM     37  C   UNL A   1      40.615  29.126  26.822  1.00  0.00     0.014 A 
ATOM     38  C   UNL A   1      41.660  28.254  28.689  1.00  0.00     0.014 A 
ATOM     39  C   UNL A   1      41.961  28.863  26.231  1.00  0.00     0.010 A 
ATOM     40  C   UNL A   1      42.895  28.647  28.180  1.00  0.00     0.010 A 
ATOM     41  C   UNL A   1      43.067  28.050  26.972  1.00  0.00    -0.014 A 
BRANCH  41  42
ATOM     42  C   UNL A   1      44.813  27.528  26.781  1.00  0.00     0.031 A 
ATOM     43  C   UNL A   1      44.012  25.892  26.328  1.00  0.00     0.074 A 
ATOM     44  C   UNL A   1      46.376  28.209  26.914  1.00  0.00     0.049 A 
ATOM     45  N   UNL A   1      43.459  25.056  27.198  1.00  0.00    -0.248 NA
ATOM     46  C   UNL A   1      43.060  25.369  25.022  1.00  0.00     0.031 C 
ATOM     47  C   UNL A   1      47.339  29.693  27.057  1.00  0.00     0.029 A 
ATOM     48  N   UNL A   1      47.817  27.695  27.115  1.00  0.00    -0.354 N 
ATOM     49  C   UNL A   1      43.360  23.826  26.497  1.00  0.00     0.074 A 
ATOM     50  C   UNL A   1      42.859  24.043  25.211  1.00  0.00     0.031 C 
ATOM     51  C   UNL A   1      48.737  29.829  26.801  1.00  0.00     0.029 A 
ATOM     52  C   UNL A   1      49.104  28.379  26.676  1.00  0.00     0.049 A 
ATOM     53  H   UNL A   1      47.916  26.831  27.575  1.00  0.00     0.167 HD
ATOM     54  C   UNL A   1      44.277  22.872  26.738  1.00  0.00     0.037 A 
ATOM     55  C   UNL A   1      50.336  27.752  26.272  1.00  0.00     0.037 A 
ATOM     56  C   UNL A   1      44.976  23.295  27.905  1.00  0.00     0.049 A 
ATOM     57  C   UNL A   1      49.981  26.331  26.540  1.00  0.00     0.074 A 
ATOM     58  C   UNL A   1      44.507  23.621  29.162  1.00  0.00     0.029 A 
ATOM     59  N   UNL A   1      46.011  24.133  27.623  1.00  0.00    -0.354 N 
ATOM     60  N   UNL A   1      49.759  25.893  27.758  1.00  0.00    -0.248 NA
ATOM     61  C   UNL A   1      49.144  25.814  25.448  1.00  0.00     0.031 C 
ATOM     62  C   UNL A   1      45.283  24.708  29.621  1.00  0.00     0.029 A 
ATOM     63  C   UNL A   1      46.284  24.927  28.689  1.00  0.00     0.049 A 
ATOM     64  H   UNL A   1      46.493  24.159  26.766  1.00  0.00     0.167 HD
ATOM     65  C   UNL A   1      48.447  25.420  27.714  1.00  0.00     0.074 A 
ATOM     66  C   UNL A   1      48.145  25.322  26.200  1.00  0.00     0.031 C 
ATOM     67  C   UNL A   1      47.499  25.665  28.725  1.00  0.00     0.037 A 
BRANCH  54  68
ATOM     68  C   UNL A   1      44.852  21.922  25.745  1.00  0.00     0.057 A 
ATOM     69  C   UNL A   1      46.048  22.010  24.995  1.00  0.00     0.134 A 
ATOM     70  C   UNL A   1      44.187  20.701  25.720  1.00  0.00     0.134 A 
ATOM     71  F   UNL A   1      46.811  23.112  24.945  1.00  0.00    -0.206 F 
ATOM     72  C   UNL A   1      46.560  20.910  24.307  1.00  0.00     0.040 A 
ATOM     73  C   UNL A   1      44.761  19.573  25.160  1.00  0.00     0.040 A 
ATOM     74  F   UNL A   1      42.980  20.585  26.293  1.00  0.00    -0.206 F 
ATOM     75  C   UNL A   1      45.977  19.666  24.495  1.00  0.00     0.006 A 
ENDBRANCH  54  68
BRANCH  55  76
ATOM     76  C   UNL A   1      51.304  28.118  25.058  1.00  0.00     0.057 A 
ATOM     77  C   UNL A   1      52.550  28.638  25.451  1.00  0.00     0.134 A 
ATOM     78  C   UNL A   1      51.090  28.262  23.646  1.00  0.00     0.134 A 
ATOM     79  F   UNL A   1      52.880  28.611  26.746  1.00  0.00    -0.206 F 
ATOM     80  C   UNL A   1      53.497  29.235  24.594  1.00  0.00     0.040 A 
ATOM     81  C   UNL A   1      52.090  28.777  22.745  1.00  0.00     0.040 A 
ATOM     82  F   UNL A   1      49.924  27.931  23.066  1.00  0.00    -0.206 F 
ATOM     83  C   UNL A   1      53.311  29.242  23.223  1.00  0.00     0.006 A 
ENDBRANCH  55  76
BRANCH  67  84
ATOM     84  C   UNL A   1      47.709  26.491  30.040  1.00  0.00     0.057 A 
ATOM     85  C   UNL A   1      48.640  25.974  30.925  1.00  0.00     0.134 A 
ATOM     86  C   UNL A   1      46.983  27.587  30.596  1.00  0.00     0.134 A 
ATOM     87  F   UNL A   1      49.202  24.786  30.673  1.00  0.00    -0.206 F 
ATOM     88  C   UNL A   1      48.997  26.623  32.109  1.00  0.00     0.040 A 
ATOM     89  C   UNL A   1      47.447  28.360  31.672  1.00  0.00     0.040 A 
ATOM     90  F   UNL A   1      45.767  27.935  30.177  1.00  0.00    -0.206 F 
ATOM     91  C   UNL A   1      48.526  27.899  32.391  1.00  0.00     0.006 A 
ENDBRANCH  67  84
ENDBRANCH  41  42
ENDBRANCH  33  36
ENDBRANCH  31  32
ENDBRANCH   1  31
TORSDOF 12
ENDMDL
