MODEL 1
REMARK VINA RESULT:     -13.3      0.000      0.000
REMARK SMILES Cc1nc(-c2ccccc2)sc1C(=O)N[C@@H](CC1=c2ccccc2=NC1)C(=O)NCCCNC(=O)c1ccc(-c2c3nc(c(-c4c(F)cccc4F)c4ccc([nH]4)c(-c4c(F)cccc4F)c4nc(c(-c5c(F)cccc5F)c5ccc2[nH]5)C=C4)C=C3)cc1
REMARK SMILES IDX 30 1 29 2 27 3 28 4 16 6 15 7 13 8 14 9 12 11 1 12 2 13 3 14
REMARK SMILES IDX 4 15 11 16 5 17 6 18 10 19 7 20 9 21 8 22 17 23 18 24 19 25
REMARK SMILES IDX 26 26 20 27 24 28 25 29 21 30 23 31 22 32 31 33 32 34 33 35
REMARK SMILES IDX 34 36 35 38 36 39 37 40 89 41 38 42 88 43 39 44 40 45 41 46
REMARK SMILES IDX 82 47 42 48 87 49 81 50 83 51 43 52 86 53 80 54 79 55 44 57
REMARK SMILES IDX 70 58 53 59 69 60 54 61 57 62 68 63 84 64 55 65 56 66 67 68
REMARK SMILES IDX 85 69 58 70 45 71 46 72 51 73 47 74 48 75 50 76 52 77 49 78
REMARK SMILES IDX 71 79 72 80 77 81 73 82 74 83 76 84 78 85 75 86 59 87 60 88
REMARK SMILES IDX 65 89 61 90 62 91 64 92 66 93 63 94
REMARK H PARENT 29 5 15 10 33 37 83 56 57 67
REMARK Flexibility Score: inf
ROOT
ATOM      1  C   UNL A   1      32.086  27.408  26.256  1.00  0.00     0.117 C 
ENDROOT
BRANCH   1   2
ATOM      2  N   UNL A   1      31.099  26.507  26.783  1.00  0.00    -0.354 N 
ATOM      3  C   UNL A   1      30.344  25.605  26.106  1.00  0.00     0.242 C 
ATOM      4  O   UNL A   1      29.788  24.727  26.775  1.00  0.00    -0.273 OA
ATOM      5  H   UNL A   1      30.953  26.548  27.756  1.00  0.00     0.163 HD
BRANCH   3   6
ATOM      6  C   UNL A   1      30.185  25.626  24.572  1.00  0.00     0.175 C 
BRANCH   6   7
ATOM      7  N   UNL A   1      30.357  24.340  23.924  1.00  0.00    -0.339 N 
ATOM      8  C   UNL A   1      31.461  23.607  23.576  1.00  0.00     0.263 C 
ATOM      9  O   UNL A   1      31.150  22.590  22.940  1.00  0.00    -0.268 OA
ATOM     10  H   UNL A   1      29.507  23.904  23.688  1.00  0.00     0.164 HD
BRANCH   8  11
ATOM     11  C   UNL A   1      32.850  23.933  23.907  1.00  0.00     0.115 A 
ATOM     12  C   UNL A   1      33.637  26.411  23.338  1.00  0.00     0.068 C 
ATOM     13  C   UNL A   1      33.727  25.021  23.853  1.00  0.00     0.062 A 
ATOM     14  N   UNL A   1      34.975  24.790  24.401  1.00  0.00    -0.241 NA
ATOM     15  C   UNL A   1      35.119  23.551  24.785  1.00  0.00     0.124 A 
ATOM     16  S   UNL A   1      33.760  22.567  24.563  1.00  0.00    -0.108 S 
BRANCH  15  17
ATOM     17  C   UNL A   1      36.364  23.085  25.372  1.00  0.00     0.010 A 
ATOM     18  C   UNL A   1      37.163  24.012  26.058  1.00  0.00     0.011 A 
ATOM     19  C   UNL A   1      36.870  21.811  25.093  1.00  0.00     0.011 A 
ATOM     20  C   UNL A   1      38.460  23.682  26.439  1.00  0.00     0.001 A 
ATOM     21  C   UNL A   1      38.174  21.484  25.469  1.00  0.00     0.001 A 
ATOM     22  C   UNL A   1      38.969  22.422  26.132  1.00  0.00     0.000 A 
ENDBRANCH  15  17
ENDBRANCH   8  11
ENDBRANCH   6   7
BRANCH   6  23
ATOM     23  C   UNL A   1      29.020  26.466  23.977  1.00  0.00     0.068 C 
BRANCH  23  24
ATOM     24  C   UNL A   1      29.339  27.667  23.137  1.00  0.00    -0.037 C 
ATOM     25  C   UNL A   1      28.661  28.807  22.989  1.00  0.00     0.001 A 
ATOM     26  C   UNL A   1      30.641  27.737  22.389  1.00  0.00     0.174 C 
ATOM     27  C   UNL A   1      27.413  29.316  23.459  1.00  0.00     0.010 A 
ATOM     28  C   UNL A   1      29.670  29.692  22.376  1.00  0.00     0.065 A 
ATOM     29  N   UNL A   1      30.789  29.157  21.996  1.00  0.00    -0.280 NA
ATOM     30  C   UNL A   1      27.203  30.642  23.433  1.00  0.00     0.001 A 
ATOM     31  C   UNL A   1      29.365  31.140  22.380  1.00  0.00     0.028 A 
ATOM     32  C   UNL A   1      28.208  31.558  22.922  1.00  0.00     0.002 A 
ENDBRANCH  23  24
ENDBRANCH   6  23
ENDBRANCH   3   6
ENDBRANCH   1   2
BRANCH   1  33
ATOM     33  C   UNL A   1      31.607  28.817  26.037  1.00  0.00     0.042 C 
BRANCH  33  34
ATOM     34  C   UNL A   1      32.734  29.798  25.809  1.00  0.00     0.118 C 
BRANCH  34  35
ATOM     35  N   UNL A   1      32.467  31.130  26.345  1.00  0.00    -0.352 N 
ATOM     36  C   UNL A   1      33.173  31.897  27.246  1.00  0.00     0.251 C 
ATOM     37  H   UNL A   1      31.644  31.550  26.006  1.00  0.00     0.163 HD
ATOM     38  O   UNL A   1      32.702  32.938  27.668  1.00  0.00    -0.269 OA
BRANCH  36  39
ATOM     39  C   UNL A   1      34.488  31.429  27.726  1.00  0.00     0.039 A 
ATOM     40  C   UNL A   1      35.506  32.359  27.941  1.00  0.00     0.014 A 
ATOM     41  C   UNL A   1      34.700  30.081  28.009  1.00  0.00     0.014 A 
ATOM     42  C   UNL A   1      36.699  31.941  28.532  1.00  0.00     0.010 A 
ATOM     43  C   UNL A   1      35.810  29.701  28.744  1.00  0.00     0.010 A 
ATOM     44  C   UNL A   1      36.835  30.619  28.992  1.00  0.00    -0.014 A 
BRANCH  44  45
ATOM     45  C   UNL A   1      38.050  30.175  29.714  1.00  0.00     0.031 A 
ATOM     46  C   UNL A   1      38.307  30.649  31.120  1.00  0.00     0.074 A 
ATOM     47  C   UNL A   1      38.948  29.396  29.081  1.00  0.00     0.049 A 
ATOM     48  N   UNL A   1      39.318  30.388  31.908  1.00  0.00    -0.248 NA
ATOM     49  C   UNL A   1      37.321  31.575  31.706  1.00  0.00     0.031 C 
ATOM     50  C   UNL A   1      38.855  28.949  27.688  1.00  0.00     0.029 A 
ATOM     51  N   UNL A   1      40.117  28.834  29.529  1.00  0.00    -0.354 N 
ATOM     52  C   UNL A   1      39.096  31.127  33.063  1.00  0.00     0.074 A 
ATOM     53  C   UNL A   1      37.905  31.913  32.844  1.00  0.00     0.031 C 
ATOM     54  C   UNL A   1      39.887  28.137  27.416  1.00  0.00     0.029 A 
ATOM     55  C   UNL A   1      40.735  28.036  28.597  1.00  0.00     0.049 A 
ATOM     56  H   UNL A   1      40.478  28.989  30.431  1.00  0.00     0.167 HD
ATOM     57  C   UNL A   1      39.797  31.122  34.220  1.00  0.00     0.037 A 
ATOM     58  C   UNL A   1      41.854  27.297  28.694  1.00  0.00     0.037 A 
ATOM     59  C   UNL A   1      40.959  30.306  34.444  1.00  0.00     0.049 A 
ATOM     60  C   UNL A   1      42.597  27.277  30.001  1.00  0.00     0.074 A 
ATOM     61  C   UNL A   1      41.704  30.163  35.600  1.00  0.00     0.029 A 
ATOM     62  N   UNL A   1      41.541  29.489  33.485  1.00  0.00    -0.354 N 
ATOM     63  N   UNL A   1      42.325  27.913  31.116  1.00  0.00    -0.248 NA
ATOM     64  C   UNL A   1      43.794  26.432  30.065  1.00  0.00     0.031 C 
ATOM     65  C   UNL A   1      42.765  29.293  35.327  1.00  0.00     0.029 A 
ATOM     66  C   UNL A   1      42.651  28.855  34.017  1.00  0.00     0.049 A 
ATOM     67  H   UNL A   1      41.214  29.377  32.564  1.00  0.00     0.167 HD
ATOM     68  C   UNL A   1      43.306  27.530  32.020  1.00  0.00     0.074 A 
ATOM     69  C   UNL A   1      44.161  26.585  31.329  1.00  0.00     0.031 C 
ATOM     70  C   UNL A   1      43.490  27.926  33.304  1.00  0.00     0.037 A 
BRANCH  57  71
ATOM     71  C   UNL A   1      39.311  32.014  35.327  1.00  0.00     0.057 A 
ATOM     72  C   UNL A   1      38.439  31.549  36.323  1.00  0.00     0.134 A 
ATOM     73  C   UNL A   1      39.724  33.349  35.405  1.00  0.00     0.134 A 
ATOM     74  F   UNL A   1      37.989  30.285  36.298  1.00  0.00    -0.206 F 
ATOM     75  C   UNL A   1      37.972  32.387  37.337  1.00  0.00     0.040 A 
ATOM     76  C   UNL A   1      39.288  34.189  36.433  1.00  0.00     0.040 A 
ATOM     77  F   UNL A   1      40.557  33.859  34.488  1.00  0.00    -0.206 F 
ATOM     78  C   UNL A   1      38.403  33.710  37.397  1.00  0.00     0.006 A 
ENDBRANCH  57  71
BRANCH  58  79
ATOM     79  C   UNL A   1      42.310  26.479  27.542  1.00  0.00     0.057 A 
ATOM     80  C   UNL A   1      41.901  25.148  27.394  1.00  0.00     0.134 A 
ATOM     81  C   UNL A   1      43.160  27.002  26.561  1.00  0.00     0.134 A 
ATOM     82  F   UNL A   1      41.097  24.585  28.309  1.00  0.00    -0.206 F 
ATOM     83  C   UNL A   1      42.336  24.361  26.327  1.00  0.00     0.040 A 
ATOM     84  C   UNL A   1      43.583  26.235  25.474  1.00  0.00     0.040 A 
ATOM     85  F   UNL A   1      43.578  28.274  26.636  1.00  0.00    -0.206 F 
ATOM     86  C   UNL A   1      43.177  24.907  25.360  1.00  0.00     0.006 A 
ENDBRANCH  58  79
BRANCH  70  87
ATOM     87  C   UNL A   1      44.652  27.322  34.038  1.00  0.00     0.057 A 
ATOM     88  C   UNL A   1      45.908  27.940  34.064  1.00  0.00     0.134 A 
ATOM     89  C   UNL A   1      44.505  26.119  34.739  1.00  0.00     0.134 A 
ATOM     90  F   UNL A   1      46.115  29.088  33.402  1.00  0.00    -0.206 F 
ATOM     91  C   UNL A   1      46.989  27.363  34.731  1.00  0.00     0.040 A 
ATOM     92  C   UNL A   1      45.571  25.549  35.435  1.00  0.00     0.040 A 
ATOM     93  F   UNL A   1      43.325  25.483  34.763  1.00  0.00    -0.206 F 
ATOM     94  C   UNL A   1      46.820  26.166  35.424  1.00  0.00     0.006 A 
ENDBRANCH  70  87
ENDBRANCH  44  45
ENDBRANCH  36  39
ENDBRANCH  34  35
ENDBRANCH  33  34
ENDBRANCH   1  33
TORSDOF 15
ENDMDL
MODEL 2
REMARK VINA RESULT:     -13.2      1.471      2.441
REMARK SMILES Cc1nc(-c2ccccc2)sc1C(=O)N[C@@H](CC1=c2ccccc2=NC1)C(=O)NCCCNC(=O)c1ccc(-c2c3nc(c(-c4c(F)cccc4F)c4ccc([nH]4)c(-c4c(F)cccc4F)c4nc(c(-c5c(F)cccc5F)c5ccc2[nH]5)C=C4)C=C3)cc1
REMARK SMILES IDX 30 1 29 2 27 3 28 4 16 6 15 7 13 8 14 9 12 11 1 12 2 13 3 14
REMARK SMILES IDX 4 15 11 16 5 17 6 18 10 19 7 20 9 21 8 22 17 23 18 24 19 25
REMARK SMILES IDX 26 26 20 27 24 28 25 29 21 30 23 31 22 32 31 33 32 34 33 35
REMARK SMILES IDX 34 36 35 38 36 39 37 40 89 41 38 42 88 43 39 44 40 45 41 46
REMARK SMILES IDX 82 47 42 48 87 49 81 50 83 51 43 52 86 53 80 54 79 55 44 57
REMARK SMILES IDX 70 58 53 59 69 60 54 61 57 62 68 63 84 64 55 65 56 66 67 68
REMARK SMILES IDX 85 69 58 70 45 71 46 72 51 73 47 74 48 75 50 76 52 77 49 78
REMARK SMILES IDX 71 79 72 80 77 81 73 82 74 83 76 84 78 85 75 86 59 87 60 88
REMARK SMILES IDX 65 89 61 90 62 91 64 92 66 93 63 94
REMARK H PARENT 29 5 15 10 33 37 83 56 57 67
REMARK Flexibility Score: inf
ROOT
ATOM      1  C   UNL A   1      31.994  27.643  26.135  1.00  0.00     0.117 C 
ENDROOT
BRANCH   1   2
ATOM      2  N   UNL A   1      31.059  26.704  26.692  1.00  0.00    -0.354 N 
ATOM      3  C   UNL A   1      30.300  25.791  26.036  1.00  0.00     0.242 C 
ATOM      4  O   UNL A   1      29.802  24.886  26.715  1.00  0.00    -0.273 OA
ATOM      5  H   UNL A   1      30.958  26.726  27.671  1.00  0.00     0.163 HD
BRANCH   3   6
ATOM      6  C   UNL A   1      30.069  25.831  24.511  1.00  0.00     0.175 C 
BRANCH   6   7
ATOM      7  N   UNL A   1      30.174  24.546  23.846  1.00  0.00    -0.339 N 
ATOM      8  C   UNL A   1      31.238  23.768  23.474  1.00  0.00     0.263 C 
ATOM      9  O   UNL A   1      30.873  22.774  22.830  1.00  0.00    -0.268 OA
ATOM     10  H   UNL A   1      29.302  24.153  23.615  1.00  0.00     0.164 HD
BRANCH   8  11
ATOM     11  C   UNL A   1      32.645  24.026  23.790  1.00  0.00     0.115 A 
ATOM     12  C   UNL A   1      33.550  26.458  23.200  1.00  0.00     0.068 C 
ATOM     13  C   UNL A   1      33.575  25.068  23.723  1.00  0.00     0.062 A 
ATOM     14  N   UNL A   1      34.814  24.777  24.261  1.00  0.00    -0.241 NA
ATOM     15  C   UNL A   1      34.900  23.536  24.651  1.00  0.00     0.124 A 
ATOM     16  S   UNL A   1      33.492  22.620  24.446  1.00  0.00    -0.108 S 
BRANCH  15  17
ATOM     17  C   UNL A   1      36.126  23.010  25.229  1.00  0.00     0.010 A 
ATOM     18  C   UNL A   1      36.980  23.902  25.896  1.00  0.00     0.011 A 
ATOM     19  C   UNL A   1      36.560  21.708  24.960  1.00  0.00     0.011 A 
ATOM     20  C   UNL A   1      38.263  23.507  26.266  1.00  0.00     0.001 A 
ATOM     21  C   UNL A   1      37.850  21.317  25.325  1.00  0.00     0.001 A 
ATOM     22  C   UNL A   1      38.700  22.219  25.968  1.00  0.00     0.000 A 
ENDBRANCH  15  17
ENDBRANCH   8  11
ENDBRANCH   6   7
BRANCH   6  23
ATOM     23  C   UNL A   1      28.901  26.708  23.979  1.00  0.00     0.068 C 
BRANCH  23  24
ATOM     24  C   UNL A   1      29.213  27.894  23.114  1.00  0.00    -0.037 C 
ATOM     25  C   UNL A   1      28.576  29.061  23.010  1.00  0.00     0.001 A 
ATOM     26  C   UNL A   1      30.461  27.907  22.277  1.00  0.00     0.174 C 
ATOM     27  C   UNL A   1      27.387  29.625  23.564  1.00  0.00     0.010 A 
ATOM     28  C   UNL A   1      29.578  29.902  22.325  1.00  0.00     0.065 A 
ATOM     29  N   UNL A   1      30.643  29.318  21.870  1.00  0.00    -0.280 NA
ATOM     30  C   UNL A   1      27.233  30.958  23.548  1.00  0.00     0.001 A 
ATOM     31  C   UNL A   1      29.336  31.362  22.345  1.00  0.00     0.028 A 
ATOM     32  C   UNL A   1      28.239  31.830  22.965  1.00  0.00     0.002 A 
ENDBRANCH  23  24
ENDBRANCH   6  23
ENDBRANCH   3   6
ENDBRANCH   1   2
BRANCH   1  33
ATOM     33  C   UNL A   1      33.373  27.596  26.733  1.00  0.00     0.042 C 
BRANCH  33  34
ATOM     34  C   UNL A   1      34.289  28.674  26.197  1.00  0.00     0.118 C 
BRANCH  34  35
ATOM     35  N   UNL A   1      33.881  30.025  26.570  1.00  0.00    -0.352 N 
ATOM     36  C   UNL A   1      34.411  30.906  27.488  1.00  0.00     0.251 C 
ATOM     37  H   UNL A   1      33.096  30.364  26.084  1.00  0.00     0.163 HD
ATOM     38  O   UNL A   1      33.833  31.946  27.747  1.00  0.00    -0.269 OA
BRANCH  36  39
ATOM     39  C   UNL A   1      35.665  30.560  28.186  1.00  0.00     0.039 A 
ATOM     40  C   UNL A   1      35.625  29.662  29.254  1.00  0.00     0.014 A 
ATOM     41  C   UNL A   1      36.883  31.084  27.757  1.00  0.00     0.014 A 
ATOM     42  C   UNL A   1      36.821  29.221  29.820  1.00  0.00     0.010 A 
ATOM     43  C   UNL A   1      38.067  30.522  28.204  1.00  0.00     0.010 A 
ATOM     44  C   UNL A   1      38.053  29.603  29.259  1.00  0.00    -0.014 A 
BRANCH  44  45
ATOM     45  C   UNL A   1      39.335  29.070  29.774  1.00  0.00     0.031 A 
ATOM     46  C   UNL A   1      39.947  29.651  31.021  1.00  0.00     0.074 A 
ATOM     47  C   UNL A   1      39.976  28.106  29.084  1.00  0.00     0.049 A 
ATOM     48  N   UNL A   1      41.068  29.335  31.617  1.00  0.00    -0.248 NA
ATOM     49  C   UNL A   1      39.228  30.767  31.663  1.00  0.00     0.031 C 
ATOM     50  C   UNL A   1      39.529  27.529  27.814  1.00  0.00     0.029 A 
ATOM     51  N   UNL A   1      41.140  27.435  29.359  1.00  0.00    -0.354 N 
ATOM     52  C   UNL A   1      41.192  30.219  32.681  1.00  0.00     0.074 A 
ATOM     53  C   UNL A   1      40.082  31.139  32.602  1.00  0.00     0.031 C 
ATOM     54  C   UNL A   1      40.374  26.553  27.451  1.00  0.00     0.029 A 
ATOM     55  C   UNL A   1      41.442  26.460  28.439  1.00  0.00     0.049 A 
ATOM     56  H   UNL A   1      41.705  27.633  30.140  1.00  0.00     0.167 HD
ATOM     57  C   UNL A   1      42.124  30.238  33.661  1.00  0.00     0.037 A 
ATOM     58  C   UNL A   1      42.461  25.582  28.407  1.00  0.00     0.037 A 
ATOM     59  C   UNL A   1      43.202  29.293  33.755  1.00  0.00     0.049 A 
ATOM     60  C   UNL A   1      43.463  25.598  29.527  1.00  0.00     0.074 A 
ATOM     61  C   UNL A   1      44.160  29.171  34.745  1.00  0.00     0.029 A 
ATOM     62  N   UNL A   1      43.461  28.302  32.818  1.00  0.00    -0.354 N 
ATOM     63  N   UNL A   1      43.518  26.383  30.577  1.00  0.00    -0.248 NA
ATOM     64  C   UNL A   1      44.538  24.601  29.463  1.00  0.00     0.031 C 
ATOM     65  C   UNL A   1      45.026  28.133  34.384  1.00  0.00     0.029 A 
ATOM     66  C   UNL A   1      44.578  27.577  33.196  1.00  0.00     0.049 A 
ATOM     67  H   UNL A   1      42.930  28.140  32.006  1.00  0.00     0.167 HD
ATOM     68  C   UNL A   1      44.621  25.963  31.307  1.00  0.00     0.074 A 
ATOM     69  C   UNL A   1      45.188  24.837  30.593  1.00  0.00     0.031 C 
ATOM     70  C   UNL A   1      45.126  26.465  32.461  1.00  0.00     0.037 A 
BRANCH  57  71
ATOM     71  C   UNL A   1      41.999  31.305  34.712  1.00  0.00     0.057 A 
ATOM     72  C   UNL A   1      42.684  32.526  34.613  1.00  0.00     0.134 A 
ATOM     73  C   UNL A   1      41.181  31.116  35.832  1.00  0.00     0.134 A 
ATOM     74  F   UNL A   1      43.500  32.766  33.576  1.00  0.00    -0.206 F 
ATOM     75  C   UNL A   1      42.583  33.504  35.603  1.00  0.00     0.040 A 
ATOM     76  C   UNL A   1      41.047  32.101  36.814  1.00  0.00     0.040 A 
ATOM     77  F   UNL A   1      40.497  29.974  35.991  1.00  0.00    -0.206 F 
ATOM     78  C   UNL A   1      41.757  33.295  36.705  1.00  0.00     0.006 A 
ENDBRANCH  57  71
BRANCH  58  79
ATOM     79  C   UNL A   1      42.555  24.588  27.309  1.00  0.00     0.057 A 
ATOM     80  C   UNL A   1      43.220  24.890  26.115  1.00  0.00     0.134 A 
ATOM     81  C   UNL A   1      41.988  23.312  27.424  1.00  0.00     0.134 A 
ATOM     82  F   UNL A   1      43.771  26.101  25.940  1.00  0.00    -0.206 F 
ATOM     83  C   UNL A   1      43.300  23.972  25.067  1.00  0.00     0.040 A 
ATOM     84  C   UNL A   1      42.083  22.375  26.393  1.00  0.00     0.040 A 
ATOM     85  F   UNL A   1      41.349  22.954  28.546  1.00  0.00    -0.206 F 
ATOM     86  C   UNL A   1      42.733  22.707  25.208  1.00  0.00     0.006 A 
ENDBRANCH  58  79
BRANCH  70  87
ATOM     87  C   UNL A   1      46.341  25.785  33.021  1.00  0.00     0.057 A 
ATOM     88  C   UNL A   1      46.239  24.718  33.923  1.00  0.00     0.134 A 
ATOM     89  C   UNL A   1      47.625  26.192  32.641  1.00  0.00     0.134 A 
ATOM     90  F   UNL A   1      45.036  24.289  34.335  1.00  0.00    -0.206 F 
ATOM     91  C   UNL A   1      47.372  24.104  34.456  1.00  0.00     0.040 A 
ATOM     92  C   UNL A   1      48.766  25.565  33.143  1.00  0.00     0.040 A 
ATOM     93  F   UNL A   1      47.793  27.200  31.772  1.00  0.00    -0.206 F 
ATOM     94  C   UNL A   1      48.641  24.524  34.061  1.00  0.00     0.006 A 
ENDBRANCH  70  87
ENDBRANCH  44  45
ENDBRANCH  36  39
ENDBRANCH  34  35
ENDBRANCH  33  34
ENDBRANCH   1  33
TORSDOF 15
ENDMDL
MODEL 3
REMARK VINA RESULT:     -13.0      2.966      3.795
REMARK SMILES Cc1nc(-c2ccccc2)sc1C(=O)N[C@@H](CC1=c2ccccc2=NC1)C(=O)NCCCNC(=O)c1ccc(-c2c3nc(c(-c4c(F)cccc4F)c4ccc([nH]4)c(-c4c(F)cccc4F)c4nc(c(-c5c(F)cccc5F)c5ccc2[nH]5)C=C4)C=C3)cc1
REMARK SMILES IDX 30 1 29 2 27 3 28 4 16 6 15 7 13 8 14 9 12 11 1 12 2 13 3 14
REMARK SMILES IDX 4 15 11 16 5 17 6 18 10 19 7 20 9 21 8 22 17 23 18 24 19 25
REMARK SMILES IDX 26 26 20 27 24 28 25 29 21 30 23 31 22 32 31 33 32 34 33 35
REMARK SMILES IDX 34 36 35 38 36 39 37 40 89 41 38 42 88 43 39 44 40 45 41 46
REMARK SMILES IDX 82 47 42 48 87 49 81 50 83 51 43 52 86 53 80 54 79 55 44 57
REMARK SMILES IDX 70 58 53 59 69 60 54 61 57 62 68 63 84 64 55 65 56 66 67 68
REMARK SMILES IDX 85 69 58 70 45 71 46 72 51 73 47 74 48 75 50 76 52 77 49 78
REMARK SMILES IDX 71 79 72 80 77 81 73 82 74 83 76 84 78 85 75 86 59 87 60 88
REMARK SMILES IDX 65 89 61 90 62 91 64 92 66 93 63 94
REMARK H PARENT 29 5 15 10 33 37 83 56 57 67
REMARK Flexibility Score: inf
ROOT
ATOM      1  C   UNL A   1      32.277  26.775  26.369  1.00  0.00     0.117 C 
ENDROOT
BRANCH   1   2
ATOM      2  N   UNL A   1      31.231  25.902  26.826  1.00  0.00    -0.354 N 
ATOM      3  C   UNL A   1      30.470  25.052  26.092  1.00  0.00     0.242 C 
ATOM      4  O   UNL A   1      29.849  24.181  26.711  1.00  0.00    -0.273 OA
ATOM      5  H   UNL A   1      31.043  25.923  27.793  1.00  0.00     0.163 HD
BRANCH   3   6
ATOM      6  C   UNL A   1      30.380  25.121  24.553  1.00  0.00     0.175 C 
BRANCH   6   7
ATOM      7  N   UNL A   1      30.520  23.846  23.877  1.00  0.00    -0.339 N 
ATOM      8  C   UNL A   1      31.600  23.153  23.398  1.00  0.00     0.263 C 
ATOM      9  O   UNL A   1      31.252  22.129  22.792  1.00  0.00    -0.268 OA
ATOM     10  H   UNL A   1      29.663  23.383  23.734  1.00  0.00     0.164 HD
BRANCH   8  11
ATOM     11  C   UNL A   1      33.006  23.522  23.573  1.00  0.00     0.115 A 
ATOM     12  C   UNL A   1      33.693  25.947  22.715  1.00  0.00     0.068 C 
ATOM     13  C   UNL A   1      33.855  24.610  23.344  1.00  0.00     0.062 A 
ATOM     14  N   UNL A   1      35.150  24.444  23.796  1.00  0.00    -0.241 NA
ATOM     15  C   UNL A   1      35.351  23.248  24.276  1.00  0.00     0.124 A 
ATOM     16  S   UNL A   1      33.997  22.232  24.265  1.00  0.00    -0.108 S 
BRANCH  15  17
ATOM     17  C   UNL A   1      36.652  22.850  24.788  1.00  0.00     0.010 A 
ATOM     18  C   UNL A   1      37.048  21.513  24.628  1.00  0.00     0.011 A 
ATOM     19  C   UNL A   1      37.407  23.701  25.602  1.00  0.00     0.011 A 
ATOM     20  C   UNL A   1      38.169  21.025  25.293  1.00  0.00     0.001 A 
ATOM     21  C   UNL A   1      38.527  23.207  26.274  1.00  0.00     0.001 A 
ATOM     22  C   UNL A   1      38.899  21.870  26.125  1.00  0.00     0.000 A 
ENDBRANCH  15  17
ENDBRANCH   8  11
ENDBRANCH   6   7
BRANCH   6  23
ATOM     23  C   UNL A   1      29.284  26.032  23.933  1.00  0.00     0.068 C 
BRANCH  23  24
ATOM     24  C   UNL A   1      29.646  27.426  23.510  1.00  0.00    -0.037 C 
ATOM     25  C   UNL A   1      28.853  28.460  23.223  1.00  0.00     0.001 A 
ATOM     26  C   UNL A   1      31.087  27.850  23.468  1.00  0.00     0.174 C 
ATOM     27  C   UNL A   1      27.444  28.665  23.126  1.00  0.00     0.010 A 
ATOM     28  C   UNL A   1      29.793  29.597  23.276  1.00  0.00     0.065 A 
ATOM     29  N   UNL A   1      31.057  29.327  23.388  1.00  0.00    -0.280 NA
ATOM     30  C   UNL A   1      26.965  29.918  23.189  1.00  0.00     0.001 A 
ATOM     31  C   UNL A   1      29.191  30.948  23.337  1.00  0.00     0.028 A 
ATOM     32  C   UNL A   1      27.851  31.061  23.333  1.00  0.00     0.002 A 
ENDBRANCH  23  24
ENDBRANCH   6  23
ENDBRANCH   3   6
ENDBRANCH   1   2
BRANCH   1  33
ATOM     33  C   UNL A   1      32.323  28.118  27.043  1.00  0.00     0.042 C 
BRANCH  33  34
ATOM     34  C   UNL A   1      33.731  28.630  27.251  1.00  0.00     0.118 C 
BRANCH  34  35
ATOM     35  N   UNL A   1      33.785  29.984  27.795  1.00  0.00    -0.352 N 
ATOM     36  C   UNL A   1      34.812  30.669  28.407  1.00  0.00     0.251 C 
ATOM     37  H   UNL A   1      32.947  30.493  27.711  1.00  0.00     0.163 HD
ATOM     38  O   UNL A   1      34.608  31.756  28.917  1.00  0.00    -0.269 OA
BRANCH  36  39
ATOM     39  C   UNL A   1      36.154  30.057  28.476  1.00  0.00     0.039 A 
ATOM     40  C   UNL A   1      37.002  30.148  27.372  1.00  0.00     0.014 A 
ATOM     41  C   UNL A   1      36.591  29.436  29.645  1.00  0.00     0.014 A 
ATOM     42  C   UNL A   1      38.319  29.702  27.484  1.00  0.00     0.010 A 
ATOM     43  C   UNL A   1      37.935  29.149  29.808  1.00  0.00     0.010 A 
ATOM     44  C   UNL A   1      38.811  29.253  28.722  1.00  0.00    -0.014 A 
BRANCH  44  45
ATOM     45  C   UNL A   1      40.231  28.869  28.896  1.00  0.00     0.031 A 
ATOM     46  C   UNL A   1      41.203  29.837  29.516  1.00  0.00     0.074 A 
ATOM     47  C   UNL A   1      40.654  27.674  28.439  1.00  0.00     0.049 A 
ATOM     48  N   UNL A   1      42.485  29.695  29.735  1.00  0.00    -0.248 NA
ATOM     49  C   UNL A   1      40.679  31.159  29.903  1.00  0.00     0.031 C 
ATOM     50  C   UNL A   1      39.826  26.690  27.737  1.00  0.00     0.029 A 
ATOM     51  N   UNL A   1      41.888  27.080  28.502  1.00  0.00    -0.354 N 
ATOM     52  C   UNL A   1      42.915  30.906  30.262  1.00  0.00     0.074 A 
ATOM     53  C   UNL A   1      41.782  31.801  30.252  1.00  0.00     0.031 C 
ATOM     54  C   UNL A   1      40.558  25.594  27.488  1.00  0.00     0.029 A 
ATOM     55  C   UNL A   1      41.915  25.810  27.977  1.00  0.00     0.049 A 
ATOM     56  H   UNL A   1      42.680  27.520  28.887  1.00  0.00     0.167 HD
ATOM     57  C   UNL A   1      44.133  31.232  30.751  1.00  0.00     0.037 A 
ATOM     58  C   UNL A   1      42.920  24.919  27.910  1.00  0.00     0.037 A 
ATOM     59  C   UNL A   1      45.245  30.322  30.795  1.00  0.00     0.049 A 
ATOM     60  C   UNL A   1      44.255  25.291  28.493  1.00  0.00     0.074 A 
ATOM     61  C   UNL A   1      46.502  30.520  31.335  1.00  0.00     0.029 A 
ATOM     62  N   UNL A   1      45.226  29.035  30.277  1.00  0.00    -0.354 N 
ATOM     63  N   UNL A   1      44.623  26.410  29.071  1.00  0.00    -0.248 NA
ATOM     64  C   UNL A   1      45.310  24.273  28.423  1.00  0.00     0.031 C 
ATOM     65  C   UNL A   1      47.259  29.366  31.104  1.00  0.00     0.029 A 
ATOM     66  C   UNL A   1      46.458  28.433  30.465  1.00  0.00     0.049 A 
ATOM     67  H   UNL A   1      44.452  28.613  29.840  1.00  0.00     0.167 HD
ATOM     68  C   UNL A   1      45.944  26.225  29.450  1.00  0.00     0.074 A 
ATOM     69  C   UNL A   1      46.303  24.875  29.061  1.00  0.00     0.031 C 
ATOM     70  C   UNL A   1      46.791  27.091  30.060  1.00  0.00     0.037 A 
BRANCH  57  71
ATOM     71  C   UNL A   1      44.312  32.624  31.289  1.00  0.00     0.057 A 
ATOM     72  C   UNL A   1      44.049  32.938  32.631  1.00  0.00     0.134 A 
ATOM     73  C   UNL A   1      44.759  33.660  30.461  1.00  0.00     0.134 A 
ATOM     74  F   UNL A   1      43.600  31.998  33.475  1.00  0.00    -0.206 F 
ATOM     75  C   UNL A   1      44.195  34.237  33.120  1.00  0.00     0.040 A 
ATOM     76  C   UNL A   1      44.938  34.958  30.947  1.00  0.00     0.040 A 
ATOM     77  F   UNL A   1      45.030  33.431  29.168  1.00  0.00    -0.206 F 
ATOM     78  C   UNL A   1      44.647  35.250  32.278  1.00  0.00     0.006 A 
ENDBRANCH  57  71
BRANCH  58  79
ATOM     79  C   UNL A   1      42.690  23.578  27.316  1.00  0.00     0.057 A 
ATOM     80  C   UNL A   1      42.360  22.480  28.119  1.00  0.00     0.134 A 
ATOM     81  C   UNL A   1      42.789  23.360  25.937  1.00  0.00     0.134 A 
ATOM     82  F   UNL A   1      42.264  22.622  29.449  1.00  0.00    -0.206 F 
ATOM     83  C   UNL A   1      42.160  21.209  27.577  1.00  0.00     0.040 A 
ATOM     84  C   UNL A   1      42.566  22.100  25.378  1.00  0.00     0.040 A 
ATOM     85  F   UNL A   1      43.088  24.373  25.111  1.00  0.00    -0.206 F 
ATOM     86  C   UNL A   1      42.258  21.019  26.200  1.00  0.00     0.006 A 
ENDBRANCH  58  79
BRANCH  70  87
ATOM     87  C   UNL A   1      48.176  26.593  30.351  1.00  0.00     0.057 A 
ATOM     88  C   UNL A   1      49.226  26.760  29.439  1.00  0.00     0.134 A 
ATOM     89  C   UNL A   1      48.464  25.952  31.562  1.00  0.00     0.134 A 
ATOM     90  F   UNL A   1      49.011  27.356  28.257  1.00  0.00    -0.206 F 
ATOM     91  C   UNL A   1      50.507  26.276  29.707  1.00  0.00     0.040 A 
ATOM     92  C   UNL A   1      49.747  25.491  31.854  1.00  0.00     0.040 A 
ATOM     93  F   UNL A   1      47.505  25.769  32.482  1.00  0.00    -0.206 F 
ATOM     94  C   UNL A   1      50.771  25.644  30.921  1.00  0.00     0.006 A 
ENDBRANCH  70  87
ENDBRANCH  44  45
ENDBRANCH  36  39
ENDBRANCH  34  35
ENDBRANCH  33  34
ENDBRANCH   1  33
TORSDOF 15
ENDMDL
