MODEL 1
REMARK VINA RESULT:     -13.6      0.000      0.000
REMARK SMILES Cc1ccc(-c2c(C)sc(NC(=O)[C@H]3CC=CC[C@H]3C(=O)NCCCNC(=O)c3ccc(-c4c5nc(c(-c6c(F)cccc6F)c6ccc([nH]6)c(-c6c(F)cccc6F)c6nc(c(-c7c(F)cccc7F)c7ccc4[nH]7)C=C6)C=C5)cc3)c2C(N)=O)cc1
REMARK SMILES IDX 23 1 22 2 20 3 21 4 19 6 14 7 15 8 16 9 18 10 17 11 12 12
REMARK SMILES IDX 11 13 13 15 10 16 6 17 7 18 83 19 8 20 9 21 5 22 1 23 2 24
REMARK SMILES IDX 3 25 88 26 4 27 87 28 84 29 85 30 86 31 24 34 25 35 26 36
REMARK SMILES IDX 27 37 28 39 29 40 30 41 82 42 31 43 81 44 32 45 33 46 34 47
REMARK SMILES IDX 75 48 35 49 80 50 74 51 76 52 36 53 79 54 73 55 72 56 37 58
REMARK SMILES IDX 63 59 46 60 62 61 47 62 50 63 61 64 77 65 48 66 49 67 60 69
REMARK SMILES IDX 78 70 51 71 38 72 39 73 44 74 40 75 41 76 43 77 45 78 42 79
REMARK SMILES IDX 64 80 65 81 70 82 66 83 67 84 69 85 71 86 68 87 52 88 53 89
REMARK SMILES IDX 58 90 54 91 55 92 57 93 59 94 56 95
REMARK H PARENT 22 5 11 14 85 32 85 33 26 38 76 57 50 68
REMARK Flexibility Score: inf
ROOT
ATOM      1  C   UNL A   1      35.918  21.455  24.758  1.00  0.00     0.117 C 
ENDROOT
BRANCH   1   2
ATOM      2  N   UNL A   1      35.024  20.332  24.870  1.00  0.00    -0.356 N 
ATOM      3  C   UNL A   1      33.678  20.327  24.999  1.00  0.00     0.224 C 
ATOM      4  O   UNL A   1      33.169  19.287  25.426  1.00  0.00    -0.275 OA
ATOM      5  H   UNL A   1      35.452  19.445  24.849  1.00  0.00     0.163 HD
BRANCH   3   6
ATOM      6  C   UNL A   1      32.798  21.501  24.590  1.00  0.00     0.095 C 
ATOM      7  C   UNL A   1      32.349  22.551  25.627  1.00  0.00     0.095 C 
ATOM      8  C   UNL A   1      31.043  23.203  25.123  1.00  0.00     0.041 C 
ATOM      9  C   UNL A   1      30.965  23.364  23.618  1.00  0.00    -0.030 C 
ATOM     10  C   UNL A   1      33.062  22.065  23.199  1.00  0.00     0.041 C 
ATOM     11  C   UNL A   1      31.889  22.894  22.762  1.00  0.00    -0.030 C 
BRANCH   7  12
ATOM     12  C   UNL A   1      33.332  23.512  26.355  1.00  0.00     0.229 C 
ATOM     13  N   UNL A   1      33.792  24.749  25.994  1.00  0.00    -0.317 N 
ATOM     14  H   UNL A   1      34.690  24.956  26.339  1.00  0.00     0.170 HD
ATOM     15  O   UNL A   1      33.868  23.081  27.395  1.00  0.00    -0.274 OA
BRANCH  13  16
ATOM     16  C   UNL A   1      33.239  25.760  25.241  1.00  0.00     0.109 A 
ATOM     17  C   UNL A   1      32.019  27.485  24.254  1.00  0.00     0.010 A 
ATOM     18  C   UNL A   1      33.070  27.294  23.369  1.00  0.00     0.012 A 
ATOM     19  C   UNL A   1      32.098  26.559  25.394  1.00  0.00     0.082 A 
ATOM     20  C   UNL A   1      33.592  28.114  22.238  1.00  0.00     0.057 C 
ATOM     21  S   UNL A   1      33.676  25.733  23.601  1.00  0.00    -0.122 S 
BRANCH  17  22
ATOM     22  C   UNL A   1      30.975  28.443  23.904  1.00  0.00    -0.016 A 
ATOM     23  C   UNL A   1      28.016  31.451  23.032  1.00  0.00     0.044 C 
ATOM     24  C   UNL A   1      29.029  30.394  23.353  1.00  0.00    -0.051 A 
ATOM     25  C   UNL A   1      28.981  29.139  22.728  1.00  0.00     0.004 A 
ATOM     26  C   UNL A   1      30.059  30.670  24.252  1.00  0.00     0.004 A 
ATOM     27  C   UNL A   1      29.942  28.160  23.011  1.00  0.00     0.009 A 
ATOM     28  C   UNL A   1      31.030  29.710  24.508  1.00  0.00     0.009 A 
ENDBRANCH  17  22
BRANCH  19  29
ATOM     29  C   UNL A   1      31.104  26.544  26.482  1.00  0.00     0.252 C 
ATOM     30  N   UNL A   1      31.292  27.381  27.543  1.00  0.00    -0.365 N 
ATOM     31  O   UNL A   1      30.114  25.833  26.501  1.00  0.00    -0.269 OA
ATOM     32  H   UNL A   1      32.078  27.974  27.569  1.00  0.00     0.159 HD
ATOM     33  H   UNL A   1      30.643  27.393  28.282  1.00  0.00     0.159 HD
ENDBRANCH  19  29
ENDBRANCH  13  16
ENDBRANCH   7  12
ENDBRANCH   3   6
ENDBRANCH   1   2
BRANCH   1  34
ATOM     34  C   UNL A   1      37.042  21.284  25.755  1.00  0.00     0.042 C 
BRANCH  34  35
ATOM     35  C   UNL A   1      38.345  21.882  25.319  1.00  0.00     0.118 C 
BRANCH  35  36
ATOM     36  N   UNL A   1      39.368  21.861  26.350  1.00  0.00    -0.352 N 
ATOM     37  C   UNL A   1      40.010  22.913  26.977  1.00  0.00     0.251 C 
ATOM     38  H   UNL A   1      39.646  20.964  26.647  1.00  0.00     0.163 HD
ATOM     39  O   UNL A   1      40.917  22.658  27.765  1.00  0.00    -0.269 OA
BRANCH  37  40
ATOM     40  C   UNL A   1      39.475  24.306  26.880  1.00  0.00     0.039 A 
ATOM     41  C   UNL A   1      40.280  25.185  26.142  1.00  0.00     0.014 A 
ATOM     42  C   UNL A   1      38.701  24.809  27.909  1.00  0.00     0.014 A 
ATOM     43  C   UNL A   1      40.609  26.411  26.696  1.00  0.00     0.010 A 
ATOM     44  C   UNL A   1      39.226  25.858  28.607  1.00  0.00     0.010 A 
ATOM     45  C   UNL A   1      40.203  26.643  28.000  1.00  0.00    -0.014 A 
BRANCH  45  46
ATOM     46  C   UNL A   1      40.554  27.791  28.795  1.00  0.00     0.031 A 
ATOM     47  C   UNL A   1      39.522  28.838  28.866  1.00  0.00     0.074 A 
ATOM     48  C   UNL A   1      41.628  27.700  29.606  1.00  0.00     0.049 A 
ATOM     49  N   UNL A   1      39.722  30.005  29.344  1.00  0.00    -0.248 NA
ATOM     50  C   UNL A   1      38.154  28.656  28.372  1.00  0.00     0.031 C 
ATOM     51  C   UNL A   1      41.960  28.513  30.770  1.00  0.00     0.029 A 
ATOM     52  N   UNL A   1      42.777  26.923  29.399  1.00  0.00    -0.354 N 
ATOM     53  C   UNL A   1      38.493  30.606  29.509  1.00  0.00     0.074 A 
ATOM     54  C   UNL A   1      37.555  29.762  28.818  1.00  0.00     0.031 C 
ATOM     55  C   UNL A   1      43.288  28.454  30.976  1.00  0.00     0.029 A 
ATOM     56  C   UNL A   1      43.855  27.716  29.860  1.00  0.00     0.049 A 
ATOM     57  H   UNL A   1      42.824  26.019  29.014  1.00  0.00     0.167 HD
ATOM     58  C   UNL A   1      38.431  31.681  30.338  1.00  0.00     0.037 A 
ATOM     59  C   UNL A   1      44.758  28.224  28.968  1.00  0.00     0.037 A 
ATOM     60  C   UNL A   1      39.777  32.002  30.800  1.00  0.00     0.049 A 
ATOM     61  C   UNL A   1      44.724  29.737  28.924  1.00  0.00     0.074 A 
ATOM     62  C   UNL A   1      40.490  31.636  31.930  1.00  0.00     0.029 A 
ATOM     63  N   UNL A   1      40.706  32.433  29.866  1.00  0.00    -0.354 N 
ATOM     64  N   UNL A   1      43.671  30.453  29.219  1.00  0.00    -0.248 NA
ATOM     65  C   UNL A   1      45.894  30.559  28.634  1.00  0.00     0.031 C 
ATOM     66  C   UNL A   1      41.870  31.823  31.651  1.00  0.00     0.029 A 
ATOM     67  C   UNL A   1      41.986  32.311  30.360  1.00  0.00     0.049 A 
ATOM     68  H   UNL A   1      40.482  32.778  28.971  1.00  0.00     0.167 HD
ATOM     69  C   UNL A   1      44.006  31.787  29.221  1.00  0.00     0.074 A 
ATOM     70  C   UNL A   1      45.406  31.796  28.839  1.00  0.00     0.031 C 
ATOM     71  C   UNL A   1      43.115  32.768  29.567  1.00  0.00     0.037 A 
BRANCH  58  72
ATOM     72  C   UNL A   1      37.190  32.302  30.919  1.00  0.00     0.057 A 
ATOM     73  C   UNL A   1      36.689  31.839  32.153  1.00  0.00     0.134 A 
ATOM     74  C   UNL A   1      36.436  33.334  30.338  1.00  0.00     0.134 A 
ATOM     75  F   UNL A   1      37.312  30.883  32.855  1.00  0.00    -0.206 F 
ATOM     76  C   UNL A   1      35.517  32.328  32.739  1.00  0.00     0.040 A 
ATOM     77  C   UNL A   1      35.240  33.813  30.897  1.00  0.00     0.040 A 
ATOM     78  F   UNL A   1      36.835  33.970  29.231  1.00  0.00    -0.206 F 
ATOM     79  C   UNL A   1      34.777  33.310  32.103  1.00  0.00     0.006 A 
ENDBRANCH  58  72
BRANCH  59  80
ATOM     80  C   UNL A   1      44.986  27.283  27.828  1.00  0.00     0.057 A 
ATOM     81  C   UNL A   1      44.420  27.647  26.588  1.00  0.00     0.134 A 
ATOM     82  C   UNL A   1      46.105  26.447  27.786  1.00  0.00     0.134 A 
ATOM     83  F   UNL A   1      43.321  28.419  26.554  1.00  0.00    -0.206 F 
ATOM     84  C   UNL A   1      45.063  27.385  25.375  1.00  0.00     0.040 A 
ATOM     85  C   UNL A   1      46.735  26.145  26.569  1.00  0.00     0.040 A 
ATOM     86  F   UNL A   1      46.699  26.040  28.917  1.00  0.00    -0.206 F 
ATOM     87  C   UNL A   1      46.258  26.676  25.370  1.00  0.00     0.006 A 
ENDBRANCH  59  80
BRANCH  71  88
ATOM     88  C   UNL A   1      43.207  34.259  29.279  1.00  0.00     0.057 A 
ATOM     89  C   UNL A   1      43.260  35.259  30.257  1.00  0.00     0.134 A 
ATOM     90  C   UNL A   1      43.427  34.729  27.955  1.00  0.00     0.134 A 
ATOM     91  F   UNL A   1      43.176  34.982  31.562  1.00  0.00    -0.206 F 
ATOM     92  C   UNL A   1      43.466  36.612  29.945  1.00  0.00     0.040 A 
ATOM     93  C   UNL A   1      43.715  36.060  27.645  1.00  0.00     0.040 A 
ATOM     94  F   UNL A   1      43.404  33.919  26.888  1.00  0.00    -0.206 F 
ATOM     95  C   UNL A   1      43.717  37.014  28.641  1.00  0.00     0.006 A 
ENDBRANCH  71  88
ENDBRANCH  45  46
ENDBRANCH  37  40
ENDBRANCH  35  36
ENDBRANCH  34  35
ENDBRANCH   1  34
TORSDOF 14
ENDMDL
MODEL 2
REMARK VINA RESULT:     -13.6      3.102      8.687
REMARK SMILES Cc1ccc(-c2c(C)sc(NC(=O)[C@H]3CC=CC[C@H]3C(=O)NCCCNC(=O)c3ccc(-c4c5nc(c(-c6c(F)cccc6F)c6ccc([nH]6)c(-c6c(F)cccc6F)c6nc(c(-c7c(F)cccc7F)c7ccc4[nH]7)C=C6)C=C5)cc3)c2C(N)=O)cc1
REMARK SMILES IDX 23 1 22 2 20 3 21 4 19 6 14 7 15 8 16 9 18 10 17 11 12 12
REMARK SMILES IDX 11 13 13 15 10 16 6 17 7 18 83 19 8 20 9 21 5 22 1 23 2 24
REMARK SMILES IDX 3 25 88 26 4 27 87 28 84 29 85 30 86 31 24 34 25 35 26 36
REMARK SMILES IDX 27 37 28 39 29 40 30 41 82 42 31 43 81 44 32 45 33 46 34 47
REMARK SMILES IDX 75 48 35 49 80 50 74 51 76 52 36 53 79 54 73 55 72 56 37 58
REMARK SMILES IDX 63 59 46 60 62 61 47 62 50 63 61 64 77 65 48 66 49 67 60 69
REMARK SMILES IDX 78 70 51 71 38 72 39 73 44 74 40 75 41 76 43 77 45 78 42 79
REMARK SMILES IDX 64 80 65 81 70 82 66 83 67 84 69 85 71 86 68 87 52 88 53 89
REMARK SMILES IDX 58 90 54 91 55 92 57 93 59 94 56 95
REMARK H PARENT 22 5 11 14 85 32 85 33 26 38 76 57 50 68
REMARK Flexibility Score: inf
ROOT
ATOM      1  C   UNL A   1      31.797  29.344  25.778  1.00  0.00     0.117 C 
ENDROOT
BRANCH   1   2
ATOM      2  N   UNL A   1      31.021  29.725  24.627  1.00  0.00    -0.356 N 
ATOM      3  C   UNL A   1      30.764  29.017  23.504  1.00  0.00     0.224 C 
ATOM      4  O   UNL A   1      30.383  29.662  22.522  1.00  0.00    -0.275 OA
ATOM      5  H   UNL A   1      30.623  30.625  24.663  1.00  0.00     0.163 HD
BRANCH   3   6
ATOM      6  C   UNL A   1      30.865  27.500  23.434  1.00  0.00     0.095 C 
ATOM      7  C   UNL A   1      32.173  26.815  22.984  1.00  0.00     0.095 C 
ATOM      8  C   UNL A   1      31.822  25.420  22.423  1.00  0.00     0.041 C 
ATOM      9  C   UNL A   1      30.667  24.735  23.126  1.00  0.00    -0.030 C 
ATOM     10  C   UNL A   1      30.097  26.741  24.509  1.00  0.00     0.041 C 
ATOM     11  C   UNL A   1      29.925  25.310  24.089  1.00  0.00    -0.030 C 
BRANCH   7  12
ATOM     12  C   UNL A   1      33.502  26.890  23.791  1.00  0.00     0.229 C 
ATOM     13  N   UNL A   1      33.979  26.084  24.787  1.00  0.00    -0.317 N 
ATOM     14  H   UNL A   1      34.570  26.546  25.425  1.00  0.00     0.170 HD
ATOM     15  O   UNL A   1      34.231  27.878  23.576  1.00  0.00    -0.274 OA
BRANCH  13  16
ATOM     16  C   UNL A   1      33.792  24.749  25.070  1.00  0.00     0.109 A 
ATOM     17  C   UNL A   1      33.655  22.424  25.192  1.00  0.00     0.010 A 
ATOM     18  C   UNL A   1      33.063  22.839  26.375  1.00  0.00     0.012 A 
ATOM     19  C   UNL A   1      34.098  23.568  24.380  1.00  0.00     0.082 A 
ATOM     20  C   UNL A   1      32.701  22.111  27.626  1.00  0.00     0.057 C 
ATOM     21  S   UNL A   1      32.541  24.434  26.172  1.00  0.00    -0.122 S 
BRANCH  17  22
ATOM     22  C   UNL A   1      33.660  21.000  24.872  1.00  0.00    -0.016 A 
ATOM     23  C   UNL A   1      33.937  16.790  24.000  1.00  0.00     0.044 C 
ATOM     24  C   UNL A   1      33.843  18.260  24.278  1.00  0.00    -0.051 A 
ATOM     25  C   UNL A   1      32.618  18.935  24.170  1.00  0.00     0.004 A 
ATOM     26  C   UNL A   1      34.976  18.962  24.690  1.00  0.00     0.004 A 
ATOM     27  C   UNL A   1      32.527  20.304  24.453  1.00  0.00     0.009 A 
ATOM     28  C   UNL A   1      34.878  20.312  25.001  1.00  0.00     0.009 A 
ENDBRANCH  17  22
BRANCH  19  29
ATOM     29  C   UNL A   1      34.757  23.413  23.071  1.00  0.00     0.252 C 
ATOM     30  N   UNL A   1      36.111  23.245  23.043  1.00  0.00    -0.365 N 
ATOM     31  O   UNL A   1      34.174  23.419  22.001  1.00  0.00    -0.269 OA
ATOM     32  H   UNL A   1      36.623  23.233  23.884  1.00  0.00     0.159 HD
ATOM     33  H   UNL A   1      36.576  23.137  22.182  1.00  0.00     0.159 HD
ENDBRANCH  19  29
ENDBRANCH  13  16
ENDBRANCH   7  12
ENDBRANCH   3   6
ENDBRANCH   1   2
BRANCH   1  34
ATOM     34  C   UNL A   1      32.890  30.369  25.990  1.00  0.00     0.042 C 
BRANCH  34  35
ATOM     35  C   UNL A   1      33.153  30.695  27.428  1.00  0.00     0.118 C 
BRANCH  35  36
ATOM     36  N   UNL A   1      34.230  31.651  27.620  1.00  0.00    -0.352 N 
ATOM     37  C   UNL A   1      35.502  31.456  28.125  1.00  0.00     0.251 C 
ATOM     38  H   UNL A   1      34.024  32.575  27.349  1.00  0.00     0.163 HD
ATOM     39  O   UNL A   1      36.225  32.438  28.281  1.00  0.00    -0.269 OA
BRANCH  37  40
ATOM     40  C   UNL A   1      36.070  30.080  28.265  1.00  0.00     0.039 A 
ATOM     41  C   UNL A   1      36.253  29.663  29.591  1.00  0.00     0.014 A 
ATOM     42  C   UNL A   1      36.913  29.591  27.285  1.00  0.00     0.014 A 
ATOM     43  C   UNL A   1      37.480  29.132  29.959  1.00  0.00     0.010 A 
ATOM     44  C   UNL A   1      38.204  29.353  27.657  1.00  0.00     0.010 A 
ATOM     45  C   UNL A   1      38.485  29.149  29.006  1.00  0.00    -0.014 A 
BRANCH  45  46
ATOM     46  C   UNL A   1      39.855  28.768  29.228  1.00  0.00     0.031 A 
ATOM     47  C   UNL A   1      40.202  27.407  28.787  1.00  0.00     0.074 A 
ATOM     48  C   UNL A   1      40.743  29.735  29.543  1.00  0.00     0.049 A 
ATOM     49  N   UNL A   1      41.297  26.820  29.081  1.00  0.00    -0.248 NA
ATOM     50  C   UNL A   1      39.312  26.571  27.977  1.00  0.00     0.031 C 
ATOM     51  C   UNL A   1      42.195  29.709  29.425  1.00  0.00     0.029 A 
ATOM     52  N   UNL A   1      40.482  30.921  30.244  1.00  0.00    -0.354 N 
ATOM     53  C   UNL A   1      41.400  25.702  28.282  1.00  0.00     0.074 A 
ATOM     54  C   UNL A   1      40.108  25.545  27.671  1.00  0.00     0.031 C 
ATOM     55  C   UNL A   1      42.716  30.606  30.282  1.00  0.00     0.029 A 
ATOM     56  C   UNL A   1      41.612  31.124  31.071  1.00  0.00     0.049 A 
ATOM     57  H   UNL A   1      39.683  31.492  30.175  1.00  0.00     0.167 HD
ATOM     58  C   UNL A   1      42.632  25.141  28.151  1.00  0.00     0.037 A 
ATOM     59  C   UNL A   1      41.496  30.996  32.427  1.00  0.00     0.037 A 
ATOM     60  C   UNL A   1      43.571  25.852  29.011  1.00  0.00     0.049 A 
ATOM     61  C   UNL A   1      42.323  29.846  32.962  1.00  0.00     0.074 A 
ATOM     62  C   UNL A   1      44.434  26.910  28.779  1.00  0.00     0.029 A 
ATOM     63  N   UNL A   1      43.386  25.782  30.383  1.00  0.00    -0.354 N 
ATOM     64  N   UNL A   1      42.644  28.789  32.262  1.00  0.00    -0.248 NA
ATOM     65  C   UNL A   1      42.926  29.839  34.290  1.00  0.00     0.031 C 
ATOM     66  C   UNL A   1      44.742  27.500  30.034  1.00  0.00     0.029 A 
ATOM     67  C   UNL A   1      44.076  26.790  31.019  1.00  0.00     0.049 A 
ATOM     68  H   UNL A   1      42.836  25.105  30.841  1.00  0.00     0.167 HD
ATOM     69  C   UNL A   1      43.513  28.004  32.984  1.00  0.00     0.074 A 
ATOM     70  C   UNL A   1      43.647  28.704  34.248  1.00  0.00     0.031 C 
ATOM     71  C   UNL A   1      44.073  26.865  32.471  1.00  0.00     0.037 A 
BRANCH  58  72
ATOM     72  C   UNL A   1      43.058  24.136  27.116  1.00  0.00     0.057 A 
ATOM     73  C   UNL A   1      43.578  24.581  25.882  1.00  0.00     0.134 A 
ATOM     74  C   UNL A   1      42.987  22.740  27.245  1.00  0.00     0.134 A 
ATOM     75  F   UNL A   1      43.745  25.882  25.614  1.00  0.00    -0.206 F 
ATOM     76  C   UNL A   1      43.953  23.715  24.850  1.00  0.00     0.040 A 
ATOM     77  C   UNL A   1      43.329  21.859  26.207  1.00  0.00     0.040 A 
ATOM     78  F   UNL A   1      42.634  22.150  28.392  1.00  0.00    -0.206 F 
ATOM     79  C   UNL A   1      43.815  22.346  25.003  1.00  0.00     0.006 A 
ENDBRANCH  58  72
BRANCH  59  80
ATOM     80  C   UNL A   1      40.156  31.456  32.905  1.00  0.00     0.057 A 
ATOM     81  C   UNL A   1      39.249  30.449  33.302  1.00  0.00     0.134 A 
ATOM     82  C   UNL A   1      39.979  32.720  33.474  1.00  0.00     0.134 A 
ATOM     83  F   UNL A   1      39.337  29.220  32.768  1.00  0.00    -0.206 F 
ATOM     84  C   UNL A   1      38.367  30.629  34.371  1.00  0.00     0.040 A 
ATOM     85  C   UNL A   1      39.067  32.919  34.522  1.00  0.00     0.040 A 
ATOM     86  F   UNL A   1      40.786  33.738  33.144  1.00  0.00    -0.206 F 
ATOM     87  C   UNL A   1      38.315  31.855  35.022  1.00  0.00     0.006 A 
ENDBRANCH  59  80
BRANCH  71  88
ATOM     88  C   UNL A   1      44.739  25.727  33.228  1.00  0.00     0.057 A 
ATOM     89  C   UNL A   1      46.107  25.431  33.184  1.00  0.00     0.134 A 
ATOM     90  C   UNL A   1      44.014  24.978  34.196  1.00  0.00     0.134 A 
ATOM     91  F   UNL A   1      46.957  26.109  32.407  1.00  0.00    -0.206 F 
ATOM     92  C   UNL A   1      46.694  24.446  33.995  1.00  0.00     0.040 A 
ATOM     93  C   UNL A   1      44.605  24.057  35.063  1.00  0.00     0.040 A 
ATOM     94  F   UNL A   1      42.693  25.119  34.376  1.00  0.00    -0.206 F 
ATOM     95  C   UNL A   1      45.950  23.773  34.953  1.00  0.00     0.006 A 
ENDBRANCH  71  88
ENDBRANCH  45  46
ENDBRANCH  37  40
ENDBRANCH  35  36
ENDBRANCH  34  35
ENDBRANCH   1  34
TORSDOF 14
ENDMDL
MODEL 3
REMARK VINA RESULT:     -13.3      3.159      8.992
REMARK SMILES Cc1ccc(-c2c(C)sc(NC(=O)[C@H]3CC=CC[C@H]3C(=O)NCCCNC(=O)c3ccc(-c4c5nc(c(-c6c(F)cccc6F)c6ccc([nH]6)c(-c6c(F)cccc6F)c6nc(c(-c7c(F)cccc7F)c7ccc4[nH]7)C=C6)C=C5)cc3)c2C(N)=O)cc1
REMARK SMILES IDX 23 1 22 2 20 3 21 4 19 6 14 7 15 8 16 9 18 10 17 11 12 12
REMARK SMILES IDX 11 13 13 15 10 16 6 17 7 18 83 19 8 20 9 21 5 22 1 23 2 24
REMARK SMILES IDX 3 25 88 26 4 27 87 28 84 29 85 30 86 31 24 34 25 35 26 36
REMARK SMILES IDX 27 37 28 39 29 40 30 41 82 42 31 43 81 44 32 45 33 46 34 47
REMARK SMILES IDX 75 48 35 49 80 50 74 51 76 52 36 53 79 54 73 55 72 56 37 58
REMARK SMILES IDX 63 59 46 60 62 61 47 62 50 63 61 64 77 65 48 66 49 67 60 69
REMARK SMILES IDX 78 70 51 71 38 72 39 73 44 74 40 75 41 76 43 77 45 78 42 79
REMARK SMILES IDX 64 80 65 81 70 82 66 83 67 84 69 85 71 86 68 87 52 88 53 89
REMARK SMILES IDX 58 90 54 91 55 92 57 93 59 94 56 95
REMARK H PARENT 22 5 11 14 85 32 85 33 26 38 76 57 50 68
REMARK Flexibility Score: inf
ROOT
ATOM      1  C   UNL A   1      33.746  30.057  27.266  1.00  0.00     0.117 C 
ENDROOT
BRANCH   1   2
ATOM      2  N   UNL A   1      32.943  28.903  27.575  1.00  0.00    -0.356 N 
ATOM      3  C   UNL A   1      32.314  28.055  26.730  1.00  0.00     0.224 C 
ATOM      4  O   UNL A   1      31.413  27.364  27.214  1.00  0.00    -0.275 OA
ATOM      5  H   UNL A   1      32.839  28.703  28.534  1.00  0.00     0.163 HD
BRANCH   3   6
ATOM      6  C   UNL A   1      32.709  27.889  25.269  1.00  0.00     0.095 C 
ATOM      7  C   UNL A   1      32.664  26.503  24.590  1.00  0.00     0.095 C 
ATOM      8  C   UNL A   1      33.655  26.511  23.407  1.00  0.00     0.041 C 
ATOM      9  C   UNL A   1      33.758  27.840  22.685  1.00  0.00    -0.030 C 
ATOM     10  C   UNL A   1      32.336  29.048  24.353  1.00  0.00     0.041 C 
ATOM     11  C   UNL A   1      33.133  28.962  23.083  1.00  0.00    -0.030 C 
BRANCH   7  12
ATOM     12  C   UNL A   1      31.348  25.708  24.350  1.00  0.00     0.229 C 
ATOM     13  N   UNL A   1      31.142  24.365  24.196  1.00  0.00    -0.317 N 
ATOM     14  H   UNL A   1      30.364  24.144  23.633  1.00  0.00     0.170 HD
ATOM     15  O   UNL A   1      30.312  26.380  24.183  1.00  0.00    -0.274 OA
BRANCH  13  16
ATOM     16  C   UNL A   1      31.811  23.262  24.677  1.00  0.00     0.109 A 
ATOM     17  C   UNL A   1      32.927  21.262  25.111  1.00  0.00     0.010 A 
ATOM     18  C   UNL A   1      32.889  21.878  26.352  1.00  0.00     0.012 A 
ATOM     19  C   UNL A   1      32.271  22.081  24.081  1.00  0.00     0.082 A 
ATOM     20  C   UNL A   1      33.614  21.613  27.628  1.00  0.00     0.057 C 
ATOM     21  S   UNL A   1      31.625  23.001  26.344  1.00  0.00    -0.122 S 
BRANCH  17  22
ATOM     22  C   UNL A   1      33.478  19.913  25.015  1.00  0.00    -0.016 A 
ATOM     23  C   UNL A   1      34.855  15.837  24.782  1.00  0.00     0.044 C 
ATOM     24  C   UNL A   1      34.385  17.257  24.887  1.00  0.00    -0.051 A 
ATOM     25  C   UNL A   1      35.257  18.324  24.624  1.00  0.00     0.004 A 
ATOM     26  C   UNL A   1      33.055  17.526  25.210  1.00  0.00     0.004 A 
ATOM     27  C   UNL A   1      34.811  19.649  24.700  1.00  0.00     0.009 A 
ATOM     28  C   UNL A   1      32.605  18.839  25.254  1.00  0.00     0.009 A 
ENDBRANCH  17  22
BRANCH  19  29
ATOM     29  C   UNL A   1      32.166  21.661  22.672  1.00  0.00     0.252 C 
ATOM     30  N   UNL A   1      32.528  22.550  21.702  1.00  0.00    -0.365 N 
ATOM     31  O   UNL A   1      31.778  20.565  22.307  1.00  0.00    -0.269 OA
ATOM     32  H   UNL A   1      32.848  23.447  21.951  1.00  0.00     0.159 HD
ATOM     33  H   UNL A   1      32.469  22.295  20.753  1.00  0.00     0.159 HD
ENDBRANCH  19  29
ENDBRANCH  13  16
ENDBRANCH   7  12
ENDBRANCH   3   6
ENDBRANCH   1   2
BRANCH   1  34
ATOM     34  C   UNL A   1      35.132  29.853  27.837  1.00  0.00     0.042 C 
BRANCH  34  35
ATOM     35  C   UNL A   1      35.505  30.835  28.905  1.00  0.00     0.118 C 
BRANCH  35  36
ATOM     36  N   UNL A   1      34.553  31.922  29.054  1.00  0.00    -0.352 N 
ATOM     37  C   UNL A   1      34.628  33.058  29.839  1.00  0.00     0.251 C 
ATOM     38  H   UNL A   1      33.733  31.838  28.516  1.00  0.00     0.163 HD
ATOM     39  O   UNL A   1      33.655  33.807  29.876  1.00  0.00    -0.269 OA
BRANCH  37  40
ATOM     40  C   UNL A   1      35.926  33.490  30.444  1.00  0.00     0.039 A 
ATOM     41  C   UNL A   1      36.914  33.830  29.510  1.00  0.00     0.014 A 
ATOM     42  C   UNL A   1      36.308  32.976  31.669  1.00  0.00     0.014 A 
ATOM     43  C   UNL A   1      38.177  33.274  29.645  1.00  0.00     0.010 A 
ATOM     44  C   UNL A   1      37.424  32.191  31.677  1.00  0.00     0.010 A 
ATOM     45  C   UNL A   1      38.346  32.328  30.642  1.00  0.00    -0.014 A 
BRANCH  45  46
ATOM     46  C   UNL A   1      39.533  31.544  30.861  1.00  0.00     0.031 A 
ATOM     47  C   UNL A   1      39.603  30.291  30.091  1.00  0.00     0.074 A 
ATOM     48  C   UNL A   1      40.570  32.123  31.503  1.00  0.00     0.049 A 
ATOM     49  N   UNL A   1      40.466  29.373  30.300  1.00  0.00    -0.248 NA
ATOM     50  C   UNL A   1      38.670  29.956  29.012  1.00  0.00     0.031 C 
ATOM     51  C   UNL A   1      41.973  31.730  31.502  1.00  0.00     0.029 A 
ATOM     52  N   UNL A   1      40.501  33.126  32.480  1.00  0.00    -0.354 N 
ATOM     53  C   UNL A   1      40.414  28.501  29.234  1.00  0.00     0.074 A 
ATOM     54  C   UNL A   1      39.231  28.859  28.499  1.00  0.00     0.031 C 
ATOM     55  C   UNL A   1      42.560  32.211  32.612  1.00  0.00     0.029 A 
ATOM     56  C   UNL A   1      41.507  32.803  33.421  1.00  0.00     0.049 A 
ATOM     57  H   UNL A   1      39.884  33.892  32.506  1.00  0.00     0.167 HD
ATOM     58  C   UNL A   1      41.479  27.674  29.054  1.00  0.00     0.037 A 
ATOM     59  C   UNL A   1      41.159  32.382  34.675  1.00  0.00     0.037 A 
ATOM     60  C   UNL A   1      42.420  27.867  30.152  1.00  0.00     0.049 A 
ATOM     61  C   UNL A   1      41.591  30.956  34.936  1.00  0.00     0.074 A 
ATOM     62  C   UNL A   1      43.539  28.672  30.293  1.00  0.00     0.029 A 
ATOM     63  N   UNL A   1      42.018  27.516  31.431  1.00  0.00    -0.354 N 
ATOM     64  N   UNL A   1      41.749  30.057  34.001  1.00  0.00    -0.248 NA
ATOM     65  C   UNL A   1      41.966  30.458  36.256  1.00  0.00     0.031 C 
ATOM     66  C   UNL A   1      43.787  28.828  31.683  1.00  0.00     0.029 A 
ATOM     67  C   UNL A   1      42.827  28.110  32.375  1.00  0.00     0.049 A 
ATOM     68  H   UNL A   1      41.257  26.925  31.637  1.00  0.00     0.167 HD
ATOM     69  C   UNL A   1      42.283  28.912  34.546  1.00  0.00     0.074 A 
ATOM     70  C   UNL A   1      42.388  29.216  35.961  1.00  0.00     0.031 C 
ATOM     71  C   UNL A   1      42.621  27.825  33.786  1.00  0.00     0.037 A 
BRANCH  58  72
ATOM     72  C   UNL A   1      41.801  26.877  27.821  1.00  0.00     0.057 A 
ATOM     73  C   UNL A   1      42.208  27.541  26.645  1.00  0.00     0.134 A 
ATOM     74  C   UNL A   1      41.733  25.479  27.702  1.00  0.00     0.134 A 
ATOM     75  F   UNL A   1      42.358  28.871  26.601  1.00  0.00    -0.206 F 
ATOM     76  C   UNL A   1      42.480  26.879  25.444  1.00  0.00     0.040 A 
ATOM     77  C   UNL A   1      41.972  24.803  26.495  1.00  0.00     0.040 A 
ATOM     78  F   UNL A   1      41.484  24.688  28.752  1.00  0.00    -0.206 F 
ATOM     79  C   UNL A   1      42.348  25.504  25.360  1.00  0.00     0.006 A 
ENDBRANCH  58  72
BRANCH  59  80
ATOM     80  C   UNL A   1      39.913  33.060  35.149  1.00  0.00     0.057 A 
ATOM     81  C   UNL A   1      38.756  32.258  35.241  1.00  0.00     0.134 A 
ATOM     82  C   UNL A   1      39.966  34.184  35.979  1.00  0.00     0.134 A 
ATOM     83  F   UNL A   1      38.621  31.183  34.447  1.00  0.00    -0.206 F 
ATOM     84  C   UNL A   1      37.813  32.433  36.257  1.00  0.00     0.040 A 
ATOM     85  C   UNL A   1      39.001  34.390  36.978  1.00  0.00     0.040 A 
ATOM     86  F   UNL A   1      41.022  35.009  35.949  1.00  0.00    -0.206 F 
ATOM     87  C   UNL A   1      37.966  33.473  37.166  1.00  0.00     0.006 A 
ENDBRANCH  59  80
BRANCH  71  88
ATOM     88  C   UNL A   1      42.869  26.398  34.251  1.00  0.00     0.057 A 
ATOM     89  C   UNL A   1      41.955  25.624  34.976  1.00  0.00     0.134 A 
ATOM     90  C   UNL A   1      44.016  25.681  33.812  1.00  0.00     0.134 A 
ATOM     91  F   UNL A   1      40.776  26.108  35.379  1.00  0.00    -0.206 F 
ATOM     92  C   UNL A   1      42.181  24.272  35.278  1.00  0.00     0.040 A 
ATOM     93  C   UNL A   1      44.209  24.317  34.036  1.00  0.00     0.040 A 
ATOM     94  F   UNL A   1      45.004  26.258  33.112  1.00  0.00    -0.206 F 
ATOM     95  C   UNL A   1      43.297  23.608  34.790  1.00  0.00     0.006 A 
ENDBRANCH  71  88
ENDBRANCH  45  46
ENDBRANCH  37  40
ENDBRANCH  35  36
ENDBRANCH  34  35
ENDBRANCH   1  34
TORSDOF 14
ENDMDL
