MODEL 1
REMARK VINA RESULT:     -12.2      0.000      0.000
REMARK SMILES Cc1noc(-c2cc(=O)n(CC(=O)NCCCNC(=O)c3ccc(-c4c5nc(c(-c6c(F)cccc6F)c6ccc([nH]6)c(-c6c(F)cccc6F)c6nc(c(-c7c(F)cccc7F)c7ccc4[nH]7)C=C6)C=C5)cc3)c3ccccc23)n1
REMARK SMILES IDX 16 1 15 2 14 3 12 4 13 5 11 7 10 8 6 9 7 10 80 11 8 12 75 13
REMARK SMILES IDX 79 14 9 15 76 16 78 17 77 18 5 19 1 20 2 21 3 22 81 23 4 24
REMARK SMILES IDX 17 25 18 26 19 27 20 29 21 30 22 31 74 32 23 33 73 34 24 35
REMARK SMILES IDX 25 36 26 37 67 38 27 39 72 40 66 41 68 42 28 43 71 44 65 45
REMARK SMILES IDX 64 46 29 48 55 49 38 50 54 51 39 52 42 53 53 54 69 55 40 56
REMARK SMILES IDX 41 57 52 59 70 60 43 61 30 62 31 63 36 64 32 65 33 66 35 67
REMARK SMILES IDX 37 68 34 69 56 70 57 71 62 72 58 73 59 74 61 75 63 76 60 77
REMARK SMILES IDX 44 78 45 79 50 80 46 81 47 82 49 83 51 84 48 85
REMARK H PARENT 14 6 18 28 68 47 42 58
REMARK Flexibility Score: inf
ROOT
ATOM      1  C   UNL A   1      36.938  20.330  24.996  1.00  0.00     0.042 C 
ENDROOT
BRANCH   1   2
ATOM      2  C   UNL A   1      35.838  21.371  25.169  1.00  0.00     0.117 C 
BRANCH   2   3
ATOM      3  N   UNL A   1      35.660  22.191  23.988  1.00  0.00    -0.354 N 
ATOM      4  C   UNL A   1      34.702  23.117  23.708  1.00  0.00     0.240 C 
ATOM      5  O   UNL A   1      34.846  23.790  22.682  1.00  0.00    -0.273 OA
ATOM      6  H   UNL A   1      36.334  22.060  23.283  1.00  0.00     0.163 HD
BRANCH   4   7
ATOM      7  C   UNL A   1      33.534  23.388  24.665  1.00  0.00     0.225 C 
BRANCH   7   8
ATOM      8  N   UNL A   1      32.670  24.525  24.327  1.00  0.00    -0.299 N 
ATOM      9  C   UNL A   1      30.970  26.682  23.551  1.00  0.00     0.055 A 
ATOM     10  C   UNL A   1      30.730  25.427  23.141  1.00  0.00     0.086 A 
ATOM     11  C   UNL A   1      32.104  26.905  24.477  1.00  0.00     0.011 A 
ATOM     12  C   UNL A   1      31.572  24.279  23.520  1.00  0.00     0.252 A 
ATOM     13  C   UNL A   1      32.925  25.826  24.864  1.00  0.00     0.053 A 
ATOM     14  C   UNL A   1      32.361  28.185  25.005  1.00  0.00     0.011 A 
ATOM     15  O   UNL A   1      31.269  23.175  23.073  1.00  0.00    -0.269 OA
ATOM     16  C   UNL A   1      33.966  26.063  25.779  1.00  0.00     0.027 A 
ATOM     17  C   UNL A   1      33.410  28.404  25.896  1.00  0.00     0.001 A 
ATOM     18  C   UNL A   1      34.209  27.341  26.285  1.00  0.00     0.002 A 
BRANCH   9  19
ATOM     19  C   UNL A   1      30.111  27.697  23.013  1.00  0.00     0.258 A 
ATOM     20  C   UNL A   1      27.290  29.820  22.895  1.00  0.00     0.093 C 
ATOM     21  C   UNL A   1      28.541  29.077  22.671  1.00  0.00     0.169 A 
ATOM     22  N   UNL A   1      29.382  29.339  21.669  1.00  0.00    -0.062 NA
ATOM     23  N   UNL A   1      28.948  28.081  23.512  1.00  0.00    -0.192 NA
ATOM     24  O   UNL A   1      30.421  28.438  21.885  1.00  0.00    -0.334 OA
ENDBRANCH   9  19
ENDBRANCH   7   8
ENDBRANCH   4   7
ENDBRANCH   2   3
ENDBRANCH   1   2
BRANCH   1  25
ATOM     25  C   UNL A   1      38.332  20.815  25.387  1.00  0.00     0.118 C 
BRANCH  25  26
ATOM     26  N   UNL A   1      39.320  19.745  25.455  1.00  0.00    -0.352 N 
ATOM     27  C   UNL A   1      40.620  19.759  25.905  1.00  0.00     0.251 C 
ATOM     28  H   UNL A   1      39.007  18.871  25.128  1.00  0.00     0.163 HD
ATOM     29  O   UNL A   1      41.327  18.766  25.752  1.00  0.00    -0.269 OA
BRANCH  27  30
ATOM     30  C   UNL A   1      41.187  20.972  26.535  1.00  0.00     0.039 A 
ATOM     31  C   UNL A   1      41.108  21.174  27.913  1.00  0.00     0.014 A 
ATOM     32  C   UNL A   1      41.812  21.928  25.725  1.00  0.00     0.014 A 
ATOM     33  C   UNL A   1      41.481  22.401  28.454  1.00  0.00     0.010 A 
ATOM     34  C   UNL A   1      42.264  23.127  26.284  1.00  0.00     0.010 A 
ATOM     35  C   UNL A   1      42.048  23.399  27.643  1.00  0.00    -0.014 A 
BRANCH  35  36
ATOM     36  C   UNL A   1      42.374  24.725  28.234  1.00  0.00     0.031 A 
ATOM     37  C   UNL A   1      43.795  25.075  28.595  1.00  0.00     0.074 A 
ATOM     38  C   UNL A   1      41.398  25.640  28.394  1.00  0.00     0.049 A 
ATOM     39  N   UNL A   1      44.270  26.189  29.095  1.00  0.00    -0.248 NA
ATOM     40  C   UNL A   1      44.816  24.040  28.372  1.00  0.00     0.031 C 
ATOM     41  C   UNL A   1      39.983  25.428  28.084  1.00  0.00     0.029 A 
ATOM     42  N   UNL A   1      41.452  26.938  28.833  1.00  0.00    -0.354 N 
ATOM     43  C   UNL A   1      45.634  25.982  29.266  1.00  0.00     0.074 A 
ATOM     44  C   UNL A   1      45.908  24.624  28.845  1.00  0.00     0.031 C 
ATOM     45  C   UNL A   1      39.312  26.570  28.295  1.00  0.00     0.029 A 
ATOM     46  C   UNL A   1      40.236  27.577  28.806  1.00  0.00     0.049 A 
ATOM     47  H   UNL A   1      42.282  27.370  29.138  1.00  0.00     0.167 HD
ATOM     48  C   UNL A   1      46.577  26.846  29.716  1.00  0.00     0.037 A 
ATOM     49  C   UNL A   1      39.900  28.830  29.162  1.00  0.00     0.037 A 
ATOM     50  C   UNL A   1      46.316  28.208  30.096  1.00  0.00     0.049 A 
ATOM     51  C   UNL A   1      40.963  29.758  29.681  1.00  0.00     0.074 A 
ATOM     52  C   UNL A   1      47.216  29.173  30.518  1.00  0.00     0.029 A 
ATOM     53  N   UNL A   1      45.065  28.803  30.095  1.00  0.00    -0.354 N 
ATOM     54  N   UNL A   1      42.250  29.552  29.809  1.00  0.00    -0.248 NA
ATOM     55  C   UNL A   1      40.519  31.092  30.111  1.00  0.00     0.031 C 
ATOM     56  C   UNL A   1      46.502  30.342  30.804  1.00  0.00     0.029 A 
ATOM     57  C   UNL A   1      45.164  30.115  30.526  1.00  0.00     0.049 A 
ATOM     58  H   UNL A   1      44.229  28.357  29.827  1.00  0.00     0.167 HD
ATOM     59  C   UNL A   1      42.773  30.733  30.318  1.00  0.00     0.074 A 
ATOM     60  C   UNL A   1      41.667  31.657  30.453  1.00  0.00     0.031 C 
ATOM     61  C   UNL A   1      44.055  31.024  30.650  1.00  0.00     0.037 A 
BRANCH  48  62
ATOM     62  C   UNL A   1      47.986  26.342  29.810  1.00  0.00     0.057 A 
ATOM     63  C   UNL A   1      48.475  25.782  30.996  1.00  0.00     0.134 A 
ATOM     64  C   UNL A   1      48.871  26.440  28.730  1.00  0.00     0.134 A 
ATOM     65  F   UNL A   1      47.686  25.674  32.075  1.00  0.00    -0.206 F 
ATOM     66  C   UNL A   1      49.792  25.328  31.097  1.00  0.00     0.040 A 
ATOM     67  C   UNL A   1      50.182  25.966  28.809  1.00  0.00     0.040 A 
ATOM     68  F   UNL A   1      48.462  26.979  27.573  1.00  0.00    -0.206 F 
ATOM     69  C   UNL A   1      50.646  25.410  29.999  1.00  0.00     0.006 A 
ENDBRANCH  48  62
BRANCH  49  70
ATOM     70  C   UNL A   1      38.492  29.285  29.049  1.00  0.00     0.057 A 
ATOM     71  C   UNL A   1      37.636  29.287  30.157  1.00  0.00     0.134 A 
ATOM     72  C   UNL A   1      37.977  29.746  27.833  1.00  0.00     0.134 A 
ATOM     73  F   UNL A   1      38.071  28.853  31.349  1.00  0.00    -0.206 F 
ATOM     74  C   UNL A   1      36.316  29.726  30.059  1.00  0.00     0.040 A 
ATOM     75  C   UNL A   1      36.666  30.213  27.725  1.00  0.00     0.040 A 
ATOM     76  F   UNL A   1      38.756  29.788  26.742  1.00  0.00    -0.206 F 
ATOM     77  C   UNL A   1      35.830  30.198  28.841  1.00  0.00     0.006 A 
ENDBRANCH  49  70
BRANCH  61  78
ATOM     78  C   UNL A   1      44.324  32.405  31.166  1.00  0.00     0.057 A 
ATOM     79  C   UNL A   1      44.623  33.452  30.284  1.00  0.00     0.134 A 
ATOM     80  C   UNL A   1      44.296  32.700  32.535  1.00  0.00     0.134 A 
ATOM     81  F   UNL A   1      44.672  33.235  28.961  1.00  0.00    -0.206 F 
ATOM     82  C   UNL A   1      44.884  34.743  30.746  1.00  0.00     0.040 A 
ATOM     83  C   UNL A   1      44.531  33.991  33.007  1.00  0.00     0.040 A 
ATOM     84  F   UNL A   1      43.999  31.744  33.429  1.00  0.00    -0.206 F 
ATOM     85  C   UNL A   1      44.831  35.016  32.112  1.00  0.00     0.006 A 
ENDBRANCH  61  78
ENDBRANCH  35  36
ENDBRANCH  27  30
ENDBRANCH  25  26
ENDBRANCH   1  25
TORSDOF 12
ENDMDL
MODEL 2
REMARK VINA RESULT:     -12.2      2.317      7.873
REMARK SMILES Cc1noc(-c2cc(=O)n(CC(=O)NCCCNC(=O)c3ccc(-c4c5nc(c(-c6c(F)cccc6F)c6ccc([nH]6)c(-c6c(F)cccc6F)c6nc(c(-c7c(F)cccc7F)c7ccc4[nH]7)C=C6)C=C5)cc3)c3ccccc23)n1
REMARK SMILES IDX 16 1 15 2 14 3 12 4 13 5 11 7 10 8 6 9 7 10 80 11 8 12 75 13
REMARK SMILES IDX 79 14 9 15 76 16 78 17 77 18 5 19 1 20 2 21 3 22 81 23 4 24
REMARK SMILES IDX 17 25 18 26 19 27 20 29 21 30 22 31 74 32 23 33 73 34 24 35
REMARK SMILES IDX 25 36 26 37 67 38 27 39 72 40 66 41 68 42 28 43 71 44 65 45
REMARK SMILES IDX 64 46 29 48 55 49 38 50 54 51 39 52 42 53 53 54 69 55 40 56
REMARK SMILES IDX 41 57 52 59 70 60 43 61 30 62 31 63 36 64 32 65 33 66 35 67
REMARK SMILES IDX 37 68 34 69 56 70 57 71 62 72 58 73 59 74 61 75 63 76 60 77
REMARK SMILES IDX 44 78 45 79 50 80 46 81 47 82 49 83 51 84 48 85
REMARK H PARENT 14 6 18 28 68 47 42 58
REMARK Flexibility Score: inf
ROOT
ATOM      1  C   UNL A   1      33.543  28.898  25.746  1.00  0.00     0.042 C 
ENDROOT
BRANCH   1   2
ATOM      2  C   UNL A   1      32.153  28.518  25.250  1.00  0.00     0.117 C 
BRANCH   2   3
ATOM      3  N   UNL A   1      31.584  27.408  25.986  1.00  0.00    -0.354 N 
ATOM      4  C   UNL A   1      31.700  26.069  25.769  1.00  0.00     0.240 C 
ATOM      5  O   UNL A   1      31.231  25.313  26.626  1.00  0.00    -0.273 OA
ATOM      6  H   UNL A   1      31.033  27.660  26.762  1.00  0.00     0.163 HD
BRANCH   4   7
ATOM      7  C   UNL A   1      32.459  25.508  24.560  1.00  0.00     0.225 C 
BRANCH   7   8
ATOM      8  N   UNL A   1      32.646  24.053  24.530  1.00  0.00    -0.299 N 
ATOM      9  C   UNL A   1      32.879  21.209  24.496  1.00  0.00     0.055 A 
ATOM     10  C   UNL A   1      31.785  21.821  24.019  1.00  0.00     0.086 A 
ATOM     11  C   UNL A   1      33.995  22.056  24.978  1.00  0.00     0.011 A 
ATOM     12  C   UNL A   1      31.620  23.285  24.006  1.00  0.00     0.252 A 
ATOM     13  C   UNL A   1      33.870  23.460  24.973  1.00  0.00     0.053 A 
ATOM     14  C   UNL A   1      35.201  21.476  25.418  1.00  0.00     0.011 A 
ATOM     15  O   UNL A   1      30.568  23.738  23.560  1.00  0.00    -0.269 OA
ATOM     16  C   UNL A   1      34.963  24.237  25.394  1.00  0.00     0.027 A 
ATOM     17  C   UNL A   1      36.266  22.263  25.851  1.00  0.00     0.001 A 
ATOM     18  C   UNL A   1      36.147  23.643  25.835  1.00  0.00     0.002 A 
BRANCH   9  19
ATOM     19  C   UNL A   1      32.840  19.775  24.523  1.00  0.00     0.258 A 
ATOM     20  C   UNL A   1      33.795  16.494  23.629  1.00  0.00     0.093 C 
ATOM     21  C   UNL A   1      33.188  17.713  24.187  1.00  0.00     0.169 A 
ATOM     22  N   UNL A   1      32.267  17.699  25.152  1.00  0.00    -0.062 NA
ATOM     23  N   UNL A   1      33.562  18.959  23.773  1.00  0.00    -0.192 NA
ATOM     24  O   UNL A   1      32.032  19.051  25.384  1.00  0.00    -0.334 OA
ENDBRANCH   9  19
ENDBRANCH   7   8
ENDBRANCH   4   7
ENDBRANCH   2   3
ENDBRANCH   1   2
BRANCH   1  25
ATOM     25  C   UNL A   1      33.709  28.837  27.263  1.00  0.00     0.118 C 
BRANCH  25  26
ATOM     26  N   UNL A   1      33.766  30.152  27.892  1.00  0.00    -0.352 N 
ATOM     27  C   UNL A   1      34.795  30.779  28.555  1.00  0.00     0.251 C 
ATOM     28  H   UNL A   1      32.934  30.675  27.833  1.00  0.00     0.163 HD
ATOM     29  O   UNL A   1      34.589  31.846  29.128  1.00  0.00    -0.269 OA
BRANCH  27  30
ATOM     30  C   UNL A   1      36.139  30.162  28.617  1.00  0.00     0.039 A 
ATOM     31  C   UNL A   1      36.588  29.527  29.776  1.00  0.00     0.014 A 
ATOM     32  C   UNL A   1      36.965  30.222  27.490  1.00  0.00     0.014 A 
ATOM     33  C   UNL A   1      37.917  29.122  29.869  1.00  0.00     0.010 A 
ATOM     34  C   UNL A   1      38.275  29.736  27.558  1.00  0.00     0.010 A 
ATOM     35  C   UNL A   1      38.781  29.236  28.767  1.00  0.00    -0.014 A 
BRANCH  35  36
ATOM     36  C   UNL A   1      40.212  28.859  28.917  1.00  0.00     0.031 A 
ATOM     37  C   UNL A   1      41.181  29.787  29.604  1.00  0.00     0.074 A 
ATOM     38  C   UNL A   1      40.631  27.654  28.486  1.00  0.00     0.049 A 
ATOM     39  N   UNL A   1      42.457  29.616  29.848  1.00  0.00    -0.248 NA
ATOM     40  C   UNL A   1      40.653  31.077  30.075  1.00  0.00     0.031 C 
ATOM     41  C   UNL A   1      39.796  26.663  27.805  1.00  0.00     0.029 A 
ATOM     42  N   UNL A   1      41.858  27.047  28.577  1.00  0.00    -0.354 N 
ATOM     43  C   UNL A   1      42.887  30.779  30.477  1.00  0.00     0.074 A 
ATOM     44  C   UNL A   1      41.743  31.663  30.551  1.00  0.00     0.031 C 
ATOM     45  C   UNL A   1      40.519  25.555  27.585  1.00  0.00     0.029 A 
ATOM     46  C   UNL A   1      41.882  25.776  28.058  1.00  0.00     0.049 A 
ATOM     47  H   UNL A   1      42.646  27.482  28.976  1.00  0.00     0.167 HD
ATOM     48  C   UNL A   1      44.115  31.079  30.965  1.00  0.00     0.037 A 
ATOM     49  C   UNL A   1      42.889  24.889  27.965  1.00  0.00     0.037 A 
ATOM     50  C   UNL A   1      45.244  30.188  30.931  1.00  0.00     0.049 A 
ATOM     51  C   UNL A   1      44.247  25.260  28.492  1.00  0.00     0.074 A 
ATOM     52  C   UNL A   1      46.516  30.387  31.443  1.00  0.00     0.029 A 
ATOM     53  N   UNL A   1      45.237  28.927  30.358  1.00  0.00    -0.354 N 
ATOM     54  N   UNL A   1      44.626  26.353  29.106  1.00  0.00    -0.248 NA
ATOM     55  C   UNL A   1      45.318  24.272  28.303  1.00  0.00     0.031 C 
ATOM     56  C   UNL A   1      47.287  29.257  31.150  1.00  0.00     0.029 A 
ATOM     57  C   UNL A   1      46.486  28.342  30.488  1.00  0.00     0.049 A 
ATOM     58  H   UNL A   1      44.459  28.508  29.924  1.00  0.00     0.167 HD
ATOM     59  C   UNL A   1      45.973  26.179  29.392  1.00  0.00     0.074 A 
ATOM     60  C   UNL A   1      46.338  24.866  28.905  1.00  0.00     0.031 C 
ATOM     61  C   UNL A   1      46.833  27.032  30.000  1.00  0.00     0.037 A 
BRANCH  48  62
ATOM     62  C   UNL A   1      44.298  32.430  31.589  1.00  0.00     0.057 A 
ATOM     63  C   UNL A   1      44.042  32.639  32.949  1.00  0.00     0.134 A 
ATOM     64  C   UNL A   1      44.701  33.537  30.832  1.00  0.00     0.134 A 
ATOM     65  F   UNL A   1      43.635  31.626  33.729  1.00  0.00    -0.206 F 
ATOM     66  C   UNL A   1      44.191  33.898  33.534  1.00  0.00     0.040 A 
ATOM     67  C   UNL A   1      44.881  34.795  31.409  1.00  0.00     0.040 A 
ATOM     68  F   UNL A   1      44.949  33.400  29.522  1.00  0.00    -0.206 F 
ATOM     69  C   UNL A   1      44.621  34.978  32.766  1.00  0.00     0.006 A 
ENDBRANCH  48  62
BRANCH  49  70
ATOM     70  C   UNL A   1      42.659  23.563  27.341  1.00  0.00     0.057 A 
ATOM     71  C   UNL A   1      42.822  23.368  25.964  1.00  0.00     0.134 A 
ATOM     72  C   UNL A   1      42.290  22.455  28.111  1.00  0.00     0.134 A 
ATOM     73  F   UNL A   1      43.172  24.392  25.171  1.00  0.00    -0.206 F 
ATOM     74  C   UNL A   1      42.620  22.120  25.374  1.00  0.00     0.040 A 
ATOM     75  C   UNL A   1      42.109  21.195  27.539  1.00  0.00     0.040 A 
ATOM     76  F   UNL A   1      42.140  22.576  29.438  1.00  0.00    -0.206 F 
ATOM     77  C   UNL A   1      42.270  21.027  26.164  1.00  0.00     0.006 A 
ENDBRANCH  49  70
BRANCH  61  78
ATOM     78  C   UNL A   1      48.241  26.555  30.189  1.00  0.00     0.057 A 
ATOM     79  C   UNL A   1      48.605  25.838  31.336  1.00  0.00     0.134 A 
ATOM     80  C   UNL A   1      49.240  26.813  29.241  1.00  0.00     0.134 A 
ATOM     81  F   UNL A   1      47.698  25.563  32.285  1.00  0.00    -0.206 F 
ATOM     82  C   UNL A   1      49.914  25.393  31.532  1.00  0.00     0.040 A 
ATOM     83  C   UNL A   1      50.545  26.353  29.414  1.00  0.00     0.040 A 
ATOM     84  F   UNL A   1      48.950  27.482  28.114  1.00  0.00    -0.206 F 
ATOM     85  C   UNL A   1      50.885  25.644  30.565  1.00  0.00     0.006 A 
ENDBRANCH  61  78
ENDBRANCH  35  36
ENDBRANCH  27  30
ENDBRANCH  25  26
ENDBRANCH   1  25
TORSDOF 12
ENDMDL
MODEL 3
REMARK VINA RESULT:     -12.2      3.875      7.890
REMARK SMILES Cc1noc(-c2cc(=O)n(CC(=O)NCCCNC(=O)c3ccc(-c4c5nc(c(-c6c(F)cccc6F)c6ccc([nH]6)c(-c6c(F)cccc6F)c6nc(c(-c7c(F)cccc7F)c7ccc4[nH]7)C=C6)C=C5)cc3)c3ccccc23)n1
REMARK SMILES IDX 16 1 15 2 14 3 12 4 13 5 11 7 10 8 6 9 7 10 80 11 8 12 75 13
REMARK SMILES IDX 79 14 9 15 76 16 78 17 77 18 5 19 1 20 2 21 3 22 81 23 4 24
REMARK SMILES IDX 17 25 18 26 19 27 20 29 21 30 22 31 74 32 23 33 73 34 24 35
REMARK SMILES IDX 25 36 26 37 67 38 27 39 72 40 66 41 68 42 28 43 71 44 65 45
REMARK SMILES IDX 64 46 29 48 55 49 38 50 54 51 39 52 42 53 53 54 69 55 40 56
REMARK SMILES IDX 41 57 52 59 70 60 43 61 30 62 31 63 36 64 32 65 33 66 35 67
REMARK SMILES IDX 37 68 34 69 56 70 57 71 62 72 58 73 59 74 61 75 63 76 60 77
REMARK SMILES IDX 44 78 45 79 50 80 46 81 47 82 49 83 51 84 48 85
REMARK H PARENT 14 6 18 28 68 47 42 58
REMARK Flexibility Score: inf
ROOT
ATOM      1  C   UNL A   1      37.197  22.752  25.601  1.00  0.00     0.042 C 
ENDROOT
BRANCH   1   2
ATOM      2  C   UNL A   1      35.716  23.100  25.488  1.00  0.00     0.117 C 
BRANCH   2   3
ATOM      3  N   UNL A   1      35.332  23.456  24.137  1.00  0.00    -0.354 N 
ATOM      4  C   UNL A   1      34.203  24.069  23.687  1.00  0.00     0.240 C 
ATOM      5  O   UNL A   1      34.170  24.391  22.495  1.00  0.00    -0.273 OA
ATOM      6  H   UNL A   1      35.986  23.219  23.441  1.00  0.00     0.163 HD
BRANCH   4   7
ATOM      7  C   UNL A   1      33.049  24.435  24.629  1.00  0.00     0.225 C 
BRANCH   7   8
ATOM      8  N   UNL A   1      32.278  25.632  24.275  1.00  0.00    -0.299 N 
ATOM      9  C   UNL A   1      30.753  27.905  23.468  1.00  0.00     0.055 A 
ATOM     10  C   UNL A   1      30.410  26.668  23.082  1.00  0.00     0.086 A 
ATOM     11  C   UNL A   1      31.907  28.052  24.385  1.00  0.00     0.011 A 
ATOM     12  C   UNL A   1      31.159  25.462  23.478  1.00  0.00     0.252 A 
ATOM     13  C   UNL A   1      32.640  26.918  24.787  1.00  0.00     0.053 A 
ATOM     14  C   UNL A   1      32.270  29.317  24.889  1.00  0.00     0.011 A 
ATOM     15  O   UNL A   1      30.765  24.378  23.052  1.00  0.00    -0.269 OA
ATOM     16  C   UNL A   1      33.702  27.085  25.693  1.00  0.00     0.027 A 
ATOM     17  C   UNL A   1      33.338  29.465  25.771  1.00  0.00     0.001 A 
ATOM     18  C   UNL A   1      34.051  28.348  26.174  1.00  0.00     0.002 A 
BRANCH   9  19
ATOM     19  C   UNL A   1      29.975  28.977  22.916  1.00  0.00     0.258 A 
ATOM     20  C   UNL A   1      27.784  31.747  22.972  1.00  0.00     0.093 C 
ATOM     21  C   UNL A   1      28.694  30.640  22.636  1.00  0.00     0.169 A 
ATOM     22  N   UNL A   1      29.146  30.409  21.402  1.00  0.00    -0.062 NA
ATOM     23  N   UNL A   1      29.174  29.787  23.588  1.00  0.00    -0.192 NA
ATOM     24  O   UNL A   1      29.993  29.319  21.574  1.00  0.00    -0.334 OA
ENDBRANCH   9  19
ENDBRANCH   7   8
ENDBRANCH   4   7
ENDBRANCH   2   3
ENDBRANCH   1   2
BRANCH   1  25
ATOM     25  C   UNL A   1      38.067  23.878  26.154  1.00  0.00     0.118 C 
BRANCH  25  26
ATOM     26  N   UNL A   1      39.496  23.598  26.073  1.00  0.00    -0.352 N 
ATOM     27  C   UNL A   1      40.570  24.286  26.588  1.00  0.00     0.251 C 
ATOM     28  H   UNL A   1      39.730  22.786  25.568  1.00  0.00     0.163 HD
ATOM     29  O   UNL A   1      41.712  23.944  26.289  1.00  0.00    -0.269 OA
BRANCH  27  30
ATOM     30  C   UNL A   1      40.363  25.458  27.468  1.00  0.00     0.039 A 
ATOM     31  C   UNL A   1      41.052  26.652  27.253  1.00  0.00     0.014 A 
ATOM     32  C   UNL A   1      39.460  25.356  28.532  1.00  0.00     0.014 A 
ATOM     33  C   UNL A   1      40.979  27.670  28.199  1.00  0.00     0.010 A 
ATOM     34  C   UNL A   1      39.324  26.414  29.436  1.00  0.00     0.010 A 
ATOM     35  C   UNL A   1      40.127  27.557  29.311  1.00  0.00    -0.014 A 
BRANCH  35  36
ATOM     36  C   UNL A   1      40.122  28.631  30.341  1.00  0.00     0.031 A 
ATOM     37  C   UNL A   1      39.105  29.742  30.284  1.00  0.00     0.074 A 
ATOM     38  C   UNL A   1      40.996  28.575  31.364  1.00  0.00     0.049 A 
ATOM     39  N   UNL A   1      38.932  30.747  31.107  1.00  0.00    -0.248 NA
ATOM     40  C   UNL A   1      38.163  29.729  29.155  1.00  0.00     0.031 C 
ATOM     41  C   UNL A   1      42.030  27.553  31.537  1.00  0.00     0.029 A 
ATOM     42  N   UNL A   1      41.139  29.382  32.464  1.00  0.00    -0.354 N 
ATOM     43  C   UNL A   1      37.882  31.494  30.585  1.00  0.00     0.074 A 
ATOM     44  C   UNL A   1      37.475  30.844  29.358  1.00  0.00     0.031 C 
ATOM     45  C   UNL A   1      42.667  27.765  32.698  1.00  0.00     0.029 A 
ATOM     46  C   UNL A   1      42.126  28.967  33.325  1.00  0.00     0.049 A 
ATOM     47  H   UNL A   1      40.587  30.182  32.621  1.00  0.00     0.167 HD
ATOM     48  C   UNL A   1      37.297  32.608  31.089  1.00  0.00     0.037 A 
ATOM     49  C   UNL A   1      42.553  29.499  34.484  1.00  0.00     0.037 A 
ATOM     50  C   UNL A   1      37.671  33.233  32.330  1.00  0.00     0.049 A 
ATOM     51  C   UNL A   1      41.902  30.749  35.005  1.00  0.00     0.074 A 
ATOM     52  C   UNL A   1      37.104  34.337  32.945  1.00  0.00     0.029 A 
ATOM     53  N   UNL A   1      38.703  32.805  33.149  1.00  0.00    -0.354 N 
ATOM     54  N   UNL A   1      40.894  31.424  34.512  1.00  0.00    -0.248 NA
ATOM     55  C   UNL A   1      42.458  31.313  36.244  1.00  0.00     0.031 C 
ATOM     56  C   UNL A   1      37.816  34.597  34.121  1.00  0.00     0.029 A 
ATOM     57  C   UNL A   1      38.802  33.633  34.255  1.00  0.00     0.049 A 
ATOM     58  H   UNL A   1      39.280  32.028  32.972  1.00  0.00     0.167 HD
ATOM     59  C   UNL A   1      40.683  32.482  35.385  1.00  0.00     0.074 A 
ATOM     60  C   UNL A   1      41.653  32.345  36.451  1.00  0.00     0.031 C 
ATOM     61  C   UNL A   1      39.771  33.481  35.310  1.00  0.00     0.037 A 
BRANCH  48  62
ATOM     62  C   UNL A   1      36.179  33.218  30.298  1.00  0.00     0.057 A 
ATOM     63  C   UNL A   1      36.438  34.010  29.173  1.00  0.00     0.134 A 
ATOM     64  C   UNL A   1      34.841  33.046  30.671  1.00  0.00     0.134 A 
ATOM     65  F   UNL A   1      37.698  34.230  28.770  1.00  0.00    -0.206 F 
ATOM     66  C   UNL A   1      35.403  34.597  28.443  1.00  0.00     0.040 A 
ATOM     67  C   UNL A   1      33.795  33.605  29.934  1.00  0.00     0.040 A 
ATOM     68  F   UNL A   1      34.533  32.308  31.747  1.00  0.00    -0.206 F 
ATOM     69  C   UNL A   1      34.077  34.387  28.817  1.00  0.00     0.006 A 
ENDBRANCH  48  62
BRANCH  49  70
ATOM     70  C   UNL A   1      43.662  28.857  35.233  1.00  0.00     0.057 A 
ATOM     71  C   UNL A   1      45.000  29.179  34.972  1.00  0.00     0.134 A 
ATOM     72  C   UNL A   1      43.407  27.923  36.242  1.00  0.00     0.134 A 
ATOM     73  F   UNL A   1      45.308  30.066  34.014  1.00  0.00    -0.206 F 
ATOM     74  C   UNL A   1      46.045  28.589  35.682  1.00  0.00     0.040 A 
ATOM     75  C   UNL A   1      44.442  27.343  36.979  1.00  0.00     0.040 A 
ATOM     76  F   UNL A   1      42.146  27.590  36.552  1.00  0.00    -0.206 F 
ATOM     77  C   UNL A   1      45.767  27.674  36.695  1.00  0.00     0.006 A 
ENDBRANCH  49  70
BRANCH  61  78
ATOM     78  C   UNL A   1      39.770  34.484  36.424  1.00  0.00     0.057 A 
ATOM     79  C   UNL A   1      40.507  35.670  36.319  1.00  0.00     0.134 A 
ATOM     80  C   UNL A   1      39.047  34.272  37.605  1.00  0.00     0.134 A 
ATOM     81  F   UNL A   1      41.226  35.931  35.216  1.00  0.00    -0.206 F 
ATOM     82  C   UNL A   1      40.524  36.611  37.349  1.00  0.00     0.040 A 
ATOM     83  C   UNL A   1      39.036  35.217  38.631  1.00  0.00     0.040 A 
ATOM     84  F   UNL A   1      38.308  33.163  37.759  1.00  0.00    -0.206 F 
ATOM     85  C   UNL A   1      39.780  36.388  38.506  1.00  0.00     0.006 A 
ENDBRANCH  61  78
ENDBRANCH  35  36
ENDBRANCH  27  30
ENDBRANCH  25  26
ENDBRANCH   1  25
TORSDOF 12
ENDMDL
