MODEL 1
REMARK VINA RESULT:     -12.4      0.000      0.000
REMARK SMILES Cc1nc(-c2ccccc2Cl)sc1C(=O)NC[C@H]1CC[C@@H](C(=O)NCCCNC(=O)c2ccc(-c3c4nc(c(-c5c(F)cccc5F)c5ccc([nH]5)c(-c5c(F)cccc5F)c5nc(c(-c6c(F)cccc6F)c6ccc3[nH]6)C=C5)C=C4)cc2)CC1
REMARK SMILES IDX 25 1 24 2 22 3 23 4 21 6 18 7 19 8 86 9 20 10 85 11 17 12
REMARK SMILES IDX 16 13 14 14 15 15 13 17 1 18 2 19 3 20 4 21 12 22 5 23 6 24
REMARK SMILES IDX 10 25 7 26 9 27 11 28 8 29 26 30 27 31 28 32 29 33 30 35
REMARK SMILES IDX 31 36 32 37 84 38 33 39 83 40 34 41 35 42 36 43 77 44 37 45
REMARK SMILES IDX 82 46 76 47 78 48 38 49 81 50 75 51 74 52 39 54 65 55 48 56
REMARK SMILES IDX 64 57 49 58 52 59 63 60 79 61 50 62 51 63 62 65 80 66 53 67
REMARK SMILES IDX 40 68 41 69 46 70 42 71 43 72 45 73 47 74 44 75 66 76 67 77
REMARK SMILES IDX 72 78 68 79 69 80 71 81 73 82 70 83 54 84 55 85 60 86 56 87
REMARK SMILES IDX 57 88 59 89 61 90 58 91
REMARK H PARENT 24 5 16 16 28 34 78 53 52 64
REMARK Flexibility Score: inf
ROOT
ATOM      1  C   UNL A   1      39.837  22.095  26.557  1.00  0.00     0.117 C 
ENDROOT
BRANCH   1   2
ATOM      2  N   UNL A   1      38.755  23.044  26.545  1.00  0.00    -0.356 N 
ATOM      3  C   UNL A   1      37.599  23.104  25.839  1.00  0.00     0.223 C 
ATOM      4  O   UNL A   1      36.809  23.984  26.204  1.00  0.00    -0.275 OA
ATOM      5  H   UNL A   1      38.877  23.795  27.170  1.00  0.00     0.163 HD
BRANCH   3   6
ATOM      6  C   UNL A   1      37.220  22.209  24.645  1.00  0.00     0.078 C 
ATOM      7  C   UNL A   1      34.305  22.004  23.800  1.00  0.00     0.008 C 
ATOM      8  C   UNL A   1      35.240  23.086  23.207  1.00  0.00     0.006 C 
ATOM      9  C   UNL A   1      34.918  21.127  24.911  1.00  0.00     0.006 C 
ATOM     10  C   UNL A   1      36.740  22.870  23.358  1.00  0.00     0.014 C 
ATOM     11  C   UNL A   1      36.421  20.961  24.965  1.00  0.00     0.014 C 
BRANCH   7  12
ATOM     12  C   UNL A   1      32.968  22.662  24.273  1.00  0.00     0.119 C 
BRANCH  12  13
ATOM     13  N   UNL A   1      32.401  23.559  23.306  1.00  0.00    -0.351 N 
ATOM     14  C   UNL A   1      32.125  24.899  23.268  1.00  0.00     0.263 C 
ATOM     15  O   UNL A   1      31.864  25.263  22.112  1.00  0.00    -0.268 OA
ATOM     16  H   UNL A   1      32.151  23.100  22.472  1.00  0.00     0.163 HD
BRANCH  14  17
ATOM     17  C   UNL A   1      32.098  25.831  24.398  1.00  0.00     0.115 A 
ATOM     18  C   UNL A   1      29.947  25.791  25.947  1.00  0.00     0.068 C 
ATOM     19  C   UNL A   1      31.271  26.219  25.455  1.00  0.00     0.062 A 
ATOM     20  N   UNL A   1      31.753  27.254  26.241  1.00  0.00    -0.240 NA
ATOM     21  C   UNL A   1      32.880  27.724  25.779  1.00  0.00     0.125 A 
ATOM     22  S   UNL A   1      33.544  26.840  24.495  1.00  0.00    -0.108 S 
BRANCH  21  23
ATOM     23  C   UNL A   1      33.544  28.865  26.395  1.00  0.00     0.029 A 
ATOM     24  C   UNL A   1      34.749  28.612  27.076  1.00  0.00     0.013 A 
ATOM     25  C   UNL A   1      32.976  30.144  26.474  1.00  0.00     0.051 A 
ATOM     26  C   UNL A   1      35.379  29.612  27.813  1.00  0.00     0.001 A 
ATOM     27  C   UNL A   1      33.614  31.147  27.213  1.00  0.00     0.021 A 
ATOM     28  Cl  UNL A   1      31.452  30.543  25.759  1.00  0.00    -0.084 Cl
ATOM     29  C   UNL A   1      34.810  30.879  27.882  1.00  0.00     0.002 A 
ENDBRANCH  21  23
ENDBRANCH  14  17
ENDBRANCH  12  13
ENDBRANCH   7  12
ENDBRANCH   3   6
ENDBRANCH   1   2
BRANCH   1  30
ATOM     30  C   UNL A   1      40.712  22.182  27.798  1.00  0.00     0.042 C 
BRANCH  30  31
ATOM     31  C   UNL A   1      42.040  22.872  27.552  1.00  0.00     0.118 C 
BRANCH  31  32
ATOM     32  N   UNL A   1      42.015  23.708  26.355  1.00  0.00    -0.352 N 
ATOM     33  C   UNL A   1      41.737  25.044  26.183  1.00  0.00     0.251 C 
ATOM     34  H   UNL A   1      42.237  23.231  25.523  1.00  0.00     0.163 HD
ATOM     35  O   UNL A   1      41.598  25.481  25.045  1.00  0.00    -0.269 OA
BRANCH  33  36
ATOM     36  C   UNL A   1      41.581  25.949  27.344  1.00  0.00     0.039 A 
ATOM     37  C   UNL A   1      42.553  26.925  27.584  1.00  0.00     0.014 A 
ATOM     38  C   UNL A   1      40.499  25.828  28.216  1.00  0.00     0.014 A 
ATOM     39  C   UNL A   1      42.396  27.816  28.649  1.00  0.00     0.010 A 
ATOM     40  C   UNL A   1      40.272  26.797  29.182  1.00  0.00     0.010 A 
ATOM     41  C   UNL A   1      41.230  27.788  29.430  1.00  0.00    -0.014 A 
BRANCH  41  42
ATOM     42  C   UNL A   1      41.001  28.752  30.535  1.00  0.00     0.031 A 
ATOM     43  C   UNL A   1      41.829  28.667  31.792  1.00  0.00     0.074 A 
ATOM     44  C   UNL A   1      40.001  29.651  30.442  1.00  0.00     0.049 A 
ATOM     45  N   UNL A   1      41.725  29.354  32.901  1.00  0.00    -0.248 NA
ATOM     46  C   UNL A   1      42.886  27.642  31.823  1.00  0.00     0.031 C 
ATOM     47  C   UNL A   1      39.087  29.789  29.305  1.00  0.00     0.029 A 
ATOM     48  N   UNL A   1      39.580  30.614  31.324  1.00  0.00    -0.354 N 
ATOM     49  C   UNL A   1      42.682  28.828  33.762  1.00  0.00     0.074 A 
ATOM     50  C   UNL A   1      43.304  27.718  33.078  1.00  0.00     0.031 C 
ATOM     51  C   UNL A   1      38.238  30.801  29.544  1.00  0.00     0.029 A 
ATOM     52  C   UNL A   1      38.517  31.353  30.865  1.00  0.00     0.049 A 
ATOM     53  H   UNL A   1      39.999  30.760  32.202  1.00  0.00     0.167 HD
ATOM     54  C   UNL A   1      43.036  29.251  34.998  1.00  0.00     0.037 A 
ATOM     55  C   UNL A   1      37.842  32.362  31.447  1.00  0.00     0.037 A 
ATOM     56  C   UNL A   1      42.439  30.381  35.658  1.00  0.00     0.049 A 
ATOM     57  C   UNL A   1      38.258  32.823  32.817  1.00  0.00     0.074 A 
ATOM     58  C   UNL A   1      42.769  30.941  36.878  1.00  0.00     0.029 A 
ATOM     59  N   UNL A   1      41.384  31.124  35.147  1.00  0.00    -0.354 N 
ATOM     60  N   UNL A   1      39.217  32.366  33.588  1.00  0.00    -0.248 NA
ATOM     61  C   UNL A   1      37.504  33.943  33.396  1.00  0.00     0.031 C 
ATOM     62  C   UNL A   1      41.880  31.990  37.131  1.00  0.00     0.029 A 
ATOM     63  C   UNL A   1      41.034  32.122  36.040  1.00  0.00     0.049 A 
ATOM     64  H   UNL A   1      40.949  30.965  34.278  1.00  0.00     0.167 HD
ATOM     65  C   UNL A   1      39.201  33.160  34.727  1.00  0.00     0.074 A 
ATOM     66  C   UNL A   1      38.147  34.137  34.539  1.00  0.00     0.031 C 
ATOM     67  C   UNL A   1      39.986  33.089  35.830  1.00  0.00     0.037 A 
BRANCH  54  68
ATOM     68  C   UNL A   1      44.120  28.491  35.709  1.00  0.00     0.057 A 
ATOM     69  C   UNL A   1      45.479  28.789  35.526  1.00  0.00     0.134 A 
ATOM     70  C   UNL A   1      43.805  27.459  36.602  1.00  0.00     0.134 A 
ATOM     71  F   UNL A   1      45.854  29.757  34.676  1.00  0.00    -0.206 F 
ATOM     72  C   UNL A   1      46.481  28.068  36.177  1.00  0.00     0.040 A 
ATOM     73  C   UNL A   1      44.797  26.752  37.284  1.00  0.00     0.040 A 
ATOM     74  F   UNL A   1      42.526  27.123  36.831  1.00  0.00    -0.206 F 
ATOM     75  C   UNL A   1      46.140  27.049  37.064  1.00  0.00     0.006 A 
ENDBRANCH  54  68
BRANCH  55  76
ATOM     76  C   UNL A   1      36.724  33.022  30.725  1.00  0.00     0.057 A 
ATOM     77  C   UNL A   1      35.392  32.788  31.086  1.00  0.00     0.134 A 
ATOM     78  C   UNL A   1      36.956  33.904  29.663  1.00  0.00     0.134 A 
ATOM     79  F   UNL A   1      35.103  31.943  32.088  1.00  0.00    -0.206 F 
ATOM     80  C   UNL A   1      34.331  33.387  30.405  1.00  0.00     0.040 A 
ATOM     81  C   UNL A   1      35.906  34.533  28.991  1.00  0.00     0.040 A 
ATOM     82  F   UNL A   1      38.208  34.181  29.273  1.00  0.00    -0.206 F 
ATOM     83  C   UNL A   1      34.587  34.266  29.355  1.00  0.00     0.006 A 
ENDBRANCH  55  76
BRANCH  67  84
ATOM     84  C   UNL A   1      39.763  34.117  36.901  1.00  0.00     0.057 A 
ATOM     85  C   UNL A   1      40.301  35.408  36.815  1.00  0.00     0.134 A 
ATOM     86  C   UNL A   1      38.961  33.823  38.011  1.00  0.00     0.134 A 
ATOM     87  F   UNL A   1      41.088  35.750  35.783  1.00  0.00    -0.206 F 
ATOM     88  C   UNL A   1      40.069  36.360  37.808  1.00  0.00     0.040 A 
ATOM     89  C   UNL A   1      38.696  34.777  38.994  1.00  0.00     0.040 A 
ATOM     90  F   UNL A   1      38.405  32.610  38.149  1.00  0.00    -0.206 F 
ATOM     91  C   UNL A   1      39.257  36.049  38.898  1.00  0.00     0.006 A 
ENDBRANCH  67  84
ENDBRANCH  41  42
ENDBRANCH  33  36
ENDBRANCH  31  32
ENDBRANCH  30  31
ENDBRANCH   1  30
TORSDOF 14
ENDMDL
MODEL 2
REMARK VINA RESULT:     -12.4      5.200     10.278
REMARK SMILES Cc1nc(-c2ccccc2Cl)sc1C(=O)NC[C@H]1CC[C@@H](C(=O)NCCCNC(=O)c2ccc(-c3c4nc(c(-c5c(F)cccc5F)c5ccc([nH]5)c(-c5c(F)cccc5F)c5nc(c(-c6c(F)cccc6F)c6ccc3[nH]6)C=C5)C=C4)cc2)CC1
REMARK SMILES IDX 25 1 24 2 22 3 23 4 21 6 18 7 19 8 86 9 20 10 85 11 17 12
REMARK SMILES IDX 16 13 14 14 15 15 13 17 1 18 2 19 3 20 4 21 12 22 5 23 6 24
REMARK SMILES IDX 10 25 7 26 9 27 11 28 8 29 26 30 27 31 28 32 29 33 30 35
REMARK SMILES IDX 31 36 32 37 84 38 33 39 83 40 34 41 35 42 36 43 77 44 37 45
REMARK SMILES IDX 82 46 76 47 78 48 38 49 81 50 75 51 74 52 39 54 65 55 48 56
REMARK SMILES IDX 64 57 49 58 52 59 63 60 79 61 50 62 51 63 62 65 80 66 53 67
REMARK SMILES IDX 40 68 41 69 46 70 42 71 43 72 45 73 47 74 44 75 66 76 67 77
REMARK SMILES IDX 72 78 68 79 69 80 71 81 73 82 70 83 54 84 55 85 60 86 56 87
REMARK SMILES IDX 57 88 59 89 61 90 58 91
REMARK H PARENT 24 5 16 16 28 34 78 53 52 64
REMARK Flexibility Score: inf
ROOT
ATOM      1  C   UNL A   1      33.958  29.719  26.537  1.00  0.00     0.117 C 
ENDROOT
BRANCH   1   2
ATOM      2  N   UNL A   1      34.023  28.848  25.392  1.00  0.00    -0.356 N 
ATOM      3  C   UNL A   1      33.081  28.127  24.736  1.00  0.00     0.223 C 
ATOM      4  O   UNL A   1      33.461  27.612  23.677  1.00  0.00    -0.275 OA
ATOM      5  H   UNL A   1      34.927  28.758  25.012  1.00  0.00     0.163 HD
BRANCH   3   6
ATOM      6  C   UNL A   1      31.634  27.889  25.206  1.00  0.00     0.078 C 
ATOM      7  C   UNL A   1      30.182  25.361  24.340  1.00  0.00     0.008 C 
ATOM      8  C   UNL A   1      31.021  25.401  25.639  1.00  0.00     0.006 C 
ATOM      9  C   UNL A   1      30.227  26.638  23.475  1.00  0.00     0.006 C 
ATOM     10  C   UNL A   1      31.363  26.772  26.207  1.00  0.00     0.014 C 
ATOM     11  C   UNL A   1      30.560  27.957  24.138  1.00  0.00     0.014 C 
BRANCH   7  12
ATOM     12  C   UNL A   1      30.566  24.098  23.501  1.00  0.00     0.119 C 
BRANCH  12  13
ATOM     13  N   UNL A   1      31.600  24.347  22.537  1.00  0.00    -0.351 N 
ATOM     14  C   UNL A   1      32.862  23.866  22.319  1.00  0.00     0.263 C 
ATOM     15  O   UNL A   1      33.278  24.207  21.203  1.00  0.00    -0.268 OA
ATOM     16  H   UNL A   1      31.338  25.027  21.875  1.00  0.00     0.163 HD
BRANCH  14  17
ATOM     17  C   UNL A   1      33.679  23.072  23.241  1.00  0.00     0.115 A 
ATOM     18  C   UNL A   1      32.524  20.978  24.384  1.00  0.00     0.068 C 
ATOM     19  C   UNL A   1      33.587  21.952  24.071  1.00  0.00     0.062 A 
ATOM     20  N   UNL A   1      34.726  21.659  24.805  1.00  0.00    -0.240 NA
ATOM     21  C   UNL A   1      35.657  22.556  24.628  1.00  0.00     0.125 A 
ATOM     22  S   UNL A   1      35.319  23.701  23.426  1.00  0.00    -0.108 S 
BRANCH  21  23
ATOM     23  C   UNL A   1      36.920  22.503  25.351  1.00  0.00     0.029 A 
ATOM     24  C   UNL A   1      37.384  23.704  25.918  1.00  0.00     0.013 A 
ATOM     25  C   UNL A   1      37.753  21.376  25.376  1.00  0.00     0.051 A 
ATOM     26  C   UNL A   1      38.645  23.780  26.504  1.00  0.00     0.001 A 
ATOM     27  C   UNL A   1      39.018  21.455  25.968  1.00  0.00     0.021 A 
ATOM     28  Cl  UNL A   1      37.329  19.875  24.626  1.00  0.00    -0.084 Cl
ATOM     29  C   UNL A   1      39.463  22.654  26.528  1.00  0.00     0.002 A 
ENDBRANCH  21  23
ENDBRANCH  14  17
ENDBRANCH  12  13
ENDBRANCH   7  12
ENDBRANCH   3   6
ENDBRANCH   1   2
BRANCH   1  30
ATOM     30  C   UNL A   1      35.043  29.452  27.570  1.00  0.00     0.042 C 
BRANCH  30  31
ATOM     31  C   UNL A   1      35.577  30.712  28.222  1.00  0.00     0.118 C 
BRANCH  31  32
ATOM     32  N   UNL A   1      35.527  30.644  29.680  1.00  0.00    -0.352 N 
ATOM     33  C   UNL A   1      36.449  30.209  30.603  1.00  0.00     0.251 C 
ATOM     34  H   UNL A   1      34.683  30.965  30.072  1.00  0.00     0.163 HD
ATOM     35  O   UNL A   1      36.103  30.075  31.772  1.00  0.00    -0.269 OA
BRANCH  33  36
ATOM     36  C   UNL A   1      37.837  29.883  30.203  1.00  0.00     0.039 A 
ATOM     37  C   UNL A   1      38.691  29.278  31.132  1.00  0.00     0.014 A 
ATOM     38  C   UNL A   1      38.314  30.189  28.930  1.00  0.00     0.014 A 
ATOM     39  C   UNL A   1      39.988  28.921  30.754  1.00  0.00     0.010 A 
ATOM     40  C   UNL A   1      39.548  29.710  28.514  1.00  0.00     0.010 A 
ATOM     41  C   UNL A   1      40.412  29.094  29.427  1.00  0.00    -0.014 A 
BRANCH  41  42
ATOM     42  C   UNL A   1      41.763  28.678  28.974  1.00  0.00     0.031 A 
ATOM     43  C   UNL A   1      42.882  29.686  28.921  1.00  0.00     0.074 A 
ATOM     44  C   UNL A   1      41.965  27.419  28.539  1.00  0.00     0.049 A 
ATOM     45  N   UNL A   1      44.104  29.546  28.472  1.00  0.00    -0.248 NA
ATOM     46  C   UNL A   1      42.575  31.047  29.393  1.00  0.00     0.031 C 
ATOM     47  C   UNL A   1      40.944  26.369  28.478  1.00  0.00     0.029 A 
ATOM     48  N   UNL A   1      43.095  26.810  28.054  1.00  0.00    -0.354 N 
ATOM     49  C   UNL A   1      44.695  30.800  28.586  1.00  0.00     0.074 A 
ATOM     50  C   UNL A   1      43.679  31.704  29.073  1.00  0.00     0.031 C 
ATOM     51  C   UNL A   1      41.504  25.238  28.020  1.00  0.00     0.029 A 
ATOM     52  C   UNL A   1      42.907  25.493  27.712  1.00  0.00     0.049 A 
ATOM     53  H   UNL A   1      43.958  27.274  27.960  1.00  0.00     0.167 HD
ATOM     54  C   UNL A   1      45.976  31.159  28.340  1.00  0.00     0.037 A 
ATOM     55  C   UNL A   1      43.770  24.593  27.205  1.00  0.00     0.037 A 
ATOM     56  C   UNL A   1      46.992  30.245  27.892  1.00  0.00     0.049 A 
ATOM     57  C   UNL A   1      45.192  25.012  26.949  1.00  0.00     0.074 A 
ATOM     58  C   UNL A   1      48.336  30.485  27.680  1.00  0.00     0.029 A 
ATOM     59  N   UNL A   1      46.769  28.910  27.586  1.00  0.00    -0.354 N 
ATOM     60  N   UNL A   1      45.757  26.182  27.135  1.00  0.00    -0.248 NA
ATOM     61  C   UNL A   1      46.099  23.985  26.419  1.00  0.00     0.031 C 
ATOM     62  C   UNL A   1      48.918  29.310  27.196  1.00  0.00     0.029 A 
ATOM     63  C   UNL A   1      47.948  28.321  27.162  1.00  0.00     0.049 A 
ATOM     64  H   UNL A   1      45.902  28.450  27.659  1.00  0.00     0.167 HD
ATOM     65  C   UNL A   1      47.088  26.024  26.774  1.00  0.00     0.074 A 
ATOM     66  C   UNL A   1      47.250  24.642  26.373  1.00  0.00     0.031 C 
ATOM     67  C   UNL A   1      48.089  26.939  26.774  1.00  0.00     0.037 A 
BRANCH  54  68
ATOM     68  C   UNL A   1      46.347  32.599  28.557  1.00  0.00     0.057 A 
ATOM     69  C   UNL A   1      46.235  33.558  27.539  1.00  0.00     0.134 A 
ATOM     70  C   UNL A   1      46.806  33.041  29.806  1.00  0.00     0.134 A 
ATOM     71  F   UNL A   1      45.815  33.203  26.315  1.00  0.00    -0.206 F 
ATOM     72  C   UNL A   1      46.598  34.890  27.744  1.00  0.00     0.040 A 
ATOM     73  C   UNL A   1      47.140  34.377  30.032  1.00  0.00     0.040 A 
ATOM     74  F   UNL A   1      46.932  32.181  30.828  1.00  0.00    -0.206 F 
ATOM     75  C   UNL A   1      47.047  35.304  28.997  1.00  0.00     0.006 A 
ENDBRANCH  54  68
BRANCH  55  76
ATOM     76  C   UNL A   1      43.322  23.203  26.935  1.00  0.00     0.057 A 
ATOM     77  C   UNL A   1      43.057  22.313  27.983  1.00  0.00     0.134 A 
ATOM     78  C   UNL A   1      43.144  22.729  25.630  1.00  0.00     0.134 A 
ATOM     79  F   UNL A   1      43.221  22.703  29.256  1.00  0.00    -0.206 F 
ATOM     80  C   UNL A   1      42.653  20.998  27.744  1.00  0.00     0.040 A 
ATOM     81  C   UNL A   1      42.713  21.426  25.376  1.00  0.00     0.040 A 
ATOM     82  F   UNL A   1      43.370  23.533  24.581  1.00  0.00    -0.206 F 
ATOM     83  C   UNL A   1      42.476  20.553  26.436  1.00  0.00     0.006 A 
ENDBRANCH  55  76
BRANCH  67  84
ATOM     84  C   UNL A   1      49.454  26.467  26.365  1.00  0.00     0.057 A 
ATOM     85  C   UNL A   1      50.318  25.827  27.262  1.00  0.00     0.134 A 
ATOM     86  C   UNL A   1      49.889  26.617  25.042  1.00  0.00     0.134 A 
ATOM     87  F   UNL A   1      49.966  25.662  28.546  1.00  0.00    -0.206 F 
ATOM     88  C   UNL A   1      51.576  25.374  26.862  1.00  0.00     0.040 A 
ATOM     89  C   UNL A   1      51.132  26.141  24.623  1.00  0.00     0.040 A 
ATOM     90  F   UNL A   1      49.106  27.212  24.129  1.00  0.00    -0.206 F 
ATOM     91  C   UNL A   1      51.983  25.524  25.537  1.00  0.00     0.006 A 
ENDBRANCH  67  84
ENDBRANCH  41  42
ENDBRANCH  33  36
ENDBRANCH  31  32
ENDBRANCH  30  31
ENDBRANCH   1  30
TORSDOF 14
ENDMDL
MODEL 3
REMARK VINA RESULT:     -12.3      5.269     10.105
REMARK SMILES Cc1nc(-c2ccccc2Cl)sc1C(=O)NC[C@H]1CC[C@@H](C(=O)NCCCNC(=O)c2ccc(-c3c4nc(c(-c5c(F)cccc5F)c5ccc([nH]5)c(-c5c(F)cccc5F)c5nc(c(-c6c(F)cccc6F)c6ccc3[nH]6)C=C5)C=C4)cc2)CC1
REMARK SMILES IDX 25 1 24 2 22 3 23 4 21 6 18 7 19 8 86 9 20 10 85 11 17 12
REMARK SMILES IDX 16 13 14 14 15 15 13 17 1 18 2 19 3 20 4 21 12 22 5 23 6 24
REMARK SMILES IDX 10 25 7 26 9 27 11 28 8 29 26 30 27 31 28 32 29 33 30 35
REMARK SMILES IDX 31 36 32 37 84 38 33 39 83 40 34 41 35 42 36 43 77 44 37 45
REMARK SMILES IDX 82 46 76 47 78 48 38 49 81 50 75 51 74 52 39 54 65 55 48 56
REMARK SMILES IDX 64 57 49 58 52 59 63 60 79 61 50 62 51 63 62 65 80 66 53 67
REMARK SMILES IDX 40 68 41 69 46 70 42 71 43 72 45 73 47 74 44 75 66 76 67 77
REMARK SMILES IDX 72 78 68 79 69 80 71 81 73 82 70 83 54 84 55 85 60 86 56 87
REMARK SMILES IDX 57 88 59 89 61 90 58 91
REMARK H PARENT 24 5 16 16 28 34 78 53 52 64
REMARK Flexibility Score: inf
ROOT
ATOM      1  C   UNL A   1      34.440  29.226  27.281  1.00  0.00     0.117 C 
ENDROOT
BRANCH   1   2
ATOM      2  N   UNL A   1      34.386  28.691  25.945  1.00  0.00    -0.356 N 
ATOM      3  C   UNL A   1      33.355  28.436  25.103  1.00  0.00     0.223 C 
ATOM      4  O   UNL A   1      33.686  28.128  23.951  1.00  0.00    -0.275 OA
ATOM      5  H   UNL A   1      35.269  28.468  25.571  1.00  0.00     0.163 HD
BRANCH   3   6
ATOM      6  C   UNL A   1      31.860  28.474  25.466  1.00  0.00     0.078 C 
ATOM      7  C   UNL A   1      30.029  26.254  24.482  1.00  0.00     0.008 C 
ATOM      8  C   UNL A   1      30.765  26.146  25.838  1.00  0.00     0.006 C 
ATOM      9  C   UNL A   1      30.372  27.494  23.631  1.00  0.00     0.006 C 
ATOM     10  C   UNL A   1      31.314  27.435  26.438  1.00  0.00     0.014 C 
ATOM     11  C   UNL A   1      30.896  28.733  24.324  1.00  0.00     0.014 C 
BRANCH   7  12
ATOM     12  C   UNL A   1      30.230  24.936  23.665  1.00  0.00     0.119 C 
BRANCH  12  13
ATOM     13  N   UNL A   1      31.291  25.019  22.702  1.00  0.00    -0.351 N 
ATOM     14  C   UNL A   1      32.521  24.437  22.557  1.00  0.00     0.263 C 
ATOM     15  O   UNL A   1      32.974  24.637  21.421  1.00  0.00    -0.268 OA
ATOM     16  H   UNL A   1      31.085  25.645  21.971  1.00  0.00     0.163 HD
BRANCH  14  17
ATOM     17  C   UNL A   1      33.270  23.687  23.569  1.00  0.00     0.115 A 
ATOM     18  C   UNL A   1      31.872  22.169  25.232  1.00  0.00     0.068 C 
ATOM     19  C   UNL A   1      33.061  22.805  24.632  1.00  0.00     0.062 A 
ATOM     20  N   UNL A   1      34.199  22.425  25.325  1.00  0.00    -0.240 NA
ATOM     21  C   UNL A   1      35.261  23.043  24.884  1.00  0.00     0.125 A 
ATOM     22  S   UNL A   1      35.013  23.967  23.485  1.00  0.00    -0.108 S 
BRANCH  21  23
ATOM     23  C   UNL A   1      36.566  22.862  25.504  1.00  0.00     0.029 A 
ATOM     24  C   UNL A   1      37.190  24.010  26.026  1.00  0.00     0.013 A 
ATOM     25  C   UNL A   1      37.283  21.658  25.468  1.00  0.00     0.051 A 
ATOM     26  C   UNL A   1      38.496  23.958  26.509  1.00  0.00     0.001 A 
ATOM     27  C   UNL A   1      38.593  21.610  25.956  1.00  0.00     0.021 A 
ATOM     28  Cl  UNL A   1      36.653  20.209  24.761  1.00  0.00    -0.084 Cl
ATOM     29  C   UNL A   1      39.197  22.758  26.473  1.00  0.00     0.002 A 
ENDBRANCH  21  23
ENDBRANCH  14  17
ENDBRANCH  12  13
ENDBRANCH   7  12
ENDBRANCH   3   6
ENDBRANCH   1   2
BRANCH   1  30
ATOM     30  C   UNL A   1      34.459  30.746  27.331  1.00  0.00     0.042 C 
BRANCH  30  31
ATOM     31  C   UNL A   1      35.630  31.309  28.113  1.00  0.00     0.118 C 
BRANCH  31  32
ATOM     32  N   UNL A   1      35.543  30.997  29.538  1.00  0.00    -0.352 N 
ATOM     33  C   UNL A   1      36.374  30.276  30.364  1.00  0.00     0.251 C 
ATOM     34  H   UNL A   1      34.750  31.368  29.986  1.00  0.00     0.163 HD
ATOM     35  O   UNL A   1      35.990  29.994  31.494  1.00  0.00    -0.269 OA
BRANCH  33  36
ATOM     36  C   UNL A   1      37.704  29.820  29.902  1.00  0.00     0.039 A 
ATOM     37  C   UNL A   1      38.019  29.900  28.542  1.00  0.00     0.014 A 
ATOM     38  C   UNL A   1      38.637  29.289  30.793  1.00  0.00     0.014 A 
ATOM     39  C   UNL A   1      39.287  29.518  28.098  1.00  0.00     0.010 A 
ATOM     40  C   UNL A   1      39.937  29.044  30.375  1.00  0.00     0.010 A 
ATOM     41  C   UNL A   1      40.273  29.128  29.018  1.00  0.00    -0.014 A 
BRANCH  41  42
ATOM     42  C   UNL A   1      41.648  28.766  28.592  1.00  0.00     0.031 A 
ATOM     43  C   UNL A   1      41.958  27.352  28.172  1.00  0.00     0.074 A 
ATOM     44  C   UNL A   1      42.632  29.685  28.655  1.00  0.00     0.049 A 
ATOM     45  N   UNL A   1      43.108  26.816  27.852  1.00  0.00    -0.248 NA
ATOM     46  C   UNL A   1      40.832  26.403  28.151  1.00  0.00     0.031 C 
ATOM     47  C   UNL A   1      42.472  31.069  29.109  1.00  0.00     0.029 A 
ATOM     48  N   UNL A   1      43.965  29.590  28.347  1.00  0.00    -0.354 N 
ATOM     49  C   UNL A   1      42.846  25.470  27.620  1.00  0.00     0.074 A 
ATOM     50  C   UNL A   1      41.446  25.255  27.907  1.00  0.00     0.031 C 
ATOM     51  C   UNL A   1      43.651  31.702  29.014  1.00  0.00     0.029 A 
ATOM     52  C   UNL A   1      44.659  30.760  28.538  1.00  0.00     0.049 A 
ATOM     53  H   UNL A   1      44.385  28.762  28.021  1.00  0.00     0.167 HD
ATOM     54  C   UNL A   1      43.685  24.506  27.174  1.00  0.00     0.037 A 
ATOM     55  C   UNL A   1      45.962  31.040  28.352  1.00  0.00     0.037 A 
ATOM     56  C   UNL A   1      45.068  24.736  26.853  1.00  0.00     0.049 A 
ATOM     57  C   UNL A   1      46.875  29.957  27.846  1.00  0.00     0.074 A 
ATOM     58  C   UNL A   1      45.990  23.850  26.328  1.00  0.00     0.029 A 
ATOM     59  N   UNL A   1      45.727  25.944  27.032  1.00  0.00    -0.354 N 
ATOM     60  N   UNL A   1      46.596  28.708  27.556  1.00  0.00    -0.248 NA
ATOM     61  C   UNL A   1      48.283  30.322  27.636  1.00  0.00     0.031 C 
ATOM     62  C   UNL A   1      47.221  24.507  26.236  1.00  0.00     0.029 A 
ATOM     63  C   UNL A   1      47.051  25.819  26.649  1.00  0.00     0.049 A 
ATOM     64  H   UNL A   1      45.314  26.767  27.378  1.00  0.00     0.167 HD
ATOM     65  C   UNL A   1      47.783  28.148  27.101  1.00  0.00     0.074 A 
ATOM     66  C   UNL A   1      48.780  29.198  27.141  1.00  0.00     0.031 C 
ATOM     67  C   UNL A   1      48.027  26.880  26.689  1.00  0.00     0.037 A 
BRANCH  54  68
ATOM     68  C   UNL A   1      43.125  23.122  27.004  1.00  0.00     0.057 A 
ATOM     69  C   UNL A   1      42.876  22.572  25.738  1.00  0.00     0.134 A 
ATOM     70  C   UNL A   1      42.848  22.319  28.117  1.00  0.00     0.134 A 
ATOM     71  F   UNL A   1      43.106  23.289  24.627  1.00  0.00    -0.206 F 
ATOM     72  C   UNL A   1      42.340  21.292  25.588  1.00  0.00     0.040 A 
ATOM     73  C   UNL A   1      42.343  21.024  27.980  1.00  0.00     0.040 A 
ATOM     74  F   UNL A   1      43.068  22.777  29.359  1.00  0.00    -0.206 F 
ATOM     75  C   UNL A   1      42.078  20.511  26.712  1.00  0.00     0.006 A 
ENDBRANCH  54  68
BRANCH  55  76
ATOM     76  C   UNL A   1      46.473  32.410  28.615  1.00  0.00     0.057 A 
ATOM     77  C   UNL A   1      46.507  33.376  27.602  1.00  0.00     0.134 A 
ATOM     78  C   UNL A   1      46.936  32.790  29.880  1.00  0.00     0.134 A 
ATOM     79  F   UNL A   1      46.089  33.070  26.365  1.00  0.00    -0.206 F 
ATOM     80  C   UNL A   1      47.002  34.661  27.830  1.00  0.00     0.040 A 
ATOM     81  C   UNL A   1      47.407  34.081  30.131  1.00  0.00     0.040 A 
ATOM     82  F   UNL A   1      46.921  31.917  30.898  1.00  0.00    -0.206 F 
ATOM     83  C   UNL A   1      47.451  35.018  29.100  1.00  0.00     0.006 A 
ENDBRANCH  55  76
BRANCH  67  84
ATOM     84  C   UNL A   1      49.415  26.567  26.210  1.00  0.00     0.057 A 
ATOM     85  C   UNL A   1      50.352  25.915  27.023  1.00  0.00     0.134 A 
ATOM     86  C   UNL A   1      49.803  26.883  24.902  1.00  0.00     0.134 A 
ATOM     87  F   UNL A   1      50.046  25.594  28.290  1.00  0.00    -0.206 F 
ATOM     88  C   UNL A   1      51.632  25.611  26.558  1.00  0.00     0.040 A 
ATOM     89  C   UNL A   1      51.070  26.557  24.417  1.00  0.00     0.040 A 
ATOM     90  F   UNL A   1      48.951  27.498  24.068  1.00  0.00    -0.206 F 
ATOM     91  C   UNL A   1      51.992  25.925  25.249  1.00  0.00     0.006 A 
ENDBRANCH  67  84
ENDBRANCH  41  42
ENDBRANCH  33  36
ENDBRANCH  31  32
ENDBRANCH  30  31
ENDBRANCH   1  30
TORSDOF 14
ENDMDL
