MODEL 1
REMARK VINA RESULT:     -11.5      0.000      0.000
REMARK SMILES C[C@@H](O)[C@@H](NC(=O)Nc1ccc(F)cc1F)C(=O)NCCCNC(=O)c1ccc(-c2c3nc(c(-c4c(F)cccc4F)c4ccc([nH]4)c(-c4c(F)cccc4F)c4nc(c(-c5c(F)cccc5F)c5ccc2[nH]5)C=C4)C=C3)cc1
REMARK SMILES IDX 21 1 20 2 19 3 17 4 18 5 4 7 2 8 1 9 3 10 5 12 6 13 7 15
REMARK SMILES IDX 8 16 9 18 10 19 15 20 11 21 14 22 16 23 12 24 13 25 22 26
REMARK SMILES IDX 23 27 24 28 25 30 26 31 27 32 79 33 28 34 78 35 29 36 30 37
REMARK SMILES IDX 31 38 72 39 32 40 77 41 71 42 73 43 33 44 76 45 70 46 69 47
REMARK SMILES IDX 34 49 60 50 43 51 59 52 44 53 47 54 58 55 74 56 45 57 46 58
REMARK SMILES IDX 57 60 75 61 48 62 35 63 36 64 41 65 37 66 38 67 40 68 42 69
REMARK SMILES IDX 39 70 61 71 62 72 67 73 63 74 64 75 66 76 68 77 65 78 49 79
REMARK SMILES IDX 50 80 55 81 51 82 52 83 54 84 56 85 53 86
REMARK H PARENT 19 6 3 11 5 14 8 17 23 29 73 48 47 59
REMARK Flexibility Score: inf
ROOT
ATOM      1  C   UNL A   1      37.133  21.058  24.875  1.00  0.00     0.042 C 
ENDROOT
BRANCH   1   2
ATOM      2  C   UNL A   1      35.874  21.400  25.664  1.00  0.00     0.117 C 
BRANCH   2   3
ATOM      3  N   UNL A   1      34.845  20.430  25.353  1.00  0.00    -0.354 N 
ATOM      4  C   UNL A   1      33.509  20.525  25.574  1.00  0.00     0.245 C 
ATOM      5  O   UNL A   1      32.926  19.517  25.987  1.00  0.00    -0.273 OA
ATOM      6  H   UNL A   1      35.153  19.597  24.930  1.00  0.00     0.163 HD
BRANCH   4   7
ATOM      7  C   UNL A   1      32.767  21.862  25.433  1.00  0.00     0.201 C 
BRANCH   7   8
ATOM      8  C   UNL A   1      32.409  21.963  23.923  1.00  0.00     0.143 C 
ATOM      9  C   UNL A   1      33.415  22.749  23.092  1.00  0.00     0.041 C 
BRANCH   8  10
ATOM     10  O   UNL A   1      32.361  20.652  23.338  1.00  0.00    -0.391 OA
ATOM     11  H   UNL A   1      31.584  20.583  22.761  1.00  0.00     0.211 HD
ENDBRANCH   8  10
ENDBRANCH   7   8
BRANCH   7  12
ATOM     12  N   UNL A   1      31.633  22.019  26.358  1.00  0.00    -0.323 N 
ATOM     13  C   UNL A   1      30.974  23.079  26.871  1.00  0.00     0.320 C 
ATOM     14  H   UNL A   1      31.275  21.158  26.673  1.00  0.00     0.166 HD
ATOM     15  O   UNL A   1      30.048  22.829  27.646  1.00  0.00    -0.248 OA
ATOM     16  N   UNL A   1      31.394  24.354  26.752  1.00  0.00    -0.305 N 
ATOM     17  H   UNL A   1      31.121  24.927  27.505  1.00  0.00     0.171 HD
BRANCH  16  18
ATOM     18  C   UNL A   1      32.136  25.031  25.777  1.00  0.00     0.079 A 
ATOM     19  C   UNL A   1      33.497  25.299  25.920  1.00  0.00     0.032 A 
ATOM     20  C   UNL A   1      31.465  25.472  24.626  1.00  0.00     0.149 A 
ATOM     21  C   UNL A   1      34.143  26.102  24.976  1.00  0.00     0.041 A 
ATOM     22  C   UNL A   1      32.095  26.286  23.696  1.00  0.00     0.080 A 
ATOM     23  F   UNL A   1      30.156  25.210  24.480  1.00  0.00    -0.205 F 
ATOM     24  C   UNL A   1      33.430  26.609  23.891  1.00  0.00     0.126 A 
ATOM     25  F   UNL A   1      34.042  27.426  23.024  1.00  0.00    -0.207 F 
ENDBRANCH  16  18
ENDBRANCH   7  12
ENDBRANCH   4   7
ENDBRANCH   2   3
ENDBRANCH   1   2
BRANCH   1  26
ATOM     26  C   UNL A   1      38.417  21.195  25.688  1.00  0.00     0.118 C 
BRANCH  26  27
ATOM     27  N   UNL A   1      39.244  19.999  25.653  1.00  0.00    -0.352 N 
ATOM     28  C   UNL A   1      40.577  19.895  25.983  1.00  0.00     0.251 C 
ATOM     29  H   UNL A   1      38.801  19.169  25.359  1.00  0.00     0.163 HD
ATOM     30  O   UNL A   1      41.210  18.878  25.789  1.00  0.00    -0.269 OA
BRANCH  28  31
ATOM     31  C   UNL A   1      41.215  21.091  26.565  1.00  0.00     0.039 A 
ATOM     32  C   UNL A   1      41.786  22.035  25.712  1.00  0.00     0.014 A 
ATOM     33  C   UNL A   1      41.126  21.312  27.941  1.00  0.00     0.014 A 
ATOM     34  C   UNL A   1      42.228  23.244  26.244  1.00  0.00     0.010 A 
ATOM     35  C   UNL A   1      41.504  22.544  28.456  1.00  0.00     0.010 A 
ATOM     36  C   UNL A   1      42.062  23.517  27.612  1.00  0.00    -0.014 A 
BRANCH  36  37
ATOM     37  C   UNL A   1      42.484  24.814  28.189  1.00  0.00     0.031 A 
ATOM     38  C   UNL A   1      41.470  25.902  28.384  1.00  0.00     0.074 A 
ATOM     39  C   UNL A   1      43.779  25.023  28.490  1.00  0.00     0.049 A 
ATOM     40  N   UNL A   1      41.641  27.121  28.825  1.00  0.00    -0.248 NA
ATOM     41  C   UNL A   1      40.082  25.587  28.008  1.00  0.00     0.031 C 
ATOM     42  C   UNL A   1      44.858  24.052  28.309  1.00  0.00     0.029 A 
ATOM     43  N   UNL A   1      44.405  26.125  29.016  1.00  0.00    -0.354 N 
ATOM     44  C   UNL A   1      40.388  27.716  28.773  1.00  0.00     0.074 A 
ATOM     45  C   UNL A   1      39.480  26.750  28.195  1.00  0.00     0.031 C 
ATOM     46  C   UNL A   1      46.006  24.585  28.758  1.00  0.00     0.029 A 
ATOM     47  C   UNL A   1      45.750  25.945  29.225  1.00  0.00     0.049 A 
ATOM     48  H   UNL A   1      43.935  26.964  29.223  1.00  0.00     0.167 HD
ATOM     49  C   UNL A   1      40.019  28.947  29.201  1.00  0.00     0.037 A 
ATOM     50  C   UNL A   1      46.668  26.780  29.744  1.00  0.00     0.037 A 
ATOM     51  C   UNL A   1      40.922  29.896  29.791  1.00  0.00     0.049 A 
ATOM     52  C   UNL A   1      46.242  28.151  30.189  1.00  0.00     0.074 A 
ATOM     53  C   UNL A   1      40.646  31.161  30.280  1.00  0.00     0.029 A 
ATOM     54  N   UNL A   1      42.280  29.682  29.974  1.00  0.00    -0.354 N 
ATOM     55  N   UNL A   1      45.047  28.692  30.167  1.00  0.00    -0.248 NA
ATOM     56  C   UNL A   1      47.289  29.028  30.731  1.00  0.00     0.031 C 
ATOM     57  C   UNL A   1      41.844  31.724  30.731  1.00  0.00     0.029 A 
ATOM     58  C   UNL A   1      42.859  30.794  30.560  1.00  0.00     0.049 A 
ATOM     59  H   UNL A   1      42.761  28.860  29.724  1.00  0.00     0.167 HD
ATOM     60  C   UNL A   1      45.193  29.960  30.712  1.00  0.00     0.074 A 
ATOM     61  C   UNL A   1      46.591  30.105  31.064  1.00  0.00     0.031 C 
ATOM     62  C   UNL A   1      44.252  30.917  30.906  1.00  0.00     0.037 A 
BRANCH  49  63
ATOM     63  C   UNL A   1      38.572  29.315  29.056  1.00  0.00     0.057 A 
ATOM     64  C   UNL A   1      38.052  29.719  27.820  1.00  0.00     0.134 A 
ATOM     65  C   UNL A   1      37.691  29.273  30.145  1.00  0.00     0.134 A 
ATOM     66  F   UNL A   1      38.841  29.783  26.736  1.00  0.00    -0.206 F 
ATOM     67  C   UNL A   1      36.708  30.067  27.674  1.00  0.00     0.040 A 
ATOM     68  C   UNL A   1      36.340  29.591  30.006  1.00  0.00     0.040 A 
ATOM     69  F   UNL A   1      38.123  28.878  31.353  1.00  0.00    -0.206 F 
ATOM     70  C   UNL A   1      35.847  29.995  28.766  1.00  0.00     0.006 A 
ENDBRANCH  49  63
BRANCH  50  71
ATOM     71  C   UNL A   1      48.065  26.317  29.925  1.00  0.00     0.057 A 
ATOM     72  C   UNL A   1      49.009  26.397  28.896  1.00  0.00     0.134 A 
ATOM     73  C   UNL A   1      48.475  25.747  31.136  1.00  0.00     0.134 A 
ATOM     74  F   UNL A   1      48.675  26.925  27.709  1.00  0.00    -0.206 F 
ATOM     75  C   UNL A   1      50.309  25.912  29.059  1.00  0.00     0.040 A 
ATOM     76  C   UNL A   1      49.775  25.275  31.319  1.00  0.00     0.040 A 
ATOM     77  F   UNL A   1      47.617  25.657  32.164  1.00  0.00    -0.206 F 
ATOM     78  C   UNL A   1      50.694  25.351  30.275  1.00  0.00     0.006 A 
ENDBRANCH  50  71
BRANCH  62  79
ATOM     79  C   UNL A   1      44.694  32.198  31.548  1.00  0.00     0.057 A 
ATOM     80  C   UNL A   1      44.632  32.356  32.937  1.00  0.00     0.134 A 
ATOM     81  C   UNL A   1      45.108  33.297  30.786  1.00  0.00     0.134 A 
ATOM     82  F   UNL A   1      44.235  31.343  33.722  1.00  0.00    -0.206 F 
ATOM     83  C   UNL A   1      44.956  33.568  33.548  1.00  0.00     0.040 A 
ATOM     84  C   UNL A   1      45.456  34.508  31.387  1.00  0.00     0.040 A 
ATOM     85  F   UNL A   1      45.197  33.204  29.451  1.00  0.00    -0.206 F 
ATOM     86  C   UNL A   1      45.371  34.648  32.771  1.00  0.00     0.006 A 
ENDBRANCH  62  79
ENDBRANCH  36  37
ENDBRANCH  28  31
ENDBRANCH  26  27
ENDBRANCH   1  26
TORSDOF 14
ENDMDL
MODEL 2
REMARK VINA RESULT:     -11.4      2.883      7.419
REMARK SMILES C[C@@H](O)[C@@H](NC(=O)Nc1ccc(F)cc1F)C(=O)NCCCNC(=O)c1ccc(-c2c3nc(c(-c4c(F)cccc4F)c4ccc([nH]4)c(-c4c(F)cccc4F)c4nc(c(-c5c(F)cccc5F)c5ccc2[nH]5)C=C4)C=C3)cc1
REMARK SMILES IDX 21 1 20 2 19 3 17 4 18 5 4 7 2 8 1 9 3 10 5 12 6 13 7 15
REMARK SMILES IDX 8 16 9 18 10 19 15 20 11 21 14 22 16 23 12 24 13 25 22 26
REMARK SMILES IDX 23 27 24 28 25 30 26 31 27 32 79 33 28 34 78 35 29 36 30 37
REMARK SMILES IDX 31 38 72 39 32 40 77 41 71 42 73 43 33 44 76 45 70 46 69 47
REMARK SMILES IDX 34 49 60 50 43 51 59 52 44 53 47 54 58 55 74 56 45 57 46 58
REMARK SMILES IDX 57 60 75 61 48 62 35 63 36 64 41 65 37 66 38 67 40 68 42 69
REMARK SMILES IDX 39 70 61 71 62 72 67 73 63 74 64 75 66 76 68 77 65 78 49 79
REMARK SMILES IDX 50 80 55 81 51 82 52 83 54 84 56 85 53 86
REMARK H PARENT 19 6 3 11 5 14 8 17 23 29 73 48 47 59
REMARK Flexibility Score: inf
ROOT
ATOM      1  C   UNL A   1      32.829  28.358  26.106  1.00  0.00     0.042 C 
ENDROOT
BRANCH   1   2
ATOM      2  C   UNL A   1      33.216  29.073  24.816  1.00  0.00     0.117 C 
BRANCH   2   3
ATOM      3  N   UNL A   1      32.012  29.409  24.084  1.00  0.00    -0.354 N 
ATOM      4  C   UNL A   1      31.459  28.753  23.032  1.00  0.00     0.245 C 
ATOM      5  O   UNL A   1      31.008  29.437  22.107  1.00  0.00    -0.273 OA
ATOM      6  H   UNL A   1      31.536  30.215  24.388  1.00  0.00     0.163 HD
BRANCH   4   7
ATOM      7  C   UNL A   1      31.499  27.221  22.934  1.00  0.00     0.201 C 
BRANCH   7   8
ATOM      8  C   UNL A   1      30.066  26.759  23.321  1.00  0.00     0.143 C 
ATOM      9  C   UNL A   1      29.918  26.329  24.775  1.00  0.00     0.041 C 
BRANCH   8  10
ATOM     10  O   UNL A   1      29.132  27.836  23.137  1.00  0.00    -0.391 OA
ATOM     11  H   UNL A   1      28.999  27.990  22.188  1.00  0.00     0.211 HD
ENDBRANCH   8  10
ENDBRANCH   7   8
BRANCH   7  12
ATOM     12  N   UNL A   1      31.993  26.716  21.643  1.00  0.00    -0.323 N 
ATOM     13  C   UNL A   1      32.656  25.606  21.256  1.00  0.00     0.320 C 
ATOM     14  H   UNL A   1      31.796  27.324  20.894  1.00  0.00     0.166 HD
ATOM     15  O   UNL A   1      32.922  25.515  20.054  1.00  0.00    -0.248 OA
ATOM     16  N   UNL A   1      33.210  24.725  22.111  1.00  0.00    -0.305 N 
ATOM     17  H   UNL A   1      34.001  24.268  21.744  1.00  0.00     0.171 HD
BRANCH  16  18
ATOM     18  C   UNL A   1      32.889  24.324  23.413  1.00  0.00     0.079 A 
ATOM     19  C   UNL A   1      31.946  23.334  23.685  1.00  0.00     0.032 A 
ATOM     20  C   UNL A   1      33.534  24.972  24.479  1.00  0.00     0.149 A 
ATOM     21  C   UNL A   1      31.572  23.085  25.009  1.00  0.00     0.041 A 
ATOM     22  C   UNL A   1      33.152  24.744  25.794  1.00  0.00     0.080 A 
ATOM     23  F   UNL A   1      34.448  25.921  24.224  1.00  0.00    -0.205 F 
ATOM     24  C   UNL A   1      32.157  23.811  26.044  1.00  0.00     0.126 A 
ATOM     25  F   UNL A   1      31.749  23.607  27.304  1.00  0.00    -0.207 F 
ENDBRANCH  16  18
ENDBRANCH   7  12
ENDBRANCH   4   7
ENDBRANCH   2   3
ENDBRANCH   1   2
BRANCH   1  26
ATOM     26  C   UNL A   1      33.779  28.638  27.266  1.00  0.00     0.118 C 
BRANCH  26  27
ATOM     27  N   UNL A   1      33.687  30.003  27.761  1.00  0.00    -0.352 N 
ATOM     28  C   UNL A   1      34.663  30.721  28.416  1.00  0.00     0.251 C 
ATOM     29  H   UNL A   1      32.831  30.466  27.612  1.00  0.00     0.163 HD
ATOM     30  O   UNL A   1      34.440  31.808  28.909  1.00  0.00    -0.269 OA
BRANCH  28  31
ATOM     31  C   UNL A   1      35.996  30.099  28.516  1.00  0.00     0.039 A 
ATOM     32  C   UNL A   1      36.872  30.199  27.435  1.00  0.00     0.014 A 
ATOM     33  C   UNL A   1      36.398  29.534  29.729  1.00  0.00     0.014 A 
ATOM     34  C   UNL A   1      38.187  29.771  27.592  1.00  0.00     0.010 A 
ATOM     35  C   UNL A   1      37.727  29.173  29.902  1.00  0.00     0.010 A 
ATOM     36  C   UNL A   1      38.629  29.284  28.834  1.00  0.00    -0.014 A 
BRANCH  36  37
ATOM     37  C   UNL A   1      40.036  28.866  29.033  1.00  0.00     0.031 A 
ATOM     38  C   UNL A   1      40.997  29.801  29.707  1.00  0.00     0.074 A 
ATOM     39  C   UNL A   1      40.453  27.674  28.568  1.00  0.00     0.049 A 
ATOM     40  N   UNL A   1      42.276  29.647  29.933  1.00  0.00    -0.248 NA
ATOM     41  C   UNL A   1      40.455  31.090  30.162  1.00  0.00     0.031 C 
ATOM     42  C   UNL A   1      39.617  26.699  27.866  1.00  0.00     0.029 A 
ATOM     43  N   UNL A   1      41.687  27.078  28.622  1.00  0.00    -0.354 N 
ATOM     44  C   UNL A   1      42.689  30.821  30.550  1.00  0.00     0.074 A 
ATOM     45  C   UNL A   1      41.543  31.702  30.601  1.00  0.00     0.031 C 
ATOM     46  C   UNL A   1      40.352  25.608  27.593  1.00  0.00     0.029 A 
ATOM     47  C   UNL A   1      41.716  25.822  28.069  1.00  0.00     0.049 A 
ATOM     48  H   UNL A   1      42.478  27.510  29.018  1.00  0.00     0.167 HD
ATOM     49  C   UNL A   1      43.906  31.124  31.060  1.00  0.00     0.037 A 
ATOM     50  C   UNL A   1      42.727  24.939  27.968  1.00  0.00     0.037 A 
ATOM     51  C   UNL A   1      45.036  30.238  31.021  1.00  0.00     0.049 A 
ATOM     52  C   UNL A   1      44.077  25.306  28.517  1.00  0.00     0.074 A 
ATOM     53  C   UNL A   1      46.307  30.438  31.531  1.00  0.00     0.029 A 
ATOM     54  N   UNL A   1      45.029  28.978  30.441  1.00  0.00    -0.354 N 
ATOM     55  N   UNL A   1      44.447  26.406  29.130  1.00  0.00    -0.248 NA
ATOM     56  C   UNL A   1      45.148  24.313  28.363  1.00  0.00     0.031 C 
ATOM     57  C   UNL A   1      47.078  29.310  31.230  1.00  0.00     0.029 A 
ATOM     58  C   UNL A   1      46.276  28.391  30.570  1.00  0.00     0.049 A 
ATOM     59  H   UNL A   1      44.252  28.563  30.002  1.00  0.00     0.167 HD
ATOM     60  C   UNL A   1      45.785  26.227  29.455  1.00  0.00     0.074 A 
ATOM     61  C   UNL A   1      46.159  24.911  28.980  1.00  0.00     0.031 C 
ATOM     62  C   UNL A   1      46.626  27.078  30.093  1.00  0.00     0.037 A 
BRANCH  49  63
ATOM     63  C   UNL A   1      44.057  32.465  31.714  1.00  0.00     0.057 A 
ATOM     64  C   UNL A   1      43.781  32.638  33.075  1.00  0.00     0.134 A 
ATOM     65  C   UNL A   1      44.475  33.591  30.991  1.00  0.00     0.134 A 
ATOM     66  F   UNL A   1      43.375  31.602  33.826  1.00  0.00    -0.206 F 
ATOM     67  C   UNL A   1      43.916  33.882  33.695  1.00  0.00     0.040 A 
ATOM     68  C   UNL A   1      44.641  34.833  31.604  1.00  0.00     0.040 A 
ATOM     69  F   UNL A   1      44.772  33.489  29.686  1.00  0.00    -0.206 F 
ATOM     70  C   UNL A   1      44.355  34.982  32.960  1.00  0.00     0.006 A 
ENDBRANCH  49  63
BRANCH  50  71
ATOM     71  C   UNL A   1      42.480  23.603  27.374  1.00  0.00     0.057 A 
ATOM     72  C   UNL A   1      42.117  22.502  28.157  1.00  0.00     0.134 A 
ATOM     73  C   UNL A   1      42.642  23.395  25.999  1.00  0.00     0.134 A 
ATOM     74  F   UNL A   1      41.957  22.636  29.482  1.00  0.00    -0.206 F 
ATOM     75  C   UNL A   1      41.936  21.236  27.596  1.00  0.00     0.040 A 
ATOM     76  C   UNL A   1      42.447  22.140  25.422  1.00  0.00     0.040 A 
ATOM     77  F   UNL A   1      42.975  24.416  25.197  1.00  0.00    -0.206 F 
ATOM     78  C   UNL A   1      42.100  21.053  26.224  1.00  0.00     0.006 A 
ENDBRANCH  50  71
BRANCH  62  79
ATOM     79  C   UNL A   1      48.028  26.606  30.337  1.00  0.00     0.057 A 
ATOM     80  C   UNL A   1      49.020  26.787  29.366  1.00  0.00     0.134 A 
ATOM     81  C   UNL A   1      48.377  25.908  31.500  1.00  0.00     0.134 A 
ATOM     82  F   UNL A   1      48.746  27.440  28.225  1.00  0.00    -0.206 F 
ATOM     83  C   UNL A   1      50.308  26.280  29.536  1.00  0.00     0.040 A 
ATOM     84  C   UNL A   1      49.669  25.416  31.692  1.00  0.00     0.040 A 
ATOM     85  F   UNL A   1      47.474  25.712  32.472  1.00  0.00    -0.206 F 
ATOM     86  C   UNL A   1      50.636  25.594  30.703  1.00  0.00     0.006 A 
ENDBRANCH  62  79
ENDBRANCH  36  37
ENDBRANCH  28  31
ENDBRANCH  26  27
ENDBRANCH   1  26
TORSDOF 14
ENDMDL
MODEL 3
REMARK VINA RESULT:     -11.4      0.330      6.183
REMARK SMILES C[C@@H](O)[C@@H](NC(=O)Nc1ccc(F)cc1F)C(=O)NCCCNC(=O)c1ccc(-c2c3nc(c(-c4c(F)cccc4F)c4ccc([nH]4)c(-c4c(F)cccc4F)c4nc(c(-c5c(F)cccc5F)c5ccc2[nH]5)C=C4)C=C3)cc1
REMARK SMILES IDX 21 1 20 2 19 3 17 4 18 5 4 7 2 8 1 9 3 10 5 12 6 13 7 15
REMARK SMILES IDX 8 16 9 18 10 19 15 20 11 21 14 22 16 23 12 24 13 25 22 26
REMARK SMILES IDX 23 27 24 28 25 30 26 31 27 32 79 33 28 34 78 35 29 36 30 37
REMARK SMILES IDX 31 38 72 39 32 40 77 41 71 42 73 43 33 44 76 45 70 46 69 47
REMARK SMILES IDX 34 49 60 50 43 51 59 52 44 53 47 54 58 55 74 56 45 57 46 58
REMARK SMILES IDX 57 60 75 61 48 62 35 63 36 64 41 65 37 66 38 67 40 68 42 69
REMARK SMILES IDX 39 70 61 71 62 72 67 73 63 74 64 75 66 76 68 77 65 78 49 79
REMARK SMILES IDX 50 80 55 81 51 82 52 83 54 84 56 85 53 86
REMARK H PARENT 19 6 3 11 5 14 8 17 23 29 73 48 47 59
REMARK Flexibility Score: inf
ROOT
ATOM      1  C   UNL A   1      37.224  20.774  24.845  1.00  0.00     0.042 C 
ENDROOT
BRANCH   1   2
ATOM      2  C   UNL A   1      35.934  21.294  25.472  1.00  0.00     0.117 C 
BRANCH   2   3
ATOM      3  N   UNL A   1      34.873  20.340  25.227  1.00  0.00    -0.354 N 
ATOM      4  C   UNL A   1      33.552  20.462  25.519  1.00  0.00     0.245 C 
ATOM      5  O   UNL A   1      32.975  19.469  25.973  1.00  0.00    -0.273 OA
ATOM      6  H   UNL A   1      35.143  19.498  24.796  1.00  0.00     0.163 HD
BRANCH   4   7
ATOM      7  C   UNL A   1      32.829  21.812  25.405  1.00  0.00     0.201 C 
BRANCH   7   8
ATOM      8  C   UNL A   1      32.436  21.929  23.905  1.00  0.00     0.143 C 
ATOM      9  C   UNL A   1      33.427  22.716  23.057  1.00  0.00     0.041 C 
BRANCH   8  10
ATOM     10  O   UNL A   1      32.365  20.623  23.309  1.00  0.00    -0.391 OA
ATOM     11  H   UNL A   1      31.627  20.129  23.701  1.00  0.00     0.211 HD
ENDBRANCH   8  10
ENDBRANCH   7   8
BRANCH   7  12
ATOM     12  N   UNL A   1      31.721  21.980  26.358  1.00  0.00    -0.323 N 
ATOM     13  C   UNL A   1      31.084  23.047  26.885  1.00  0.00     0.320 C 
ATOM     14  H   UNL A   1      31.364  21.123  26.684  1.00  0.00     0.166 HD
ATOM     15  O   UNL A   1      30.176  22.807  27.686  1.00  0.00    -0.248 OA
ATOM     16  N   UNL A   1      31.511  24.318  26.753  1.00  0.00    -0.305 N 
ATOM     17  H   UNL A   1      31.263  24.895  27.511  1.00  0.00     0.171 HD
BRANCH  16  18
ATOM     18  C   UNL A   1      32.233  24.986  25.758  1.00  0.00     0.079 A 
ATOM     19  C   UNL A   1      33.593  25.271  25.878  1.00  0.00     0.032 A 
ATOM     20  C   UNL A   1      31.542  25.402  24.609  1.00  0.00     0.149 A 
ATOM     21  C   UNL A   1      34.218  26.065  24.913  1.00  0.00     0.041 A 
ATOM     22  C   UNL A   1      32.152  26.207  23.657  1.00  0.00     0.080 A 
ATOM     23  F   UNL A   1      30.235  25.125  24.484  1.00  0.00    -0.205 F 
ATOM     24  C   UNL A   1      33.486  26.547  23.830  1.00  0.00     0.126 A 
ATOM     25  F   UNL A   1      34.078  27.356  22.941  1.00  0.00    -0.207 F 
ENDBRANCH  16  18
ENDBRANCH   7  12
ENDBRANCH   4   7
ENDBRANCH   2   3
ENDBRANCH   1   2
BRANCH   1  26
ATOM     26  C   UNL A   1      38.451  20.959  25.732  1.00  0.00     0.118 C 
BRANCH  26  27
ATOM     27  N   UNL A   1      39.358  19.823  25.693  1.00  0.00    -0.352 N 
ATOM     28  C   UNL A   1      40.700  19.815  26.004  1.00  0.00     0.251 C 
ATOM     29  H   UNL A   1      38.970  18.962  25.412  1.00  0.00     0.163 HD
ATOM     30  O   UNL A   1      41.400  18.842  25.809  1.00  0.00    -0.269 OA
BRANCH  28  31
ATOM     31  C   UNL A   1      41.262  21.057  26.567  1.00  0.00     0.039 A 
ATOM     32  C   UNL A   1      41.811  22.003  25.702  1.00  0.00     0.014 A 
ATOM     33  C   UNL A   1      41.121  21.313  27.933  1.00  0.00     0.014 A 
ATOM     34  C   UNL A   1      42.178  23.247  26.210  1.00  0.00     0.010 A 
ATOM     35  C   UNL A   1      41.423  22.577  28.421  1.00  0.00     0.010 A 
ATOM     36  C   UNL A   1      41.958  23.551  27.564  1.00  0.00    -0.014 A 
BRANCH  36  37
ATOM     37  C   UNL A   1      42.300  24.883  28.113  1.00  0.00     0.031 A 
ATOM     38  C   UNL A   1      43.724  25.193  28.470  1.00  0.00     0.074 A 
ATOM     39  C   UNL A   1      41.327  25.787  28.332  1.00  0.00     0.049 A 
ATOM     40  N   UNL A   1      44.224  26.276  29.007  1.00  0.00    -0.248 NA
ATOM     41  C   UNL A   1      44.714  24.135  28.214  1.00  0.00     0.031 C 
ATOM     42  C   UNL A   1      39.904  25.584  28.058  1.00  0.00     0.029 A 
ATOM     43  N   UNL A   1      41.392  27.062  28.833  1.00  0.00    -0.354 N 
ATOM     44  C   UNL A   1      45.581  26.025  29.156  1.00  0.00     0.074 A 
ATOM     45  C   UNL A   1      45.815  24.667  28.719  1.00  0.00     0.031 C 
ATOM     46  C   UNL A   1      39.236  26.711  28.354  1.00  0.00     0.029 A 
ATOM     47  C   UNL A   1      40.177  27.701  28.869  1.00  0.00     0.049 A 
ATOM     48  H   UNL A   1      42.229  27.480  29.139  1.00  0.00     0.167 HD
ATOM     49  C   UNL A   1      46.552  26.864  29.588  1.00  0.00     0.037 A 
ATOM     50  C   UNL A   1      39.863  28.949  29.264  1.00  0.00     0.037 A 
ATOM     51  C   UNL A   1      46.316  28.219  30.005  1.00  0.00     0.049 A 
ATOM     52  C   UNL A   1      40.952  29.855  29.764  1.00  0.00     0.074 A 
ATOM     53  C   UNL A   1      47.233  29.161  30.436  1.00  0.00     0.029 A 
ATOM     54  N   UNL A   1      45.069  28.826  30.040  1.00  0.00    -0.354 N 
ATOM     55  N   UNL A   1      42.238  29.619  29.869  1.00  0.00    -0.248 NA
ATOM     56  C   UNL A   1      40.549  31.199  30.200  1.00  0.00     0.031 C 
ATOM     57  C   UNL A   1      46.536  30.329  30.762  1.00  0.00     0.029 A 
ATOM     58  C   UNL A   1      45.190  30.128  30.495  1.00  0.00     0.049 A 
ATOM     59  H   UNL A   1      44.224  28.394  29.779  1.00  0.00     0.167 HD
ATOM     60  C   UNL A   1      42.800  30.790  30.360  1.00  0.00     0.074 A 
ATOM     61  C   UNL A   1      41.717  31.738  30.522  1.00  0.00     0.031 C 
ATOM     62  C   UNL A   1      44.098  31.056  30.646  1.00  0.00     0.037 A 
BRANCH  49  63
ATOM     63  C   UNL A   1      47.954  26.333  29.609  1.00  0.00     0.057 A 
ATOM     64  C   UNL A   1      48.776  26.423  28.480  1.00  0.00     0.134 A 
ATOM     65  C   UNL A   1      48.491  25.724  30.752  1.00  0.00     0.134 A 
ATOM     66  F   UNL A   1      48.325  26.992  27.351  1.00  0.00    -0.206 F 
ATOM     67  C   UNL A   1      50.082  25.930  28.487  1.00  0.00     0.040 A 
ATOM     68  C   UNL A   1      49.804  25.253  30.781  1.00  0.00     0.040 A 
ATOM     69  F   UNL A   1      47.761  25.622  31.874  1.00  0.00    -0.206 F 
ATOM     70  C   UNL A   1      50.602  25.350  29.642  1.00  0.00     0.006 A 
ENDBRANCH  49  63
BRANCH  50  71
ATOM     71  C   UNL A   1      38.464  29.428  29.144  1.00  0.00     0.057 A 
ATOM     72  C   UNL A   1      37.937  29.869  27.926  1.00  0.00     0.134 A 
ATOM     73  C   UNL A   1      37.632  29.485  30.268  1.00  0.00     0.134 A 
ATOM     74  F   UNL A   1      38.687  29.848  26.814  1.00  0.00    -0.206 F 
ATOM     75  C   UNL A   1      36.635  30.366  27.832  1.00  0.00     0.040 A 
ATOM     76  C   UNL A   1      36.324  29.962  30.186  1.00  0.00     0.040 A 
ATOM     77  F   UNL A   1      38.079  29.062  31.460  1.00  0.00    -0.206 F 
ATOM     78  C   UNL A   1      35.825  30.411  28.965  1.00  0.00     0.006 A 
ENDBRANCH  50  71
BRANCH  62  79
ATOM     79  C   UNL A   1      44.427  32.432  31.142  1.00  0.00     0.057 A 
ATOM     80  C   UNL A   1      44.398  32.721  32.512  1.00  0.00     0.134 A 
ATOM     81  C   UNL A   1      44.698  33.486  30.261  1.00  0.00     0.134 A 
ATOM     82  F   UNL A   1      44.135  31.756  33.406  1.00  0.00    -0.206 F 
ATOM     83  C   UNL A   1      44.615  34.013  32.989  1.00  0.00     0.040 A 
ATOM     84  C   UNL A   1      44.940  34.779  30.728  1.00  0.00     0.040 A 
ATOM     85  F   UNL A   1      44.750  33.270  28.938  1.00  0.00    -0.206 F 
ATOM     86  C   UNL A   1      44.890  35.047  32.095  1.00  0.00     0.006 A 
ENDBRANCH  62  79
ENDBRANCH  36  37
ENDBRANCH  28  31
ENDBRANCH  26  27
ENDBRANCH   1  26
TORSDOF 14
ENDMDL
