MODEL 1
REMARK VINA RESULT:     -13.4      0.000      0.000
REMARK SMILES O=C(NCCCNC(=O)[C@@H]1CCCC[C@@H]1C(=O)Nc1nc(-c2ccc(Cl)c(Cl)c2)cs1)c1ccc(-c2c3nc(c(-c4c(F)cccc4F)c4ccc([nH]4)c(-c4c(F)cccc4F)c4nc(c(-c5c(F)cccc5F)c5ccc2[nH]5)C=C4)C=C3)cc1
REMARK SMILES IDX 5 1 4 2 3 3 1 4 2 5 32 7 33 8 85 9 34 10 84 11 35 12 36 13
REMARK SMILES IDX 37 14 78 15 38 16 83 17 77 18 79 19 39 20 82 21 76 22 75 23
REMARK SMILES IDX 40 25 66 26 49 27 65 28 50 29 53 30 64 31 80 32 51 33 52 34
REMARK SMILES IDX 63 36 81 37 54 38 41 39 42 40 47 41 43 42 44 43 46 44 48 45
REMARK SMILES IDX 45 46 67 47 68 48 73 49 69 50 70 51 72 52 74 53 71 54 55 55
REMARK SMILES IDX 56 56 61 57 57 58 58 59 60 60 62 61 59 62 6 63 7 64 8 65
REMARK SMILES IDX 9 67 10 68 11 69 15 70 12 71 14 72 13 73 16 74 17 75 18 76
REMARK SMILES IDX 19 78 20 79 31 80 21 81 30 82 22 83 23 84 29 85 24 86 27 87
REMARK SMILES IDX 25 88 28 89 26 90
REMARK H PARENT 3 6 79 24 53 35 7 66 18 77
REMARK Flexibility Score: inf
ROOT
ATOM      1  C   UNL A   1      31.787  29.047  27.098  1.00  0.00     0.042 C 
ENDROOT
BRANCH   1   2
ATOM      2  C   UNL A   1      32.714  30.118  26.520  1.00  0.00     0.118 C 
BRANCH   2   3
ATOM      3  N   UNL A   1      32.446  31.497  26.913  1.00  0.00    -0.352 N 
ATOM      4  O   UNL A   1      33.000  33.463  27.929  1.00  0.00    -0.269 OA
ATOM      5  C   UNL A   1      33.321  32.344  27.576  1.00  0.00     0.251 C 
ATOM      6  H   UNL A   1      31.561  31.861  26.685  1.00  0.00     0.163 HD
BRANCH   5   7
ATOM      7  C   UNL A   1      34.685  31.833  27.817  1.00  0.00     0.039 A 
ATOM      8  C   UNL A   1      34.821  30.486  28.148  1.00  0.00     0.014 A 
ATOM      9  C   UNL A   1      35.767  32.713  27.899  1.00  0.00     0.014 A 
ATOM     10  C   UNL A   1      36.000  30.051  28.733  1.00  0.00     0.010 A 
ATOM     11  C   UNL A   1      36.977  32.254  28.428  1.00  0.00     0.010 A 
ATOM     12  C   UNL A   1      37.076  30.938  28.912  1.00  0.00    -0.014 A 
BRANCH  12  13
ATOM     13  C   UNL A   1      38.259  30.473  29.679  1.00  0.00     0.031 A 
ATOM     14  C   UNL A   1      38.408  30.833  31.134  1.00  0.00     0.074 A 
ATOM     15  C   UNL A   1      39.137  29.643  29.085  1.00  0.00     0.049 A 
ATOM     16  N   UNL A   1      39.362  30.513  31.971  1.00  0.00    -0.248 NA
ATOM     17  C   UNL A   1      37.349  31.664  31.727  1.00  0.00     0.031 C 
ATOM     18  C   UNL A   1      39.061  29.205  27.691  1.00  0.00     0.029 A 
ATOM     19  N   UNL A   1      40.233  28.990  29.583  1.00  0.00    -0.354 N 
ATOM     20  C   UNL A   1      39.043  31.140  33.171  1.00  0.00     0.074 A 
ATOM     21  C   UNL A   1      37.806  31.857  32.956  1.00  0.00     0.031 C 
ATOM     22  C   UNL A   1      40.029  28.305  27.462  1.00  0.00     0.029 A 
ATOM     23  C   UNL A   1      40.832  28.157  28.669  1.00  0.00     0.049 A 
ATOM     24  H   UNL A   1      40.560  29.107  30.504  1.00  0.00     0.167 HD
ATOM     25  C   UNL A   1      39.728  31.120  34.341  1.00  0.00     0.037 A 
ATOM     26  C   UNL A   1      41.917  27.370  28.791  1.00  0.00     0.037 A 
ATOM     27  C   UNL A   1      40.935  30.361  34.549  1.00  0.00     0.049 A 
ATOM     28  C   UNL A   1      42.644  27.348  30.103  1.00  0.00     0.074 A 
ATOM     29  C   UNL A   1      41.713  30.267  35.690  1.00  0.00     0.029 A 
ATOM     30  N   UNL A   1      41.529  29.551  33.591  1.00  0.00    -0.354 N 
ATOM     31  N   UNL A   1      42.358  27.986  31.213  1.00  0.00    -0.248 NA
ATOM     32  C   UNL A   1      43.849  26.514  30.177  1.00  0.00     0.031 C 
ATOM     33  C   UNL A   1      42.794  29.421  35.411  1.00  0.00     0.029 A 
ATOM     34  C   UNL A   1      42.667  28.959  34.110  1.00  0.00     0.049 A 
ATOM     35  H   UNL A   1      41.190  29.418  32.676  1.00  0.00     0.167 HD
ATOM     36  C   UNL A   1      43.344  27.628  32.120  1.00  0.00     0.074 A 
ATOM     37  C   UNL A   1      44.221  26.697  31.436  1.00  0.00     0.031 C 
ATOM     38  C   UNL A   1      43.518  28.039  33.400  1.00  0.00     0.037 A 
BRANCH  25  39
ATOM     39  C   UNL A   1      39.216  31.976  35.465  1.00  0.00     0.057 A 
ATOM     40  C   UNL A   1      38.362  31.479  36.459  1.00  0.00     0.134 A 
ATOM     41  C   UNL A   1      39.607  33.318  35.566  1.00  0.00     0.134 A 
ATOM     42  F   UNL A   1      37.932  30.209  36.414  1.00  0.00    -0.206 F 
ATOM     43  C   UNL A   1      37.901  32.291  37.499  1.00  0.00     0.040 A 
ATOM     44  C   UNL A   1      39.171  34.132  36.613  1.00  0.00     0.040 A 
ATOM     45  F   UNL A   1      40.425  33.858  34.651  1.00  0.00    -0.206 F 
ATOM     46  C   UNL A   1      38.311  33.621  37.581  1.00  0.00     0.006 A 
ENDBRANCH  25  39
BRANCH  26  47
ATOM     47  C   UNL A   1      42.369  26.559  27.634  1.00  0.00     0.057 A 
ATOM     48  C   UNL A   1      41.994  25.219  27.495  1.00  0.00     0.134 A 
ATOM     49  C   UNL A   1      43.150  27.119  26.614  1.00  0.00     0.134 A 
ATOM     50  F   UNL A   1      41.262  24.620  28.447  1.00  0.00    -0.206 F 
ATOM     51  C   UNL A   1      42.374  24.465  26.383  1.00  0.00     0.040 A 
ATOM     52  C   UNL A   1      43.515  26.385  25.485  1.00  0.00     0.040 A 
ATOM     53  F   UNL A   1      43.538  28.400  26.685  1.00  0.00    -0.206 F 
ATOM     54  C   UNL A   1      43.129  25.052  25.369  1.00  0.00     0.006 A 
ENDBRANCH  26  47
BRANCH  38  55
ATOM     55  C   UNL A   1      44.690  27.461  34.133  1.00  0.00     0.057 A 
ATOM     56  C   UNL A   1      45.937  28.098  34.142  1.00  0.00     0.134 A 
ATOM     57  C   UNL A   1      44.565  26.260  34.840  1.00  0.00     0.134 A 
ATOM     58  F   UNL A   1      46.119  29.245  33.469  1.00  0.00    -0.206 F 
ATOM     59  C   UNL A   1      47.030  27.543  34.806  1.00  0.00     0.040 A 
ATOM     60  C   UNL A   1      45.646  25.706  35.526  1.00  0.00     0.040 A 
ATOM     61  F   UNL A   1      43.394  25.607  34.874  1.00  0.00    -0.206 F 
ATOM     62  C   UNL A   1      46.885  26.345  35.504  1.00  0.00     0.006 A 
ENDBRANCH  38  55
ENDBRANCH  12  13
ENDBRANCH   5   7
ENDBRANCH   2   3
ENDBRANCH   1   2
BRANCH   1  63
ATOM     63  C   UNL A   1      32.282  27.602  27.206  1.00  0.00     0.117 C 
BRANCH  63  64
ATOM     64  N   UNL A   1      31.320  26.569  26.879  1.00  0.00    -0.356 N 
ATOM     65  C   UNL A   1      30.871  26.135  25.656  1.00  0.00     0.223 C 
ATOM     66  H   UNL A   1      30.929  26.105  27.654  1.00  0.00     0.163 HD
ATOM     67  O   UNL A   1      30.229  25.078  25.660  1.00  0.00    -0.275 OA
BRANCH  65  68
ATOM     68  C   UNL A   1      30.917  27.022  24.400  1.00  0.00     0.091 C 
ATOM     69  C   UNL A   1      29.562  27.259  23.712  1.00  0.00     0.014 C 
ATOM     70  C   UNL A   1      32.000  26.948  23.313  1.00  0.00     0.091 C 
ATOM     71  C   UNL A   1      29.554  28.638  23.034  1.00  0.00     0.001 C 
ATOM     72  C   UNL A   1      32.129  28.423  22.811  1.00  0.00     0.014 C 
ATOM     73  C   UNL A   1      30.815  28.973  22.227  1.00  0.00     0.001 C 
BRANCH  70  74
ATOM     74  C   UNL A   1      31.833  26.048  22.062  1.00  0.00     0.230 C 
ATOM     75  O   UNL A   1      31.235  26.463  21.059  1.00  0.00    -0.274 OA
ATOM     76  N   UNL A   1      32.500  24.892  21.854  1.00  0.00    -0.302 N 
ATOM     77  H   UNL A   1      32.530  24.604  20.913  1.00  0.00     0.172 HD
BRANCH  76  78
ATOM     78  C   UNL A   1      33.131  24.062  22.714  1.00  0.00     0.189 A 
ATOM     79  N   UNL A   1      34.398  23.950  22.994  1.00  0.00    -0.220 NA
ATOM     80  S   UNL A   1      32.066  23.051  23.584  1.00  0.00    -0.105 S 
ATOM     81  C   UNL A   1      34.560  23.009  24.001  1.00  0.00     0.084 A 
ATOM     82  C   UNL A   1      33.417  22.314  24.342  1.00  0.00     0.097 A 
BRANCH  81  83
ATOM     83  C   UNL A   1      35.862  22.710  24.569  1.00  0.00     0.003 A 
ATOM     84  C   UNL A   1      36.430  21.440  24.474  1.00  0.00     0.012 A 
ATOM     85  C   UNL A   1      36.549  23.707  25.254  1.00  0.00     0.032 A 
ATOM     86  C   UNL A   1      37.668  21.183  25.078  1.00  0.00     0.023 A 
ATOM     87  C   UNL A   1      37.766  23.452  25.889  1.00  0.00     0.060 A 
ATOM     88  C   UNL A   1      38.333  22.183  25.796  1.00  0.00     0.059 A 
ATOM     89  Cl  UNL A   1      38.492  24.750  26.769  1.00  0.00    -0.083 Cl
ATOM     90  Cl  UNL A   1      39.843  21.793  26.536  1.00  0.00    -0.083 Cl
ENDBRANCH  81  83
ENDBRANCH  76  78
ENDBRANCH  70  74
ENDBRANCH  65  68
ENDBRANCH  63  64
ENDBRANCH   1  63
TORSDOF 13
ENDMDL
MODEL 2
REMARK VINA RESULT:     -13.2      2.967      7.470
REMARK SMILES O=C(NCCCNC(=O)[C@@H]1CCCC[C@@H]1C(=O)Nc1nc(-c2ccc(Cl)c(Cl)c2)cs1)c1ccc(-c2c3nc(c(-c4c(F)cccc4F)c4ccc([nH]4)c(-c4c(F)cccc4F)c4nc(c(-c5c(F)cccc5F)c5ccc2[nH]5)C=C4)C=C3)cc1
REMARK SMILES IDX 5 1 4 2 3 3 1 4 2 5 32 7 33 8 85 9 34 10 84 11 35 12 36 13
REMARK SMILES IDX 37 14 78 15 38 16 83 17 77 18 79 19 39 20 82 21 76 22 75 23
REMARK SMILES IDX 40 25 66 26 49 27 65 28 50 29 53 30 64 31 80 32 51 33 52 34
REMARK SMILES IDX 63 36 81 37 54 38 41 39 42 40 47 41 43 42 44 43 46 44 48 45
REMARK SMILES IDX 45 46 67 47 68 48 73 49 69 50 70 51 72 52 74 53 71 54 55 55
REMARK SMILES IDX 56 56 61 57 57 58 58 59 60 60 62 61 59 62 6 63 7 64 8 65
REMARK SMILES IDX 9 67 10 68 11 69 15 70 12 71 14 72 13 73 16 74 17 75 18 76
REMARK SMILES IDX 19 78 20 79 31 80 21 81 30 82 22 83 23 84 29 85 24 86 27 87
REMARK SMILES IDX 25 88 28 89 26 90
REMARK H PARENT 3 6 79 24 53 35 7 66 18 77
REMARK Flexibility Score: inf
ROOT
ATOM      1  C   UNL A   1      37.364  23.704  25.325  1.00  0.00     0.042 C 
ENDROOT
BRANCH   1   2
ATOM      2  C   UNL A   1      38.341  23.747  26.502  1.00  0.00     0.118 C 
BRANCH   2   3
ATOM      3  N   UNL A   1      39.762  23.750  26.174  1.00  0.00    -0.352 N 
ATOM      4  O   UNL A   1      41.836  24.701  26.137  1.00  0.00    -0.269 OA
ATOM      5  C   UNL A   1      40.676  24.739  26.504  1.00  0.00     0.251 C 
ATOM      6  H   UNL A   1      40.105  22.977  25.672  1.00  0.00     0.163 HD
BRANCH   5   7
ATOM      7  C   UNL A   1      40.183  25.842  27.353  1.00  0.00     0.039 A 
ATOM      8  C   UNL A   1      40.654  27.126  27.081  1.00  0.00     0.014 A 
ATOM      9  C   UNL A   1      39.431  25.573  28.499  1.00  0.00     0.014 A 
ATOM     10  C   UNL A   1      40.523  28.111  28.048  1.00  0.00     0.010 A 
ATOM     11  C   UNL A   1      39.243  26.588  29.441  1.00  0.00     0.010 A 
ATOM     12  C   UNL A   1      39.847  27.842  29.251  1.00  0.00    -0.014 A 
BRANCH  12  13
ATOM     13  C   UNL A   1      39.863  28.873  30.319  1.00  0.00     0.031 A 
ATOM     14  C   UNL A   1      38.831  29.970  30.329  1.00  0.00     0.074 A 
ATOM     15  C   UNL A   1      40.742  28.751  31.331  1.00  0.00     0.049 A 
ATOM     16  N   UNL A   1      38.675  30.952  31.181  1.00  0.00    -0.248 NA
ATOM     17  C   UNL A   1      37.845  29.969  29.236  1.00  0.00     0.031 C 
ATOM     18  C   UNL A   1      41.758  27.703  31.434  1.00  0.00     0.029 A 
ATOM     19  N   UNL A   1      40.898  29.483  32.478  1.00  0.00    -0.354 N 
ATOM     20  C   UNL A   1      37.609  31.707  30.704  1.00  0.00     0.074 A 
ATOM     21  C   UNL A   1      37.153  31.071  29.488  1.00  0.00     0.031 C 
ATOM     22  C   UNL A   1      42.388  27.818  32.611  1.00  0.00     0.029 A 
ATOM     23  C   UNL A   1      41.871  28.987  33.312  1.00  0.00     0.049 A 
ATOM     24  H   UNL A   1      40.366  30.285  32.685  1.00  0.00     0.167 HD
ATOM     25  C   UNL A   1      37.069  32.832  31.232  1.00  0.00     0.037 A 
ATOM     26  C   UNL A   1      42.304  29.434  34.505  1.00  0.00     0.037 A 
ATOM     27  C   UNL A   1      37.508  33.426  32.471  1.00  0.00     0.049 A 
ATOM     28  C   UNL A   1      41.674  30.668  35.080  1.00  0.00     0.074 A 
ATOM     29  C   UNL A   1      37.036  34.563  33.101  1.00  0.00     0.029 A 
ATOM     30  N   UNL A   1      38.517  32.911  33.274  1.00  0.00    -0.354 N 
ATOM     31  N   UNL A   1      40.701  31.400  34.591  1.00  0.00    -0.248 NA
ATOM     32  C   UNL A   1      42.210  31.149  36.359  1.00  0.00     0.031 C 
ATOM     33  C   UNL A   1      37.780  34.752  34.272  1.00  0.00     0.029 A 
ATOM     34  C   UNL A   1      38.688  33.712  34.390  1.00  0.00     0.049 A 
ATOM     35  H   UNL A   1      39.034  32.097  33.078  1.00  0.00     0.167 HD
ATOM     36  C   UNL A   1      40.504  32.426  35.504  1.00  0.00     0.074 A 
ATOM     37  C   UNL A   1      41.441  32.205  36.588  1.00  0.00     0.031 C 
ATOM     38  C   UNL A   1      39.633  33.464  35.449  1.00  0.00     0.037 A 
BRANCH  25  39
ATOM     39  C   UNL A   1      35.982  33.518  30.455  1.00  0.00     0.057 A 
ATOM     40  C   UNL A   1      34.641  33.500  30.862  1.00  0.00     0.134 A 
ATOM     41  C   UNL A   1      36.289  34.230  29.288  1.00  0.00     0.134 A 
ATOM     42  F   UNL A   1      34.272  32.821  31.959  1.00  0.00    -0.206 F 
ATOM     43  C   UNL A   1      33.645  34.149  30.127  1.00  0.00     0.040 A 
ATOM     44  C   UNL A   1      35.307  34.901  28.557  1.00  0.00     0.040 A 
ATOM     45  F   UNL A   1      37.552  34.292  28.842  1.00  0.00    -0.206 F 
ATOM     46  C   UNL A   1      33.978  34.857  28.973  1.00  0.00     0.006 A 
ENDBRANCH  25  39
BRANCH  26  47
ATOM     47  C   UNL A   1      43.389  28.710  35.212  1.00  0.00     0.057 A 
ATOM     48  C   UNL A   1      43.106  27.764  36.202  1.00  0.00     0.134 A 
ATOM     49  C   UNL A   1      44.735  28.911  34.878  1.00  0.00     0.134 A 
ATOM     50  F   UNL A   1      41.838  27.539  36.579  1.00  0.00    -0.206 F 
ATOM     51  C   UNL A   1      44.120  27.043  36.835  1.00  0.00     0.040 A 
ATOM     52  C   UNL A   1      45.756  28.179  35.483  1.00  0.00     0.040 A 
ATOM     53  F   UNL A   1      45.072  29.800  33.933  1.00  0.00    -0.206 F 
ATOM     54  C   UNL A   1      45.450  27.242  36.467  1.00  0.00     0.006 A 
ENDBRANCH  26  47
BRANCH  38  55
ATOM     55  C   UNL A   1      39.655  34.415  36.605  1.00  0.00     0.057 A 
ATOM     56  C   UNL A   1      40.429  35.581  36.582  1.00  0.00     0.134 A 
ATOM     57  C   UNL A   1      38.889  34.162  37.750  1.00  0.00     0.134 A 
ATOM     58  F   UNL A   1      41.194  35.869  35.517  1.00  0.00    -0.206 F 
ATOM     59  C   UNL A   1      40.463  36.451  37.671  1.00  0.00     0.040 A 
ATOM     60  C   UNL A   1      38.900  35.036  38.836  1.00  0.00     0.040 A 
ATOM     61  F   UNL A   1      38.123  33.064  37.828  1.00  0.00    -0.206 F 
ATOM     62  C   UNL A   1      39.693  36.180  38.802  1.00  0.00     0.006 A 
ENDBRANCH  38  55
ENDBRANCH  12  13
ENDBRANCH   5   7
ENDBRANCH   2   3
ENDBRANCH   1   2
BRANCH   1  63
ATOM     63  C   UNL A   1      35.897  24.079  25.549  1.00  0.00     0.117 C 
BRANCH  63  64
ATOM     64  N   UNL A   1      35.138  24.433  24.367  1.00  0.00    -0.356 N 
ATOM     65  C   UNL A   1      33.912  23.988  23.938  1.00  0.00     0.223 C 
ATOM     66  H   UNL A   1      35.568  25.096  23.780  1.00  0.00     0.163 HD
ATOM     67  O   UNL A   1      33.394  24.633  23.018  1.00  0.00    -0.275 OA
BRANCH  65  68
ATOM     68  C   UNL A   1      33.333  22.629  24.368  1.00  0.00     0.091 C 
ATOM     69  C   UNL A   1      32.662  21.815  23.249  1.00  0.00     0.014 C 
ATOM     70  C   UNL A   1      32.558  22.379  25.671  1.00  0.00     0.091 C 
ATOM     71  C   UNL A   1      32.815  20.313  23.531  1.00  0.00     0.001 C 
ATOM     72  C   UNL A   1      32.931  20.909  26.053  1.00  0.00     0.014 C 
ATOM     73  C   UNL A   1      32.519  19.889  24.975  1.00  0.00     0.001 C 
BRANCH  70  74
ATOM     74  C   UNL A   1      31.014  22.494  25.732  1.00  0.00     0.230 C 
ATOM     75  O   UNL A   1      30.313  21.496  25.950  1.00  0.00    -0.274 OA
ATOM     76  N   UNL A   1      30.333  23.658  25.804  1.00  0.00    -0.302 N 
ATOM     77  H   UNL A   1      29.413  23.571  26.145  1.00  0.00     0.172 HD
BRANCH  76  78
ATOM     78  C   UNL A   1      30.696  24.922  25.490  1.00  0.00     0.189 A 
ATOM     79  N   UNL A   1      31.334  25.812  26.195  1.00  0.00    -0.220 NA
ATOM     80  S   UNL A   1      30.276  25.370  23.897  1.00  0.00    -0.105 S 
ATOM     81  C   UNL A   1      31.545  26.943  25.419  1.00  0.00     0.084 A 
ATOM     82  C   UNL A   1      30.912  26.936  24.192  1.00  0.00     0.097 A 
BRANCH  81  83
ATOM     83  C   UNL A   1      32.287  28.086  25.915  1.00  0.00     0.003 A 
ATOM     84  C   UNL A   1      33.589  27.964  26.398  1.00  0.00     0.012 A 
ATOM     85  C   UNL A   1      31.674  29.335  25.939  1.00  0.00     0.032 A 
ATOM     86  C   UNL A   1      34.252  29.087  26.911  1.00  0.00     0.023 A 
ATOM     87  C   UNL A   1      32.311  30.453  26.480  1.00  0.00     0.060 A 
ATOM     88  C   UNL A   1      33.611  30.330  26.965  1.00  0.00     0.059 A 
ATOM     89  Cl  UNL A   1      31.422  31.935  26.520  1.00  0.00    -0.083 Cl
ATOM     90  Cl  UNL A   1      34.474  31.668  27.632  1.00  0.00    -0.083 Cl
ENDBRANCH  81  83
ENDBRANCH  76  78
ENDBRANCH  70  74
ENDBRANCH  65  68
ENDBRANCH  63  64
ENDBRANCH   1  63
TORSDOF 13
ENDMDL
MODEL 3
REMARK VINA RESULT:     -13.2      0.251      6.047
REMARK SMILES O=C(NCCCNC(=O)[C@@H]1CCCC[C@@H]1C(=O)Nc1nc(-c2ccc(Cl)c(Cl)c2)cs1)c1ccc(-c2c3nc(c(-c4c(F)cccc4F)c4ccc([nH]4)c(-c4c(F)cccc4F)c4nc(c(-c5c(F)cccc5F)c5ccc2[nH]5)C=C4)C=C3)cc1
REMARK SMILES IDX 5 1 4 2 3 3 1 4 2 5 32 7 33 8 85 9 34 10 84 11 35 12 36 13
REMARK SMILES IDX 37 14 78 15 38 16 83 17 77 18 79 19 39 20 82 21 76 22 75 23
REMARK SMILES IDX 40 25 66 26 49 27 65 28 50 29 53 30 64 31 80 32 51 33 52 34
REMARK SMILES IDX 63 36 81 37 54 38 41 39 42 40 47 41 43 42 44 43 46 44 48 45
REMARK SMILES IDX 45 46 67 47 68 48 73 49 69 50 70 51 72 52 74 53 71 54 55 55
REMARK SMILES IDX 56 56 61 57 57 58 58 59 60 60 62 61 59 62 6 63 7 64 8 65
REMARK SMILES IDX 9 67 10 68 11 69 15 70 12 71 14 72 13 73 16 74 17 75 18 76
REMARK SMILES IDX 19 78 20 79 31 80 21 81 30 82 22 83 23 84 29 85 24 86 27 87
REMARK SMILES IDX 25 88 28 89 26 90
REMARK H PARENT 3 6 79 24 53 35 7 66 18 77
REMARK Flexibility Score: inf
ROOT
ATOM      1  C   UNL A   1      31.781  28.907  27.143  1.00  0.00     0.042 C 
ENDROOT
BRANCH   1   2
ATOM      2  C   UNL A   1      32.636  29.961  26.437  1.00  0.00     0.118 C 
BRANCH   2   3
ATOM      3  N   UNL A   1      32.371  31.354  26.776  1.00  0.00    -0.352 N 
ATOM      4  O   UNL A   1      32.905  33.342  27.760  1.00  0.00    -0.269 OA
ATOM      5  C   UNL A   1      33.226  32.209  27.455  1.00  0.00     0.251 C 
ATOM      6  H   UNL A   1      31.503  31.723  26.496  1.00  0.00     0.163 HD
BRANCH   5   7
ATOM      7  C   UNL A   1      34.570  31.686  27.775  1.00  0.00     0.039 A 
ATOM      8  C   UNL A   1      34.687  30.322  28.033  1.00  0.00     0.014 A 
ATOM      9  C   UNL A   1      35.635  32.562  28.001  1.00  0.00     0.014 A 
ATOM     10  C   UNL A   1      35.818  29.854  28.685  1.00  0.00     0.010 A 
ATOM     11  C   UNL A   1      36.800  32.074  28.598  1.00  0.00     0.010 A 
ATOM     12  C   UNL A   1      36.869  30.730  29.006  1.00  0.00    -0.014 A 
BRANCH  12  13
ATOM     13  C   UNL A   1      37.989  30.221  29.838  1.00  0.00     0.031 A 
ATOM     14  C   UNL A   1      39.054  29.352  29.225  1.00  0.00     0.074 A 
ATOM     15  C   UNL A   1      38.092  30.634  31.114  1.00  0.00     0.049 A 
ATOM     16  N   UNL A   1      40.112  28.821  29.784  1.00  0.00    -0.248 NA
ATOM     17  C   UNL A   1      38.913  29.031  27.795  1.00  0.00     0.031 C 
ATOM     18  C   UNL A   1      37.132  31.507  31.792  1.00  0.00     0.029 A 
ATOM     19  N   UNL A   1      39.065  30.413  32.054  1.00  0.00    -0.354 N 
ATOM     20  C   UNL A   1      40.734  28.070  28.792  1.00  0.00     0.074 A 
ATOM     21  C   UNL A   1      39.937  28.213  27.594  1.00  0.00     0.031 C 
ATOM     22  C   UNL A   1      37.595  31.801  33.015  1.00  0.00     0.029 A 
ATOM     23  C   UNL A   1      38.845  31.083  33.233  1.00  0.00     0.049 A 
ATOM     24  H   UNL A   1      39.843  29.831  31.900  1.00  0.00     0.167 HD
ATOM     25  C   UNL A   1      41.862  27.325  28.881  1.00  0.00     0.037 A 
ATOM     26  C   UNL A   1      39.568  31.105  34.368  1.00  0.00     0.037 A 
ATOM     27  C   UNL A   1      42.668  27.232  30.072  1.00  0.00     0.049 A 
ATOM     28  C   UNL A   1      40.825  30.290  34.433  1.00  0.00     0.074 A 
ATOM     29  C   UNL A   1      43.830  26.508  30.278  1.00  0.00     0.029 A 
ATOM     30  N   UNL A   1      42.399  27.902  31.258  1.00  0.00    -0.354 N 
ATOM     31  N   UNL A   1      41.373  29.544  33.503  1.00  0.00    -0.248 NA
ATOM     32  C   UNL A   1      41.557  30.304  35.705  1.00  0.00     0.031 C 
ATOM     33  C   UNL A   1      44.246  26.719  31.598  1.00  0.00     0.029 A 
ATOM     34  C   UNL A   1      43.367  27.604  32.201  1.00  0.00     0.049 A 
ATOM     35  H   UNL A   1      41.632  28.501  31.405  1.00  0.00     0.167 HD
ATOM     36  C   UNL A   1      42.515  29.004  34.074  1.00  0.00     0.074 A 
ATOM     37  C   UNL A   1      42.594  29.528  35.423  1.00  0.00     0.031 C 
ATOM     38  C   UNL A   1      43.413  28.142  33.537  1.00  0.00     0.037 A 
BRANCH  25  39
ATOM     39  C   UNL A   1      42.264  26.519  27.678  1.00  0.00     0.057 A 
ATOM     40  C   UNL A   1      41.897  25.177  27.517  1.00  0.00     0.134 A 
ATOM     41  C   UNL A   1      43.013  27.109  26.651  1.00  0.00     0.134 A 
ATOM     42  F   UNL A   1      41.197  24.543  28.470  1.00  0.00    -0.206 F 
ATOM     43  C   UNL A   1      42.277  24.445  26.388  1.00  0.00     0.040 A 
ATOM     44  C   UNL A   1      43.379  26.395  25.508  1.00  0.00     0.040 A 
ATOM     45  F   UNL A   1      43.396  28.391  26.738  1.00  0.00    -0.206 F 
ATOM     46  C   UNL A   1      43.015  25.057  25.376  1.00  0.00     0.006 A 
ENDBRANCH  25  39
BRANCH  26  47
ATOM     47  C   UNL A   1      39.104  31.918  35.519  1.00  0.00     0.057 A 
ATOM     48  C   UNL A   1      39.432  33.273  35.630  1.00  0.00     0.134 A 
ATOM     49  C   UNL A   1      38.280  31.370  36.511  1.00  0.00     0.134 A 
ATOM     50  F   UNL A   1      40.232  33.852  34.722  1.00  0.00    -0.206 F 
ATOM     51  C   UNL A   1      38.956  34.056  36.684  1.00  0.00     0.040 A 
ATOM     52  C   UNL A   1      37.776  32.146  37.555  1.00  0.00     0.040 A 
ATOM     53  F   UNL A   1      37.925  30.078  36.458  1.00  0.00    -0.206 F 
ATOM     54  C   UNL A   1      38.116  33.494  37.645  1.00  0.00     0.006 A 
ENDBRANCH  26  47
BRANCH  38  55
ATOM     55  C   UNL A   1      44.559  27.740  34.414  1.00  0.00     0.057 A 
ATOM     56  C   UNL A   1      45.749  28.476  34.451  1.00  0.00     0.134 A 
ATOM     57  C   UNL A   1      44.466  26.607  35.231  1.00  0.00     0.134 A 
ATOM     58  F   UNL A   1      45.901  29.563  33.678  1.00  0.00    -0.206 F 
ATOM     59  C   UNL A   1      46.820  28.083  35.252  1.00  0.00     0.040 A 
ATOM     60  C   UNL A   1      45.524  26.217  36.052  1.00  0.00     0.040 A 
ATOM     61  F   UNL A   1      43.349  25.866  35.243  1.00  0.00    -0.206 F 
ATOM     62  C   UNL A   1      46.708  26.951  36.058  1.00  0.00     0.006 A 
ENDBRANCH  38  55
ENDBRANCH  12  13
ENDBRANCH   5   7
ENDBRANCH   2   3
ENDBRANCH   1   2
BRANCH   1  63
ATOM     63  C   UNL A   1      32.274  27.458  27.210  1.00  0.00     0.117 C 
BRANCH  63  64
ATOM     64  N   UNL A   1      31.304  26.436  26.876  1.00  0.00    -0.356 N 
ATOM     65  C   UNL A   1      30.834  26.030  25.651  1.00  0.00     0.223 C 
ATOM     66  H   UNL A   1      30.924  25.956  27.647  1.00  0.00     0.163 HD
ATOM     67  O   UNL A   1      30.188  24.975  25.643  1.00  0.00    -0.275 OA
BRANCH  65  68
ATOM     68  C   UNL A   1      30.862  26.945  24.415  1.00  0.00     0.091 C 
ATOM     69  C   UNL A   1      29.503  27.168  23.730  1.00  0.00     0.014 C 
ATOM     70  C   UNL A   1      31.946  26.916  23.327  1.00  0.00     0.091 C 
ATOM     71  C   UNL A   1      29.466  28.560  23.082  1.00  0.00     0.001 C 
ATOM     72  C   UNL A   1      32.045  28.405  22.857  1.00  0.00     0.014 C 
ATOM     73  C   UNL A   1      30.720  28.940  22.284  1.00  0.00     0.001 C 
BRANCH  70  74
ATOM     74  C   UNL A   1      31.799  26.040  22.058  1.00  0.00     0.230 C 
ATOM     75  O   UNL A   1      31.200  26.467  21.060  1.00  0.00    -0.274 OA
ATOM     76  N   UNL A   1      32.483  24.899  21.829  1.00  0.00    -0.302 N 
ATOM     77  H   UNL A   1      32.523  24.631  20.882  1.00  0.00     0.172 HD
BRANCH  76  78
ATOM     78  C   UNL A   1      33.123  24.060  22.675  1.00  0.00     0.189 A 
ATOM     79  N   UNL A   1      34.389  23.961  22.961  1.00  0.00    -0.220 NA
ATOM     80  S   UNL A   1      32.067  23.015  23.517  1.00  0.00    -0.105 S 
ATOM     81  C   UNL A   1      34.560  23.001  23.949  1.00  0.00     0.084 A 
ATOM     82  C   UNL A   1      33.425  22.282  24.268  1.00  0.00     0.097 A 
BRANCH  81  83
ATOM     83  C   UNL A   1      35.862  22.710  24.518  1.00  0.00     0.003 A 
ATOM     84  C   UNL A   1      36.451  21.452  24.398  1.00  0.00     0.012 A 
ATOM     85  C   UNL A   1      36.529  23.701  25.231  1.00  0.00     0.032 A 
ATOM     86  C   UNL A   1      37.690  21.200  25.003  1.00  0.00     0.023 A 
ATOM     87  C   UNL A   1      37.745  23.451  25.868  1.00  0.00     0.060 A 
ATOM     88  C   UNL A   1      38.334  22.194  25.749  1.00  0.00     0.059 A 
ATOM     89  Cl  UNL A   1      38.445  24.740  26.783  1.00  0.00    -0.083 Cl
ATOM     90  Cl  UNL A   1      39.845  21.811  26.490  1.00  0.00    -0.083 Cl
ENDBRANCH  81  83
ENDBRANCH  76  78
ENDBRANCH  70  74
ENDBRANCH  65  68
ENDBRANCH  63  64
ENDBRANCH   1  63
TORSDOF 13
ENDMDL
