MODEL 1
REMARK VINA RESULT:     -11.9      0.000      0.000
REMARK SMILES CC1=C(C(=O)OCC(C)C)[C@@H](c2ccc(C(=O)NCCCNC(=O)c3ccc(-c4c5nc(c(-c6c(F)cccc6F)c6ccc([nH]6)c(-c6c(F)cccc6F)c6nc(c(-c7c(F)cccc7F)c7ccc4[nH]7)C=C6)C=C5)cc3)cc2)c2c(n(C)c(=O)n(C)c2=O)N1
REMARK SMILES IDX 16 1 17 2 18 3 15 5 12 6 13 7 80 8 14 9 79 10 11 11 1 12
REMARK SMILES IDX 2 13 3 14 91 15 82 16 81 18 83 19 89 20 84 21 85 22 87 23
REMARK SMILES IDX 90 24 86 25 88 26 4 27 5 28 6 29 7 30 8 31 9 32 10 33 19 34
REMARK SMILES IDX 20 35 21 36 22 37 23 38 24 40 25 41 26 42 78 43 27 44 77 45
REMARK SMILES IDX 28 46 29 47 30 48 71 49 31 50 76 51 70 52 72 53 32 54 75 55
REMARK SMILES IDX 69 56 68 57 33 59 59 60 42 61 58 62 43 63 46 64 57 65 73 66
REMARK SMILES IDX 44 67 45 68 56 70 74 71 47 72 34 73 35 74 40 75 36 76 37 77
REMARK SMILES IDX 39 78 41 79 38 80 60 81 61 82 66 83 62 84 63 85 65 86 67 87
REMARK SMILES IDX 64 88 48 89 49 90 54 91 50 92 51 93 53 94 55 95 52 96
REMARK H PARENT 18 4 91 17 22 39 72 58 46 69
REMARK Flexibility Score: inf
ROOT
ATOM      1  C   UNL A   1      38.822  21.834  25.851  1.00  0.00     0.251 C 
ATOM      2  O   UNL A   1      39.331  20.723  25.684  1.00  0.00    -0.269 OA
ATOM      3  N   UNL A   1      39.654  22.845  26.253  1.00  0.00    -0.352 N 
ATOM      4  H   UNL A   1      40.591  22.566  26.368  1.00  0.00     0.163 HD
ENDROOT
BRANCH   1   5
ATOM      5  C   UNL A   1      37.374  22.020  25.556  1.00  0.00     0.039 A 
ATOM      6  C   UNL A   1      34.690  22.509  24.815  1.00  0.00    -0.035 A 
ATOM      7  C   UNL A   1      35.715  22.555  23.857  1.00  0.00     0.005 A 
ATOM      8  C   UNL A   1      35.016  22.157  26.130  1.00  0.00     0.005 A 
ATOM      9  C   UNL A   1      37.040  22.322  24.229  1.00  0.00     0.014 A 
ATOM     10  C   UNL A   1      36.341  21.890  26.487  1.00  0.00     0.014 A 
BRANCH   6  11
ATOM     11  C   UNL A   1      33.234  22.812  24.447  1.00  0.00     0.098 C 
ATOM     12  C   UNL A   1      31.775  20.823  21.402  1.00  0.00     0.065 C 
ATOM     13  C   UNL A   1      32.325  21.889  22.313  1.00  0.00     0.025 C 
ATOM     14  C   UNL A   1      32.668  21.678  23.604  1.00  0.00     0.068 C 
ATOM     15  N   UNL A   1      32.433  23.165  21.777  1.00  0.00    -0.344 N 
ATOM     16  C   UNL A   1      32.764  24.312  22.484  1.00  0.00     0.123 A 
ATOM     17  H   UNL A   1      32.259  23.265  20.812  1.00  0.00     0.168 HD
ATOM     18  C   UNL A   1      33.127  24.171  23.772  1.00  0.00     0.071 A 
ATOM     19  N   UNL A   1      32.735  25.578  21.920  1.00  0.00    -0.282 N 
ATOM     20  C   UNL A   1      33.438  25.358  24.593  1.00  0.00     0.262 A 
ATOM     21  C   UNL A   1      32.272  25.745  20.547  1.00  0.00     0.157 C 
ATOM     22  C   UNL A   1      33.147  26.724  22.597  1.00  0.00     0.332 A 
ATOM     23  N   UNL A   1      33.545  26.550  23.913  1.00  0.00    -0.263 N 
ATOM     24  O   UNL A   1      33.575  25.250  25.810  1.00  0.00    -0.269 OA
ATOM     25  O   UNL A   1      33.147  27.840  22.070  1.00  0.00    -0.247 OA
ATOM     26  C   UNL A   1      33.986  27.728  24.636  1.00  0.00     0.158 C 
BRANCH  14  27
ATOM     27  C   UNL A   1      32.503  20.398  24.339  1.00  0.00     0.336 C 
ATOM     28  O   UNL A   1      31.821  20.302  25.344  1.00  0.00    -0.246 OA
BRANCH  27  29
ATOM     29  O   UNL A   1      33.252  19.413  23.787  1.00  0.00    -0.462 OA
BRANCH  29  30
ATOM     30  C   UNL A   1      34.228  18.795  24.642  1.00  0.00     0.236 C 
BRANCH  30  31
ATOM     31  C   UNL A   1      34.091  17.266  24.603  1.00  0.00     0.021 C 
ATOM     32  C   UNL A   1      32.874  16.782  25.391  1.00  0.00     0.011 C 
ATOM     33  C   UNL A   1      34.009  16.778  23.158  1.00  0.00     0.011 C 
ENDBRANCH  30  31
ENDBRANCH  29  30
ENDBRANCH  27  29
ENDBRANCH  14  27
ENDBRANCH   6  11
ENDBRANCH   1   5
BRANCH   3  34
ATOM     34  C   UNL A   1      39.422  24.247  26.541  1.00  0.00     0.118 C 
BRANCH  34  35
ATOM     35  C   UNL A   1      40.743  25.014  26.582  1.00  0.00     0.042 C 
BRANCH  35  36
ATOM     36  C   UNL A   1      41.626  24.609  27.758  1.00  0.00     0.118 C 
BRANCH  36  37
ATOM     37  N   UNL A   1      42.486  23.483  27.422  1.00  0.00    -0.352 N 
ATOM     38  C   UNL A   1      43.719  23.468  26.823  1.00  0.00     0.251 C 
ATOM     39  H   UNL A   1      42.127  22.598  27.661  1.00  0.00     0.163 HD
ATOM     40  O   UNL A   1      44.166  22.417  26.374  1.00  0.00    -0.269 OA
BRANCH  38  41
ATOM     41  C   UNL A   1      44.513  24.709  26.720  1.00  0.00     0.039 A 
ATOM     42  C   UNL A   1      44.619  25.343  25.480  1.00  0.00     0.014 A 
ATOM     43  C   UNL A   1      45.200  25.214  27.828  1.00  0.00     0.014 A 
ATOM     44  C   UNL A   1      45.382  26.505  25.359  1.00  0.00     0.010 A 
ATOM     45  C   UNL A   1      45.900  26.411  27.725  1.00  0.00     0.010 A 
ATOM     46  C   UNL A   1      46.010  27.059  26.486  1.00  0.00    -0.014 A 
BRANCH  46  47
ATOM     47  C   UNL A   1      46.819  28.297  26.381  1.00  0.00     0.031 A 
ATOM     48  C   UNL A   1      48.305  28.206  26.172  1.00  0.00     0.074 A 
ATOM     49  C   UNL A   1      46.221  29.497  26.510  1.00  0.00     0.049 A 
ATOM     50  N   UNL A   1      49.192  29.167  26.111  1.00  0.00    -0.248 NA
ATOM     51  C   UNL A   1      48.875  26.855  26.031  1.00  0.00     0.031 C 
ATOM     52  C   UNL A   1      44.791  29.708  26.740  1.00  0.00     0.029 A 
ATOM     53  N   UNL A   1      46.742  30.765  26.468  1.00  0.00    -0.354 N 
ATOM     54  C   UNL A   1      50.417  28.538  25.928  1.00  0.00     0.074 A 
ATOM     55  C   UNL A   1      50.171  27.113  25.949  1.00  0.00     0.031 C 
ATOM     56  C   UNL A   1      44.544  31.026  26.786  1.00  0.00     0.029 A 
ATOM     57  C   UNL A   1      45.801  31.752  26.631  1.00  0.00     0.049 A 
ATOM     58  H   UNL A   1      47.699  30.950  26.333  1.00  0.00     0.167 HD
ATOM     59  C   UNL A   1      51.631  29.101  25.731  1.00  0.00     0.037 A 
ATOM     60  C   UNL A   1      45.939  33.091  26.657  1.00  0.00     0.037 A 
ATOM     61  C   UNL A   1      51.865  30.519  25.690  1.00  0.00     0.049 A 
ATOM     62  C   UNL A   1      47.307  33.689  26.475  1.00  0.00     0.074 A 
ATOM     63  C   UNL A   1      53.054  31.189  25.462  1.00  0.00     0.029 A 
ATOM     64  N   UNL A   1      50.889  31.486  25.876  1.00  0.00    -0.354 N 
ATOM     65  N   UNL A   1      48.450  33.084  26.261  1.00  0.00    -0.248 NA
ATOM     66  C   UNL A   1      47.406  35.154  26.538  1.00  0.00     0.031 C 
ATOM     67  C   UNL A   1      52.806  32.561  25.553  1.00  0.00     0.029 A 
ATOM     68  C   UNL A   1      51.453  32.747  25.789  1.00  0.00     0.049 A 
ATOM     69  H   UNL A   1      49.936  31.303  26.045  1.00  0.00     0.167 HD
ATOM     70  C   UNL A   1      49.398  34.092  26.140  1.00  0.00     0.074 A 
ATOM     71  C   UNL A   1      48.693  35.349  26.286  1.00  0.00     0.031 C 
ATOM     72  C   UNL A   1      50.733  33.987  25.930  1.00  0.00     0.037 A 
BRANCH  59  73
ATOM     73  C   UNL A   1      52.801  28.184  25.521  1.00  0.00     0.057 A 
ATOM     74  C   UNL A   1      53.574  27.726  26.596  1.00  0.00     0.134 A 
ATOM     75  C   UNL A   1      53.118  27.701  24.246  1.00  0.00     0.134 A 
ATOM     76  F   UNL A   1      53.331  28.159  27.842  1.00  0.00    -0.206 F 
ATOM     77  C   UNL A   1      54.627  26.828  26.409  1.00  0.00     0.040 A 
ATOM     78  C   UNL A   1      54.151  26.783  24.049  1.00  0.00     0.040 A 
ATOM     79  F   UNL A   1      52.416  28.096  23.173  1.00  0.00    -0.206 F 
ATOM     80  C   UNL A   1      54.911  26.346  25.133  1.00  0.00     0.006 A 
ENDBRANCH  59  73
BRANCH  60  81
ATOM     81  C   UNL A   1      44.746  33.959  26.831  1.00  0.00     0.057 A 
ATOM     82  C   UNL A   1      44.308  34.329  28.108  1.00  0.00     0.134 A 
ATOM     83  C   UNL A   1      44.018  34.440  25.737  1.00  0.00     0.134 A 
ATOM     84  F   UNL A   1      44.952  33.885  29.198  1.00  0.00    -0.206 F 
ATOM     85  C   UNL A   1      43.183  35.135  28.292  1.00  0.00     0.040 A 
ATOM     86  C   UNL A   1      42.906  35.268  25.903  1.00  0.00     0.040 A 
ATOM     87  F   UNL A   1      44.388  34.127  24.486  1.00  0.00    -0.206 F 
ATOM     88  C   UNL A   1      42.482  35.611  27.186  1.00  0.00     0.006 A 
ENDBRANCH  60  81
BRANCH  72  89
ATOM     89  C   UNL A   1      51.520  35.259  25.826  1.00  0.00     0.057 A 
ATOM     90  C   UNL A   1      51.793  35.855  24.589  1.00  0.00     0.134 A 
ATOM     91  C   UNL A   1      51.943  35.934  26.978  1.00  0.00     0.134 A 
ATOM     92  F   UNL A   1      51.424  35.254  23.448  1.00  0.00    -0.206 F 
ATOM     93  C   UNL A   1      52.471  37.072  24.501  1.00  0.00     0.040 A 
ATOM     94  C   UNL A   1      52.596  37.164  26.905  1.00  0.00     0.040 A 
ATOM     95  F   UNL A   1      51.702  35.421  28.195  1.00  0.00    -0.206 F 
ATOM     96  C   UNL A   1      52.865  37.735  25.663  1.00  0.00     0.006 A 
ENDBRANCH  72  89
ENDBRANCH  46  47
ENDBRANCH  38  41
ENDBRANCH  36  37
ENDBRANCH  35  36
ENDBRANCH  34  35
ENDBRANCH   3  34
TORSDOF 15
ENDMDL
MODEL 2
REMARK VINA RESULT:     -11.9      0.438      5.860
REMARK SMILES CC1=C(C(=O)OCC(C)C)[C@@H](c2ccc(C(=O)NCCCNC(=O)c3ccc(-c4c5nc(c(-c6c(F)cccc6F)c6ccc([nH]6)c(-c6c(F)cccc6F)c6nc(c(-c7c(F)cccc7F)c7ccc4[nH]7)C=C6)C=C5)cc3)cc2)c2c(n(C)c(=O)n(C)c2=O)N1
REMARK SMILES IDX 16 1 17 2 18 3 15 5 12 6 13 7 80 8 14 9 79 10 11 11 1 12
REMARK SMILES IDX 2 13 3 14 91 15 82 16 81 18 83 19 89 20 84 21 85 22 87 23
REMARK SMILES IDX 90 24 86 25 88 26 4 27 5 28 6 29 7 30 8 31 9 32 10 33 19 34
REMARK SMILES IDX 20 35 21 36 22 37 23 38 24 40 25 41 26 42 78 43 27 44 77 45
REMARK SMILES IDX 28 46 29 47 30 48 71 49 31 50 76 51 70 52 72 53 32 54 75 55
REMARK SMILES IDX 69 56 68 57 33 59 59 60 42 61 58 62 43 63 46 64 57 65 73 66
REMARK SMILES IDX 44 67 45 68 56 70 74 71 47 72 34 73 35 74 40 75 36 76 37 77
REMARK SMILES IDX 39 78 41 79 38 80 60 81 61 82 66 83 62 84 63 85 65 86 67 87
REMARK SMILES IDX 64 88 48 89 49 90 54 91 50 92 51 93 53 94 55 95 52 96
REMARK H PARENT 18 4 91 17 22 39 72 58 46 69
REMARK Flexibility Score: inf
ROOT
ATOM      1  C   UNL A   1      38.878  22.019  25.851  1.00  0.00     0.251 C 
ATOM      2  O   UNL A   1      39.297  20.865  25.741  1.00  0.00    -0.269 OA
ATOM      3  N   UNL A   1      39.770  22.968  26.276  1.00  0.00    -0.352 N 
ATOM      4  H   UNL A   1      40.672  22.614  26.452  1.00  0.00     0.163 HD
ENDROOT
BRANCH   1   5
ATOM      5  C   UNL A   1      37.470  22.319  25.469  1.00  0.00     0.039 A 
ATOM      6  C   UNL A   1      34.730  22.766  24.934  1.00  0.00    -0.035 A 
ATOM      7  C   UNL A   1      35.176  22.561  26.249  1.00  0.00     0.005 A 
ATOM      8  C   UNL A   1      35.676  22.804  23.903  1.00  0.00     0.005 A 
ATOM      9  C   UNL A   1      36.528  22.331  26.508  1.00  0.00     0.014 A 
ATOM     10  C   UNL A   1      37.033  22.609  24.175  1.00  0.00     0.014 A 
BRANCH   6  11
ATOM     11  C   UNL A   1      33.246  22.968  24.613  1.00  0.00     0.098 C 
ATOM     12  C   UNL A   1      31.843  20.916  21.583  1.00  0.00     0.065 C 
ATOM     13  C   UNL A   1      32.342  22.008  22.493  1.00  0.00     0.025 C 
ATOM     14  C   UNL A   1      32.738  21.806  23.770  1.00  0.00     0.068 C 
ATOM     15  N   UNL A   1      32.341  23.294  21.973  1.00  0.00    -0.344 N 
ATOM     16  C   UNL A   1      32.610  24.454  22.687  1.00  0.00     0.123 A 
ATOM     17  H   UNL A   1      32.131  23.393  21.015  1.00  0.00     0.168 HD
ATOM     18  C   UNL A   1      33.021  24.324  23.961  1.00  0.00     0.071 A 
ATOM     19  N   UNL A   1      32.472  25.722  22.142  1.00  0.00    -0.282 N 
ATOM     20  C   UNL A   1      33.269  25.520  24.790  1.00  0.00     0.262 A 
ATOM     21  C   UNL A   1      31.957  25.871  20.786  1.00  0.00     0.157 C 
ATOM     22  C   UNL A   1      32.821  26.886  22.824  1.00  0.00     0.332 A 
ATOM     23  N   UNL A   1      33.270  26.724  24.125  1.00  0.00    -0.263 N 
ATOM     24  O   UNL A   1      33.450  25.407  26.001  1.00  0.00    -0.269 OA
ATOM     25  O   UNL A   1      32.724  28.005  22.313  1.00  0.00    -0.247 OA
ATOM     26  C   UNL A   1      33.646  27.922  24.851  1.00  0.00     0.158 C 
BRANCH  14  27
ATOM     27  C   UNL A   1      32.688  20.509  24.491  1.00  0.00     0.336 C 
ATOM     28  O   UNL A   1      31.810  20.236  25.291  1.00  0.00    -0.246 OA
BRANCH  27  29
ATOM     29  O   UNL A   1      33.760  19.737  24.191  1.00  0.00    -0.462 OA
BRANCH  29  30
ATOM     30  C   UNL A   1      33.945  18.557  24.992  1.00  0.00     0.236 C 
BRANCH  30  31
ATOM     31  C   UNL A   1      34.569  17.429  24.158  1.00  0.00     0.021 C 
ATOM     32  C   UNL A   1      34.826  16.176  24.993  1.00  0.00     0.011 C 
ATOM     33  C   UNL A   1      33.672  17.092  22.968  1.00  0.00     0.011 C 
ENDBRANCH  30  31
ENDBRANCH  29  30
ENDBRANCH  27  29
ENDBRANCH  14  27
ENDBRANCH   6  11
ENDBRANCH   1   5
BRANCH   3  34
ATOM     34  C   UNL A   1      39.645  24.392  26.516  1.00  0.00     0.118 C 
BRANCH  34  35
ATOM     35  C   UNL A   1      39.984  24.726  27.967  1.00  0.00     0.042 C 
BRANCH  35  36
ATOM     36  C   UNL A   1      41.470  24.999  28.180  1.00  0.00     0.118 C 
BRANCH  36  37
ATOM     37  N   UNL A   1      42.273  23.806  27.954  1.00  0.00    -0.352 N 
ATOM     38  C   UNL A   1      43.515  23.678  27.388  1.00  0.00     0.251 C 
ATOM     39  H   UNL A   1      41.862  22.962  28.252  1.00  0.00     0.163 HD
ATOM     40  O   UNL A   1      43.913  22.572  27.033  1.00  0.00    -0.269 OA
BRANCH  38  41
ATOM     41  C   UNL A   1      44.378  24.863  27.208  1.00  0.00     0.039 A 
ATOM     42  C   UNL A   1      44.536  25.396  25.926  1.00  0.00     0.014 A 
ATOM     43  C   UNL A   1      45.077  25.412  28.288  1.00  0.00     0.014 A 
ATOM     44  C   UNL A   1      45.364  26.503  25.734  1.00  0.00     0.010 A 
ATOM     45  C   UNL A   1      45.843  26.558  28.108  1.00  0.00     0.010 A 
ATOM     46  C   UNL A   1      46.006  27.105  26.827  1.00  0.00    -0.014 A 
BRANCH  46  47
ATOM     47  C   UNL A   1      46.883  28.286  26.646  1.00  0.00     0.031 A 
ATOM     48  C   UNL A   1      46.293  29.668  26.663  1.00  0.00     0.074 A 
ATOM     49  C   UNL A   1      48.201  28.110  26.430  1.00  0.00     0.049 A 
ATOM     50  N   UNL A   1      46.881  30.821  26.467  1.00  0.00    -0.248 NA
ATOM     51  C   UNL A   1      44.846  29.769  26.916  1.00  0.00     0.031 C 
ATOM     52  C   UNL A   1      48.882  26.816  26.367  1.00  0.00     0.029 A 
ATOM     53  N   UNL A   1      49.203  29.023  26.220  1.00  0.00    -0.354 N 
ATOM     54  C   UNL A   1      45.878  31.777  26.570  1.00  0.00     0.074 A 
ATOM     55  C   UNL A   1      44.636  31.070  26.785  1.00  0.00     0.031 C 
ATOM     56  C   UNL A   1      50.194  27.020  26.168  1.00  0.00     0.029 A 
ATOM     57  C   UNL A   1      50.441  28.453  26.047  1.00  0.00     0.049 A 
ATOM     58  H   UNL A   1      49.049  29.996  26.197  1.00  0.00     0.167 HD
ATOM     59  C   UNL A   1      45.992  33.125  26.520  1.00  0.00     0.037 A 
ATOM     60  C   UNL A   1      51.637  29.024  25.814  1.00  0.00     0.037 A 
ATOM     61  C   UNL A   1      47.235  33.822  26.327  1.00  0.00     0.049 A 
ATOM     62  C   UNL A   1      51.727  30.523  25.722  1.00  0.00     0.074 A 
ATOM     63  C   UNL A   1      47.459  35.187  26.296  1.00  0.00     0.029 A 
ATOM     64  N   UNL A   1      48.463  33.209  26.139  1.00  0.00    -0.354 N 
ATOM     65  N   UNL A   1      50.779  31.417  25.864  1.00  0.00    -0.248 NA
ATOM     66  C   UNL A   1      53.052  31.093  25.439  1.00  0.00     0.031 C 
ATOM     67  C   UNL A   1      48.817  35.400  26.045  1.00  0.00     0.029 A 
ATOM     68  C   UNL A   1      49.447  34.168  25.970  1.00  0.00     0.049 A 
ATOM     69  H   UNL A   1      48.614  32.236  26.128  1.00  0.00     0.167 HD
ATOM     70  C   UNL A   1      51.394  32.652  25.712  1.00  0.00     0.074 A 
ATOM     71  C   UNL A   1      52.802  32.394  25.485  1.00  0.00     0.031 C 
ATOM     72  C   UNL A   1      50.844  33.891  25.753  1.00  0.00     0.037 A 
BRANCH  59  73
ATOM     73  C   UNL A   1      44.743  33.939  26.698  1.00  0.00     0.057 A 
ATOM     74  C   UNL A   1      44.335  34.385  27.962  1.00  0.00     0.134 A 
ATOM     75  C   UNL A   1      43.981  34.338  25.595  1.00  0.00     0.134 A 
ATOM     76  F   UNL A   1      45.014  34.029  29.062  1.00  0.00    -0.206 F 
ATOM     77  C   UNL A   1      43.205  35.191  28.122  1.00  0.00     0.040 A 
ATOM     78  C   UNL A   1      42.865  35.164  25.739  1.00  0.00     0.040 A 
ATOM     79  F   UNL A   1      44.318  33.949  24.356  1.00  0.00    -0.206 F 
ATOM     80  C   UNL A   1      42.473  35.591  27.007  1.00  0.00     0.006 A 
ENDBRANCH  59  73
BRANCH  60  81
ATOM     81  C   UNL A   1      52.851  28.178  25.680  1.00  0.00     0.057 A 
ATOM     82  C   UNL A   1      53.235  27.664  24.436  1.00  0.00     0.134 A 
ATOM     83  C   UNL A   1      53.656  27.866  26.781  1.00  0.00     0.134 A 
ATOM     84  F   UNL A   1      52.495  27.913  23.345  1.00  0.00    -0.206 F 
ATOM     85  C   UNL A   1      54.366  26.859  24.293  1.00  0.00     0.040 A 
ATOM     86  C   UNL A   1      54.805  27.084  26.650  1.00  0.00     0.040 A 
ATOM     87  F   UNL A   1      53.347  28.332  28.001  1.00  0.00    -0.206 F 
ATOM     88  C   UNL A   1      55.159  26.572  25.403  1.00  0.00     0.006 A 
ENDBRANCH  60  81
BRANCH  72  89
ATOM     89  C   UNL A   1      51.761  35.063  25.568  1.00  0.00     0.057 A 
ATOM     90  C   UNL A   1      52.107  35.532  24.295  1.00  0.00     0.134 A 
ATOM     91  C   UNL A   1      52.241  35.777  26.674  1.00  0.00     0.134 A 
ATOM     92  F   UNL A   1      51.688  34.887  23.195  1.00  0.00    -0.206 F 
ATOM     93  C   UNL A   1      52.908  36.662  24.128  1.00  0.00     0.040 A 
ATOM     94  C   UNL A   1      53.019  36.924  26.520  1.00  0.00     0.040 A 
ATOM     95  F   UNL A   1      51.936  35.386  27.921  1.00  0.00    -0.206 F 
ATOM     96  C   UNL A   1      53.358  37.367  25.244  1.00  0.00     0.006 A 
ENDBRANCH  72  89
ENDBRANCH  46  47
ENDBRANCH  38  41
ENDBRANCH  36  37
ENDBRANCH  35  36
ENDBRANCH  34  35
ENDBRANCH   3  34
TORSDOF 15
ENDMDL
MODEL 3
REMARK VINA RESULT:     -11.8      6.616     12.786
REMARK SMILES CC1=C(C(=O)OCC(C)C)[C@@H](c2ccc(C(=O)NCCCNC(=O)c3ccc(-c4c5nc(c(-c6c(F)cccc6F)c6ccc([nH]6)c(-c6c(F)cccc6F)c6nc(c(-c7c(F)cccc7F)c7ccc4[nH]7)C=C6)C=C5)cc3)cc2)c2c(n(C)c(=O)n(C)c2=O)N1
REMARK SMILES IDX 16 1 17 2 18 3 15 5 12 6 13 7 80 8 14 9 79 10 11 11 1 12
REMARK SMILES IDX 2 13 3 14 91 15 82 16 81 18 83 19 89 20 84 21 85 22 87 23
REMARK SMILES IDX 90 24 86 25 88 26 4 27 5 28 6 29 7 30 8 31 9 32 10 33 19 34
REMARK SMILES IDX 20 35 21 36 22 37 23 38 24 40 25 41 26 42 78 43 27 44 77 45
REMARK SMILES IDX 28 46 29 47 30 48 71 49 31 50 76 51 70 52 72 53 32 54 75 55
REMARK SMILES IDX 69 56 68 57 33 59 59 60 42 61 58 62 43 63 46 64 57 65 73 66
REMARK SMILES IDX 44 67 45 68 56 70 74 71 47 72 34 73 35 74 40 75 36 76 37 77
REMARK SMILES IDX 39 78 41 79 38 80 60 81 61 82 66 83 62 84 63 85 65 86 67 87
REMARK SMILES IDX 64 88 48 89 49 90 54 91 50 92 51 93 53 94 55 95 52 96
REMARK H PARENT 18 4 91 17 22 39 72 58 46 69
REMARK Flexibility Score: inf
ROOT
ATOM      1  C   UNL A   1      37.810  34.098  29.686  1.00  0.00     0.251 C 
ATOM      2  O   UNL A   1      38.817  34.156  28.978  1.00  0.00    -0.269 OA
ATOM      3  N   UNL A   1      36.642  34.568  29.147  1.00  0.00    -0.352 N 
ATOM      4  H   UNL A   1      36.738  34.912  28.230  1.00  0.00     0.163 HD
ENDROOT
BRANCH   1   5
ATOM      5  C   UNL A   1      37.908  33.479  31.037  1.00  0.00     0.039 A 
ATOM      6  C   UNL A   1      38.313  32.392  33.616  1.00  0.00    -0.035 A 
ATOM      7  C   UNL A   1      38.998  33.549  33.213  1.00  0.00     0.005 A 
ATOM      8  C   UNL A   1      37.383  31.824  32.738  1.00  0.00     0.005 A 
ATOM      9  C   UNL A   1      38.803  34.077  31.936  1.00  0.00     0.014 A 
ATOM     10  C   UNL A   1      37.166  32.379  31.474  1.00  0.00     0.014 A 
BRANCH   6  11
ATOM     11  C   UNL A   1      38.547  31.759  34.991  1.00  0.00     0.098 C 
ATOM     12  C   UNL A   1      39.620  34.209  37.855  1.00  0.00     0.065 C 
ATOM     13  C   UNL A   1      39.587  33.151  36.784  1.00  0.00     0.025 C 
ATOM     14  C   UNL A   1      38.484  32.831  36.070  1.00  0.00     0.068 C 
ATOM     15  N   UNL A   1      40.766  32.449  36.571  1.00  0.00    -0.344 N 
ATOM     16  C   UNL A   1      40.908  31.339  35.749  1.00  0.00     0.123 A 
ATOM     17  H   UNL A   1      41.570  32.766  37.044  1.00  0.00     0.168 HD
ATOM     18  C   UNL A   1      39.851  30.975  35.002  1.00  0.00     0.071 A 
ATOM     19  N   UNL A   1      42.082  30.605  35.673  1.00  0.00    -0.282 N 
ATOM     20  C   UNL A   1      39.921  29.771  34.149  1.00  0.00     0.262 A 
ATOM     21  C   UNL A   1      43.206  30.952  36.536  1.00  0.00     0.157 C 
ATOM     22  C   UNL A   1      42.260  29.543  34.789  1.00  0.00     0.332 A 
ATOM     23  N   UNL A   1      41.167  29.205  34.008  1.00  0.00    -0.263 N 
ATOM     24  O   UNL A   1      38.902  29.326  33.624  1.00  0.00    -0.269 OA
ATOM     25  O   UNL A   1      43.322  28.921  34.709  1.00  0.00    -0.247 OA
ATOM     26  C   UNL A   1      41.331  28.107  33.074  1.00  0.00     0.158 C 
BRANCH  14  27
ATOM     27  C   UNL A   1      37.134  33.418  36.265  1.00  0.00     0.336 C 
ATOM     28  O   UNL A   1      36.402  33.089  37.183  1.00  0.00    -0.246 OA
BRANCH  27  29
ATOM     29  O   UNL A   1      36.825  34.285  35.270  1.00  0.00    -0.462 OA
BRANCH  29  30
ATOM     30  C   UNL A   1      35.427  34.552  35.066  1.00  0.00     0.236 C 
BRANCH  30  31
ATOM     31  C   UNL A   1      35.074  34.474  33.574  1.00  0.00     0.021 C 
ATOM     32  C   UNL A   1      34.054  33.373  33.285  1.00  0.00     0.011 C 
ATOM     33  C   UNL A   1      34.546  35.820  33.083  1.00  0.00     0.011 C 
ENDBRANCH  30  31
ENDBRANCH  29  30
ENDBRANCH  27  29
ENDBRANCH  14  27
ENDBRANCH   6  11
ENDBRANCH   1   5
BRANCH   3  34
ATOM     34  C   UNL A   1      35.291  34.659  29.665  1.00  0.00     0.118 C 
BRANCH  34  35
ATOM     35  C   UNL A   1      34.596  33.300  29.600  1.00  0.00     0.042 C 
BRANCH  35  36
ATOM     36  C   UNL A   1      34.748  32.622  28.241  1.00  0.00     0.118 C 
BRANCH  36  37
ATOM     37  N   UNL A   1      34.003  31.373  28.178  1.00  0.00    -0.352 N 
ATOM     38  C   UNL A   1      34.455  30.088  28.023  1.00  0.00     0.251 C 
ATOM     39  H   UNL A   1      33.026  31.464  28.258  1.00  0.00     0.163 HD
ATOM     40  O   UNL A   1      33.668  29.197  27.718  1.00  0.00    -0.269 OA
BRANCH  38  41
ATOM     41  C   UNL A   1      35.882  29.771  28.228  1.00  0.00     0.039 A 
ATOM     42  C   UNL A   1      36.309  29.362  29.494  1.00  0.00     0.014 A 
ATOM     43  C   UNL A   1      36.809  29.931  27.193  1.00  0.00     0.014 A 
ATOM     44  C   UNL A   1      37.658  29.077  29.712  1.00  0.00     0.010 A 
ATOM     45  C   UNL A   1      38.139  29.578  27.390  1.00  0.00     0.010 A 
ATOM     46  C   UNL A   1      38.579  29.163  28.655  1.00  0.00    -0.014 A 
BRANCH  46  47
ATOM     47  C   UNL A   1      40.014  28.857  28.864  1.00  0.00     0.031 A 
ATOM     48  C   UNL A   1      40.926  29.902  29.447  1.00  0.00     0.074 A 
ATOM     49  C   UNL A   1      40.501  27.657  28.495  1.00  0.00     0.049 A 
ATOM     50  N   UNL A   1      42.217  29.849  29.653  1.00  0.00    -0.248 NA
ATOM     51  C   UNL A   1      40.309  31.182  29.831  1.00  0.00     0.031 C 
ATOM     52  C   UNL A   1      39.717  26.575  27.897  1.00  0.00     0.029 A 
ATOM     53  N   UNL A   1      41.771  27.146  28.568  1.00  0.00    -0.354 N 
ATOM     54  C   UNL A   1      42.563  31.084  30.187  1.00  0.00     0.074 A 
ATOM     55  C   UNL A   1      41.362  31.887  30.217  1.00  0.00     0.031 C 
ATOM     56  C   UNL A   1      40.517  25.518  27.687  1.00  0.00     0.029 A 
ATOM     57  C   UNL A   1      41.876  25.860  28.096  1.00  0.00     0.049 A 
ATOM     58  H   UNL A   1      42.536  27.653  28.925  1.00  0.00     0.167 HD
ATOM     59  C   UNL A   1      43.770  31.497  30.639  1.00  0.00     0.037 A 
ATOM     60  C   UNL A   1      42.947  25.051  28.002  1.00  0.00     0.037 A 
ATOM     61  C   UNL A   1      44.957  30.685  30.627  1.00  0.00     0.049 A 
ATOM     62  C   UNL A   1      44.285  25.551  28.475  1.00  0.00     0.074 A 
ATOM     63  C   UNL A   1      46.220  31.001  31.094  1.00  0.00     0.029 A 
ATOM     64  N   UNL A   1      45.025  29.394  30.127  1.00  0.00    -0.354 N 
ATOM     65  N   UNL A   1      44.590  26.705  29.017  1.00  0.00    -0.248 NA
ATOM     66  C   UNL A   1      45.427  24.638  28.325  1.00  0.00     0.031 C 
ATOM     67  C   UNL A   1      47.064  29.917  30.837  1.00  0.00     0.029 A 
ATOM     68  C   UNL A   1      46.314  28.907  30.254  1.00  0.00     0.049 A 
ATOM     69  H   UNL A   1      44.268  28.897  29.738  1.00  0.00     0.167 HD
ATOM     70  C   UNL A   1      45.950  26.649  29.293  1.00  0.00     0.074 A 
ATOM     71  C   UNL A   1      46.408  25.339  28.877  1.00  0.00     0.031 C 
ATOM     72  C   UNL A   1      46.749  27.598  29.841  1.00  0.00     0.037 A 
BRANCH  59  73
ATOM     73  C   UNL A   1      43.866  32.883  31.208  1.00  0.00     0.057 A 
ATOM     74  C   UNL A   1      44.139  33.991  30.394  1.00  0.00     0.134 A 
ATOM     75  C   UNL A   1      43.617  33.124  32.564  1.00  0.00     0.134 A 
ATOM     76  F   UNL A   1      44.399  33.828  29.088  1.00  0.00    -0.206 F 
ATOM     77  C   UNL A   1      44.173  35.287  30.912  1.00  0.00     0.040 A 
ATOM     78  C   UNL A   1      43.622  34.418  33.088  1.00  0.00     0.040 A 
ATOM     79  F   UNL A   1      43.345  32.109  33.398  1.00  0.00    -0.206 F 
ATOM     80  C   UNL A   1      43.903  35.504  32.261  1.00  0.00     0.006 A 
ENDBRANCH  59  73
BRANCH  60  81
ATOM     81  C   UNL A   1      42.796  23.674  27.466  1.00  0.00     0.057 A 
ATOM     82  C   UNL A   1      42.933  23.417  26.097  1.00  0.00     0.134 A 
ATOM     83  C   UNL A   1      42.514  22.585  28.299  1.00  0.00     0.134 A 
ATOM     84  F   UNL A   1      43.185  24.421  25.243  1.00  0.00    -0.206 F 
ATOM     85  C   UNL A   1      42.784  22.132  25.574  1.00  0.00     0.040 A 
ATOM     86  C   UNL A   1      42.387  21.290  27.795  1.00  0.00     0.040 A 
ATOM     87  F   UNL A   1      42.376  22.762  29.622  1.00  0.00    -0.206 F 
ATOM     88  C   UNL A   1      42.515  21.062  26.425  1.00  0.00     0.006 A 
ENDBRANCH  60  81
BRANCH  72  89
ATOM     89  C   UNL A   1      48.195  27.255  30.040  1.00  0.00     0.057 A 
ATOM     90  C   UNL A   1      49.171  27.611  29.102  1.00  0.00     0.134 A 
ATOM     91  C   UNL A   1      48.626  26.630  31.218  1.00  0.00     0.134 A 
ATOM     92  F   UNL A   1      48.822  28.202  27.949  1.00  0.00    -0.206 F 
ATOM     93  C   UNL A   1      50.523  27.345  29.321  1.00  0.00     0.040 A 
ATOM     94  C   UNL A   1      49.977  26.385  31.462  1.00  0.00     0.040 A 
ATOM     95  F   UNL A   1      47.742  26.273  32.162  1.00  0.00    -0.206 F 
ATOM     96  C   UNL A   1      50.931  26.740  30.510  1.00  0.00     0.006 A 
ENDBRANCH  72  89
ENDBRANCH  46  47
ENDBRANCH  38  41
ENDBRANCH  36  37
ENDBRANCH  35  36
ENDBRANCH  34  35
ENDBRANCH   3  34
TORSDOF 15
ENDMDL
