MODEL 1
REMARK VINA RESULT:     -13.3      0.000      0.000
REMARK SMILES O=C(NCCCNC(=O)c1ccc2c(c1)NC1=[NH+]S(=O)(=O)[NH+]=C1N2)c1ccc(-c2c3nc(c(-c4c(F)cccc4F)c4ccc([nH]4)c(-c4c(F)cccc4F)c4nc(c(-c5c(F)cccc5F)c5ccc2[nH]5)C=C4)C=C3)cc1
REMARK SMILES IDX 4 1 3 2 1 3 2 4 25 6 26 7 78 8 27 9 77 10 28 11 29 12 30 13
REMARK SMILES IDX 71 14 31 15 76 16 70 17 72 18 32 19 75 20 69 21 68 22 33 24
REMARK SMILES IDX 59 25 42 26 58 27 43 28 46 29 57 30 73 31 44 32 45 33 56 35
REMARK SMILES IDX 74 36 47 37 34 38 35 39 40 40 36 41 37 42 39 43 41 44 38 45
REMARK SMILES IDX 60 46 61 47 66 48 62 49 63 50 65 51 67 52 64 53 48 54 49 55
REMARK SMILES IDX 54 56 50 57 51 58 53 59 55 60 52 61 5 62 6 63 7 64 8 65 9 67
REMARK SMILES IDX 10 68 11 69 15 70 12 71 14 72 13 73 16 74 24 75 17 76 23 78
REMARK SMILES IDX 18 80 22 81 19 82 20 85 21 86
REMARK H PARENT 3 5 72 23 46 34 7 66 16 77 24 79 18 83 22 84
REMARK Flexibility Score: inf
ROOT
ATOM      1  C   UNL A   1      38.710  20.362  25.605  1.00  0.00     0.118 C 
ENDROOT
BRANCH   1   2
ATOM      2  N   UNL A   1      39.698  19.276  25.747  1.00  0.00    -0.352 N 
ATOM      3  O   UNL A   1      41.830  18.439  25.738  1.00  0.00    -0.269 OA
ATOM      4  C   UNL A   1      41.079  19.388  25.915  1.00  0.00     0.251 C 
ATOM      5  H   UNL A   1      39.339  18.359  25.721  1.00  0.00     0.163 HD
BRANCH   4   6
ATOM      6  C   UNL A   1      41.609  20.690  26.359  1.00  0.00     0.039 A 
ATOM      7  C   UNL A   1      42.007  21.743  25.534  1.00  0.00     0.014 A 
ATOM      8  C   UNL A   1      41.547  20.880  27.718  1.00  0.00     0.014 A 
ATOM      9  C   UNL A   1      42.303  22.963  26.148  1.00  0.00     0.010 A 
ATOM     10  C   UNL A   1      41.200  22.132  28.083  1.00  0.00     0.010 A 
ATOM     11  C   UNL A   1      41.919  23.124  27.484  1.00  0.00    -0.014 A 
BRANCH  11  12
ATOM     12  C   UNL A   1      42.125  24.297  28.314  1.00  0.00     0.031 A 
ATOM     13  C   UNL A   1      41.037  25.283  28.203  1.00  0.00     0.074 A 
ATOM     14  C   UNL A   1      43.109  24.371  29.248  1.00  0.00     0.049 A 
ATOM     15  N   UNL A   1      41.059  26.379  27.530  1.00  0.00    -0.248 NA
ATOM     16  C   UNL A   1      39.708  24.909  28.705  1.00  0.00     0.031 C 
ATOM     17  C   UNL A   1      44.069  23.346  29.695  1.00  0.00     0.029 A 
ATOM     18  N   UNL A   1      43.425  25.422  30.054  1.00  0.00    -0.354 N 
ATOM     19  C   UNL A   1      39.815  26.962  27.728  1.00  0.00     0.074 A 
ATOM     20  C   UNL A   1      38.968  25.922  28.250  1.00  0.00     0.031 C 
ATOM     21  C   UNL A   1      44.703  23.755  30.818  1.00  0.00     0.029 A 
ATOM     22  C   UNL A   1      44.339  25.132  31.070  1.00  0.00     0.049 A 
ATOM     23  H   UNL A   1      43.038  26.319  29.931  1.00  0.00     0.167 HD
ATOM     24  C   UNL A   1      39.683  28.317  27.696  1.00  0.00     0.037 A 
ATOM     25  C   UNL A   1      44.757  25.989  32.037  1.00  0.00     0.037 A 
ATOM     26  C   UNL A   1      40.864  28.927  27.125  1.00  0.00     0.049 A 
ATOM     27  C   UNL A   1      44.463  27.362  31.548  1.00  0.00     0.074 A 
ATOM     28  C   UNL A   1      41.488  28.862  25.894  1.00  0.00     0.029 A 
ATOM     29  N   UNL A   1      41.812  29.401  28.000  1.00  0.00    -0.354 N 
ATOM     30  N   UNL A   1      45.069  27.900  30.523  1.00  0.00    -0.248 NA
ATOM     31  C   UNL A   1      43.150  27.910  31.854  1.00  0.00     0.031 C 
ATOM     32  C   UNL A   1      42.885  28.837  26.188  1.00  0.00     0.029 A 
ATOM     33  C   UNL A   1      43.044  28.978  27.568  1.00  0.00     0.049 A 
ATOM     34  H   UNL A   1      41.639  29.949  28.800  1.00  0.00     0.167 HD
ATOM     35  C   UNL A   1      44.062  28.533  29.804  1.00  0.00     0.074 A 
ATOM     36  C   UNL A   1      42.910  28.555  30.707  1.00  0.00     0.031 C 
ATOM     37  C   UNL A   1      44.158  28.701  28.451  1.00  0.00     0.037 A 
BRANCH  24  38
ATOM     38  C   UNL A   1      38.709  29.103  28.539  1.00  0.00     0.057 A 
ATOM     39  C   UNL A   1      37.571  29.772  28.047  1.00  0.00     0.134 A 
ATOM     40  C   UNL A   1      38.743  28.932  29.936  1.00  0.00     0.134 A 
ATOM     41  F   UNL A   1      37.357  29.983  26.744  1.00  0.00    -0.206 F 
ATOM     42  C   UNL A   1      36.518  30.181  28.869  1.00  0.00     0.040 A 
ATOM     43  C   UNL A   1      37.673  29.297  30.761  1.00  0.00     0.040 A 
ATOM     44  F   UNL A   1      39.781  28.327  30.531  1.00  0.00    -0.206 F 
ATOM     45  C   UNL A   1      36.549  29.908  30.226  1.00  0.00     0.006 A 
ENDBRANCH  24  38
BRANCH  25  46
ATOM     46  C   UNL A   1      45.086  25.698  33.452  1.00  0.00     0.057 A 
ATOM     47  C   UNL A   1      46.394  25.347  33.832  1.00  0.00     0.134 A 
ATOM     48  C   UNL A   1      44.088  25.479  34.412  1.00  0.00     0.134 A 
ATOM     49  F   UNL A   1      47.413  25.446  32.966  1.00  0.00    -0.206 F 
ATOM     50  C   UNL A   1      46.690  24.793  35.082  1.00  0.00     0.040 A 
ATOM     51  C   UNL A   1      44.370  24.923  35.669  1.00  0.00     0.040 A 
ATOM     52  F   UNL A   1      42.805  25.742  34.129  1.00  0.00    -0.206 F 
ATOM     53  C   UNL A   1      45.674  24.566  36.003  1.00  0.00     0.006 A 
ENDBRANCH  25  46
BRANCH  37  54
ATOM     54  C   UNL A   1      45.479  28.371  27.801  1.00  0.00     0.057 A 
ATOM     55  C   UNL A   1      46.413  29.394  27.613  1.00  0.00     0.134 A 
ATOM     56  C   UNL A   1      45.800  27.121  27.242  1.00  0.00     0.134 A 
ATOM     57  F   UNL A   1      46.153  30.632  28.062  1.00  0.00    -0.206 F 
ATOM     58  C   UNL A   1      47.610  29.188  26.922  1.00  0.00     0.040 A 
ATOM     59  C   UNL A   1      47.009  26.892  26.575  1.00  0.00     0.040 A 
ATOM     60  F   UNL A   1      44.933  26.104  27.279  1.00  0.00    -0.206 F 
ATOM     61  C   UNL A   1      47.918  27.930  26.411  1.00  0.00     0.006 A 
ENDBRANCH  37  54
ENDBRANCH  11  12
ENDBRANCH   4   6
ENDBRANCH   1   2
BRANCH   1  62
ATOM     62  C   UNL A   1      37.613  20.103  24.598  1.00  0.00     0.042 C 
BRANCH  62  63
ATOM     63  C   UNL A   1      36.299  20.775  24.985  1.00  0.00     0.118 C 
BRANCH  63  64
ATOM     64  N   UNL A   1      35.228  19.840  25.340  1.00  0.00    -0.352 N 
ATOM     65  C   UNL A   1      33.869  19.935  25.149  1.00  0.00     0.251 C 
ATOM     66  H   UNL A   1      35.529  19.015  25.785  1.00  0.00     0.163 HD
ATOM     67  O   UNL A   1      33.109  19.100  25.627  1.00  0.00    -0.269 OA
BRANCH  65  68
ATOM     68  C   UNL A   1      33.318  21.083  24.402  1.00  0.00     0.044 A 
ATOM     69  C   UNL A   1      32.555  20.880  23.248  1.00  0.00     0.018 A 
ATOM     70  C   UNL A   1      33.618  22.374  24.842  1.00  0.00     0.070 A 
ATOM     71  C   UNL A   1      32.243  21.957  22.424  1.00  0.00     0.057 A 
ATOM     72  C   UNL A   1      33.266  23.467  24.048  1.00  0.00     0.173 A 
ATOM     73  C   UNL A   1      32.626  23.248  22.794  1.00  0.00     0.172 A 
ATOM     74  N   UNL A   1      33.617  24.774  24.438  1.00  0.00    -0.229 N 
ATOM     75  N   UNL A   1      32.387  24.325  21.924  1.00  0.00    -0.229 N 
ATOM     76  C   UNL A   1      33.419  25.838  23.602  1.00  0.00     0.383 C 
ATOM     77  H   UNL A   1      34.012  24.923  25.327  1.00  0.00     0.313 HD
ATOM     78  C   UNL A   1      32.777  25.593  22.248  1.00  0.00     0.383 C 
ATOM     79  H   UNL A   1      31.931  24.163  21.066  1.00  0.00     0.313 HD
ATOM     80  N   UNL A   1      33.713  27.074  23.793  1.00  0.00    -0.122 N 
ATOM     81  N   UNL A   1      32.674  26.662  21.544  1.00  0.00    -0.122 N 
ATOM     82  S   UNL A   1      33.307  27.885  22.429  1.00  0.00     0.469 S 
ATOM     83  H   UNL A   1      34.109  27.461  24.607  1.00  0.00     0.331 HD
ATOM     84  H   UNL A   1      32.286  26.733  20.641  1.00  0.00     0.331 HD
ATOM     85  O   UNL A   1      32.230  28.810  22.752  1.00  0.00    -0.143 OA
ATOM     86  O   UNL A   1      34.511  28.335  21.790  1.00  0.00    -0.143 OA
ENDBRANCH  65  68
ENDBRANCH  63  64
ENDBRANCH  62  63
ENDBRANCH   1  62
TORSDOF 10
ENDMDL
MODEL 2
REMARK VINA RESULT:     -13.0      4.230      9.294
REMARK SMILES O=C(NCCCNC(=O)c1ccc2c(c1)NC1=[NH+]S(=O)(=O)[NH+]=C1N2)c1ccc(-c2c3nc(c(-c4c(F)cccc4F)c4ccc([nH]4)c(-c4c(F)cccc4F)c4nc(c(-c5c(F)cccc5F)c5ccc2[nH]5)C=C4)C=C3)cc1
REMARK SMILES IDX 4 1 3 2 1 3 2 4 25 6 26 7 78 8 27 9 77 10 28 11 29 12 30 13
REMARK SMILES IDX 71 14 31 15 76 16 70 17 72 18 32 19 75 20 69 21 68 22 33 24
REMARK SMILES IDX 59 25 42 26 58 27 43 28 46 29 57 30 73 31 44 32 45 33 56 35
REMARK SMILES IDX 74 36 47 37 34 38 35 39 40 40 36 41 37 42 39 43 41 44 38 45
REMARK SMILES IDX 60 46 61 47 66 48 62 49 63 50 65 51 67 52 64 53 48 54 49 55
REMARK SMILES IDX 54 56 50 57 51 58 53 59 55 60 52 61 5 62 6 63 7 64 8 65 9 67
REMARK SMILES IDX 10 68 11 69 15 70 12 71 14 72 13 73 16 74 24 75 17 76 23 78
REMARK SMILES IDX 18 80 22 81 19 82 20 85 21 86
REMARK H PARENT 3 5 72 23 46 34 7 66 16 77 24 79 18 83 22 84
REMARK Flexibility Score: inf
ROOT
ATOM      1  C   UNL A   1      32.668  32.617  27.224  1.00  0.00     0.118 C 
ENDROOT
BRANCH   1   2
ATOM      2  N   UNL A   1      32.434  34.004  27.667  1.00  0.00    -0.352 N 
ATOM      3  O   UNL A   1      32.560  35.712  29.188  1.00  0.00    -0.269 OA
ATOM      4  C   UNL A   1      33.027  34.674  28.739  1.00  0.00     0.251 C 
ATOM      5  H   UNL A   1      31.780  34.521  27.143  1.00  0.00     0.163 HD
BRANCH   4   6
ATOM      6  C   UNL A   1      34.272  34.111  29.291  1.00  0.00     0.039 A 
ATOM      7  C   UNL A   1      34.369  33.214  30.356  1.00  0.00     0.014 A 
ATOM      8  C   UNL A   1      35.393  34.421  28.562  1.00  0.00     0.014 A 
ATOM      9  C   UNL A   1      35.623  32.652  30.608  1.00  0.00     0.010 A 
ATOM     10  C   UNL A   1      36.275  33.406  28.450  1.00  0.00     0.010 A 
ATOM     11  C   UNL A   1      36.610  32.805  29.628  1.00  0.00    -0.014 A 
BRANCH  11  12
ATOM     12  C   UNL A   1      37.973  32.310  29.679  1.00  0.00     0.031 A 
ATOM     13  C   UNL A   1      38.104  30.925  29.196  1.00  0.00     0.074 A 
ATOM     14  C   UNL A   1      39.037  33.112  29.943  1.00  0.00     0.049 A 
ATOM     15  N   UNL A   1      38.229  29.867  29.918  1.00  0.00    -0.248 NA
ATOM     16  C   UNL A   1      37.843  30.658  27.775  1.00  0.00     0.031 C 
ATOM     17  C   UNL A   1      39.097  34.574  30.128  1.00  0.00     0.029 A 
ATOM     18  N   UNL A   1      40.348  32.762  30.056  1.00  0.00    -0.354 N 
ATOM     19  C   UNL A   1      38.312  28.811  29.020  1.00  0.00     0.074 A 
ATOM     20  C   UNL A   1      37.841  29.324  27.761  1.00  0.00     0.031 C 
ATOM     21  C   UNL A   1      40.382  34.996  30.117  1.00  0.00     0.029 A 
ATOM     22  C   UNL A   1      41.242  33.832  30.111  1.00  0.00     0.049 A 
ATOM     23  H   UNL A   1      40.643  31.823  30.095  1.00  0.00     0.167 HD
ATOM     24  C   UNL A   1      39.020  27.695  29.344  1.00  0.00     0.037 A 
ATOM     25  C   UNL A   1      42.596  33.741  30.154  1.00  0.00     0.037 A 
ATOM     26  C   UNL A   1      39.316  27.676  30.760  1.00  0.00     0.049 A 
ATOM     27  C   UNL A   1      42.918  32.363  30.612  1.00  0.00     0.074 A 
ATOM     28  C   UNL A   1      38.549  27.640  31.909  1.00  0.00     0.029 A 
ATOM     29  N   UNL A   1      40.552  28.134  31.150  1.00  0.00    -0.354 N 
ATOM     30  N   UNL A   1      42.645  31.929  31.814  1.00  0.00    -0.248 NA
ATOM     31  C   UNL A   1      43.040  31.334  29.590  1.00  0.00     0.031 C 
ATOM     32  C   UNL A   1      39.205  28.523  32.819  1.00  0.00     0.029 A 
ATOM     33  C   UNL A   1      40.379  28.980  32.217  1.00  0.00     0.049 A 
ATOM     34  H   UNL A   1      41.414  27.897  30.736  1.00  0.00     0.167 HD
ATOM     35  C   UNL A   1      42.141  30.648  31.626  1.00  0.00     0.074 A 
ATOM     36  C   UNL A   1      42.466  30.314  30.238  1.00  0.00     0.031 C 
ATOM     37  C   UNL A   1      41.245  30.105  32.504  1.00  0.00     0.037 A 
BRANCH  24  38
ATOM     38  C   UNL A   1      39.794  26.855  28.357  1.00  0.00     0.057 A 
ATOM     39  C   UNL A   1      39.473  25.530  27.997  1.00  0.00     0.134 A 
ATOM     40  C   UNL A   1      40.716  27.496  27.509  1.00  0.00     0.134 A 
ATOM     41  F   UNL A   1      38.586  24.788  28.668  1.00  0.00    -0.206 F 
ATOM     42  C   UNL A   1      39.978  24.914  26.850  1.00  0.00     0.040 A 
ATOM     43  C   UNL A   1      41.190  26.905  26.333  1.00  0.00     0.040 A 
ATOM     44  F   UNL A   1      41.117  28.753  27.753  1.00  0.00    -0.206 F 
ATOM     45  C   UNL A   1      40.808  25.615  25.991  1.00  0.00     0.006 A 
ENDBRANCH  24  38
BRANCH  25  46
ATOM     46  C   UNL A   1      43.605  34.632  29.534  1.00  0.00     0.057 A 
ATOM     47  C   UNL A   1      44.087  35.763  30.216  1.00  0.00     0.134 A 
ATOM     48  C   UNL A   1      43.908  34.565  28.166  1.00  0.00     0.134 A 
ATOM     49  F   UNL A   1      43.793  35.965  31.509  1.00  0.00    -0.206 F 
ATOM     50  C   UNL A   1      44.809  36.776  29.576  1.00  0.00     0.040 A 
ATOM     51  C   UNL A   1      44.629  35.574  27.511  1.00  0.00     0.040 A 
ATOM     52  F   UNL A   1      43.456  33.547  27.421  1.00  0.00    -0.206 F 
ATOM     53  C   UNL A   1      45.072  36.691  28.213  1.00  0.00     0.006 A 
ENDBRANCH  25  46
BRANCH  37  54
ATOM     54  C   UNL A   1      40.989  30.853  33.789  1.00  0.00     0.057 A 
ATOM     55  C   UNL A   1      41.740  30.524  34.922  1.00  0.00     0.134 A 
ATOM     56  C   UNL A   1      39.949  31.779  33.975  1.00  0.00     0.134 A 
ATOM     57  F   UNL A   1      42.712  29.603  34.840  1.00  0.00    -0.206 F 
ATOM     58  C   UNL A   1      41.486  31.096  36.171  1.00  0.00     0.040 A 
ATOM     59  C   UNL A   1      39.702  32.383  35.214  1.00  0.00     0.040 A 
ATOM     60  F   UNL A   1      39.109  32.086  32.981  1.00  0.00    -0.206 F 
ATOM     61  C   UNL A   1      40.472  32.039  36.319  1.00  0.00     0.006 A 
ENDBRANCH  37  54
ENDBRANCH  11  12
ENDBRANCH   4   6
ENDBRANCH   1   2
BRANCH   1  62
ATOM     62  C   UNL A   1      31.433  31.872  26.772  1.00  0.00     0.042 C 
BRANCH  62  63
ATOM     63  C   UNL A   1      31.772  30.624  25.960  1.00  0.00     0.118 C 
BRANCH  63  64
ATOM     64  N   UNL A   1      30.874  30.381  24.829  1.00  0.00    -0.352 N 
ATOM     65  C   UNL A   1      30.803  29.311  23.968  1.00  0.00     0.251 C 
ATOM     66  H   UNL A   1      30.218  31.096  24.659  1.00  0.00     0.163 HD
ATOM     67  O   UNL A   1      30.059  29.338  22.994  1.00  0.00    -0.269 OA
BRANCH  65  68
ATOM     68  C   UNL A   1      31.671  28.138  24.192  1.00  0.00     0.044 A 
ATOM     69  C   UNL A   1      32.914  28.042  23.556  1.00  0.00     0.018 A 
ATOM     70  C   UNL A   1      31.204  27.105  25.007  1.00  0.00     0.070 A 
ATOM     71  C   UNL A   1      33.614  26.840  23.581  1.00  0.00     0.057 A 
ATOM     72  C   UNL A   1      31.925  25.911  25.080  1.00  0.00     0.173 A 
ATOM     73  C   UNL A   1      33.112  25.758  24.307  1.00  0.00     0.172 A 
ATOM     74  N   UNL A   1      31.439  24.831  25.842  1.00  0.00    -0.229 N 
ATOM     75  N   UNL A   1      33.773  24.520  24.265  1.00  0.00    -0.229 N 
ATOM     76  C   UNL A   1      32.049  23.607  25.802  1.00  0.00     0.383 C 
ATOM     77  H   UNL A   1      30.649  24.960  26.414  1.00  0.00     0.313 HD
ATOM     78  C   UNL A   1      33.287  23.437  24.941  1.00  0.00     0.383 C 
ATOM     79  H   UNL A   1      34.600  24.430  23.738  1.00  0.00     0.313 HD
ATOM     80  N   UNL A   1      31.713  22.524  26.405  1.00  0.00    -0.122 N 
ATOM     81  N   UNL A   1      33.747  22.238  24.961  1.00  0.00    -0.122 N 
ATOM     82  S   UNL A   1      32.767  21.362  25.935  1.00  0.00     0.469 S 
ATOM     83  H   UNL A   1      30.962  22.413  27.031  1.00  0.00     0.331 HD
ATOM     84  H   UNL A   1      34.541  21.908  24.481  1.00  0.00     0.331 HD
ATOM     85  O   UNL A   1      33.540  20.949  27.097  1.00  0.00    -0.143 OA
ATOM     86  O   UNL A   1      32.061  20.405  25.129  1.00  0.00    -0.143 OA
ENDBRANCH  65  68
ENDBRANCH  63  64
ENDBRANCH  62  63
ENDBRANCH   1  62
TORSDOF 10
ENDMDL
MODEL 3
REMARK VINA RESULT:     -13.0      5.701     10.780
REMARK SMILES O=C(NCCCNC(=O)c1ccc2c(c1)NC1=[NH+]S(=O)(=O)[NH+]=C1N2)c1ccc(-c2c3nc(c(-c4c(F)cccc4F)c4ccc([nH]4)c(-c4c(F)cccc4F)c4nc(c(-c5c(F)cccc5F)c5ccc2[nH]5)C=C4)C=C3)cc1
REMARK SMILES IDX 4 1 3 2 1 3 2 4 25 6 26 7 78 8 27 9 77 10 28 11 29 12 30 13
REMARK SMILES IDX 71 14 31 15 76 16 70 17 72 18 32 19 75 20 69 21 68 22 33 24
REMARK SMILES IDX 59 25 42 26 58 27 43 28 46 29 57 30 73 31 44 32 45 33 56 35
REMARK SMILES IDX 74 36 47 37 34 38 35 39 40 40 36 41 37 42 39 43 41 44 38 45
REMARK SMILES IDX 60 46 61 47 66 48 62 49 63 50 65 51 67 52 64 53 48 54 49 55
REMARK SMILES IDX 54 56 50 57 51 58 53 59 55 60 52 61 5 62 6 63 7 64 8 65 9 67
REMARK SMILES IDX 10 68 11 69 15 70 12 71 14 72 13 73 16 74 24 75 17 76 23 78
REMARK SMILES IDX 18 80 22 81 19 82 20 85 21 86
REMARK H PARENT 3 5 72 23 46 34 7 66 16 77 24 79 18 83 22 84
REMARK Flexibility Score: inf
ROOT
ATOM      1  C   UNL A   1      34.982  32.421  30.938  1.00  0.00     0.118 C 
ENDROOT
BRANCH   1   2
ATOM      2  N   UNL A   1      34.408  31.981  29.652  1.00  0.00    -0.352 N 
ATOM      3  O   UNL A   1      34.529  31.518  27.412  1.00  0.00    -0.269 OA
ATOM      4  C   UNL A   1      35.088  31.588  28.498  1.00  0.00     0.251 C 
ATOM      5  H   UNL A   1      33.425  31.962  29.601  1.00  0.00     0.163 HD
BRANCH   4   6
ATOM      6  C   UNL A   1      36.508  31.214  28.637  1.00  0.00     0.039 A 
ATOM      7  C   UNL A   1      37.510  31.989  29.223  1.00  0.00     0.014 A 
ATOM      8  C   UNL A   1      36.779  29.919  28.268  1.00  0.00     0.014 A 
ATOM      9  C   UNL A   1      38.752  31.381  29.427  1.00  0.00     0.010 A 
ATOM     10  C   UNL A   1      37.670  29.296  29.066  1.00  0.00     0.010 A 
ATOM     11  C   UNL A   1      38.822  29.990  29.294  1.00  0.00    -0.014 A 
BRANCH  11  12
ATOM     12  C   UNL A   1      39.999  29.157  29.457  1.00  0.00     0.031 A 
ATOM     13  C   UNL A   1      40.261  28.796  30.861  1.00  0.00     0.074 A 
ATOM     14  C   UNL A   1      40.656  28.601  28.408  1.00  0.00     0.049 A 
ATOM     15  N   UNL A   1      41.144  29.319  31.637  1.00  0.00    -0.248 NA
ATOM     16  C   UNL A   1      39.297  27.923  31.544  1.00  0.00     0.031 C 
ATOM     17  C   UNL A   1      40.324  28.608  26.971  1.00  0.00     0.029 A 
ATOM     18  N   UNL A   1      41.785  27.839  28.430  1.00  0.00    -0.354 N 
ATOM     19  C   UNL A   1      41.010  28.659  32.851  1.00  0.00     0.074 A 
ATOM     20  C   UNL A   1      39.733  27.997  32.804  1.00  0.00     0.031 C 
ATOM     21  C   UNL A   1      41.101  27.723  26.305  1.00  0.00     0.029 A 
ATOM     22  C   UNL A   1      42.105  27.222  27.219  1.00  0.00     0.049 A 
ATOM     23  H   UNL A   1      42.335  27.731  29.240  1.00  0.00     0.167 HD
ATOM     24  C   UNL A   1      42.089  28.501  33.665  1.00  0.00     0.037 A 
ATOM     25  C   UNL A   1      43.136  26.364  27.007  1.00  0.00     0.037 A 
ATOM     26  C   UNL A   1      43.170  29.365  33.244  1.00  0.00     0.049 A 
ATOM     27  C   UNL A   1      44.106  26.580  28.113  1.00  0.00     0.074 A 
ATOM     28  C   UNL A   1      43.331  30.733  33.135  1.00  0.00     0.029 A 
ATOM     29  N   UNL A   1      44.145  28.810  32.448  1.00  0.00    -0.354 N 
ATOM     30  N   UNL A   1      44.787  27.685  28.260  1.00  0.00    -0.248 NA
ATOM     31  C   UNL A   1      43.915  25.799  29.326  1.00  0.00     0.031 C 
ATOM     32  C   UNL A   1      44.062  30.924  31.923  1.00  0.00     0.029 A 
ATOM     33  C   UNL A   1      44.387  29.669  31.405  1.00  0.00     0.049 A 
ATOM     34  H   UNL A   1      44.591  27.945  32.599  1.00  0.00     0.167 HD
ATOM     35  C   UNL A   1      44.737  27.958  29.621  1.00  0.00     0.074 A 
ATOM     36  C   UNL A   1      44.237  26.727  30.235  1.00  0.00     0.031 C 
ATOM     37  C   UNL A   1      44.809  29.241  30.088  1.00  0.00     0.037 A 
BRANCH  24  38
ATOM     38  C   UNL A   1      42.325  27.305  34.554  1.00  0.00     0.057 A 
ATOM     39  C   UNL A   1      43.107  26.184  34.209  1.00  0.00     0.134 A 
ATOM     40  C   UNL A   1      42.008  27.413  35.921  1.00  0.00     0.134 A 
ATOM     41  F   UNL A   1      43.533  25.949  32.964  1.00  0.00    -0.206 F 
ATOM     42  C   UNL A   1      43.590  25.277  35.156  1.00  0.00     0.040 A 
ATOM     43  C   UNL A   1      42.526  26.537  36.882  1.00  0.00     0.040 A 
ATOM     44  F   UNL A   1      41.254  28.425  36.375  1.00  0.00    -0.206 F 
ATOM     45  C   UNL A   1      43.333  25.475  36.503  1.00  0.00     0.006 A 
ENDBRANCH  24  38
BRANCH  25  46
ATOM     46  C   UNL A   1      43.186  25.178  26.121  1.00  0.00     0.057 A 
ATOM     47  C   UNL A   1      42.373  24.056  26.368  1.00  0.00     0.134 A 
ATOM     48  C   UNL A   1      44.217  24.994  25.189  1.00  0.00     0.134 A 
ATOM     49  F   UNL A   1      41.405  24.098  27.294  1.00  0.00    -0.206 F 
ATOM     50  C   UNL A   1      42.586  22.822  25.744  1.00  0.00     0.040 A 
ATOM     51  C   UNL A   1      44.443  23.762  24.557  1.00  0.00     0.040 A 
ATOM     52  F   UNL A   1      45.071  25.991  24.917  1.00  0.00    -0.206 F 
ATOM     53  C   UNL A   1      43.633  22.667  24.843  1.00  0.00     0.006 A 
ENDBRANCH  25  46
BRANCH  37  54
ATOM     54  C   UNL A   1      45.158  30.324  29.097  1.00  0.00     0.057 A 
ATOM     55  C   UNL A   1      46.494  30.715  28.968  1.00  0.00     0.134 A 
ATOM     56  C   UNL A   1      44.214  31.074  28.375  1.00  0.00     0.134 A 
ATOM     57  F   UNL A   1      47.449  30.088  29.672  1.00  0.00    -0.206 F 
ATOM     58  C   UNL A   1      46.878  31.782  28.152  1.00  0.00     0.040 A 
ATOM     59  C   UNL A   1      44.587  32.125  27.530  1.00  0.00     0.040 A 
ATOM     60  F   UNL A   1      42.903  30.846  28.506  1.00  0.00    -0.206 F 
ATOM     61  C   UNL A   1      45.926  32.485  27.419  1.00  0.00     0.006 A 
ENDBRANCH  37  54
ENDBRANCH  11  12
ENDBRANCH   4   6
ENDBRANCH   1   2
BRANCH   1  62
ATOM     62  C   UNL A   1      34.797  33.888  31.253  1.00  0.00     0.042 C 
BRANCH  62  63
ATOM     63  C   UNL A   1      35.803  34.391  32.284  1.00  0.00     0.118 C 
BRANCH  63  64
ATOM     64  N   UNL A   1      37.149  34.615  31.751  1.00  0.00    -0.352 N 
ATOM     65  C   UNL A   1      38.366  34.153  32.197  1.00  0.00     0.251 C 
ATOM     66  H   UNL A   1      37.188  35.184  30.949  1.00  0.00     0.163 HD
ATOM     67  O   UNL A   1      39.410  34.548  31.689  1.00  0.00    -0.269 OA
BRANCH  65  68
ATOM     68  C   UNL A   1      38.416  33.212  33.332  1.00  0.00     0.044 A 
ATOM     69  C   UNL A   1      38.638  31.848  33.116  1.00  0.00     0.018 A 
ATOM     70  C   UNL A   1      38.186  33.702  34.620  1.00  0.00     0.070 A 
ATOM     71  C   UNL A   1      38.447  30.941  34.153  1.00  0.00     0.057 A 
ATOM     72  C   UNL A   1      38.042  32.804  35.679  1.00  0.00     0.173 A 
ATOM     73  C   UNL A   1      38.114  31.403  35.427  1.00  0.00     0.172 A 
ATOM     74  N   UNL A   1      37.743  33.271  36.973  1.00  0.00    -0.229 N 
ATOM     75  N   UNL A   1      37.839  30.486  36.455  1.00  0.00    -0.229 N 
ATOM     76  C   UNL A   1      37.448  32.402  37.987  1.00  0.00     0.383 C 
ATOM     77  H   UNL A   1      37.747  34.239  37.151  1.00  0.00     0.313 HD
ATOM     78  C   UNL A   1      37.481  30.911  37.703  1.00  0.00     0.383 C 
ATOM     79  H   UNL A   1      37.904  29.520  36.273  1.00  0.00     0.313 HD
ATOM     80  N   UNL A   1      37.124  32.666  39.202  1.00  0.00    -0.122 N 
ATOM     81  N   UNL A   1      37.155  30.201  38.723  1.00  0.00    -0.122 N 
ATOM     82  S   UNL A   1      36.821  31.238  39.944  1.00  0.00     0.469 S 
ATOM     83  H   UNL A   1      37.068  33.560  39.609  1.00  0.00     0.331 HD
ATOM     84  H   UNL A   1      37.114  29.218  38.763  1.00  0.00     0.331 HD
ATOM     85  O   UNL A   1      37.821  31.044  40.985  1.00  0.00    -0.143 OA
ATOM     86  O   UNL A   1      35.417  31.164  40.235  1.00  0.00    -0.143 OA
ENDBRANCH  65  68
ENDBRANCH  63  64
ENDBRANCH  62  63
ENDBRANCH   1  62
TORSDOF 10
ENDMDL
