MODEL 1
REMARK VINA RESULT:     -14.6      0.000      0.000
REMARK SMILES C[C@H]1[C@H](C)CC[C@@]2(C(=O)NCCCNC(=O)c3ccc(-c4c5nc(c(-c6c(F)cccc6F)c6ccc([nH]6)c(-c6c(F)cccc6F)c6nc(c(-c7c(F)cccc7F)c7ccc4[nH]7)C=C6)C=C5)cc3)CC[C@@]3(C)C(=CC[C@@H]4[C@@]5(C)CC[C@H](O)C(C)(C)[C@@H]5CC[C@]43C)[C@H]12
REMARK SMILES IDX 12 1 11 2 10 3 8 4 9 5 7 7 1 8 2 9 3 10 93 11 4 12 5 13
REMARK SMILES IDX 75 14 6 15 71 16 73 17 76 18 72 19 74 20 91 21 77 22 78 23
REMARK SMILES IDX 90 24 92 25 79 26 89 27 80 28 81 29 88 30 82 31 85 32 83 33
REMARK SMILES IDX 86 34 87 35 84 36 13 38 14 39 15 40 16 42 17 43 18 44 70 45
REMARK SMILES IDX 19 46 69 47 20 48 21 49 22 50 63 51 23 52 68 53 62 54 64 55
REMARK SMILES IDX 24 56 67 57 61 58 60 59 25 61 51 62 34 63 50 64 35 65 38 66
REMARK SMILES IDX 49 67 65 68 36 69 37 70 48 72 66 73 39 74 26 75 27 76 32 77
REMARK SMILES IDX 28 78 29 79 31 80 33 81 30 82 52 83 53 84 58 85 54 86 55 87
REMARK SMILES IDX 57 88 59 89 56 90 40 91 41 92 46 93 42 94 43 95 45 96 47 97
REMARK SMILES IDX 44 98
REMARK H PARENT 10 6 84 37 14 41 64 60 38 71
REMARK Flexibility Score: inf
ROOT
ATOM      1  C   UNL A   1      34.054  30.407  27.622  1.00  0.00     0.042 C 
ENDROOT
BRANCH   1   2
ATOM      2  C   UNL A   1      34.389  29.186  26.766  1.00  0.00     0.117 C 
BRANCH   2   3
ATOM      3  N   UNL A   1      34.037  29.334  25.367  1.00  0.00    -0.356 N 
ATOM      4  C   UNL A   1      32.881  29.135  24.675  1.00  0.00     0.226 C 
ATOM      5  O   UNL A   1      33.074  28.897  23.474  1.00  0.00    -0.274 OA
ATOM      6  H   UNL A   1      34.784  29.637  24.804  1.00  0.00     0.163 HD
BRANCH   4   7
ATOM      7  C   UNL A   1      31.420  29.232  25.257  1.00  0.00     0.056 C 
ATOM      8  C   UNL A   1      28.778  28.954  22.322  1.00  0.00     0.008 C 
ATOM      9  C   UNL A   1      29.904  29.577  23.170  1.00  0.00    -0.003 C 
ATOM     10  C   UNL A   1      29.434  30.954  23.737  1.00  0.00    -0.011 C 
ATOM     11  C   UNL A   1      30.328  28.631  24.323  1.00  0.00     0.034 C 
ATOM     12  C   UNL A   1      29.206  32.008  22.638  1.00  0.00     0.008 C 
ATOM     13  C   UNL A   1      30.341  31.591  24.804  1.00  0.00     0.005 C 
ATOM     14  C   UNL A   1      30.804  27.199  24.007  1.00  0.00    -0.063 C 
ATOM     15  C   UNL A   1      31.105  30.664  25.735  1.00  0.00     0.018 C 
ATOM     16  C   UNL A   1      31.366  28.349  26.568  1.00  0.00     0.018 C 
ATOM     17  C   UNL A   1      30.709  26.188  25.187  1.00  0.00    -0.006 C 
ATOM     18  C   UNL A   1      31.502  26.928  22.886  1.00  0.00    -0.027 C 
ATOM     19  C   UNL A   1      31.471  26.821  26.399  1.00  0.00     0.013 C 
ATOM     20  C   UNL A   1      29.226  26.004  25.605  1.00  0.00     0.017 C 
ATOM     21  C   UNL A   1      31.345  24.738  24.785  1.00  0.00    -0.020 C 
ATOM     22  C   UNL A   1      32.412  25.743  22.723  1.00  0.00     0.032 C 
ATOM     23  C   UNL A   1      32.715  25.049  24.074  1.00  0.00     0.006 C 
ATOM     24  C   UNL A   1      31.546  23.819  26.019  1.00  0.00     0.008 C 
ATOM     25  C   UNL A   1      30.377  23.963  23.837  1.00  0.00     0.012 C 
ATOM     26  C   UNL A   1      33.845  23.934  24.038  1.00  0.00    -0.025 C 
ATOM     27  C   UNL A   1      32.455  22.618  25.745  1.00  0.00     0.005 C 
ATOM     28  C   UNL A   1      33.696  23.066  22.773  1.00  0.00     0.012 C 
ATOM     29  C   UNL A   1      35.230  24.659  23.978  1.00  0.00     0.010 C 
ATOM     30  C   UNL A   1      33.858  23.122  25.385  1.00  0.00     0.003 C 
ATOM     31  C   UNL A   1      36.433  23.726  24.106  1.00  0.00     0.033 C 
ATOM     32  C   UNL A   1      35.021  22.069  25.545  1.00  0.00    -0.006 C 
ATOM     33  C   UNL A   1      36.374  22.819  25.339  1.00  0.00     0.120 C 
ATOM     34  C   UNL A   1      34.897  20.831  24.630  1.00  0.00     0.014 C 
ATOM     35  C   UNL A   1      35.033  21.503  26.994  1.00  0.00     0.014 C 
BRANCH  33  36
ATOM     36  O   UNL A   1      37.473  21.909  25.296  1.00  0.00    -0.393 OA
ATOM     37  H   UNL A   1      38.163  22.263  24.712  1.00  0.00     0.210 HD
ENDBRANCH  33  36
ENDBRANCH   4   7
ENDBRANCH   2   3
ENDBRANCH   1   2
BRANCH   1  38
ATOM     38  C   UNL A   1      35.285  31.032  28.282  1.00  0.00     0.118 C 
BRANCH  38  39
ATOM     39  N   UNL A   1      35.382  30.827  29.726  1.00  0.00    -0.352 N 
ATOM     40  C   UNL A   1      36.328  30.220  30.523  1.00  0.00     0.251 C 
ATOM     41  H   UNL A   1      34.621  31.197  30.230  1.00  0.00     0.163 HD
ATOM     42  O   UNL A   1      36.136  30.151  31.735  1.00  0.00    -0.269 OA
BRANCH  40  43
ATOM     43  C   UNL A   1      37.529  29.578  29.941  1.00  0.00     0.039 A 
ATOM     44  C   UNL A   1      37.833  29.801  28.592  1.00  0.00     0.014 A 
ATOM     45  C   UNL A   1      38.373  28.779  30.702  1.00  0.00     0.014 A 
ATOM     46  C   UNL A   1      39.044  29.342  28.062  1.00  0.00     0.010 A 
ATOM     47  C   UNL A   1      39.632  28.445  30.219  1.00  0.00     0.010 A 
ATOM     48  C   UNL A   1      39.994  28.733  28.895  1.00  0.00    -0.014 A 
BRANCH  48  49
ATOM     49  C   UNL A   1      41.374  28.405  28.438  1.00  0.00     0.031 A 
ATOM     50  C   UNL A   1      41.710  27.003  27.995  1.00  0.00     0.074 A 
ATOM     51  C   UNL A   1      42.356  29.322  28.552  1.00  0.00     0.049 A 
ATOM     52  N   UNL A   1      42.881  26.459  27.777  1.00  0.00    -0.248 NA
ATOM     53  C   UNL A   1      40.581  26.072  27.836  1.00  0.00     0.031 C 
ATOM     54  C   UNL A   1      42.189  30.696  29.035  1.00  0.00     0.029 A 
ATOM     55  N   UNL A   1      43.701  29.232  28.287  1.00  0.00    -0.354 N 
ATOM     56  C   UNL A   1      42.630  25.117  27.515  1.00  0.00     0.074 A 
ATOM     57  C   UNL A   1      41.206  24.918  27.660  1.00  0.00     0.031 C 
ATOM     58  C   UNL A   1      43.373  31.327  28.996  1.00  0.00     0.029 A 
ATOM     59  C   UNL A   1      44.393  30.393  28.539  1.00  0.00     0.049 A 
ATOM     60  H   UNL A   1      44.128  28.412  27.948  1.00  0.00     0.167 HD
ATOM     61  C   UNL A   1      43.503  24.144  27.158  1.00  0.00     0.037 A 
ATOM     62  C   UNL A   1      45.707  30.671  28.425  1.00  0.00     0.037 A 
ATOM     63  C   UNL A   1      44.906  24.365  26.935  1.00  0.00     0.049 A 
ATOM     64  C   UNL A   1      46.646  29.593  27.962  1.00  0.00     0.074 A 
ATOM     65  C   UNL A   1      45.861  23.470  26.483  1.00  0.00     0.029 A 
ATOM     66  N   UNL A   1      45.553  25.576  27.131  1.00  0.00    -0.354 N 
ATOM     67  N   UNL A   1      46.385  28.342  27.668  1.00  0.00    -0.248 NA
ATOM     68  C   UNL A   1      48.059  29.965  27.812  1.00  0.00     0.031 C 
ATOM     69  C   UNL A   1      47.091  24.134  26.428  1.00  0.00     0.029 A 
ATOM     70  C   UNL A   1      46.894  25.452  26.809  1.00  0.00     0.049 A 
ATOM     71  H   UNL A   1      45.122  26.402  27.449  1.00  0.00     0.167 HD
ATOM     72  C   UNL A   1      47.594  27.787  27.269  1.00  0.00     0.074 A 
ATOM     73  C   UNL A   1      48.585  28.840  27.348  1.00  0.00     0.031 C 
ATOM     74  C   UNL A   1      47.860  26.518  26.875  1.00  0.00     0.037 A 
BRANCH  61  75
ATOM     75  C   UNL A   1      42.954  22.758  26.962  1.00  0.00     0.057 A 
ATOM     76  C   UNL A   1      42.613  21.937  28.046  1.00  0.00     0.134 A 
ATOM     77  C   UNL A   1      42.749  22.244  25.676  1.00  0.00     0.134 A 
ATOM     78  F   UNL A   1      42.794  22.363  29.305  1.00  0.00    -0.206 F 
ATOM     79  C   UNL A   1      42.128  20.641  27.858  1.00  0.00     0.040 A 
ATOM     80  C   UNL A   1      42.233  20.961  25.475  1.00  0.00     0.040 A 
ATOM     81  F   UNL A   1      43.042  22.978  24.592  1.00  0.00    -0.206 F 
ATOM     82  C   UNL A   1      41.932  20.152  26.568  1.00  0.00     0.006 A 
ENDBRANCH  61  75
BRANCH  62  83
ATOM     83  C   UNL A   1      46.207  32.040  28.716  1.00  0.00     0.057 A 
ATOM     84  C   UNL A   1      46.607  32.395  30.009  1.00  0.00     0.134 A 
ATOM     85  C   UNL A   1      46.295  33.021  27.722  1.00  0.00     0.134 A 
ATOM     86  F   UNL A   1      46.530  31.501  31.007  1.00  0.00    -0.206 F 
ATOM     87  C   UNL A   1      47.057  33.680  30.311  1.00  0.00     0.040 A 
ATOM     88  C   UNL A   1      46.768  34.304  28.004  1.00  0.00     0.040 A 
ATOM     89  F   UNL A   1      45.939  32.742  26.460  1.00  0.00    -0.206 F 
ATOM     90  C   UNL A   1      47.143  34.640  29.304  1.00  0.00     0.006 A 
ENDBRANCH  62  83
BRANCH  74  91
ATOM     91  C   UNL A   1      49.265  26.211  26.454  1.00  0.00     0.057 A 
ATOM     92  C   UNL A   1      49.744  26.533  25.178  1.00  0.00     0.134 A 
ATOM     93  C   UNL A   1      50.165  25.630  27.358  1.00  0.00     0.134 A 
ATOM     94  F   UNL A   1      48.927  27.078  24.264  1.00  0.00    -0.206 F 
ATOM     95  C   UNL A   1      51.063  26.270  24.809  1.00  0.00     0.040 A 
ATOM     96  C   UNL A   1      51.493  25.386  27.008  1.00  0.00     0.040 A 
ATOM     97  F   UNL A   1      49.770  25.306  28.599  1.00  0.00    -0.206 F 
ATOM     98  C   UNL A   1      51.944  25.703  25.729  1.00  0.00     0.006 A 
ENDBRANCH  74  91
ENDBRANCH  48  49
ENDBRANCH  40  43
ENDBRANCH  38  39
ENDBRANCH   1  38
TORSDOF 11
ENDMDL
MODEL 2
REMARK VINA RESULT:     -14.6      4.774      9.956
REMARK SMILES C[C@H]1[C@H](C)CC[C@@]2(C(=O)NCCCNC(=O)c3ccc(-c4c5nc(c(-c6c(F)cccc6F)c6ccc([nH]6)c(-c6c(F)cccc6F)c6nc(c(-c7c(F)cccc7F)c7ccc4[nH]7)C=C6)C=C5)cc3)CC[C@@]3(C)C(=CC[C@@H]4[C@@]5(C)CC[C@H](O)C(C)(C)[C@@H]5CC[C@]43C)[C@H]12
REMARK SMILES IDX 12 1 11 2 10 3 8 4 9 5 7 7 1 8 2 9 3 10 93 11 4 12 5 13
REMARK SMILES IDX 75 14 6 15 71 16 73 17 76 18 72 19 74 20 91 21 77 22 78 23
REMARK SMILES IDX 90 24 92 25 79 26 89 27 80 28 81 29 88 30 82 31 85 32 83 33
REMARK SMILES IDX 86 34 87 35 84 36 13 38 14 39 15 40 16 42 17 43 18 44 70 45
REMARK SMILES IDX 19 46 69 47 20 48 21 49 22 50 63 51 23 52 68 53 62 54 64 55
REMARK SMILES IDX 24 56 67 57 61 58 60 59 25 61 51 62 34 63 50 64 35 65 38 66
REMARK SMILES IDX 49 67 65 68 36 69 37 70 48 72 66 73 39 74 26 75 27 76 32 77
REMARK SMILES IDX 28 78 29 79 31 80 33 81 30 82 52 83 53 84 58 85 54 86 55 87
REMARK SMILES IDX 57 88 59 89 56 90 40 91 41 92 46 93 42 94 43 95 45 96 47 97
REMARK SMILES IDX 44 98
REMARK H PARENT 10 6 84 37 14 41 64 60 38 71
REMARK Flexibility Score: inf
ROOT
ATOM      1  C   UNL A   1      37.885  23.702  25.340  1.00  0.00     0.042 C 
ENDROOT
BRANCH   1   2
ATOM      2  C   UNL A   1      36.479  24.016  25.850  1.00  0.00     0.117 C 
BRANCH   2   3
ATOM      3  N   UNL A   1      35.846  22.914  26.549  1.00  0.00    -0.356 N 
ATOM      4  C   UNL A   1      35.125  21.838  26.125  1.00  0.00     0.226 C 
ATOM      5  O   UNL A   1      34.362  21.398  26.998  1.00  0.00    -0.274 OA
ATOM      6  H   UNL A   1      35.959  22.951  27.525  1.00  0.00     0.163 HD
BRANCH   4   7
ATOM      7  C   UNL A   1      35.233  21.142  24.716  1.00  0.00     0.056 C 
ATOM      8  C   UNL A   1      32.122  18.761  24.147  1.00  0.00     0.008 C 
ATOM      9  C   UNL A   1      33.437  19.259  24.776  1.00  0.00    -0.003 C 
ATOM     10  C   UNL A   1      34.554  18.186  24.575  1.00  0.00    -0.011 C 
ATOM     11  C   UNL A   1      33.874  20.617  24.168  1.00  0.00     0.034 C 
ATOM     12  C   UNL A   1      34.277  16.881  25.343  1.00  0.00     0.008 C 
ATOM     13  C   UNL A   1      35.986  18.628  24.922  1.00  0.00     0.005 C 
ATOM     14  C   UNL A   1      32.917  21.825  24.220  1.00  0.00    -0.063 C 
ATOM     15  C   UNL A   1      36.355  20.086  24.701  1.00  0.00     0.018 C 
ATOM     16  C   UNL A   1      35.697  22.238  23.674  1.00  0.00     0.018 C 
ATOM     17  C   UNL A   1      33.195  22.943  23.173  1.00  0.00    -0.006 C 
ATOM     18  C   UNL A   1      32.091  22.015  25.269  1.00  0.00    -0.027 C 
ATOM     19  C   UNL A   1      34.696  23.357  23.328  1.00  0.00     0.013 C 
ATOM     20  C   UNL A   1      33.006  22.381  21.739  1.00  0.00     0.017 C 
ATOM     21  C   UNL A   1      32.206  24.225  23.390  1.00  0.00    -0.020 C 
ATOM     22  C   UNL A   1      31.513  23.347  25.660  1.00  0.00     0.032 C 
ATOM     23  C   UNL A   1      32.216  24.523  24.936  1.00  0.00     0.006 C 
ATOM     24  C   UNL A   1      32.659  25.465  22.573  1.00  0.00     0.008 C 
ATOM     25  C   UNL A   1      30.766  23.893  22.885  1.00  0.00     0.012 C 
ATOM     26  C   UNL A   1      31.836  25.975  25.453  1.00  0.00    -0.025 C 
ATOM     27  C   UNL A   1      31.987  26.768  23.018  1.00  0.00     0.005 C 
ATOM     28  C   UNL A   1      30.320  26.065  25.720  1.00  0.00     0.012 C 
ATOM     29  C   UNL A   1      32.590  26.215  26.802  1.00  0.00     0.010 C 
ATOM     30  C   UNL A   1      32.388  27.070  24.467  1.00  0.00     0.003 C 
ATOM     31  C   UNL A   1      32.462  27.636  27.349  1.00  0.00     0.033 C 
ATOM     32  C   UNL A   1      32.202  28.567  24.926  1.00  0.00    -0.006 C 
ATOM     33  C   UNL A   1      32.851  28.717  26.337  1.00  0.00     0.120 C 
ATOM     34  C   UNL A   1      30.743  29.071  24.900  1.00  0.00     0.014 C 
ATOM     35  C   UNL A   1      32.976  29.518  23.968  1.00  0.00     0.014 C 
BRANCH  33  36
ATOM     36  O   UNL A   1      32.578  29.999  26.903  1.00  0.00    -0.393 OA
ATOM     37  H   UNL A   1      31.967  29.899  27.649  1.00  0.00     0.210 HD
ENDBRANCH  33  36
ENDBRANCH   4   7
ENDBRANCH   2   3
ENDBRANCH   1   2
BRANCH   1  38
ATOM     38  C   UNL A   1      38.786  23.081  26.409  1.00  0.00     0.118 C 
BRANCH  38  39
ATOM     39  N   UNL A   1      40.219  23.158  26.130  1.00  0.00    -0.352 N 
ATOM     40  C   UNL A   1      41.189  24.075  26.471  1.00  0.00     0.251 C 
ATOM     41  H   UNL A   1      40.558  22.406  25.592  1.00  0.00     0.163 HD
ATOM     42  O   UNL A   1      42.337  23.914  26.061  1.00  0.00    -0.269 OA
BRANCH  40  43
ATOM     43  C   UNL A   1      40.862  25.290  27.252  1.00  0.00     0.039 A 
ATOM     44  C   UNL A   1      39.893  25.209  28.261  1.00  0.00     0.014 A 
ATOM     45  C   UNL A   1      41.506  26.500  27.027  1.00  0.00     0.014 A 
ATOM     46  C   UNL A   1      39.683  26.295  29.118  1.00  0.00     0.010 A 
ATOM     47  C   UNL A   1      41.399  27.525  27.959  1.00  0.00     0.010 A 
ATOM     48  C   UNL A   1      40.497  27.434  29.028  1.00  0.00    -0.014 A 
BRANCH  48  49
ATOM     49  C   UNL A   1      40.457  28.534  30.033  1.00  0.00     0.031 A 
ATOM     50  C   UNL A   1      41.384  28.505  31.222  1.00  0.00     0.074 A 
ATOM     51  C   UNL A   1      39.498  29.480  29.957  1.00  0.00     0.049 A 
ATOM     52  N   UNL A   1      41.360  29.230  32.311  1.00  0.00    -0.248 NA
ATOM     53  C   UNL A   1      42.443  27.482  31.210  1.00  0.00     0.031 C 
ATOM     54  C   UNL A   1      38.488  29.587  28.901  1.00  0.00     0.029 A 
ATOM     55  N   UNL A   1      39.204  30.525  30.798  1.00  0.00    -0.354 N 
ATOM     56  C   UNL A   1      42.356  28.712  33.132  1.00  0.00     0.074 A 
ATOM     57  C   UNL A   1      42.924  27.577  32.440  1.00  0.00     0.031 C 
ATOM     58  C   UNL A   1      37.712  30.658  29.137  1.00  0.00     0.029 A 
ATOM     59  C   UNL A   1      38.131  31.281  30.385  1.00  0.00     0.049 A 
ATOM     60  H   UNL A   1      39.713  30.715  31.618  1.00  0.00     0.167 HD
ATOM     61  C   UNL A   1      42.780  29.157  34.339  1.00  0.00     0.037 A 
ATOM     62  C   UNL A   1      37.544  32.351  30.956  1.00  0.00     0.037 A 
ATOM     63  C   UNL A   1      42.268  30.335  34.986  1.00  0.00     0.049 A 
ATOM     64  C   UNL A   1      38.075  32.868  32.262  1.00  0.00     0.074 A 
ATOM     65  C   UNL A   1      42.689  30.926  36.165  1.00  0.00     0.029 A 
ATOM     66  N   UNL A   1      41.230  31.114  34.496  1.00  0.00    -0.354 N 
ATOM     67  N   UNL A   1      39.052  32.398  33.000  1.00  0.00    -0.248 NA
ATOM     68  C   UNL A   1      37.426  34.065  32.814  1.00  0.00     0.031 C 
ATOM     69  C   UNL A   1      41.891  32.050  36.400  1.00  0.00     0.029 A 
ATOM     70  C   UNL A   1      40.997  32.180  35.349  1.00  0.00     0.049 A 
ATOM     71  H   UNL A   1      40.734  30.937  33.664  1.00  0.00     0.167 HD
ATOM     72  C   UNL A   1      39.155  33.258  34.086  1.00  0.00     0.074 A 
ATOM     73  C   UNL A   1      38.148  34.284  33.904  1.00  0.00     0.031 C 
ATOM     74  C   UNL A   1      40.004  33.202  35.139  1.00  0.00     0.037 A 
BRANCH  61  75
ATOM     75  C   UNL A   1      43.869  28.378  35.022  1.00  0.00     0.057 A 
ATOM     76  C   UNL A   1      45.226  28.627  34.772  1.00  0.00     0.134 A 
ATOM     77  C   UNL A   1      43.559  27.378  35.952  1.00  0.00     0.134 A 
ATOM     78  F   UNL A   1      45.593  29.564  33.885  1.00  0.00    -0.206 F 
ATOM     79  C   UNL A   1      46.232  27.883  35.390  1.00  0.00     0.040 A 
ATOM     80  C   UNL A   1      44.558  26.649  36.601  1.00  0.00     0.040 A 
ATOM     81  F   UNL A   1      42.282  27.093  36.249  1.00  0.00    -0.206 F 
ATOM     82  C   UNL A   1      45.899  26.893  36.313  1.00  0.00     0.006 A 
ENDBRANCH  61  75
BRANCH  62  83
ATOM     83  C   UNL A   1      36.412  33.031  30.274  1.00  0.00     0.057 A 
ATOM     84  C   UNL A   1      35.093  32.818  30.693  1.00  0.00     0.134 A 
ATOM     85  C   UNL A   1      36.612  33.900  29.196  1.00  0.00     0.134 A 
ATOM     86  F   UNL A   1      34.837  31.983  31.711  1.00  0.00    -0.206 F 
ATOM     87  C   UNL A   1      34.013  33.426  30.054  1.00  0.00     0.040 A 
ATOM     88  C   UNL A   1      35.543  34.536  28.562  1.00  0.00     0.040 A 
ATOM     89  F   UNL A   1      37.851  34.156  28.752  1.00  0.00    -0.206 F 
ATOM     90  C   UNL A   1      34.236  34.293  28.986  1.00  0.00     0.006 A 
ENDBRANCH  62  83
BRANCH  74  91
ATOM     91  C   UNL A   1      39.915  34.304  36.152  1.00  0.00     0.057 A 
ATOM     92  C   UNL A   1      39.157  34.175  37.321  1.00  0.00     0.134 A 
ATOM     93  C   UNL A   1      40.641  35.489  35.974  1.00  0.00     0.134 A 
ATOM     94  F   UNL A   1      38.430  33.069  37.541  1.00  0.00    -0.206 F 
ATOM     95  C   UNL A   1      39.107  35.196  38.271  1.00  0.00     0.040 A 
ATOM     96  C   UNL A   1      40.618  36.506  36.929  1.00  0.00     0.040 A 
ATOM     97  F   UNL A   1      41.394  35.671  34.879  1.00  0.00    -0.206 F 
ATOM     98  C   UNL A   1      39.846  36.362  38.080  1.00  0.00     0.006 A 
ENDBRANCH  74  91
ENDBRANCH  48  49
ENDBRANCH  40  43
ENDBRANCH  38  39
ENDBRANCH   1  38
TORSDOF 11
ENDMDL
MODEL 3
REMARK VINA RESULT:     -14.6      0.540      5.779
REMARK SMILES C[C@H]1[C@H](C)CC[C@@]2(C(=O)NCCCNC(=O)c3ccc(-c4c5nc(c(-c6c(F)cccc6F)c6ccc([nH]6)c(-c6c(F)cccc6F)c6nc(c(-c7c(F)cccc7F)c7ccc4[nH]7)C=C6)C=C5)cc3)CC[C@@]3(C)C(=CC[C@@H]4[C@@]5(C)CC[C@H](O)C(C)(C)[C@@H]5CC[C@]43C)[C@H]12
REMARK SMILES IDX 12 1 11 2 10 3 8 4 9 5 7 7 1 8 2 9 3 10 93 11 4 12 5 13
REMARK SMILES IDX 75 14 6 15 71 16 73 17 76 18 72 19 74 20 91 21 77 22 78 23
REMARK SMILES IDX 90 24 92 25 79 26 89 27 80 28 81 29 88 30 82 31 85 32 83 33
REMARK SMILES IDX 86 34 87 35 84 36 13 38 14 39 15 40 16 42 17 43 18 44 70 45
REMARK SMILES IDX 19 46 69 47 20 48 21 49 22 50 63 51 23 52 68 53 62 54 64 55
REMARK SMILES IDX 24 56 67 57 61 58 60 59 25 61 51 62 34 63 50 64 35 65 38 66
REMARK SMILES IDX 49 67 65 68 36 69 37 70 48 72 66 73 39 74 26 75 27 76 32 77
REMARK SMILES IDX 28 78 29 79 31 80 33 81 30 82 52 83 53 84 58 85 54 86 55 87
REMARK SMILES IDX 57 88 59 89 56 90 40 91 41 92 46 93 42 94 43 95 45 96 47 97
REMARK SMILES IDX 44 98
REMARK H PARENT 10 6 84 37 14 41 64 60 38 71
REMARK Flexibility Score: inf
ROOT
ATOM      1  C   UNL A   1      33.899  29.509  27.626  1.00  0.00     0.042 C 
ENDROOT
BRANCH   1   2
ATOM      2  C   UNL A   1      34.384  28.578  26.515  1.00  0.00     0.117 C 
BRANCH   2   3
ATOM      3  N   UNL A   1      34.019  29.014  25.181  1.00  0.00    -0.356 N 
ATOM      4  C   UNL A   1      32.836  29.050  24.507  1.00  0.00     0.226 C 
ATOM      5  O   UNL A   1      32.983  29.024  23.277  1.00  0.00    -0.274 OA
ATOM      6  H   UNL A   1      34.780  29.350  24.657  1.00  0.00     0.163 HD
BRANCH   4   7
ATOM      7  C   UNL A   1      31.402  29.164  25.150  1.00  0.00     0.056 C 
ATOM      8  C   UNL A   1      28.634  28.843  22.339  1.00  0.00     0.008 C 
ATOM      9  C   UNL A   1      29.798  29.476  23.125  1.00  0.00    -0.003 C 
ATOM     10  C   UNL A   1      29.359  30.866  23.685  1.00  0.00    -0.011 C 
ATOM     11  C   UNL A   1      30.269  28.551  24.276  1.00  0.00     0.034 C 
ATOM     12  C   UNL A   1      29.087  31.900  22.578  1.00  0.00     0.008 C 
ATOM     13  C   UNL A   1      30.314  31.518  24.700  1.00  0.00     0.005 C 
ATOM     14  C   UNL A   1      30.725  27.111  23.967  1.00  0.00    -0.063 C 
ATOM     15  C   UNL A   1      31.114  30.606  25.614  1.00  0.00     0.018 C 
ATOM     16  C   UNL A   1      31.403  28.306  26.479  1.00  0.00     0.018 C 
ATOM     17  C   UNL A   1      30.678  26.122  25.169  1.00  0.00    -0.006 C 
ATOM     18  C   UNL A   1      31.373  26.816  22.822  1.00  0.00    -0.027 C 
ATOM     19  C   UNL A   1      31.494  26.775  26.334  1.00  0.00     0.013 C 
ATOM     20  C   UNL A   1      29.214  25.953  25.655  1.00  0.00     0.017 C 
ATOM     21  C   UNL A   1      31.290  24.662  24.768  1.00  0.00    -0.020 C 
ATOM     22  C   UNL A   1      32.271  25.623  22.642  1.00  0.00     0.032 C 
ATOM     23  C   UNL A   1      32.630  24.954  23.992  1.00  0.00     0.006 C 
ATOM     24  C   UNL A   1      31.542  23.765  26.009  1.00  0.00     0.008 C 
ATOM     25  C   UNL A   1      30.279  23.874  23.878  1.00  0.00     0.012 C 
ATOM     26  C   UNL A   1      33.753  23.833  23.928  1.00  0.00    -0.025 C 
ATOM     27  C   UNL A   1      32.434  22.555  25.719  1.00  0.00     0.005 C 
ATOM     28  C   UNL A   1      33.546  22.942  22.687  1.00  0.00     0.012 C 
ATOM     29  C   UNL A   1      35.137  24.550  23.795  1.00  0.00     0.010 C 
ATOM     30  C   UNL A   1      33.822  23.047  25.289  1.00  0.00     0.003 C 
ATOM     31  C   UNL A   1      36.341  23.614  23.888  1.00  0.00     0.033 C 
ATOM     32  C   UNL A   1      34.987  21.992  25.418  1.00  0.00    -0.006 C 
ATOM     33  C   UNL A   1      36.332  22.732  25.139  1.00  0.00     0.120 C 
ATOM     34  C   UNL A   1      34.818  20.738  24.533  1.00  0.00     0.014 C 
ATOM     35  C   UNL A   1      35.060  21.453  26.876  1.00  0.00     0.014 C 
BRANCH  33  36
ATOM     36  O   UNL A   1      37.425  21.816  25.065  1.00  0.00    -0.393 OA
ATOM     37  H   UNL A   1      38.038  21.985  25.797  1.00  0.00     0.210 HD
ENDBRANCH  33  36
ENDBRANCH   4   7
ENDBRANCH   2   3
ENDBRANCH   1   2
BRANCH   1  38
ATOM     38  C   UNL A   1      34.750  30.773  27.762  1.00  0.00     0.118 C 
BRANCH  38  39
ATOM     39  N   UNL A   1      34.954  31.235  29.135  1.00  0.00    -0.352 N 
ATOM     40  C   UNL A   1      35.990  31.074  30.030  1.00  0.00     0.251 C 
ATOM     41  H   UNL A   1      34.205  31.765  29.489  1.00  0.00     0.163 HD
ATOM     42  O   UNL A   1      35.883  31.546  31.160  1.00  0.00    -0.269 OA
BRANCH  40  43
ATOM     43  C   UNL A   1      37.191  30.280  29.686  1.00  0.00     0.039 A 
ATOM     44  C   UNL A   1      37.670  30.308  28.370  1.00  0.00     0.014 A 
ATOM     45  C   UNL A   1      37.868  29.527  30.637  1.00  0.00     0.014 A 
ATOM     46  C   UNL A   1      38.891  29.699  28.056  1.00  0.00     0.010 A 
ATOM     47  C   UNL A   1      39.141  29.045  30.361  1.00  0.00     0.010 A 
ATOM     48  C   UNL A   1      39.680  29.135  29.070  1.00  0.00    -0.014 A 
BRANCH  48  49
ATOM     49  C   UNL A   1      41.071  28.654  28.834  1.00  0.00     0.031 A 
ATOM     50  C   UNL A   1      42.221  29.629  28.850  1.00  0.00     0.074 A 
ATOM     51  C   UNL A   1      41.286  27.374  28.467  1.00  0.00     0.049 A 
ATOM     52  N   UNL A   1      43.457  29.462  28.454  1.00  0.00    -0.248 NA
ATOM     53  C   UNL A   1      41.924  30.993  29.317  1.00  0.00     0.031 C 
ATOM     54  C   UNL A   1      40.257  26.338  28.339  1.00  0.00     0.029 A 
ATOM     55  N   UNL A   1      42.445  26.727  28.114  1.00  0.00    -0.354 N 
ATOM     56  C   UNL A   1      44.062  30.708  28.569  1.00  0.00     0.074 A 
ATOM     57  C   UNL A   1      43.043  31.632  29.014  1.00  0.00     0.031 C 
ATOM     58  C   UNL A   1      40.834  25.182  27.974  1.00  0.00     0.029 A 
ATOM     59  C   UNL A   1      42.262  25.403  27.789  1.00  0.00     0.049 A 
ATOM     60  H   UNL A   1      43.324  27.169  28.096  1.00  0.00     0.167 HD
ATOM     61  C   UNL A   1      45.356  31.048  28.352  1.00  0.00     0.037 A 
ATOM     62  C   UNL A   1      43.146  24.473  27.377  1.00  0.00     0.037 A 
ATOM     63  C   UNL A   1      46.383  30.110  27.989  1.00  0.00     0.049 A 
ATOM     64  C   UNL A   1      44.588  24.858  27.208  1.00  0.00     0.074 A 
ATOM     65  C   UNL A   1      47.741  30.332  27.834  1.00  0.00     0.029 A 
ATOM     66  N   UNL A   1      46.167  28.762  27.742  1.00  0.00    -0.354 N 
ATOM     67  N   UNL A   1      45.155  26.029  27.371  1.00  0.00    -0.248 NA
ATOM     68  C   UNL A   1      45.515  23.792  26.801  1.00  0.00     0.031 C 
ATOM     69  C   UNL A   1      48.343  29.123  27.470  1.00  0.00     0.029 A 
ATOM     70  C   UNL A   1      47.366  28.140  27.435  1.00  0.00     0.049 A 
ATOM     71  H   UNL A   1      45.291  28.314  27.780  1.00  0.00     0.167 HD
ATOM     72  C   UNL A   1      46.506  25.835  27.118  1.00  0.00     0.074 A 
ATOM     73  C   UNL A   1      46.676  24.432  26.801  1.00  0.00     0.031 C 
ATOM     74  C   UNL A   1      47.516  26.738  27.143  1.00  0.00     0.037 A 
BRANCH  61  75
ATOM     75  C   UNL A   1      45.732  32.492  28.529  1.00  0.00     0.057 A 
ATOM     76  C   UNL A   1      45.695  33.403  27.463  1.00  0.00     0.134 A 
ATOM     77  C   UNL A   1      46.120  32.984  29.781  1.00  0.00     0.134 A 
ATOM     78  F   UNL A   1      45.343  32.997  26.234  1.00  0.00    -0.206 F 
ATOM     79  C   UNL A   1      46.072  34.737  27.627  1.00  0.00     0.040 A 
ATOM     80  C   UNL A   1      46.467  34.325  29.965  1.00  0.00     0.040 A 
ATOM     81  F   UNL A   1      46.167  32.172  30.849  1.00  0.00    -0.206 F 
ATOM     82  C   UNL A   1      46.453  35.203  28.884  1.00  0.00     0.006 A 
ENDBRANCH  61  75
BRANCH  62  83
ATOM     83  C   UNL A   1      42.699  23.077  27.134  1.00  0.00     0.057 A 
ATOM     84  C   UNL A   1      42.464  22.206  28.205  1.00  0.00     0.134 A 
ATOM     85  C   UNL A   1      42.499  22.579  25.842  1.00  0.00     0.134 A 
ATOM     86  F   UNL A   1      42.654  22.621  29.466  1.00  0.00    -0.206 F 
ATOM     87  C   UNL A   1      42.067  20.884  28.001  1.00  0.00     0.040 A 
ATOM     88  C   UNL A   1      42.078  21.265  25.624  1.00  0.00     0.040 A 
ATOM     89  F   UNL A   1      42.695  23.364  24.774  1.00  0.00    -0.206 F 
ATOM     90  C   UNL A   1      41.868  20.411  26.705  1.00  0.00     0.006 A 
ENDBRANCH  62  83
BRANCH  74  91
ATOM     91  C   UNL A   1      48.899  26.229  26.867  1.00  0.00     0.057 A 
ATOM     92  C   UNL A   1      49.503  26.371  25.612  1.00  0.00     0.134 A 
ATOM     93  C   UNL A   1      49.652  25.634  27.887  1.00  0.00     0.134 A 
ATOM     94  F   UNL A   1      48.827  26.920  24.591  1.00  0.00    -0.206 F 
ATOM     95  C   UNL A   1      50.802  25.922  25.376  1.00  0.00     0.040 A 
ATOM     96  C   UNL A   1      50.961  25.204  27.670  1.00  0.00     0.040 A 
ATOM     97  F   UNL A   1      49.133  25.476  29.115  1.00  0.00    -0.206 F 
ATOM     98  C   UNL A   1      51.538  25.344  26.409  1.00  0.00     0.006 A 
ENDBRANCH  74  91
ENDBRANCH  48  49
ENDBRANCH  40  43
ENDBRANCH  38  39
ENDBRANCH   1  38
TORSDOF 11
ENDMDL
