MODEL 1
REMARK VINA RESULT:     -12.6      0.000      0.000
REMARK SMILES CCCC(=O)N(c1cc2sc(=O)oc2c2ccccc12)S(=O)(=O)c1ccc(C(=O)NCCCNC(=O)c2ccc(-c3c4nc(c(-c5c(F)cccc5F)c5ccc([nH]5)c(-c5c(F)cccc5F)c5nc(c(-c6c(F)cccc6F)c6ccc3[nH]6)C=C5)C=C4)cc2)cc1
REMARK SMILES IDX 28 1 29 2 30 3 27 5 24 6 25 7 92 8 26 9 91 10 21 11 22 12
REMARK SMILES IDX 23 13 6 14 4 15 5 16 3 17 2 18 1 19 7 20 8 21 20 22 9 23
REMARK SMILES IDX 15 24 19 25 10 26 14 27 16 28 18 29 11 30 13 31 17 32 12 33
REMARK SMILES IDX 31 34 32 35 33 36 34 37 35 38 36 40 37 41 38 42 90 43 39 44
REMARK SMILES IDX 89 45 40 46 41 47 42 48 83 49 43 50 88 51 82 52 84 53 44 54
REMARK SMILES IDX 87 55 81 56 80 57 45 59 71 60 54 61 70 62 55 63 58 64 69 65
REMARK SMILES IDX 85 66 56 67 57 68 68 70 86 71 59 72 46 73 47 74 52 75 48 76
REMARK SMILES IDX 49 77 51 78 53 79 50 80 72 81 73 82 78 83 74 84 75 85 77 86
REMARK SMILES IDX 79 87 76 88 60 89 61 90 66 91 62 92 63 93 65 94 67 95 64 96
REMARK H PARENT 30 4 34 39 84 58 58 69
REMARK Flexibility Score: inf
ROOT
ATOM      1  C   UNL A   1      32.963  28.939  24.358  1.00  0.00     0.251 C 
ATOM      2  O   UNL A   1      33.580  29.111  23.305  1.00  0.00    -0.269 OA
ATOM      3  N   UNL A   1      32.515  30.069  24.987  1.00  0.00    -0.352 N 
ATOM      4  H   UNL A   1      32.658  30.877  24.444  1.00  0.00     0.163 HD
ENDROOT
BRANCH   1   5
ATOM      5  C   UNL A   1      32.793  27.548  24.863  1.00  0.00     0.039 A 
ATOM      6  C   UNL A   1      32.277  24.906  25.665  1.00  0.00     0.088 A 
ATOM      7  C   UNL A   1      31.217  25.729  25.281  1.00  0.00     0.023 A 
ATOM      8  C   UNL A   1      33.569  25.425  25.761  1.00  0.00     0.023 A 
ATOM      9  C   UNL A   1      31.485  27.029  24.849  1.00  0.00     0.015 A 
ATOM     10  C   UNL A   1      33.810  26.756  25.402  1.00  0.00     0.015 A 
BRANCH   6  11
ATOM     11  S   UNL A   1      31.940  23.212  26.118  1.00  0.00     0.270 S 
ATOM     12  O   UNL A   1      30.535  23.170  26.444  1.00  0.00    -0.201 OA
ATOM     13  O   UNL A   1      32.960  22.856  27.095  1.00  0.00    -0.201 OA
BRANCH  11  14
ATOM     14  N   UNL A   1      32.243  22.271  24.737  1.00  0.00    -0.202 N 
BRANCH  14  15
ATOM     15  C   UNL A   1      31.870  22.795  23.458  1.00  0.00     0.241 C 
ATOM     16  O   UNL A   1      30.698  23.040  23.180  1.00  0.00    -0.273 OA
BRANCH  15  17
ATOM     17  C   UNL A   1      32.931  22.970  22.381  1.00  0.00     0.101 C 
BRANCH  17  18
ATOM     18  C   UNL A   1      33.605  24.341  22.374  1.00  0.00     0.006 C 
ATOM     19  C   UNL A   1      32.748  25.397  21.692  1.00  0.00     0.004 C 
ENDBRANCH  17  18
ENDBRANCH  15  17
ENDBRANCH  14  15
BRANCH  14  20
ATOM     20  C   UNL A   1      33.127  21.139  24.810  1.00  0.00     0.070 A 
ATOM     21  C   UNL A   1      32.525  19.870  24.799  1.00  0.00     0.051 A 
ATOM     22  C   UNL A   1      34.552  21.273  24.879  1.00  0.00     0.010 A 
ATOM     23  C   UNL A   1      33.323  18.745  24.858  1.00  0.00     0.080 A 
ATOM     24  C   UNL A   1      35.351  20.097  24.814  1.00  0.00     0.028 A 
ATOM     25  C   UNL A   1      35.228  22.513  24.960  1.00  0.00     0.011 A 
ATOM     26  S   UNL A   1      32.817  17.070  24.925  1.00  0.00    -0.052 S 
ATOM     27  C   UNL A   1      34.708  18.853  24.843  1.00  0.00     0.157 A 
ATOM     28  C   UNL A   1      36.750  20.205  24.680  1.00  0.00     0.013 A 
ATOM     29  C   UNL A   1      36.616  22.600  24.814  1.00  0.00     0.001 A 
ATOM     30  C   UNL A   1      34.521  16.600  24.912  1.00  0.00     0.396 A 
ATOM     31  O   UNL A   1      35.431  17.653  24.852  1.00  0.00    -0.413 OA
ATOM     32  C   UNL A   1      37.373  21.449  24.641  1.00  0.00     0.001 A 
ATOM     33  O   UNL A   1      34.870  15.429  24.952  1.00  0.00    -0.233 OA
ENDBRANCH  14  20
ENDBRANCH  11  14
ENDBRANCH   6  11
ENDBRANCH   1   5
BRANCH   3  34
ATOM     34  C   UNL A   1      31.877  30.368  26.261  1.00  0.00     0.118 C 
BRANCH  34  35
ATOM     35  C   UNL A   1      32.779  30.048  27.446  1.00  0.00     0.042 C 
BRANCH  35  36
ATOM     36  C   UNL A   1      34.106  30.804  27.411  1.00  0.00     0.118 C 
BRANCH  36  37
ATOM     37  N   UNL A   1      34.030  32.167  27.921  1.00  0.00    -0.352 N 
ATOM     38  C   UNL A   1      34.827  32.814  28.839  1.00  0.00     0.251 C 
ATOM     39  H   UNL A   1      33.295  32.710  27.553  1.00  0.00     0.163 HD
ATOM     40  O   UNL A   1      34.582  33.968  29.175  1.00  0.00    -0.269 OA
BRANCH  38  41
ATOM     41  C   UNL A   1      35.926  32.071  29.482  1.00  0.00     0.039 A 
ATOM     42  C   UNL A   1      35.779  31.561  30.774  1.00  0.00     0.014 A 
ATOM     43  C   UNL A   1      37.145  31.967  28.808  1.00  0.00     0.014 A 
ATOM     44  C   UNL A   1      36.889  31.102  31.462  1.00  0.00     0.010 A 
ATOM     45  C   UNL A   1      38.250  31.454  29.479  1.00  0.00     0.010 A 
ATOM     46  C   UNL A   1      38.126  31.053  30.820  1.00  0.00    -0.014 A 
BRANCH  46  47
ATOM     47  C   UNL A   1      39.202  30.386  31.566  1.00  0.00     0.031 A 
ATOM     48  C   UNL A   1      39.377  28.975  31.120  1.00  0.00     0.074 A 
ATOM     49  C   UNL A   1      40.257  31.062  32.072  1.00  0.00     0.049 A 
ATOM     50  N   UNL A   1      40.019  28.732  30.021  1.00  0.00    -0.248 NA
ATOM     51  C   UNL A   1      38.606  27.830  31.597  1.00  0.00     0.031 C 
ATOM     52  C   UNL A   1      40.748  32.348  31.555  1.00  0.00     0.029 A 
ATOM     53  N   UNL A   1      41.196  30.696  33.010  1.00  0.00    -0.354 N 
ATOM     54  C   UNL A   1      39.710  27.450  29.608  1.00  0.00     0.074 A 
ATOM     55  C   UNL A   1      38.850  26.914  30.639  1.00  0.00     0.031 C 
ATOM     56  C   UNL A   1      41.978  32.575  32.059  1.00  0.00     0.029 A 
ATOM     57  C   UNL A   1      42.310  31.532  33.030  1.00  0.00     0.049 A 
ATOM     58  H   UNL A   1      41.092  29.921  33.607  1.00  0.00     0.167 HD
ATOM     59  C   UNL A   1      40.233  26.960  28.448  1.00  0.00     0.037 A 
ATOM     60  C   UNL A   1      43.580  31.118  33.285  1.00  0.00     0.037 A 
ATOM     61  C   UNL A   1      41.108  27.856  27.719  1.00  0.00     0.049 A 
ATOM     62  C   UNL A   1      43.923  30.351  32.035  1.00  0.00     0.074 A 
ATOM     63  C   UNL A   1      41.366  28.280  26.434  1.00  0.00     0.029 A 
ATOM     64  N   UNL A   1      41.986  28.536  28.508  1.00  0.00    -0.354 N 
ATOM     65  N   UNL A   1      44.276  30.875  30.891  1.00  0.00    -0.248 NA
ATOM     66  C   UNL A   1      43.623  28.911  31.978  1.00  0.00     0.031 C 
ATOM     67  C   UNL A   1      42.444  29.236  26.512  1.00  0.00     0.029 A 
ATOM     68  C   UNL A   1      42.846  29.342  27.837  1.00  0.00     0.049 A 
ATOM     69  H   UNL A   1      41.995  28.449  29.488  1.00  0.00     0.167 HD
ATOM     70  C   UNL A   1      43.991  29.897  29.944  1.00  0.00     0.074 A 
ATOM     71  C   UNL A   1      43.764  28.669  30.680  1.00  0.00     0.031 C 
ATOM     72  C   UNL A   1      43.706  30.182  28.638  1.00  0.00     0.037 A 
BRANCH  59  73
ATOM     73  C   UNL A   1      40.255  25.529  28.075  1.00  0.00     0.057 A 
ATOM     74  C   UNL A   1      39.305  24.911  27.266  1.00  0.00     0.134 A 
ATOM     75  C   UNL A   1      41.440  24.825  28.348  1.00  0.00     0.134 A 
ATOM     76  F   UNL A   1      38.158  25.532  26.959  1.00  0.00    -0.206 F 
ATOM     77  C   UNL A   1      39.551  23.650  26.707  1.00  0.00     0.040 A 
ATOM     78  C   UNL A   1      41.704  23.580  27.784  1.00  0.00     0.040 A 
ATOM     79  F   UNL A   1      42.387  25.373  29.128  1.00  0.00    -0.206 F 
ATOM     80  C   UNL A   1      40.762  22.994  26.947  1.00  0.00     0.006 A 
ENDBRANCH  59  73
BRANCH  60  81
ATOM     81  C   UNL A   1      43.901  30.626  34.659  1.00  0.00     0.057 A 
ATOM     82  C   UNL A   1      43.379  29.462  35.239  1.00  0.00     0.134 A 
ATOM     83  C   UNL A   1      44.847  31.319  35.440  1.00  0.00     0.134 A 
ATOM     84  F   UNL A   1      42.599  28.626  34.542  1.00  0.00    -0.206 F 
ATOM     85  C   UNL A   1      43.643  29.103  36.566  1.00  0.00     0.040 A 
ATOM     86  C   UNL A   1      45.145  30.955  36.758  1.00  0.00     0.040 A 
ATOM     87  F   UNL A   1      45.518  32.365  34.931  1.00  0.00    -0.206 F 
ATOM     88  C   UNL A   1      44.513  29.863  37.337  1.00  0.00     0.006 A 
ENDBRANCH  60  81
BRANCH  72  89
ATOM     89  C   UNL A   1      44.159  31.509  28.164  1.00  0.00     0.057 A 
ATOM     90  C   UNL A   1      43.421  32.678  28.374  1.00  0.00     0.134 A 
ATOM     91  C   UNL A   1      45.377  31.618  27.481  1.00  0.00     0.134 A 
ATOM     92  F   UNL A   1      42.252  32.651  29.032  1.00  0.00    -0.206 F 
ATOM     93  C   UNL A   1      43.882  33.913  27.912  1.00  0.00     0.040 A 
ATOM     94  C   UNL A   1      45.859  32.846  27.041  1.00  0.00     0.040 A 
ATOM     95  F   UNL A   1      46.116  30.525  27.225  1.00  0.00    -0.206 F 
ATOM     96  C   UNL A   1      45.107  33.999  27.251  1.00  0.00     0.006 A 
ENDBRANCH  72  89
ENDBRANCH  46  47
ENDBRANCH  38  41
ENDBRANCH  36  37
ENDBRANCH  35  36
ENDBRANCH  34  35
ENDBRANCH   3  34
TORSDOF 16
ENDMDL
MODEL 2
REMARK VINA RESULT:     -12.4      2.674      8.182
REMARK SMILES CCCC(=O)N(c1cc2sc(=O)oc2c2ccccc12)S(=O)(=O)c1ccc(C(=O)NCCCNC(=O)c2ccc(-c3c4nc(c(-c5c(F)cccc5F)c5ccc([nH]5)c(-c5c(F)cccc5F)c5nc(c(-c6c(F)cccc6F)c6ccc3[nH]6)C=C5)C=C4)cc2)cc1
REMARK SMILES IDX 28 1 29 2 30 3 27 5 24 6 25 7 92 8 26 9 91 10 21 11 22 12
REMARK SMILES IDX 23 13 6 14 4 15 5 16 3 17 2 18 1 19 7 20 8 21 20 22 9 23
REMARK SMILES IDX 15 24 19 25 10 26 14 27 16 28 18 29 11 30 13 31 17 32 12 33
REMARK SMILES IDX 31 34 32 35 33 36 34 37 35 38 36 40 37 41 38 42 90 43 39 44
REMARK SMILES IDX 89 45 40 46 41 47 42 48 83 49 43 50 88 51 82 52 84 53 44 54
REMARK SMILES IDX 87 55 81 56 80 57 45 59 71 60 54 61 70 62 55 63 58 64 69 65
REMARK SMILES IDX 85 66 56 67 57 68 68 70 86 71 59 72 46 73 47 74 52 75 48 76
REMARK SMILES IDX 49 77 51 78 53 79 50 80 72 81 73 82 78 83 74 84 75 85 77 86
REMARK SMILES IDX 79 87 76 88 60 89 61 90 66 91 62 92 63 93 65 94 67 95 64 96
REMARK H PARENT 30 4 34 39 84 58 58 69
REMARK Flexibility Score: inf
ROOT
ATOM      1  C   UNL A   1      33.727  20.444  25.381  1.00  0.00     0.251 C 
ATOM      2  O   UNL A   1      33.256  19.310  25.493  1.00  0.00    -0.269 OA
ATOM      3  N   UNL A   1      35.066  20.570  25.635  1.00  0.00    -0.352 N 
ATOM      4  H   UNL A   1      35.500  19.698  25.773  1.00  0.00     0.163 HD
ENDROOT
BRANCH   1   5
ATOM      5  C   UNL A   1      32.811  21.562  25.020  1.00  0.00     0.039 A 
ATOM      6  C   UNL A   1      31.172  23.791  24.536  1.00  0.00     0.088 A 
ATOM      7  C   UNL A   1      31.525  23.468  25.846  1.00  0.00     0.023 A 
ATOM      8  C   UNL A   1      31.533  22.949  23.484  1.00  0.00     0.023 A 
ATOM      9  C   UNL A   1      32.369  22.381  26.077  1.00  0.00     0.015 A 
ATOM     10  C   UNL A   1      32.313  21.815  23.739  1.00  0.00     0.015 A 
BRANCH   6  11
ATOM     11  S   UNL A   1      30.176  25.243  24.238  1.00  0.00     0.270 S 
ATOM     12  O   UNL A   1      29.648  25.622  25.527  1.00  0.00    -0.201 OA
ATOM     13  O   UNL A   1      29.301  24.900  23.127  1.00  0.00    -0.201 OA
BRANCH  11  14
ATOM     14  N   UNL A   1      31.232  26.447  23.670  1.00  0.00    -0.202 N 
BRANCH  14  15
ATOM     15  C   UNL A   1      32.303  26.062  22.801  1.00  0.00     0.241 C 
ATOM     16  O   UNL A   1      32.090  25.520  21.719  1.00  0.00    -0.273 OA
BRANCH  15  17
ATOM     17  C   UNL A   1      33.742  26.241  23.262  1.00  0.00     0.101 C 
BRANCH  17  18
ATOM     18  C   UNL A   1      34.365  24.995  23.889  1.00  0.00     0.006 C 
ATOM     19  C   UNL A   1      34.619  25.170  25.380  1.00  0.00     0.004 C 
ENDBRANCH  17  18
ENDBRANCH  15  17
ENDBRANCH  14  15
BRANCH  14  20
ATOM     20  C   UNL A   1      30.880  27.836  23.792  1.00  0.00     0.070 A 
ATOM     21  C   UNL A   1      29.896  28.314  22.911  1.00  0.00     0.051 A 
ATOM     22  C   UNL A   1      31.481  28.705  24.761  1.00  0.00     0.010 A 
ATOM     23  C   UNL A   1      29.509  29.638  22.988  1.00  0.00     0.080 A 
ATOM     24  C   UNL A   1      30.975  30.028  24.896  1.00  0.00     0.028 A 
ATOM     25  C   UNL A   1      32.522  28.315  25.636  1.00  0.00     0.011 A 
ATOM     26  S   UNL A   1      28.363  30.484  21.968  1.00  0.00    -0.052 S 
ATOM     27  C   UNL A   1      30.020  30.473  23.973  1.00  0.00     0.157 A 
ATOM     28  C   UNL A   1      31.404  30.838  25.967  1.00  0.00     0.013 A 
ATOM     29  C   UNL A   1      32.926  29.129  26.698  1.00  0.00     0.001 A 
ATOM     30  C   UNL A   1      28.626  31.930  22.950  1.00  0.00     0.396 A 
ATOM     31  O   UNL A   1      29.528  31.784  24.001  1.00  0.00    -0.413 OA
ATOM     32  C   UNL A   1      32.345  30.376  26.883  1.00  0.00     0.001 A 
ATOM     33  O   UNL A   1      28.050  32.984  22.716  1.00  0.00    -0.233 OA
ENDBRANCH  14  20
ENDBRANCH  11  14
ENDBRANCH   6  11
ENDBRANCH   1   5
BRANCH   3  34
ATOM     34  C   UNL A   1      36.004  21.677  25.750  1.00  0.00     0.118 C 
BRANCH  34  35
ATOM     35  C   UNL A   1      37.252  21.465  24.904  1.00  0.00     0.042 C 
BRANCH  35  36
ATOM     36  C   UNL A   1      38.490  22.151  25.481  1.00  0.00     0.118 C 
BRANCH  36  37
ATOM     37  N   UNL A   1      39.371  21.262  26.229  1.00  0.00    -0.352 N 
ATOM     38  C   UNL A   1      40.505  21.548  26.956  1.00  0.00     0.251 C 
ATOM     39  H   UNL A   1      39.116  20.311  26.212  1.00  0.00     0.163 HD
ATOM     40  O   UNL A   1      41.143  20.650  27.495  1.00  0.00    -0.269 OA
BRANCH  38  41
ATOM     41  C   UNL A   1      40.993  22.938  27.004  1.00  0.00     0.039 A 
ATOM     42  C   UNL A   1      42.014  23.363  26.150  1.00  0.00     0.014 A 
ATOM     43  C   UNL A   1      40.478  23.793  27.981  1.00  0.00     0.014 A 
ATOM     44  C   UNL A   1      42.641  24.575  26.378  1.00  0.00     0.010 A 
ATOM     45  C   UNL A   1      41.070  25.037  28.175  1.00  0.00     0.010 A 
ATOM     46  C   UNL A   1      42.176  25.411  27.393  1.00  0.00    -0.014 A 
BRANCH  46  47
ATOM     47  C   UNL A   1      42.783  26.748  27.442  1.00  0.00     0.031 A 
ATOM     48  C   UNL A   1      41.747  27.817  27.380  1.00  0.00     0.074 A 
ATOM     49  C   UNL A   1      43.952  26.988  28.076  1.00  0.00     0.049 A 
ATOM     50  N   UNL A   1      41.072  28.109  28.447  1.00  0.00    -0.248 NA
ATOM     51  C   UNL A   1      41.147  28.351  26.160  1.00  0.00     0.031 C 
ATOM     52  C   UNL A   1      44.488  26.170  29.173  1.00  0.00     0.029 A 
ATOM     53  N   UNL A   1      44.811  28.061  28.007  1.00  0.00    -0.354 N 
ATOM     54  C   UNL A   1      39.936  28.800  28.070  1.00  0.00     0.074 A 
ATOM     55  C   UNL A   1      40.041  28.955  26.637  1.00  0.00     0.031 C 
ATOM     56  C   UNL A   1      45.477  26.855  29.780  1.00  0.00     0.029 A 
ATOM     57  C   UNL A   1      45.739  28.092  29.045  1.00  0.00     0.049 A 
ATOM     58  H   UNL A   1      44.773  28.741  27.296  1.00  0.00     0.167 HD
ATOM     59  C   UNL A   1      39.032  29.194  29.012  1.00  0.00     0.037 A 
ATOM     60  C   UNL A   1      46.209  29.229  29.625  1.00  0.00     0.037 A 
ATOM     61  C   UNL A   1      39.351  28.850  30.382  1.00  0.00     0.049 A 
ATOM     62  C   UNL A   1      45.013  29.705  30.407  1.00  0.00     0.074 A 
ATOM     63  C   UNL A   1      38.757  28.357  31.523  1.00  0.00     0.029 A 
ATOM     64  N   UNL A   1      40.658  29.051  30.714  1.00  0.00    -0.354 N 
ATOM     65  N   UNL A   1      44.614  29.229  31.557  1.00  0.00    -0.248 NA
ATOM     66  C   UNL A   1      44.052  30.611  29.757  1.00  0.00     0.031 C 
ATOM     67  C   UNL A   1      39.779  28.290  32.539  1.00  0.00     0.029 A 
ATOM     68  C   UNL A   1      40.964  28.781  32.006  1.00  0.00     0.049 A 
ATOM     69  H   UNL A   1      41.326  29.369  30.065  1.00  0.00     0.167 HD
ATOM     70  C   UNL A   1      43.267  29.567  31.640  1.00  0.00     0.074 A 
ATOM     71  C   UNL A   1      43.030  30.554  30.604  1.00  0.00     0.031 C 
ATOM     72  C   UNL A   1      42.360  28.853  32.371  1.00  0.00     0.037 A 
BRANCH  59  73
ATOM     73  C   UNL A   1      37.976  30.206  28.790  1.00  0.00     0.057 A 
ATOM     74  C   UNL A   1      36.691  29.917  28.336  1.00  0.00     0.134 A 
ATOM     75  C   UNL A   1      38.213  31.489  29.311  1.00  0.00     0.134 A 
ATOM     76  F   UNL A   1      36.396  28.709  27.838  1.00  0.00    -0.206 F 
ATOM     77  C   UNL A   1      35.664  30.864  28.445  1.00  0.00     0.040 A 
ATOM     78  C   UNL A   1      37.197  32.432  29.441  1.00  0.00     0.040 A 
ATOM     79  F   UNL A   1      39.436  31.822  29.757  1.00  0.00    -0.206 F 
ATOM     80  C   UNL A   1      35.911  32.114  29.019  1.00  0.00     0.006 A 
ENDBRANCH  59  73
BRANCH  60  81
ATOM     81  C   UNL A   1      47.065  30.141  28.808  1.00  0.00     0.057 A 
ATOM     82  C   UNL A   1      46.647  30.816  27.653  1.00  0.00     0.134 A 
ATOM     83  C   UNL A   1      48.379  30.422  29.230  1.00  0.00     0.134 A 
ATOM     84  F   UNL A   1      45.375  30.765  27.238  1.00  0.00    -0.206 F 
ATOM     85  C   UNL A   1      47.523  31.581  26.874  1.00  0.00     0.040 A 
ATOM     86  C   UNL A   1      49.258  31.210  28.479  1.00  0.00     0.040 A 
ATOM     87  F   UNL A   1      48.837  29.945  30.399  1.00  0.00    -0.206 F 
ATOM     88  C   UNL A   1      48.840  31.763  27.276  1.00  0.00     0.006 A 
ENDBRANCH  60  81
BRANCH  72  89
ATOM     89  C   UNL A   1      42.935  27.991  33.429  1.00  0.00     0.057 A 
ATOM     90  C   UNL A   1      43.405  26.699  33.177  1.00  0.00     0.134 A 
ATOM     91  C   UNL A   1      43.024  28.477  34.739  1.00  0.00     0.134 A 
ATOM     92  F   UNL A   1      43.364  26.174  31.942  1.00  0.00    -0.206 F 
ATOM     93  C   UNL A   1      43.942  25.916  34.201  1.00  0.00     0.040 A 
ATOM     94  C   UNL A   1      43.581  27.716  35.762  1.00  0.00     0.040 A 
ATOM     95  F   UNL A   1      42.562  29.700  35.047  1.00  0.00    -0.206 F 
ATOM     96  C   UNL A   1      44.037  26.428  35.495  1.00  0.00     0.006 A 
ENDBRANCH  72  89
ENDBRANCH  46  47
ENDBRANCH  38  41
ENDBRANCH  36  37
ENDBRANCH  35  36
ENDBRANCH  34  35
ENDBRANCH   3  34
TORSDOF 16
ENDMDL
MODEL 3
REMARK VINA RESULT:     -12.1      3.000      5.916
REMARK SMILES CCCC(=O)N(c1cc2sc(=O)oc2c2ccccc12)S(=O)(=O)c1ccc(C(=O)NCCCNC(=O)c2ccc(-c3c4nc(c(-c5c(F)cccc5F)c5ccc([nH]5)c(-c5c(F)cccc5F)c5nc(c(-c6c(F)cccc6F)c6ccc3[nH]6)C=C5)C=C4)cc2)cc1
REMARK SMILES IDX 28 1 29 2 30 3 27 5 24 6 25 7 92 8 26 9 91 10 21 11 22 12
REMARK SMILES IDX 23 13 6 14 4 15 5 16 3 17 2 18 1 19 7 20 8 21 20 22 9 23
REMARK SMILES IDX 15 24 19 25 10 26 14 27 16 28 18 29 11 30 13 31 17 32 12 33
REMARK SMILES IDX 31 34 32 35 33 36 34 37 35 38 36 40 37 41 38 42 90 43 39 44
REMARK SMILES IDX 89 45 40 46 41 47 42 48 83 49 43 50 88 51 82 52 84 53 44 54
REMARK SMILES IDX 87 55 81 56 80 57 45 59 71 60 54 61 70 62 55 63 58 64 69 65
REMARK SMILES IDX 85 66 56 67 57 68 68 70 86 71 59 72 46 73 47 74 52 75 48 76
REMARK SMILES IDX 49 77 51 78 53 79 50 80 72 81 73 82 78 83 74 84 75 85 77 86
REMARK SMILES IDX 79 87 76 88 60 89 61 90 66 91 62 92 63 93 65 94 67 95 64 96
REMARK H PARENT 30 4 34 39 84 58 58 69
REMARK Flexibility Score: inf
ROOT
ATOM      1  C   UNL A   1      33.363  29.181  25.660  1.00  0.00     0.251 C 
ATOM      2  O   UNL A   1      32.945  29.736  24.641  1.00  0.00    -0.269 OA
ATOM      3  N   UNL A   1      34.127  29.949  26.496  1.00  0.00    -0.352 N 
ATOM      4  H   UNL A   1      34.151  30.892  26.214  1.00  0.00     0.163 HD
ENDROOT
BRANCH   1   5
ATOM      5  C   UNL A   1      33.036  27.743  25.871  1.00  0.00     0.039 A 
ATOM      6  C   UNL A   1      32.206  25.075  26.154  1.00  0.00     0.088 A 
ATOM      7  C   UNL A   1      31.253  26.095  26.139  1.00  0.00     0.023 A 
ATOM      8  C   UNL A   1      33.566  25.385  26.145  1.00  0.00     0.023 A 
ATOM      9  C   UNL A   1      31.670  27.415  25.962  1.00  0.00     0.015 A 
ATOM     10  C   UNL A   1      33.972  26.721  26.048  1.00  0.00     0.015 A 
BRANCH   6  11
ATOM     11  S   UNL A   1      31.660  23.379  26.277  1.00  0.00     0.270 S 
ATOM     12  O   UNL A   1      30.223  23.442  26.397  1.00  0.00    -0.201 OA
ATOM     13  O   UNL A   1      32.485  22.773  27.312  1.00  0.00    -0.201 OA
BRANCH  11  14
ATOM     14  N   UNL A   1      32.085  22.625  24.815  1.00  0.00    -0.202 N 
BRANCH  14  15
ATOM     15  C   UNL A   1      31.846  23.326  23.590  1.00  0.00     0.241 C 
ATOM     16  O   UNL A   1      30.718  23.693  23.268  1.00  0.00    -0.273 OA
BRANCH  15  17
ATOM     17  C   UNL A   1      32.995  23.545  22.616  1.00  0.00     0.101 C 
BRANCH  17  18
ATOM     18  C   UNL A   1      32.899  24.835  21.805  1.00  0.00     0.006 C 
ATOM     19  C   UNL A   1      33.544  26.013  22.523  1.00  0.00     0.004 C 
ENDBRANCH  17  18
ENDBRANCH  15  17
ENDBRANCH  14  15
BRANCH  14  20
ATOM     20  C   UNL A   1      32.943  21.471  24.818  1.00  0.00     0.070 A 
ATOM     21  C   UNL A   1      32.317  20.223  24.663  1.00  0.00     0.051 A 
ATOM     22  C   UNL A   1      34.366  21.564  24.958  1.00  0.00     0.010 A 
ATOM     23  C   UNL A   1      33.091  19.078  24.648  1.00  0.00     0.080 A 
ATOM     24  C   UNL A   1      35.144  20.382  24.815  1.00  0.00     0.028 A 
ATOM     25  C   UNL A   1      35.062  22.775  25.182  1.00  0.00     0.011 A 
ATOM     26  S   UNL A   1      32.549  17.417  24.537  1.00  0.00    -0.052 S 
ATOM     27  C   UNL A   1      34.476  19.155  24.700  1.00  0.00     0.157 A 
ATOM     28  C   UNL A   1      36.549  20.468  24.748  1.00  0.00     0.013 A 
ATOM     29  C   UNL A   1      36.456  22.843  25.102  1.00  0.00     0.001 A 
ATOM     30  C   UNL A   1      34.243  16.911  24.549  1.00  0.00     0.396 A 
ATOM     31  O   UNL A   1      35.174  17.944  24.626  1.00  0.00    -0.413 OA
ATOM     32  C   UNL A   1      37.197  21.696  24.852  1.00  0.00     0.001 A 
ATOM     33  O   UNL A   1      34.567  15.733  24.494  1.00  0.00    -0.233 OA
ENDBRANCH  14  20
ENDBRANCH  11  14
ENDBRANCH   6  11
ENDBRANCH   1   5
BRANCH   3  34
ATOM     34  C   UNL A   1      34.912  29.714  27.698  1.00  0.00     0.118 C 
BRANCH  34  35
ATOM     35  C   UNL A   1      36.361  29.366  27.383  1.00  0.00     0.042 C 
BRANCH  35  36
ATOM     36  C   UNL A   1      37.326  29.744  28.505  1.00  0.00     0.118 C 
BRANCH  36  37
ATOM     37  N   UNL A   1      36.863  29.380  29.838  1.00  0.00    -0.352 N 
ATOM     38  C   UNL A   1      37.583  29.060  30.968  1.00  0.00     0.251 C 
ATOM     39  H   UNL A   1      35.885  29.359  29.949  1.00  0.00     0.163 HD
ATOM     40  O   UNL A   1      37.009  28.740  32.003  1.00  0.00    -0.269 OA
BRANCH  38  41
ATOM     41  C   UNL A   1      39.054  29.017  30.891  1.00  0.00     0.039 A 
ATOM     42  C   UNL A   1      39.812  30.167  31.121  1.00  0.00     0.014 A 
ATOM     43  C   UNL A   1      39.667  27.826  30.493  1.00  0.00     0.014 A 
ATOM     44  C   UNL A   1      41.157  30.182  30.792  1.00  0.00     0.010 A 
ATOM     45  C   UNL A   1      41.030  27.824  30.216  1.00  0.00     0.010 A 
ATOM     46  C   UNL A   1      41.766  29.015  30.333  1.00  0.00    -0.014 A 
BRANCH  46  47
ATOM     47  C   UNL A   1      43.227  29.079  30.183  1.00  0.00     0.031 A 
ATOM     48  C   UNL A   1      43.919  28.378  31.301  1.00  0.00     0.074 A 
ATOM     49  C   UNL A   1      43.826  29.161  28.975  1.00  0.00     0.049 A 
ATOM     50  N   UNL A   1      43.996  27.084  31.286  1.00  0.00    -0.248 NA
ATOM     51  C   UNL A   1      44.226  28.954  32.607  1.00  0.00     0.031 C 
ATOM     52  C   UNL A   1      43.227  28.698  27.714  1.00  0.00     0.029 A 
ATOM     53  N   UNL A   1      45.113  29.505  28.628  1.00  0.00    -0.354 N 
ATOM     54  C   UNL A   1      44.294  26.650  32.564  1.00  0.00     0.074 A 
ATOM     55  C   UNL A   1      44.460  27.853  33.347  1.00  0.00     0.031 C 
ATOM     56  C   UNL A   1      44.193  28.628  26.777  1.00  0.00     0.029 A 
ATOM     57  C   UNL A   1      45.442  29.161  27.320  1.00  0.00     0.049 A 
ATOM     58  H   UNL A   1      45.739  29.950  29.244  1.00  0.00     0.167 HD
ATOM     59  C   UNL A   1      44.396  25.316  32.827  1.00  0.00     0.037 A 
ATOM     60  C   UNL A   1      46.675  28.749  26.918  1.00  0.00     0.037 A 
ATOM     61  C   UNL A   1      44.183  24.429  31.701  1.00  0.00     0.049 A 
ATOM     62  C   UNL A   1      46.762  27.370  27.520  1.00  0.00     0.074 A 
ATOM     63  C   UNL A   1      43.541  23.254  31.377  1.00  0.00     0.029 A 
ATOM     64  N   UNL A   1      44.785  24.841  30.549  1.00  0.00    -0.354 N 
ATOM     65  N   UNL A   1      46.197  26.293  27.044  1.00  0.00    -0.248 NA
ATOM     66  C   UNL A   1      47.316  27.219  28.875  1.00  0.00     0.031 C 
ATOM     67  C   UNL A   1      43.806  22.996  29.983  1.00  0.00     0.029 A 
ATOM     68  C   UNL A   1      44.637  23.998  29.498  1.00  0.00     0.049 A 
ATOM     69  H   UNL A   1      45.289  25.684  30.487  1.00  0.00     0.167 HD
ATOM     70  C   UNL A   1      46.099  25.427  28.128  1.00  0.00     0.074 A 
ATOM     71  C   UNL A   1      46.952  25.975  29.165  1.00  0.00     0.031 C 
ATOM     72  C   UNL A   1      45.144  24.454  28.225  1.00  0.00     0.037 A 
BRANCH  59  73
ATOM     73  C   UNL A   1      45.025  24.744  34.037  1.00  0.00     0.057 A 
ATOM     74  C   UNL A   1      44.328  24.116  35.065  1.00  0.00     0.134 A 
ATOM     75  C   UNL A   1      46.423  24.605  34.015  1.00  0.00     0.134 A 
ATOM     76  F   UNL A   1      42.993  24.199  35.139  1.00  0.00    -0.206 F 
ATOM     77  C   UNL A   1      45.001  23.334  36.014  1.00  0.00     0.040 A 
ATOM     78  C   UNL A   1      47.102  23.818  34.941  1.00  0.00     0.040 A 
ATOM     79  F   UNL A   1      47.146  25.196  33.047  1.00  0.00    -0.206 F 
ATOM     80  C   UNL A   1      46.386  23.165  35.938  1.00  0.00     0.006 A 
ENDBRANCH  59  73
BRANCH  60  81
ATOM     81  C   UNL A   1      47.800  29.731  26.962  1.00  0.00     0.057 A 
ATOM     82  C   UNL A   1      49.159  29.395  27.020  1.00  0.00     0.134 A 
ATOM     83  C   UNL A   1      47.520  31.109  26.876  1.00  0.00     0.134 A 
ATOM     84  F   UNL A   1      49.566  28.122  26.940  1.00  0.00    -0.206 F 
ATOM     85  C   UNL A   1      50.163  30.360  27.157  1.00  0.00     0.040 A 
ATOM     86  C   UNL A   1      48.516  32.087  26.981  1.00  0.00     0.040 A 
ATOM     87  F   UNL A   1      46.265  31.540  26.673  1.00  0.00    -0.206 F 
ATOM     88  C   UNL A   1      49.841  31.712  27.159  1.00  0.00     0.006 A 
ENDBRANCH  60  81
BRANCH  72  89
ATOM     89  C   UNL A   1      44.516  24.052  26.946  1.00  0.00     0.057 A 
ATOM     90  C   UNL A   1      43.292  24.568  26.512  1.00  0.00     0.134 A 
ATOM     91  C   UNL A   1      45.163  23.122  26.123  1.00  0.00     0.134 A 
ATOM     92  F   UNL A   1      42.622  25.473  27.242  1.00  0.00    -0.206 F 
ATOM     93  C   UNL A   1      42.731  24.165  25.298  1.00  0.00     0.040 A 
ATOM     94  C   UNL A   1      44.627  22.734  24.900  1.00  0.00     0.040 A 
ATOM     95  F   UNL A   1      46.329  22.570  26.502  1.00  0.00    -0.206 F 
ATOM     96  C   UNL A   1      43.403  23.252  24.487  1.00  0.00     0.006 A 
ENDBRANCH  72  89
ENDBRANCH  46  47
ENDBRANCH  38  41
ENDBRANCH  36  37
ENDBRANCH  35  36
ENDBRANCH  34  35
ENDBRANCH   3  34
TORSDOF 16
ENDMDL
