MODEL 1
REMARK VINA RESULT:     -11.0      0.000      0.000
REMARK SMILES [NH3+]CCOCC(=O)Nc1cc(C(=O)NCCCNC(=O)c2ccc(-c3c4nc(c(-c5c(F)cccc5F)c5ccc([nH]5)c(-c5c(F)cccc5F)c5nc(c(-c6c(F)cccc6F)c6ccc3[nH]6)C=C5)C=C4)cc2)ccc1Cl
REMARK SMILES IDX 12 1 13 2 14 3 11 5 9 6 10 7 77 8 76 9 78 10 75 11 8 12 6 13
REMARK SMILES IDX 7 14 5 16 4 17 3 18 2 19 1 20 15 24 16 25 17 26 18 27 19 28
REMARK SMILES IDX 20 30 21 31 22 32 74 33 23 34 73 35 24 36 25 37 26 38 67 39
REMARK SMILES IDX 27 40 72 41 66 42 68 43 28 44 71 45 65 46 64 47 29 49 55 50
REMARK SMILES IDX 38 51 54 52 39 53 42 54 53 55 69 56 40 57 41 58 52 60 70 61
REMARK SMILES IDX 43 62 30 63 31 64 36 65 32 66 33 67 35 68 37 69 34 70 56 71
REMARK SMILES IDX 57 72 62 73 58 74 59 75 61 76 63 77 60 78 44 79 45 80 50 81
REMARK SMILES IDX 46 82 47 83 49 84 51 85 48 86
REMARK H PARENT 14 4 8 15 1 21 1 22 1 23 18 29 68 48 42 59
REMARK Flexibility Score: inf
ROOT
ATOM      1  C   UNL A   1      33.540  19.767  24.806  1.00  0.00     0.251 C 
ATOM      2  O   UNL A   1      32.855  18.742  24.781  1.00  0.00    -0.269 OA
ATOM      3  N   UNL A   1      34.888  19.599  24.976  1.00  0.00    -0.352 N 
ATOM      4  H   UNL A   1      35.147  18.666  25.154  1.00  0.00     0.163 HD
ENDROOT
BRANCH   1   5
ATOM      5  C   UNL A   1      32.851  21.085  24.665  1.00  0.00     0.041 A 
ATOM      6  C   UNL A   1      32.362  22.959  23.164  1.00  0.00     0.060 A 
ATOM      7  C   UNL A   1      33.021  21.754  23.436  1.00  0.00     0.041 A 
ATOM      8  C   UNL A   1      31.423  23.438  24.086  1.00  0.00     0.064 A 
ATOM      9  C   UNL A   1      31.287  22.822  25.326  1.00  0.00     0.023 A 
ATOM     10  Cl  UNL A   1      30.194  24.570  23.658  1.00  0.00    -0.082 Cl
ATOM     11  C   UNL A   1      32.003  21.659  25.614  1.00  0.00     0.015 A 
BRANCH   6  12
ATOM     12  N   UNL A   1      32.634  23.576  21.932  1.00  0.00    -0.323 N 
ATOM     13  C   UNL A   1      33.082  24.856  21.715  1.00  0.00     0.250 C 
ATOM     14  O   UNL A   1      33.128  25.293  20.561  1.00  0.00    -0.272 OA
ATOM     15  H   UNL A   1      32.487  23.026  21.128  1.00  0.00     0.170 HD
BRANCH  13  16
ATOM     16  C   UNL A   1      33.656  25.680  22.890  1.00  0.00     0.260 C 
BRANCH  16  17
ATOM     17  O   UNL A   1      32.898  26.678  23.537  1.00  0.00    -0.366 OA
BRANCH  17  18
ATOM     18  C   UNL A   1      32.832  27.936  22.865  1.00  0.00     0.222 C 
BRANCH  18  19
ATOM     19  C   UNL A   1      31.411  28.378  22.500  1.00  0.00     0.287 C 
BRANCH  19  20
ATOM     20  N   UNL A   1      31.329  29.687  21.855  1.00  0.00    -0.356 N 
ATOM     21  H   UNL A   1      30.889  29.589  20.940  1.00  0.00     0.344 HD
ATOM     22  H   UNL A   1      32.268  30.070  21.742  1.00  0.00     0.344 HD
ATOM     23  H   UNL A   1      30.773  30.317  22.434  1.00  0.00     0.344 HD
ENDBRANCH  19  20
ENDBRANCH  18  19
ENDBRANCH  17  18
ENDBRANCH  16  17
ENDBRANCH  13  16
ENDBRANCH   6  12
ENDBRANCH   1   5
BRANCH   3  24
ATOM     24  C   UNL A   1      36.012  20.513  24.948  1.00  0.00     0.118 C 
BRANCH  24  25
ATOM     25  C   UNL A   1      37.346  19.781  24.786  1.00  0.00     0.042 C 
BRANCH  25  26
ATOM     26  C   UNL A   1      38.475  20.360  25.634  1.00  0.00     0.118 C 
BRANCH  26  27
ATOM     27  N   UNL A   1      39.588  19.431  25.759  1.00  0.00    -0.352 N 
ATOM     28  C   UNL A   1      40.912  19.657  26.022  1.00  0.00     0.251 C 
ATOM     29  H   UNL A   1      39.350  18.485  25.630  1.00  0.00     0.163 HD
ATOM     30  O   UNL A   1      41.723  18.753  25.813  1.00  0.00    -0.269 OA
BRANCH  28  31
ATOM     31  C   UNL A   1      41.387  20.949  26.561  1.00  0.00     0.039 A 
ATOM     32  C   UNL A   1      41.248  21.193  27.932  1.00  0.00     0.014 A 
ATOM     33  C   UNL A   1      41.875  21.957  25.723  1.00  0.00     0.014 A 
ATOM     34  C   UNL A   1      41.623  22.428  28.465  1.00  0.00     0.010 A 
ATOM     35  C   UNL A   1      42.311  23.164  26.265  1.00  0.00     0.010 A 
ATOM     36  C   UNL A   1      42.172  23.419  27.637  1.00  0.00    -0.014 A 
BRANCH  36  37
ATOM     37  C   UNL A   1      42.583  24.734  28.188  1.00  0.00     0.031 A 
ATOM     38  C   UNL A   1      41.561  25.814  28.414  1.00  0.00     0.074 A 
ATOM     39  C   UNL A   1      43.886  24.976  28.427  1.00  0.00     0.049 A 
ATOM     40  N   UNL A   1      41.734  27.046  28.821  1.00  0.00    -0.248 NA
ATOM     41  C   UNL A   1      40.161  25.476  28.113  1.00  0.00     0.031 C 
ATOM     42  C   UNL A   1      44.978  24.027  28.196  1.00  0.00     0.029 A 
ATOM     43  N   UNL A   1      44.516  26.096  28.903  1.00  0.00    -0.354 N 
ATOM     44  C   UNL A   1      40.477  27.635  28.798  1.00  0.00     0.074 A 
ATOM     45  C   UNL A   1      39.552  26.638  28.302  1.00  0.00     0.031 C 
ATOM     46  C   UNL A   1      46.141  24.603  28.542  1.00  0.00     0.029 A 
ATOM     47  C   UNL A   1      45.880  25.966  28.992  1.00  0.00     0.049 A 
ATOM     48  H   UNL A   1      44.035  26.917  29.158  1.00  0.00     0.167 HD
ATOM     49  C   UNL A   1      40.120  28.887  29.173  1.00  0.00     0.037 A 
ATOM     50  C   UNL A   1      46.816  26.850  29.387  1.00  0.00     0.037 A 
ATOM     51  C   UNL A   1      41.035  29.861  29.709  1.00  0.00     0.049 A 
ATOM     52  C   UNL A   1      46.388  28.215  29.846  1.00  0.00     0.074 A 
ATOM     53  C   UNL A   1      40.761  31.128  30.194  1.00  0.00     0.029 A 
ATOM     54  N   UNL A   1      42.404  29.671  29.836  1.00  0.00    -0.354 N 
ATOM     55  N   UNL A   1      45.184  28.732  29.888  1.00  0.00    -0.248 NA
ATOM     56  C   UNL A   1      47.447  29.115  30.325  1.00  0.00     0.031 C 
ATOM     57  C   UNL A   1      41.969  31.718  30.583  1.00  0.00     0.029 A 
ATOM     58  C   UNL A   1      42.989  30.803  30.378  1.00  0.00     0.049 A 
ATOM     59  H   UNL A   1      42.887  28.853  29.579  1.00  0.00     0.167 HD
ATOM     60  C   UNL A   1      45.337  30.005  30.421  1.00  0.00     0.074 A 
ATOM     61  C   UNL A   1      46.748  30.175  30.701  1.00  0.00     0.031 C 
ATOM     62  C   UNL A   1      44.394  30.950  30.657  1.00  0.00     0.037 A 
BRANCH  49  63
ATOM     63  C   UNL A   1      38.679  29.276  29.022  1.00  0.00     0.057 A 
ATOM     64  C   UNL A   1      38.146  29.677  27.790  1.00  0.00     0.134 A 
ATOM     65  C   UNL A   1      37.803  29.208  30.113  1.00  0.00     0.134 A 
ATOM     66  F   UNL A   1      38.933  29.775  26.708  1.00  0.00    -0.206 F 
ATOM     67  C   UNL A   1      36.799  30.019  27.654  1.00  0.00     0.040 A 
ATOM     68  C   UNL A   1      36.449  29.522  29.984  1.00  0.00     0.040 A 
ATOM     69  F   UNL A   1      38.247  28.825  31.320  1.00  0.00    -0.206 F 
ATOM     70  C   UNL A   1      35.945  29.935  28.752  1.00  0.00     0.006 A 
ENDBRANCH  49  63
BRANCH  50  71
ATOM     71  C   UNL A   1      48.248  26.461  29.390  1.00  0.00     0.057 A 
ATOM     72  C   UNL A   1      48.819  25.819  30.495  1.00  0.00     0.134 A 
ATOM     73  C   UNL A   1      49.079  26.725  28.296  1.00  0.00     0.134 A 
ATOM     74  F   UNL A   1      48.077  25.555  31.580  1.00  0.00    -0.206 F 
ATOM     75  C   UNL A   1      50.171  25.473  30.521  1.00  0.00     0.040 A 
ATOM     76  C   UNL A   1      50.427  26.364  28.298  1.00  0.00     0.040 A 
ATOM     77  F   UNL A   1      48.588  27.327  27.202  1.00  0.00    -0.206 F 
ATOM     78  C   UNL A   1      50.979  25.742  29.416  1.00  0.00     0.006 A 
ENDBRANCH  50  71
BRANCH  62  79
ATOM     79  C   UNL A   1      44.855  32.233  31.278  1.00  0.00     0.057 A 
ATOM     80  C   UNL A   1      45.333  33.298  30.503  1.00  0.00     0.134 A 
ATOM     81  C   UNL A   1      44.796  32.416  32.665  1.00  0.00     0.134 A 
ATOM     82  F   UNL A   1      45.427  33.180  29.170  1.00  0.00    -0.206 F 
ATOM     83  C   UNL A   1      45.759  34.490  31.090  1.00  0.00     0.040 A 
ATOM     84  C   UNL A   1      45.196  33.612  33.261  1.00  0.00     0.040 A 
ATOM     85  F   UNL A   1      44.340  31.438  33.462  1.00  0.00    -0.206 F 
ATOM     86  C   UNL A   1      45.685  34.652  32.472  1.00  0.00     0.006 A 
ENDBRANCH  62  79
ENDBRANCH  36  37
ENDBRANCH  28  31
ENDBRANCH  26  27
ENDBRANCH  25  26
ENDBRANCH  24  25
ENDBRANCH   3  24
TORSDOF 16
ENDMDL
MODEL 2
REMARK VINA RESULT:     -11.0      1.777      6.840
REMARK SMILES [NH3+]CCOCC(=O)Nc1cc(C(=O)NCCCNC(=O)c2ccc(-c3c4nc(c(-c5c(F)cccc5F)c5ccc([nH]5)c(-c5c(F)cccc5F)c5nc(c(-c6c(F)cccc6F)c6ccc3[nH]6)C=C5)C=C4)cc2)ccc1Cl
REMARK SMILES IDX 12 1 13 2 14 3 11 5 9 6 10 7 77 8 76 9 78 10 75 11 8 12 6 13
REMARK SMILES IDX 7 14 5 16 4 17 3 18 2 19 1 20 15 24 16 25 17 26 18 27 19 28
REMARK SMILES IDX 20 30 21 31 22 32 74 33 23 34 73 35 24 36 25 37 26 38 67 39
REMARK SMILES IDX 27 40 72 41 66 42 68 43 28 44 71 45 65 46 64 47 29 49 55 50
REMARK SMILES IDX 38 51 54 52 39 53 42 54 53 55 69 56 40 57 41 58 52 60 70 61
REMARK SMILES IDX 43 62 30 63 31 64 36 65 32 66 33 67 35 68 37 69 34 70 56 71
REMARK SMILES IDX 57 72 62 73 58 74 59 75 61 76 63 77 60 78 44 79 45 80 50 81
REMARK SMILES IDX 46 82 47 83 49 84 51 85 48 86
REMARK H PARENT 14 4 8 15 1 21 1 22 1 23 18 29 68 48 42 59
REMARK Flexibility Score: inf
ROOT
ATOM      1  C   UNL A   1      37.259  23.197  25.267  1.00  0.00     0.251 C 
ATOM      2  O   UNL A   1      37.903  24.055  25.875  1.00  0.00    -0.269 OA
ATOM      3  N   UNL A   1      37.833  21.959  25.165  1.00  0.00    -0.352 N 
ATOM      4  H   UNL A   1      38.752  21.923  25.517  1.00  0.00     0.163 HD
ENDROOT
BRANCH   1   5
ATOM      5  C   UNL A   1      35.935  23.580  24.689  1.00  0.00     0.041 A 
ATOM      6  C   UNL A   1      33.928  24.954  24.975  1.00  0.00     0.060 A 
ATOM      7  C   UNL A   1      35.151  24.468  25.452  1.00  0.00     0.041 A 
ATOM      8  C   UNL A   1      33.541  24.643  23.666  1.00  0.00     0.064 A 
ATOM      9  C   UNL A   1      34.274  23.722  22.923  1.00  0.00     0.023 A 
ATOM     10  Cl  UNL A   1      32.377  25.571  22.796  1.00  0.00    -0.082 Cl
ATOM     11  C   UNL A   1      35.458  23.189  23.436  1.00  0.00     0.015 A 
BRANCH   6  12
ATOM     12  N   UNL A   1      33.194  25.795  25.829  1.00  0.00    -0.323 N 
ATOM     13  C   UNL A   1      31.973  25.547  26.406  1.00  0.00     0.250 C 
ATOM     14  O   UNL A   1      31.395  26.454  27.012  1.00  0.00    -0.272 OA
ATOM     15  H   UNL A   1      33.604  26.665  26.039  1.00  0.00     0.170 HD
BRANCH  13  16
ATOM     16  C   UNL A   1      31.405  24.110  26.416  1.00  0.00     0.260 C 
BRANCH  16  17
ATOM     17  O   UNL A   1      31.606  23.239  27.508  1.00  0.00    -0.366 OA
BRANCH  17  18
ATOM     18  C   UNL A   1      32.865  22.566  27.536  1.00  0.00     0.222 C 
BRANCH  18  19
ATOM     19  C   UNL A   1      33.088  21.606  26.363  1.00  0.00     0.287 C 
BRANCH  19  20
ATOM     20  N   UNL A   1      33.310  20.214  26.752  1.00  0.00    -0.356 N 
ATOM     21  H   UNL A   1      33.639  20.178  27.717  1.00  0.00     0.344 HD
ATOM     22  H   UNL A   1      34.010  19.796  26.139  1.00  0.00     0.344 HD
ATOM     23  H   UNL A   1      32.435  19.695  26.672  1.00  0.00     0.344 HD
ENDBRANCH  19  20
ENDBRANCH  18  19
ENDBRANCH  17  18
ENDBRANCH  16  17
ENDBRANCH  13  16
ENDBRANCH   6  12
ENDBRANCH   1   5
BRANCH   3  24
ATOM     24  C   UNL A   1      37.366  20.690  24.645  1.00  0.00     0.118 C 
BRANCH  24  25
ATOM     25  C   UNL A   1      38.373  19.563  24.884  1.00  0.00     0.042 C 
BRANCH  25  26
ATOM     26  C   UNL A   1      39.303  19.806  26.068  1.00  0.00     0.118 C 
BRANCH  26  27
ATOM     27  N   UNL A   1      40.572  19.110  25.912  1.00  0.00    -0.352 N 
ATOM     28  C   UNL A   1      41.856  19.583  25.925  1.00  0.00     0.251 C 
ATOM     29  H   UNL A   1      40.493  18.139  25.772  1.00  0.00     0.163 HD
ATOM     30  O   UNL A   1      42.760  18.860  25.503  1.00  0.00    -0.269 OA
BRANCH  28  31
ATOM     31  C   UNL A   1      42.181  20.929  26.442  1.00  0.00     0.039 A 
ATOM     32  C   UNL A   1      42.113  21.149  27.822  1.00  0.00     0.014 A 
ATOM     33  C   UNL A   1      42.458  21.997  25.583  1.00  0.00     0.014 A 
ATOM     34  C   UNL A   1      42.347  22.424  28.341  1.00  0.00     0.010 A 
ATOM     35  C   UNL A   1      42.757  23.253  26.104  1.00  0.00     0.010 A 
ATOM     36  C   UNL A   1      42.687  23.485  27.486  1.00  0.00    -0.014 A 
BRANCH  36  37
ATOM     37  C   UNL A   1      42.948  24.844  28.021  1.00  0.00     0.031 A 
ATOM     38  C   UNL A   1      44.339  25.239  28.438  1.00  0.00     0.074 A 
ATOM     39  C   UNL A   1      41.923  25.700  28.188  1.00  0.00     0.049 A 
ATOM     40  N   UNL A   1      44.752  26.352  28.990  1.00  0.00    -0.248 NA
ATOM     41  C   UNL A   1      45.400  24.241  28.237  1.00  0.00     0.031 C 
ATOM     42  C   UNL A   1      40.521  25.412  27.872  1.00  0.00     0.029 A 
ATOM     43  N   UNL A   1      41.896  26.980  28.678  1.00  0.00    -0.354 N 
ATOM     44  C   UNL A   1      46.109  26.178  29.227  1.00  0.00     0.074 A 
ATOM     45  C   UNL A   1      46.445  24.838  28.794  1.00  0.00     0.031 C 
ATOM     46  C   UNL A   1      39.775  26.490  28.166  1.00  0.00     0.029 A 
ATOM     47  C   UNL A   1      40.638  27.530  28.715  1.00  0.00     0.049 A 
ATOM     48  H   UNL A   1      42.703  27.460  28.975  1.00  0.00     0.167 HD
ATOM     49  C   UNL A   1      46.999  27.059  29.743  1.00  0.00     0.037 A 
ATOM     50  C   UNL A   1      40.228  28.737  29.147  1.00  0.00     0.037 A 
ATOM     51  C   UNL A   1      46.670  28.406  30.130  1.00  0.00     0.049 A 
ATOM     52  C   UNL A   1      41.243  29.715  29.667  1.00  0.00     0.074 A 
ATOM     53  C   UNL A   1      47.514  29.404  30.586  1.00  0.00     0.029 A 
ATOM     54  N   UNL A   1      45.393  28.946  30.099  1.00  0.00    -0.354 N 
ATOM     55  N   UNL A   1      42.537  29.560  29.816  1.00  0.00    -0.248 NA
ATOM     56  C   UNL A   1      40.745  31.038  30.067  1.00  0.00     0.031 C 
ATOM     57  C   UNL A   1      46.742  30.537  30.865  1.00  0.00     0.029 A 
ATOM     58  C   UNL A   1      45.423  30.257  30.543  1.00  0.00     0.049 A 
ATOM     59  H   UNL A   1      44.584  28.467  29.806  1.00  0.00     0.167 HD
ATOM     60  C   UNL A   1      43.010  30.772  30.301  1.00  0.00     0.074 A 
ATOM     61  C   UNL A   1      41.866  31.656  30.405  1.00  0.00     0.031 C 
ATOM     62  C   UNL A   1      44.276  31.123  30.631  1.00  0.00     0.037 A 
BRANCH  49  63
ATOM     63  C   UNL A   1      48.417  26.598  29.915  1.00  0.00     0.057 A 
ATOM     64  C   UNL A   1      49.390  26.812  28.930  1.00  0.00     0.134 A 
ATOM     65  C   UNL A   1      48.825  25.971  31.099  1.00  0.00     0.134 A 
ATOM     66  F   UNL A   1      49.062  27.397  27.767  1.00  0.00    -0.206 F 
ATOM     67  C   UNL A   1      50.711  26.397  29.106  1.00  0.00     0.040 A 
ATOM     68  C   UNL A   1      50.149  25.574  31.298  1.00  0.00     0.040 A 
ATOM     69  F   UNL A   1      47.945  25.741  32.086  1.00  0.00    -0.206 F 
ATOM     70  C   UNL A   1      51.095  25.782  30.296  1.00  0.00     0.006 A 
ENDBRANCH  49  63
BRANCH  50  71
ATOM     71  C   UNL A   1      38.789  29.098  29.083  1.00  0.00     0.057 A 
ATOM     72  C   UNL A   1      38.212  29.552  27.891  1.00  0.00     0.134 A 
ATOM     73  C   UNL A   1      37.961  29.002  30.206  1.00  0.00     0.134 A 
ATOM     74  F   UNL A   1      38.960  29.681  26.785  1.00  0.00    -0.206 F 
ATOM     75  C   UNL A   1      36.868  29.921  27.824  1.00  0.00     0.040 A 
ATOM     76  C   UNL A   1      36.610  29.344  30.149  1.00  0.00     0.040 A 
ATOM     77  F   UNL A   1      38.452  28.561  31.374  1.00  0.00    -0.206 F 
ATOM     78  C   UNL A   1      36.060  29.812  28.956  1.00  0.00     0.006 A 
ENDBRANCH  50  71
BRANCH  62  79
ATOM     79  C   UNL A   1      44.494  32.530  31.101  1.00  0.00     0.057 A 
ATOM     80  C   UNL A   1      44.772  33.572  30.207  1.00  0.00     0.134 A 
ATOM     81  C   UNL A   1      44.397  32.850  32.461  1.00  0.00     0.134 A 
ATOM     82  F   UNL A   1      44.891  33.326  28.893  1.00  0.00    -0.206 F 
ATOM     83  C   UNL A   1      44.972  34.879  30.653  1.00  0.00     0.040 A 
ATOM     84  C   UNL A   1      44.570  34.158  32.916  1.00  0.00     0.040 A 
ATOM     85  F   UNL A   1      44.125  31.899  33.367  1.00  0.00    -0.206 F 
ATOM     86  C   UNL A   1      44.865  35.175  32.010  1.00  0.00     0.006 A 
ENDBRANCH  62  79
ENDBRANCH  36  37
ENDBRANCH  28  31
ENDBRANCH  26  27
ENDBRANCH  25  26
ENDBRANCH  24  25
ENDBRANCH   3  24
TORSDOF 16
ENDMDL
MODEL 3
REMARK VINA RESULT:     -10.8      4.521      9.393
REMARK SMILES [NH3+]CCOCC(=O)Nc1cc(C(=O)NCCCNC(=O)c2ccc(-c3c4nc(c(-c5c(F)cccc5F)c5ccc([nH]5)c(-c5c(F)cccc5F)c5nc(c(-c6c(F)cccc6F)c6ccc3[nH]6)C=C5)C=C4)cc2)ccc1Cl
REMARK SMILES IDX 12 1 13 2 14 3 11 5 9 6 10 7 77 8 76 9 78 10 75 11 8 12 6 13
REMARK SMILES IDX 7 14 5 16 4 17 3 18 2 19 1 20 15 24 16 25 17 26 18 27 19 28
REMARK SMILES IDX 20 30 21 31 22 32 74 33 23 34 73 35 24 36 25 37 26 38 67 39
REMARK SMILES IDX 27 40 72 41 66 42 68 43 28 44 71 45 65 46 64 47 29 49 55 50
REMARK SMILES IDX 38 51 54 52 39 53 42 54 53 55 69 56 40 57 41 58 52 60 70 61
REMARK SMILES IDX 43 62 30 63 31 64 36 65 32 66 33 67 35 68 37 69 34 70 56 71
REMARK SMILES IDX 57 72 62 73 58 74 59 75 61 76 63 77 60 78 44 79 45 80 50 81
REMARK SMILES IDX 46 82 47 83 49 84 51 85 48 86
REMARK H PARENT 14 4 8 15 1 21 1 22 1 23 18 29 68 48 42 59
REMARK Flexibility Score: inf
ROOT
ATOM      1  C   UNL A   1      33.454  29.011  27.148  1.00  0.00     0.251 C 
ATOM      2  O   UNL A   1      34.587  28.945  27.628  1.00  0.00    -0.269 OA
ATOM      3  N   UNL A   1      32.854  30.241  27.159  1.00  0.00    -0.352 N 
ATOM      4  H   UNL A   1      33.373  30.925  27.641  1.00  0.00     0.163 HD
ENDROOT
BRANCH   1   5
ATOM      5  C   UNL A   1      32.834  27.759  26.618  1.00  0.00     0.041 A 
ATOM      6  C   UNL A   1      33.237  25.640  25.456  1.00  0.00     0.060 A 
ATOM      7  C   UNL A   1      33.691  26.877  25.930  1.00  0.00     0.041 A 
ATOM      8  C   UNL A   1      31.940  25.227  25.782  1.00  0.00     0.064 A 
ATOM      9  C   UNL A   1      31.065  26.108  26.409  1.00  0.00     0.023 A 
ATOM     10  Cl  UNL A   1      31.452  23.573  25.732  1.00  0.00    -0.082 Cl
ATOM     11  C   UNL A   1      31.508  27.367  26.816  1.00  0.00     0.015 A 
BRANCH   6  12
ATOM     12  N   UNL A   1      34.153  24.853  24.738  1.00  0.00    -0.323 N 
ATOM     13  C   UNL A   1      34.116  24.529  23.404  1.00  0.00     0.250 C 
ATOM     14  O   UNL A   1      34.918  23.701  22.961  1.00  0.00    -0.272 OA
ATOM     15  H   UNL A   1      34.911  24.490  25.252  1.00  0.00     0.170 HD
BRANCH  13  16
ATOM     16  C   UNL A   1      33.178  25.302  22.450  1.00  0.00     0.260 C 
BRANCH  16  17
ATOM     17  O   UNL A   1      33.652  26.343  21.624  1.00  0.00    -0.366 OA
BRANCH  17  18
ATOM     18  C   UNL A   1      33.193  27.653  21.958  1.00  0.00     0.222 C 
BRANCH  18  19
ATOM     19  C   UNL A   1      34.223  28.507  22.703  1.00  0.00     0.287 C 
BRANCH  19  20
ATOM     20  N   UNL A   1      33.650  29.584  23.509  1.00  0.00    -0.356 N 
ATOM     21  H   UNL A   1      32.929  30.066  22.970  1.00  0.00     0.344 HD
ATOM     22  H   UNL A   1      34.383  30.246  23.764  1.00  0.00     0.344 HD
ATOM     23  H   UNL A   1      33.236  29.192  24.355  1.00  0.00     0.344 HD
ENDBRANCH  19  20
ENDBRANCH  18  19
ENDBRANCH  17  18
ENDBRANCH  16  17
ENDBRANCH  13  16
ENDBRANCH   6  12
ENDBRANCH   1   5
BRANCH   3  24
ATOM     24  C   UNL A   1      31.613  30.744  26.606  1.00  0.00     0.118 C 
BRANCH  24  25
ATOM     25  C   UNL A   1      31.428  32.240  26.869  1.00  0.00     0.042 C 
BRANCH  25  26
ATOM     26  C   UNL A   1      32.739  33.009  27.007  1.00  0.00     0.118 C 
BRANCH  26  27
ATOM     27  N   UNL A   1      32.539  34.311  27.626  1.00  0.00    -0.352 N 
ATOM     28  C   UNL A   1      33.043  34.833  28.786  1.00  0.00     0.251 C 
ATOM     29  H   UNL A   1      31.941  34.914  27.130  1.00  0.00     0.163 HD
ATOM     30  O   UNL A   1      32.528  35.850  29.254  1.00  0.00    -0.269 OA
BRANCH  28  31
ATOM     31  C   UNL A   1      34.194  34.216  29.479  1.00  0.00     0.039 A 
ATOM     32  C   UNL A   1      35.484  34.496  29.013  1.00  0.00     0.014 A 
ATOM     33  C   UNL A   1      34.017  33.294  30.515  1.00  0.00     0.014 A 
ATOM     34  C   UNL A   1      36.590  33.879  29.599  1.00  0.00     0.010 A 
ATOM     35  C   UNL A   1      35.124  32.729  31.144  1.00  0.00     0.010 A 
ATOM     36  C   UNL A   1      36.420  33.000  30.681  1.00  0.00    -0.014 A 
BRANCH  36  37
ATOM     37  C   UNL A   1      37.585  32.342  31.321  1.00  0.00     0.031 A 
ATOM     38  C   UNL A   1      38.287  31.204  30.630  1.00  0.00     0.074 A 
ATOM     39  C   UNL A   1      37.973  32.728  32.552  1.00  0.00     0.049 A 
ATOM     40  N   UNL A   1      39.276  30.460  31.057  1.00  0.00    -0.248 NA
ATOM     41  C   UNL A   1      37.793  30.834  29.295  1.00  0.00     0.031 C 
ATOM     42  C   UNL A   1      37.337  33.782  33.346  1.00  0.00     0.029 A 
ATOM     43  N   UNL A   1      38.984  32.270  33.356  1.00  0.00    -0.354 N 
ATOM     44  C   UNL A   1      39.501  29.520  30.061  1.00  0.00     0.074 A 
ATOM     45  C   UNL A   1      38.523  29.762  29.022  1.00  0.00     0.031 C 
ATOM     46  C   UNL A   1      37.981  33.896  34.519  1.00  0.00     0.029 A 
ATOM     47  C   UNL A   1      39.055  32.909  34.570  1.00  0.00     0.049 A 
ATOM     48  H   UNL A   1      39.602  31.552  33.089  1.00  0.00     0.167 HD
ATOM     49  C   UNL A   1      40.449  28.553  30.007  1.00  0.00     0.037 A 
ATOM     50  C   UNL A   1      39.888  32.716  35.609  1.00  0.00     0.037 A 
ATOM     51  C   UNL A   1      41.449  28.346  31.021  1.00  0.00     0.049 A 
ATOM     52  C   UNL A   1      40.963  31.671  35.503  1.00  0.00     0.074 A 
ATOM     53  C   UNL A   1      42.503  27.447  31.024  1.00  0.00     0.029 A 
ATOM     54  N   UNL A   1      41.522  29.052  32.213  1.00  0.00    -0.354 N 
ATOM     55  N   UNL A   1      41.210  30.838  34.520  1.00  0.00    -0.248 NA
ATOM     56  C   UNL A   1      41.882  31.548  36.642  1.00  0.00     0.031 C 
ATOM     57  C   UNL A   1      43.193  27.586  32.233  1.00  0.00     0.029 A 
ATOM     58  C   UNL A   1      42.593  28.599  32.965  1.00  0.00     0.049 A 
ATOM     59  H   UNL A   1      40.904  29.768  32.484  1.00  0.00     0.167 HD
ATOM     60  C   UNL A   1      42.327  30.112  34.912  1.00  0.00     0.074 A 
ATOM     61  C   UNL A   1      42.718  30.614  36.214  1.00  0.00     0.031 C 
ATOM     62  C   UNL A   1      42.971  29.117  34.254  1.00  0.00     0.037 A 
BRANCH  49  63
ATOM     63  C   UNL A   1      40.454  27.648  28.810  1.00  0.00     0.057 A 
ATOM     64  C   UNL A   1      39.662  26.494  28.750  1.00  0.00     0.134 A 
ATOM     65  C   UNL A   1      41.229  27.958  27.684  1.00  0.00     0.134 A 
ATOM     66  F   UNL A   1      38.906  26.135  29.799  1.00  0.00    -0.206 F 
ATOM     67  C   UNL A   1      39.658  25.668  27.625  1.00  0.00     0.040 A 
ATOM     68  C   UNL A   1      41.214  27.153  26.543  1.00  0.00     0.040 A 
ATOM     69  F   UNL A   1      42.006  29.051  27.672  1.00  0.00    -0.206 F 
ATOM     70  C   UNL A   1      40.431  26.001  26.514  1.00  0.00     0.006 A 
ENDBRANCH  49  63
BRANCH  50  71
ATOM     71  C   UNL A   1      39.756  33.548  36.830  1.00  0.00     0.057 A 
ATOM     72  C   UNL A   1      38.891  33.177  37.866  1.00  0.00     0.134 A 
ATOM     73  C   UNL A   1      40.484  34.732  36.990  1.00  0.00     0.134 A 
ATOM     74  F   UNL A   1      38.154  32.061  37.762  1.00  0.00    -0.206 F 
ATOM     75  C   UNL A   1      38.736  33.965  39.007  1.00  0.00     0.040 A 
ATOM     76  C   UNL A   1      40.358  35.518  38.136  1.00  0.00     0.040 A 
ATOM     77  F   UNL A   1      41.339  35.136  36.038  1.00  0.00    -0.206 F 
ATOM     78  C   UNL A   1      39.476  35.139  39.146  1.00  0.00     0.006 A 
ENDBRANCH  50  71
BRANCH  62  79
ATOM     79  C   UNL A   1      44.183  28.535  34.917  1.00  0.00     0.057 A 
ATOM     80  C   UNL A   1      45.464  29.063  34.708  1.00  0.00     0.134 A 
ATOM     81  C   UNL A   1      44.063  27.450  35.794  1.00  0.00     0.134 A 
ATOM     82  F   UNL A   1      45.645  30.094  33.868  1.00  0.00    -0.206 F 
ATOM     83  C   UNL A   1      46.586  28.516  35.330  1.00  0.00     0.040 A 
ATOM     84  C   UNL A   1      45.175  26.910  36.441  1.00  0.00     0.040 A 
ATOM     85  F   UNL A   1      42.864  26.904  36.043  1.00  0.00    -0.206 F 
ATOM     86  C   UNL A   1      46.442  27.439  36.204  1.00  0.00     0.006 A 
ENDBRANCH  62  79
ENDBRANCH  36  37
ENDBRANCH  28  31
ENDBRANCH  26  27
ENDBRANCH  25  26
ENDBRANCH  24  25
ENDBRANCH   3  24
TORSDOF 16
ENDMDL
