MODEL 1
REMARK VINA RESULT:     -12.1      0.000      0.000
REMARK SMILES Cc1nc(-c2ccc(C(F)(F)F)cc2)nc(SCC(=O)NCCCNC(=O)c2ccc(-c3c4nc(c(-c5c(F)cccc5F)c5ccc([nH]5)c(-c5c(F)cccc5F)c5nc(c(-c6c(F)cccc6F)c6ccc3[nH]6)C=C5)C=C4)cc2)c1C
REMARK SMILES IDX 22 1 21 2 19 3 20 4 18 6 17 7 16 8 1 9 2 10 3 11 82 12 4 13
REMARK SMILES IDX 83 14 15 15 5 16 6 17 14 18 7 19 13 20 8 21 9 22 10 23 11 24
REMARK SMILES IDX 12 25 23 26 24 27 25 28 26 29 27 31 28 32 29 33 81 34 30 35
REMARK SMILES IDX 80 36 31 37 32 38 33 39 74 40 34 41 79 42 73 43 75 44 35 45
REMARK SMILES IDX 78 46 72 47 71 48 36 50 62 51 45 52 61 53 46 54 49 55 60 56
REMARK SMILES IDX 76 57 47 58 48 59 59 61 77 62 50 63 37 64 38 65 43 66 39 67
REMARK SMILES IDX 40 68 42 69 44 70 41 71 63 72 64 73 69 74 65 75 66 76 68 77
REMARK SMILES IDX 70 78 67 79 51 80 52 81 57 82 53 83 54 84 56 85 58 86 55 87
REMARK H PARENT 21 5 25 30 75 49 49 60
REMARK Flexibility Score: inf
ROOT
ATOM      1  C   UNL A   1      37.288  20.907  24.637  1.00  0.00     0.117 C 
ENDROOT
BRANCH   1   2
ATOM      2  N   UNL A   1      37.919  22.143  25.055  1.00  0.00    -0.355 N 
ATOM      3  C   UNL A   1      37.390  23.222  25.690  1.00  0.00     0.230 C 
ATOM      4  O   UNL A   1      38.189  24.062  26.113  1.00  0.00    -0.274 OA
ATOM      5  H   UNL A   1      38.878  22.212  24.846  1.00  0.00     0.163 HD
BRANCH   3   6
ATOM      6  C   UNL A   1      35.910  23.343  25.980  1.00  0.00     0.176 C 
BRANCH   6   7
ATOM      7  S   UNL A   1      34.956  24.433  24.891  1.00  0.00    -0.096 SA
BRANCH   7   8
ATOM      8  C   UNL A   1      33.211  24.426  25.263  1.00  0.00     0.104 A 
ATOM      9  C   UNL A   1      30.083  23.045  26.870  1.00  0.00     0.067 C 
ATOM     10  C   UNL A   1      31.078  23.893  26.127  1.00  0.00     0.045 A 
ATOM     11  N   UNL A   1      30.571  25.047  25.665  1.00  0.00    -0.233 NA
ATOM     12  C   UNL A   1      32.405  23.499  25.918  1.00  0.00     0.003 A 
ATOM     13  C   UNL A   1      31.388  25.833  24.964  1.00  0.00     0.160 A 
ATOM     14  C   UNL A   1      32.834  22.172  26.452  1.00  0.00     0.049 C 
ATOM     15  N   UNL A   1      32.683  25.573  24.753  1.00  0.00    -0.221 NA
BRANCH  13  16
ATOM     16  C   UNL A   1      30.779  27.034  24.379  1.00  0.00     0.019 A 
ATOM     17  C   UNL A   1      31.280  28.307  24.705  1.00  0.00     0.012 A 
ATOM     18  C   UNL A   1      29.636  26.969  23.566  1.00  0.00     0.012 A 
ATOM     19  C   UNL A   1      30.648  29.474  24.266  1.00  0.00     0.014 A 
ATOM     20  C   UNL A   1      28.989  28.137  23.138  1.00  0.00     0.014 A 
ATOM     21  C   UNL A   1      29.479  29.401  23.498  1.00  0.00     0.056 A 
BRANCH  21  22
ATOM     22  C   UNL A   1      28.769  30.672  23.097  1.00  0.00     0.416 C 
ATOM     23  F   UNL A   1      29.306  31.774  23.694  1.00  0.00    -0.166 F 
ATOM     24  F   UNL A   1      28.831  30.907  21.758  1.00  0.00    -0.166 F 
ATOM     25  F   UNL A   1      27.446  30.685  23.419  1.00  0.00    -0.166 F 
ENDBRANCH  21  22
ENDBRANCH  13  16
ENDBRANCH   7   8
ENDBRANCH   6   7
ENDBRANCH   3   6
ENDBRANCH   1   2
BRANCH   1  26
ATOM     26  C   UNL A   1      38.185  19.693  24.843  1.00  0.00     0.042 C 
BRANCH  26  27
ATOM     27  C   UNL A   1      39.047  19.754  26.102  1.00  0.00     0.118 C 
BRANCH  27  28
ATOM     28  N   UNL A   1      40.233  18.914  26.022  1.00  0.00    -0.352 N 
ATOM     29  C   UNL A   1      41.566  19.244  26.042  1.00  0.00     0.251 C 
ATOM     30  H   UNL A   1      40.050  17.950  25.939  1.00  0.00     0.163 HD
ATOM     31  O   UNL A   1      42.405  18.390  25.770  1.00  0.00    -0.269 OA
BRANCH  29  32
ATOM     32  C   UNL A   1      42.001  20.618  26.371  1.00  0.00     0.039 A 
ATOM     33  C   UNL A   1      42.197  20.957  27.713  1.00  0.00     0.014 A 
ATOM     34  C   UNL A   1      42.168  21.586  25.377  1.00  0.00     0.014 A 
ATOM     35  C   UNL A   1      42.623  22.244  28.052  1.00  0.00     0.010 A 
ATOM     36  C   UNL A   1      42.667  22.842  25.706  1.00  0.00     0.010 A 
ATOM     37  C   UNL A   1      42.891  23.188  27.048  1.00  0.00    -0.014 A 
BRANCH  37  38
ATOM     38  C   UNL A   1      43.379  24.549  27.383  1.00  0.00     0.031 A 
ATOM     39  C   UNL A   1      42.409  25.608  27.827  1.00  0.00     0.074 A 
ATOM     40  C   UNL A   1      44.686  24.845  27.246  1.00  0.00     0.049 A 
ATOM     41  N   UNL A   1      42.630  26.868  28.104  1.00  0.00    -0.248 NA
ATOM     42  C   UNL A   1      41.000  25.203  27.960  1.00  0.00     0.031 C 
ATOM     43  C   UNL A   1      45.721  23.912  26.800  1.00  0.00     0.029 A 
ATOM     44  N   UNL A   1      45.366  26.016  27.469  1.00  0.00    -0.354 N 
ATOM     45  C   UNL A   1      41.392  27.403  28.438  1.00  0.00     0.074 A 
ATOM     46  C   UNL A   1      40.415  26.350  28.272  1.00  0.00     0.031 C 
ATOM     47  C   UNL A   1      46.910  24.539  26.809  1.00  0.00     0.029 A 
ATOM     48  C   UNL A   1      46.715  25.925  27.223  1.00  0.00     0.049 A 
ATOM     49  H   UNL A   1      44.930  26.843  27.776  1.00  0.00     0.167 HD
ATOM     50  C   UNL A   1      41.101  28.652  28.873  1.00  0.00     0.037 A 
ATOM     51  C   UNL A   1      47.685  26.856  27.315  1.00  0.00     0.037 A 
ATOM     52  C   UNL A   1      42.077  29.692  29.057  1.00  0.00     0.049 A 
ATOM     53  C   UNL A   1      47.327  28.247  27.759  1.00  0.00     0.074 A 
ATOM     54  C   UNL A   1      41.885  30.978  29.531  1.00  0.00     0.029 A 
ATOM     55  N   UNL A   1      43.429  29.566  28.778  1.00  0.00    -0.354 N 
ATOM     56  N   UNL A   1      46.161  28.727  28.115  1.00  0.00    -0.248 NA
ATOM     57  C   UNL A   1      48.422  29.228  27.813  1.00  0.00     0.031 C 
ATOM     58  C   UNL A   1      43.113  31.645  29.495  1.00  0.00     0.029 A 
ATOM     59  C   UNL A   1      44.080  30.759  29.047  1.00  0.00     0.049 A 
ATOM     60  H   UNL A   1      43.863  28.750  28.439  1.00  0.00     0.167 HD
ATOM     61  C   UNL A   1      46.382  30.056  28.454  1.00  0.00     0.074 A 
ATOM     62  C   UNL A   1      47.798  30.302  28.279  1.00  0.00     0.031 C 
ATOM     63  C   UNL A   1      45.491  30.989  28.869  1.00  0.00     0.037 A 
BRANCH  50  64
ATOM     64  C   UNL A   1      39.668  28.959  29.197  1.00  0.00     0.057 A 
ATOM     65  C   UNL A   1      38.777  29.421  28.219  1.00  0.00     0.134 A 
ATOM     66  C   UNL A   1      39.158  28.741  30.484  1.00  0.00     0.134 A 
ATOM     67  F   UNL A   1      39.204  29.663  26.971  1.00  0.00    -0.206 F 
ATOM     68  C   UNL A   1      37.436  29.671  28.513  1.00  0.00     0.040 A 
ATOM     69  C   UNL A   1      37.813  28.960  30.782  1.00  0.00     0.040 A 
ATOM     70  F   UNL A   1      39.956  28.295  31.465  1.00  0.00    -0.206 F 
ATOM     71  C   UNL A   1      36.948  29.430  29.796  1.00  0.00     0.006 A 
ENDBRANCH  50  64
BRANCH  51  72
ATOM     72  C   UNL A   1      49.091  26.492  27.007  1.00  0.00     0.057 A 
ATOM     73  C   UNL A   1      49.962  26.073  28.020  1.00  0.00     0.134 A 
ATOM     74  C   UNL A   1      49.595  26.542  25.703  1.00  0.00     0.134 A 
ATOM     75  F   UNL A   1      49.543  26.024  29.293  1.00  0.00    -0.206 F 
ATOM     76  C   UNL A   1      51.287  25.726  27.749  1.00  0.00     0.040 A 
ATOM     77  C   UNL A   1      50.911  26.175  25.413  1.00  0.00     0.040 A 
ATOM     78  F   UNL A   1      48.810  26.930  24.687  1.00  0.00    -0.206 F 
ATOM     79  C   UNL A   1      51.762  25.770  26.439  1.00  0.00     0.006 A 
ENDBRANCH  51  72
BRANCH  63  80
ATOM     80  C   UNL A   1      46.015  32.361  29.176  1.00  0.00     0.057 A 
ATOM     81  C   UNL A   1      46.155  33.334  28.179  1.00  0.00     0.134 A 
ATOM     82  C   UNL A   1      46.310  32.736  30.494  1.00  0.00     0.134 A 
ATOM     83  F   UNL A   1      45.897  33.036  26.897  1.00  0.00    -0.206 F 
ATOM     84  C   UNL A   1      46.582  34.629  28.479  1.00  0.00     0.040 A 
ATOM     85  C   UNL A   1      46.712  34.034  30.809  1.00  0.00     0.040 A 
ATOM     86  F   UNL A   1      46.187  31.855  31.497  1.00  0.00    -0.206 F 
ATOM     87  C   UNL A   1      46.852  34.984  29.799  1.00  0.00     0.006 A 
ENDBRANCH  63  80
ENDBRANCH  37  38
ENDBRANCH  29  32
ENDBRANCH  27  28
ENDBRANCH  26  27
ENDBRANCH   1  26
TORSDOF 14
ENDMDL
MODEL 2
REMARK VINA RESULT:     -12.1      5.359      9.709
REMARK SMILES Cc1nc(-c2ccc(C(F)(F)F)cc2)nc(SCC(=O)NCCCNC(=O)c2ccc(-c3c4nc(c(-c5c(F)cccc5F)c5ccc([nH]5)c(-c5c(F)cccc5F)c5nc(c(-c6c(F)cccc6F)c6ccc3[nH]6)C=C5)C=C4)cc2)c1C
REMARK SMILES IDX 22 1 21 2 19 3 20 4 18 6 17 7 16 8 1 9 2 10 3 11 82 12 4 13
REMARK SMILES IDX 83 14 15 15 5 16 6 17 14 18 7 19 13 20 8 21 9 22 10 23 11 24
REMARK SMILES IDX 12 25 23 26 24 27 25 28 26 29 27 31 28 32 29 33 81 34 30 35
REMARK SMILES IDX 80 36 31 37 32 38 33 39 74 40 34 41 79 42 73 43 75 44 35 45
REMARK SMILES IDX 78 46 72 47 71 48 36 50 62 51 45 52 61 53 46 54 49 55 60 56
REMARK SMILES IDX 76 57 47 58 48 59 59 61 77 62 50 63 37 64 38 65 43 66 39 67
REMARK SMILES IDX 40 68 42 69 44 70 41 71 63 72 64 73 69 74 65 75 66 76 68 77
REMARK SMILES IDX 70 78 67 79 51 80 52 81 57 82 53 83 54 84 56 85 58 86 55 87
REMARK H PARENT 21 5 25 30 75 49 49 60
REMARK Flexibility Score: inf
ROOT
ATOM      1  C   UNL A   1      31.247  30.560  25.715  1.00  0.00     0.117 C 
ENDROOT
BRANCH   1   2
ATOM      2  N   UNL A   1      32.105  29.669  26.471  1.00  0.00    -0.355 N 
ATOM      3  C   UNL A   1      32.608  28.451  26.138  1.00  0.00     0.230 C 
ATOM      4  O   UNL A   1      33.479  27.990  26.882  1.00  0.00    -0.274 OA
ATOM      5  H   UNL A   1      32.361  29.996  27.363  1.00  0.00     0.163 HD
BRANCH   3   6
ATOM      6  C   UNL A   1      32.222  27.740  24.860  1.00  0.00     0.176 C 
BRANCH   6   7
ATOM      7  S   UNL A   1      33.576  27.039  23.880  1.00  0.00    -0.096 SA
BRANCH   7   8
ATOM      8  C   UNL A   1      33.506  25.259  23.779  1.00  0.00     0.104 A 
ATOM      9  C   UNL A   1      31.956  21.970  22.750  1.00  0.00     0.067 C 
ATOM     10  C   UNL A   1      32.872  23.038  23.283  1.00  0.00     0.045 A 
ATOM     11  N   UNL A   1      34.040  22.569  23.748  1.00  0.00    -0.233 NA
ATOM     12  C   UNL A   1      32.521  24.394  23.309  1.00  0.00     0.003 A 
ATOM     13  C   UNL A   1      34.887  23.457  24.271  1.00  0.00     0.160 A 
ATOM     14  C   UNL A   1      31.175  24.779  22.795  1.00  0.00     0.049 C 
ATOM     15  N   UNL A   1      34.670  24.777  24.296  1.00  0.00    -0.221 NA
BRANCH  13  16
ATOM     16  C   UNL A   1      36.107  22.905  24.870  1.00  0.00     0.019 A 
ATOM     17  C   UNL A   1      36.942  23.725  25.651  1.00  0.00     0.012 A 
ATOM     18  C   UNL A   1      36.534  21.592  24.615  1.00  0.00     0.012 A 
ATOM     19  C   UNL A   1      38.171  23.267  26.132  1.00  0.00     0.014 A 
ATOM     20  C   UNL A   1      37.775  21.134  25.081  1.00  0.00     0.014 A 
ATOM     21  C   UNL A   1      38.613  21.972  25.831  1.00  0.00     0.056 A 
BRANCH  21  22
ATOM     22  C   UNL A   1      39.977  21.522  26.296  1.00  0.00     0.416 C 
ATOM     23  F   UNL A   1      40.198  20.200  26.048  1.00  0.00    -0.166 F 
ATOM     24  F   UNL A   1      40.988  22.191  25.677  1.00  0.00    -0.166 F 
ATOM     25  F   UNL A   1      40.181  21.687  27.632  1.00  0.00    -0.166 F 
ENDBRANCH  21  22
ENDBRANCH  13  16
ENDBRANCH   7   8
ENDBRANCH   6   7
ENDBRANCH   3   6
ENDBRANCH   1   2
BRANCH   1  26
ATOM     26  C   UNL A   1      31.198  31.965  26.303  1.00  0.00     0.042 C 
BRANCH  26  27
ATOM     27  C   UNL A   1      32.526  32.453  26.876  1.00  0.00     0.118 C 
BRANCH  27  28
ATOM     28  N   UNL A   1      32.464  33.820  27.374  1.00  0.00    -0.352 N 
ATOM     29  C   UNL A   1      33.166  34.439  28.379  1.00  0.00     0.251 C 
ATOM     30  H   UNL A   1      31.809  34.396  26.915  1.00  0.00     0.163 HD
ATOM     31  O   UNL A   1      32.820  35.552  28.762  1.00  0.00    -0.269 OA
BRANCH  29  32
ATOM     32  C   UNL A   1      34.323  33.773  29.014  1.00  0.00     0.039 A 
ATOM     33  C   UNL A   1      34.086  32.749  29.936  1.00  0.00     0.014 A 
ATOM     34  C   UNL A   1      35.632  34.181  28.748  1.00  0.00     0.014 A 
ATOM     35  C   UNL A   1      35.162  32.093  30.539  1.00  0.00     0.010 A 
ATOM     36  C   UNL A   1      36.704  33.476  29.287  1.00  0.00     0.010 A 
ATOM     37  C   UNL A   1      36.481  32.430  30.196  1.00  0.00    -0.014 A 
BRANCH  37  38
ATOM     38  C   UNL A   1      37.637  31.721  30.797  1.00  0.00     0.031 A 
ATOM     39  C   UNL A   1      38.077  32.050  32.196  1.00  0.00     0.074 A 
ATOM     40  C   UNL A   1      38.318  30.813  30.070  1.00  0.00     0.049 A 
ATOM     41  N   UNL A   1      39.097  31.586  32.873  1.00  0.00    -0.248 NA
ATOM     42  C   UNL A   1      37.276  33.045  32.927  1.00  0.00     0.031 C 
ATOM     43  C   UNL A   1      38.006  30.426  28.695  1.00  0.00     0.029 A 
ATOM     44  N   UNL A   1      39.415  30.053  30.390  1.00  0.00    -0.354 N 
ATOM     45  C   UNL A   1      39.061  32.235  34.101  1.00  0.00     0.074 A 
ATOM     46  C   UNL A   1      37.957  33.167  34.056  1.00  0.00     0.031 C 
ATOM     47  C   UNL A   1      38.872  29.479  28.297  1.00  0.00     0.029 A 
ATOM     48  C   UNL A   1      39.825  29.222  29.374  1.00  0.00     0.049 A 
ATOM     49  H   UNL A   1      39.867  30.098  31.263  1.00  0.00     0.167 HD
ATOM     50  C   UNL A   1      39.859  32.048  35.178  1.00  0.00     0.037 A 
ATOM     51  C   UNL A   1      40.854  28.356  29.316  1.00  0.00     0.037 A 
ATOM     52  C   UNL A   1      40.944  31.105  35.228  1.00  0.00     0.049 A 
ATOM     53  C   UNL A   1      41.751  28.199  30.512  1.00  0.00     0.074 A 
ATOM     54  C   UNL A   1      41.785  30.816  36.289  1.00  0.00     0.029 A 
ATOM     55  N   UNL A   1      41.339  30.298  34.172  1.00  0.00    -0.354 N 
ATOM     56  N   UNL A   1      41.679  28.785  31.682  1.00  0.00    -0.248 NA
ATOM     57  C   UNL A   1      42.875  27.261  30.380  1.00  0.00     0.031 C 
ATOM     58  C   UNL A   1      42.717  29.867  35.860  1.00  0.00     0.029 A 
ATOM     59  C   UNL A   1      42.426  29.527  34.549  1.00  0.00     0.049 A 
ATOM     60  H   UNL A   1      40.910  30.275  33.286  1.00  0.00     0.167 HD
ATOM     61  C   UNL A   1      42.731  28.275  32.431  1.00  0.00     0.074 A 
ATOM     62  C   UNL A   1      43.416  27.316  31.589  1.00  0.00     0.031 C 
ATOM     63  C   UNL A   1      43.098  28.576  33.700  1.00  0.00     0.037 A 
BRANCH  50  64
ATOM     64  C   UNL A   1      39.578  32.869  36.403  1.00  0.00     0.057 A 
ATOM     65  C   UNL A   1      40.217  34.095  36.627  1.00  0.00     0.134 A 
ATOM     66  C   UNL A   1      38.619  32.460  37.340  1.00  0.00     0.134 A 
ATOM     67  F   UNL A   1      41.154  34.539  35.776  1.00  0.00    -0.206 F 
ATOM     68  C   UNL A   1      39.927  34.876  37.747  1.00  0.00     0.040 A 
ATOM     69  C   UNL A   1      38.301  33.245  38.448  1.00  0.00     0.040 A 
ATOM     70  F   UNL A   1      37.966  31.299  37.182  1.00  0.00    -0.206 F 
ATOM     71  C   UNL A   1      38.958  34.456  38.657  1.00  0.00     0.006 A 
ENDBRANCH  50  64
BRANCH  51  72
ATOM     72  C   UNL A   1      41.072  27.549  28.089  1.00  0.00     0.057 A 
ATOM     73  C   UNL A   1      40.499  26.279  27.953  1.00  0.00     0.134 A 
ATOM     74  C   UNL A   1      41.845  28.025  27.023  1.00  0.00     0.134 A 
ATOM     75  F   UNL A   1      39.766  25.760  28.948  1.00  0.00    -0.206 F 
ATOM     76  C   UNL A   1      40.693  25.507  26.806  1.00  0.00     0.040 A 
ATOM     77  C   UNL A   1      42.028  27.273  25.859  1.00  0.00     0.040 A 
ATOM     78  F   UNL A   1      42.417  29.236  27.089  1.00  0.00    -0.206 F 
ATOM     79  C   UNL A   1      41.454  26.009  25.752  1.00  0.00     0.006 A 
ENDBRANCH  51  72
BRANCH  63  80
ATOM     80  C   UNL A   1      44.286  27.857  34.268  1.00  0.00     0.057 A 
ATOM     81  C   UNL A   1      45.577  28.393  34.186  1.00  0.00     0.134 A 
ATOM     82  C   UNL A   1      44.128  26.654  34.970  1.00  0.00     0.134 A 
ATOM     83  F   UNL A   1      45.797  29.536  33.520  1.00  0.00    -0.206 F 
ATOM     84  C   UNL A   1      46.671  27.752  34.771  1.00  0.00     0.040 A 
ATOM     85  C   UNL A   1      45.208  26.019  35.581  1.00  0.00     0.040 A 
ATOM     86  F   UNL A   1      42.916  26.093  35.095  1.00  0.00    -0.206 F 
ATOM     87  C   UNL A   1      46.486  26.567  35.480  1.00  0.00     0.006 A 
ENDBRANCH  63  80
ENDBRANCH  37  38
ENDBRANCH  29  32
ENDBRANCH  27  28
ENDBRANCH  26  27
ENDBRANCH   1  26
TORSDOF 14
ENDMDL
MODEL 3
REMARK VINA RESULT:     -12.0      1.910      2.605
REMARK SMILES Cc1nc(-c2ccc(C(F)(F)F)cc2)nc(SCC(=O)NCCCNC(=O)c2ccc(-c3c4nc(c(-c5c(F)cccc5F)c5ccc([nH]5)c(-c5c(F)cccc5F)c5nc(c(-c6c(F)cccc6F)c6ccc3[nH]6)C=C5)C=C4)cc2)c1C
REMARK SMILES IDX 22 1 21 2 19 3 20 4 18 6 17 7 16 8 1 9 2 10 3 11 82 12 4 13
REMARK SMILES IDX 83 14 15 15 5 16 6 17 14 18 7 19 13 20 8 21 9 22 10 23 11 24
REMARK SMILES IDX 12 25 23 26 24 27 25 28 26 29 27 31 28 32 29 33 81 34 30 35
REMARK SMILES IDX 80 36 31 37 32 38 33 39 74 40 34 41 79 42 73 43 75 44 35 45
REMARK SMILES IDX 78 46 72 47 71 48 36 50 62 51 45 52 61 53 46 54 49 55 60 56
REMARK SMILES IDX 76 57 47 58 48 59 59 61 77 62 50 63 37 64 38 65 43 66 39 67
REMARK SMILES IDX 40 68 42 69 44 70 41 71 63 72 64 73 69 74 65 75 66 76 68 77
REMARK SMILES IDX 70 78 67 79 51 80 52 81 57 82 53 83 54 84 56 85 58 86 55 87
REMARK H PARENT 21 5 25 30 75 49 49 60
REMARK Flexibility Score: inf
ROOT
ATOM      1  C   UNL A   1      37.092  20.753  24.713  1.00  0.00     0.117 C 
ENDROOT
BRANCH   1   2
ATOM      2  N   UNL A   1      35.872  20.618  25.483  1.00  0.00    -0.355 N 
ATOM      3  C   UNL A   1      35.107  21.569  26.080  1.00  0.00     0.230 C 
ATOM      4  O   UNL A   1      34.005  21.209  26.503  1.00  0.00    -0.274 OA
ATOM      5  H   UNL A   1      35.548  19.695  25.590  1.00  0.00     0.163 HD
BRANCH   3   6
ATOM      6  C   UNL A   1      35.516  23.025  26.122  1.00  0.00     0.176 C 
BRANCH   6   7
ATOM      7  S   UNL A   1      34.837  24.097  24.828  1.00  0.00    -0.096 SA
BRANCH   7   8
ATOM      8  C   UNL A   1      33.336  24.921  25.330  1.00  0.00     0.104 A 
ATOM      9  C   UNL A   1      29.648  25.070  26.138  1.00  0.00     0.067 C 
ATOM     10  C   UNL A   1      31.104  25.392  25.946  1.00  0.00     0.045 A 
ATOM     11  N   UNL A   1      31.445  26.627  26.347  1.00  0.00    -0.233 NA
ATOM     12  C   UNL A   1      32.013  24.489  25.380  1.00  0.00     0.003 A 
ATOM     13  C   UNL A   1      32.715  26.994  26.172  1.00  0.00     0.160 A 
ATOM     14  C   UNL A   1      31.497  23.159  24.942  1.00  0.00     0.049 C 
ATOM     15  N   UNL A   1      33.670  26.190  25.691  1.00  0.00    -0.221 NA
BRANCH  13  16
ATOM     16  C   UNL A   1      33.035  28.384  26.517  1.00  0.00     0.019 A 
ATOM     17  C   UNL A   1      34.360  28.748  26.820  1.00  0.00     0.012 A 
ATOM     18  C   UNL A   1      32.041  29.367  26.651  1.00  0.00     0.012 A 
ATOM     19  C   UNL A   1      34.679  30.031  27.272  1.00  0.00     0.014 A 
ATOM     20  C   UNL A   1      32.354  30.650  27.121  1.00  0.00     0.014 A 
ATOM     21  C   UNL A   1      33.673  30.990  27.451  1.00  0.00     0.056 A 
BRANCH  21  22
ATOM     22  C   UNL A   1      34.028  32.346  28.012  1.00  0.00     0.416 C 
ATOM     23  F   UNL A   1      33.144  33.311  27.630  1.00  0.00    -0.166 F 
ATOM     24  F   UNL A   1      34.035  32.365  29.373  1.00  0.00    -0.166 F 
ATOM     25  F   UNL A   1      35.255  32.795  27.625  1.00  0.00    -0.166 F 
ENDBRANCH  21  22
ENDBRANCH  13  16
ENDBRANCH   7   8
ENDBRANCH   6   7
ENDBRANCH   3   6
ENDBRANCH   1   2
BRANCH   1  26
ATOM     26  C   UNL A   1      38.081  19.625  24.980  1.00  0.00     0.042 C 
BRANCH  26  27
ATOM     27  C   UNL A   1      39.148  19.958  26.021  1.00  0.00     0.118 C 
BRANCH  27  28
ATOM     28  N   UNL A   1      40.252  19.009  26.029  1.00  0.00    -0.352 N 
ATOM     29  C   UNL A   1      41.608  19.214  26.113  1.00  0.00     0.251 C 
ATOM     30  H   UNL A   1      39.983  18.064  25.962  1.00  0.00     0.163 HD
ATOM     31  O   UNL A   1      42.374  18.278  25.910  1.00  0.00    -0.269 OA
BRANCH  29  32
ATOM     32  C   UNL A   1      42.152  20.552  26.429  1.00  0.00     0.039 A 
ATOM     33  C   UNL A   1      42.564  21.375  25.376  1.00  0.00     0.014 A 
ATOM     34  C   UNL A   1      42.306  20.981  27.749  1.00  0.00     0.014 A 
ATOM     35  C   UNL A   1      43.067  22.650  25.645  1.00  0.00     0.010 A 
ATOM     36  C   UNL A   1      42.733  22.278  28.014  1.00  0.00     0.010 A 
ATOM     37  C   UNL A   1      43.127  23.124  26.966  1.00  0.00    -0.014 A 
BRANCH  37  38
ATOM     38  C   UNL A   1      43.624  24.488  27.271  1.00  0.00     0.031 A 
ATOM     39  C   UNL A   1      42.669  25.547  27.748  1.00  0.00     0.074 A 
ATOM     40  C   UNL A   1      44.924  24.787  27.079  1.00  0.00     0.049 A 
ATOM     41  N   UNL A   1      42.897  26.810  28.007  1.00  0.00    -0.248 NA
ATOM     42  C   UNL A   1      41.269  25.139  27.942  1.00  0.00     0.031 C 
ATOM     43  C   UNL A   1      45.942  23.855  26.597  1.00  0.00     0.029 A 
ATOM     44  N   UNL A   1      45.608  25.962  27.266  1.00  0.00    -0.354 N 
ATOM     45  C   UNL A   1      41.673  27.344  28.388  1.00  0.00     0.074 A 
ATOM     46  C   UNL A   1      40.693  26.286  28.269  1.00  0.00     0.031 C 
ATOM     47  C   UNL A   1      47.128  24.485  26.553  1.00  0.00     0.029 A 
ATOM     48  C   UNL A   1      46.946  25.874  26.965  1.00  0.00     0.049 A 
ATOM     49  H   UNL A   1      45.182  26.790  27.585  1.00  0.00     0.167 HD
ATOM     50  C   UNL A   1      41.396  28.594  28.825  1.00  0.00     0.037 A 
ATOM     51  C   UNL A   1      47.915  26.808  27.011  1.00  0.00     0.037 A 
ATOM     52  C   UNL A   1      42.375  29.639  28.963  1.00  0.00     0.049 A 
ATOM     53  C   UNL A   1      47.572  28.201  27.460  1.00  0.00     0.074 A 
ATOM     54  C   UNL A   1      42.197  30.928  29.435  1.00  0.00     0.029 A 
ATOM     55  N   UNL A   1      43.714  29.516  28.629  1.00  0.00    -0.354 N 
ATOM     56  N   UNL A   1      46.420  28.680  27.860  1.00  0.00    -0.248 NA
ATOM     57  C   UNL A   1      48.664  29.186  27.462  1.00  0.00     0.031 C 
ATOM     58  C   UNL A   1      43.420  31.598  29.344  1.00  0.00     0.029 A 
ATOM     59  C   UNL A   1      44.371  30.712  28.862  1.00  0.00     0.049 A 
ATOM     60  H   UNL A   1      44.137  28.698  28.278  1.00  0.00     0.167 HD
ATOM     61  C   UNL A   1      46.650  30.012  28.180  1.00  0.00     0.074 A 
ATOM     62  C   UNL A   1      48.057  30.261  27.945  1.00  0.00     0.031 C 
ATOM     63  C   UNL A   1      45.773  30.945  28.625  1.00  0.00     0.037 A 
BRANCH  50  64
ATOM     64  C   UNL A   1      39.976  28.900  29.206  1.00  0.00     0.057 A 
ATOM     65  C   UNL A   1      39.037  29.327  28.258  1.00  0.00     0.134 A 
ATOM     66  C   UNL A   1      39.527  28.712  30.520  1.00  0.00     0.134 A 
ATOM     67  F   UNL A   1      39.405  29.539  26.985  1.00  0.00    -0.206 F 
ATOM     68  C   UNL A   1      37.708  29.575  28.605  1.00  0.00     0.040 A 
ATOM     69  C   UNL A   1      38.194  28.930  30.873  1.00  0.00     0.040 A 
ATOM     70  F   UNL A   1      40.372  28.299  31.476  1.00  0.00    -0.206 F 
ATOM     71  C   UNL A   1      37.281  29.366  29.915  1.00  0.00     0.006 A 
ENDBRANCH  50  64
BRANCH  51  72
ATOM     72  C   UNL A   1      49.309  26.446  26.648  1.00  0.00     0.057 A 
ATOM     73  C   UNL A   1      49.791  26.658  25.351  1.00  0.00     0.134 A 
ATOM     74  C   UNL A   1      50.193  25.893  27.582  1.00  0.00     0.134 A 
ATOM     75  F   UNL A   1      48.986  27.166  24.407  1.00  0.00    -0.206 F 
ATOM     76  C   UNL A   1      51.099  26.326  24.993  1.00  0.00     0.040 A 
ATOM     77  C   UNL A   1      51.511  25.578  27.244  1.00  0.00     0.040 A 
ATOM     78  F   UNL A   1      49.794  25.670  28.843  1.00  0.00    -0.206 F 
ATOM     79  C   UNL A   1      51.965  25.790  25.944  1.00  0.00     0.006 A 
ENDBRANCH  51  72
BRANCH  63  80
ATOM     80  C   UNL A   1      46.305  32.321  28.901  1.00  0.00     0.057 A 
ATOM     81  C   UNL A   1      46.373  33.297  27.899  1.00  0.00     0.134 A 
ATOM     82  C   UNL A   1      46.681  32.696  30.198  1.00  0.00     0.134 A 
ATOM     83  F   UNL A   1      46.036  32.998  26.636  1.00  0.00    -0.206 F 
ATOM     84  C   UNL A   1      46.808  34.594  28.174  1.00  0.00     0.040 A 
ATOM     85  C   UNL A   1      47.092  33.997  30.490  1.00  0.00     0.040 A 
ATOM     86  F   UNL A   1      46.628  31.812  31.205  1.00  0.00    -0.206 F 
ATOM     87  C   UNL A   1      47.159  34.950  29.475  1.00  0.00     0.006 A 
ENDBRANCH  63  80
ENDBRANCH  37  38
ENDBRANCH  29  32
ENDBRANCH  27  28
ENDBRANCH  26  27
ENDBRANCH   1  26
TORSDOF 14
ENDMDL
