MODEL 1
REMARK VINA RESULT:     -12.7      0.000      0.000
REMARK SMILES COc1ccc2[nH]c(C(=O)c3cc(C)ccn3)c(CC(=O)NCCCNC(=O)c3ccc(-c4c5nc(c(-c6c(F)cccc6F)c6ccc([nH]6)c(-c6c(F)cccc6F)c6nc(c(-c7c(F)cccc7F)c7ccc4[nH]7)C=C6)C=C5)cc3)c2c1
REMARK SMILES IDX 23 1 22 2 20 3 21 4 19 6 18 7 3 8 4 9 84 10 5 11 83 12 6 13
REMARK SMILES IDX 7 14 8 15 2 17 1 18 9 19 10 20 11 21 12 22 17 23 13 24 16 25
REMARK SMILES IDX 14 26 15 27 24 28 25 29 26 30 27 31 28 33 29 34 30 35 82 36
REMARK SMILES IDX 31 37 81 38 32 39 33 40 34 41 75 42 35 43 80 44 74 45 76 46
REMARK SMILES IDX 36 47 79 48 73 49 72 50 37 52 63 53 46 54 62 55 47 56 50 57
REMARK SMILES IDX 61 58 77 59 48 60 49 61 60 63 78 64 51 65 38 66 39 67 44 68
REMARK SMILES IDX 40 69 41 70 43 71 45 72 42 73 64 74 65 75 70 76 66 77 67 78
REMARK SMILES IDX 69 79 71 80 68 81 52 82 53 83 58 84 54 85 55 86 57 87 59 88
REMARK SMILES IDX 56 89
REMARK H PARENT 22 5 7 16 26 32 76 51 50 62
REMARK Flexibility Score: inf
ROOT
ATOM      1  C   UNL A   1      32.530  27.093  26.470  1.00  0.00     0.117 C 
ENDROOT
BRANCH   1   2
ATOM      2  N   UNL A   1      31.679  25.972  26.805  1.00  0.00    -0.356 N 
ATOM      3  C   UNL A   1      31.877  24.634  26.619  1.00  0.00     0.224 C 
ATOM      4  O   UNL A   1      31.089  23.874  27.189  1.00  0.00    -0.275 OA
ATOM      5  H   UNL A   1      30.825  26.210  27.235  1.00  0.00     0.163 HD
BRANCH   3   6
ATOM      6  C   UNL A   1      33.086  24.105  25.853  1.00  0.00     0.138 C 
BRANCH   6   7
ATOM      7  C   UNL A   1      32.771  23.459  24.528  1.00  0.00    -0.002 A 
ATOM      8  C   UNL A   1      32.345  19.649  24.633  1.00  0.00     0.119 A 
ATOM      9  C   UNL A   1      32.167  19.484  23.262  1.00  0.00     0.048 A 
ATOM     10  C   UNL A   1      32.505  20.931  25.173  1.00  0.00     0.057 A 
ATOM     11  C   UNL A   1      32.174  20.586  22.398  1.00  0.00     0.030 A 
ATOM     12  C   UNL A   1      32.546  22.055  24.323  1.00  0.00     0.008 A 
ATOM     13  C   UNL A   1      32.371  21.854  22.958  1.00  0.00     0.046 A 
ATOM     14  N   UNL A   1      32.433  23.088  22.359  1.00  0.00    -0.352 N 
ATOM     15  C   UNL A   1      32.592  24.090  23.294  1.00  0.00     0.093 A 
ATOM     16  H   UNL A   1      32.372  23.238  21.389  1.00  0.00     0.167 HD
BRANCH   8  17
ATOM     17  O   UNL A   1      32.338  18.631  25.548  1.00  0.00    -0.497 OA
ATOM     18  C   UNL A   1      32.524  17.331  24.995  1.00  0.00     0.278 C 
ENDBRANCH   8  17
BRANCH  15  19
ATOM     19  C   UNL A   1      32.584  25.519  22.999  1.00  0.00     0.227 C 
ATOM     20  O   UNL A   1      33.592  26.152  22.686  1.00  0.00    -0.285 OA
BRANCH  19  21
ATOM     21  C   UNL A   1      31.316  26.281  23.144  1.00  0.00     0.113 A 
ATOM     22  C   UNL A   1      31.217  27.562  22.608  1.00  0.00     0.036 A 
ATOM     23  N   UNL A   1      30.307  25.652  23.797  1.00  0.00    -0.253 NA
ATOM     24  C   UNL A   1      30.007  28.245  22.746  1.00  0.00    -0.047 A 
ATOM     25  C   UNL A   1      29.139  26.318  23.882  1.00  0.00     0.112 A 
ATOM     26  C   UNL A   1      29.826  29.628  22.199  1.00  0.00     0.044 C 
ATOM     27  C   UNL A   1      28.945  27.599  23.385  1.00  0.00     0.023 A 
ENDBRANCH  19  21
ENDBRANCH  15  19
ENDBRANCH   6   7
ENDBRANCH   3   6
ENDBRANCH   1   2
BRANCH   1  28
ATOM     28  C   UNL A   1      31.751  28.383  26.233  1.00  0.00     0.042 C 
BRANCH  28  29
ATOM     29  C   UNL A   1      32.552  29.489  25.551  1.00  0.00     0.118 C 
BRANCH  29  30
ATOM     30  N   UNL A   1      32.126  30.824  25.947  1.00  0.00    -0.352 N 
ATOM     31  C   UNL A   1      32.637  31.685  26.886  1.00  0.00     0.251 C 
ATOM     32  H   UNL A   1      31.340  31.166  25.461  1.00  0.00     0.163 HD
ATOM     33  O   UNL A   1      32.013  32.704  27.172  1.00  0.00    -0.269 OA
BRANCH  31  34
ATOM     34  C   UNL A   1      33.916  31.399  27.573  1.00  0.00     0.039 A 
ATOM     35  C   UNL A   1      34.780  32.466  27.847  1.00  0.00     0.014 A 
ATOM     36  C   UNL A   1      34.300  30.096  27.898  1.00  0.00     0.014 A 
ATOM     37  C   UNL A   1      35.995  32.235  28.496  1.00  0.00     0.010 A 
ATOM     38  C   UNL A   1      35.484  29.872  28.600  1.00  0.00     0.010 A 
ATOM     39  C   UNL A   1      36.344  30.939  28.905  1.00  0.00    -0.014 A 
BRANCH  39  40
ATOM     40  C   UNL A   1      37.604  30.673  29.645  1.00  0.00     0.031 A 
ATOM     41  C   UNL A   1      38.691  29.847  29.013  1.00  0.00     0.074 A 
ATOM     42  C   UNL A   1      37.746  31.120  30.907  1.00  0.00     0.049 A 
ATOM     43  N   UNL A   1      39.806  29.407  29.538  1.00  0.00    -0.248 NA
ATOM     44  C   UNL A   1      38.485  29.447  27.612  1.00  0.00     0.031 C 
ATOM     45  C   UNL A   1      36.760  31.915  31.643  1.00  0.00     0.029 A 
ATOM     46  N   UNL A   1      38.774  30.957  31.802  1.00  0.00    -0.354 N 
ATOM     47  C   UNL A   1      40.425  28.665  28.540  1.00  0.00     0.074 A 
ATOM     48  C   UNL A   1      39.545  28.684  27.391  1.00  0.00     0.031 C 
ATOM     49  C   UNL A   1      37.236  32.181  32.870  1.00  0.00     0.029 A 
ATOM     50  C   UNL A   1      38.542  31.544  33.022  1.00  0.00     0.049 A 
ATOM     51  H   UNL A   1      39.601  30.465  31.590  1.00  0.00     0.167 HD
ATOM     52  C   UNL A   1      41.626  28.038  28.572  1.00  0.00     0.037 A 
ATOM     53  C   UNL A   1      39.290  31.558  34.142  1.00  0.00     0.037 A 
ATOM     54  C   UNL A   1      42.515  28.042  29.704  1.00  0.00     0.049 A 
ATOM     55  C   UNL A   1      40.614  30.846  34.153  1.00  0.00     0.074 A 
ATOM     56  C   UNL A   1      43.764  27.457  29.822  1.00  0.00     0.029 A 
ATOM     57  N   UNL A   1      42.252  28.669  30.911  1.00  0.00    -0.354 N 
ATOM     58  N   UNL A   1      41.196  30.168  33.195  1.00  0.00    -0.248 NA
ATOM     59  C   UNL A   1      41.386  30.902  35.404  1.00  0.00     0.031 C 
ATOM     60  C   UNL A   1      44.248  27.713  31.109  1.00  0.00     0.029 A 
ATOM     61  C   UNL A   1      43.313  28.483  31.781  1.00  0.00     0.049 A 
ATOM     62  H   UNL A   1      41.432  29.173  31.120  1.00  0.00     0.167 HD
ATOM     63  C   UNL A   1      42.413  29.746  33.713  1.00  0.00     0.074 A 
ATOM     64  C   UNL A   1      42.489  30.249  35.070  1.00  0.00     0.031 C 
ATOM     65  C   UNL A   1      43.382  29.009  33.119  1.00  0.00     0.037 A 
BRANCH  52  66
ATOM     66  C   UNL A   1      42.054  27.302  27.338  1.00  0.00     0.057 A 
ATOM     67  C   UNL A   1      42.737  27.946  26.299  1.00  0.00     0.134 A 
ATOM     68  C   UNL A   1      41.817  25.928  27.205  1.00  0.00     0.134 A 
ATOM     69  F   UNL A   1      42.983  29.263  26.363  1.00  0.00    -0.206 F 
ATOM     70  C   UNL A   1      43.153  27.254  25.161  1.00  0.00     0.040 A 
ATOM     71  C   UNL A   1      42.249  25.220  26.082  1.00  0.00     0.040 A 
ATOM     72  F   UNL A   1      41.173  25.251  28.168  1.00  0.00    -0.206 F 
ATOM     73  C   UNL A   1      42.915  25.884  25.054  1.00  0.00     0.006 A 
ENDBRANCH  52  66
BRANCH  53  74
ATOM     74  C   UNL A   1      38.817  32.283  35.346  1.00  0.00     0.057 A 
ATOM     75  C   UNL A   1      39.027  33.661  35.482  1.00  0.00     0.134 A 
ATOM     76  C   UNL A   1      38.169  31.622  36.394  1.00  0.00     0.134 A 
ATOM     77  F   UNL A   1      39.662  34.344  34.519  1.00  0.00    -0.206 F 
ATOM     78  C   UNL A   1      38.629  34.350  36.627  1.00  0.00     0.040 A 
ATOM     79  C   UNL A   1      37.744  32.303  37.536  1.00  0.00     0.040 A 
ATOM     80  F   UNL A   1      37.933  30.303  36.320  1.00  0.00    -0.206 F 
ATOM     81  C   UNL A   1      37.982  33.671  37.657  1.00  0.00     0.006 A 
ENDBRANCH  53  74
BRANCH  65  82
ATOM     82  C   UNL A   1      44.625  28.744  33.911  1.00  0.00     0.057 A 
ATOM     83  C   UNL A   1      45.710  29.628  33.902  1.00  0.00     0.134 A 
ATOM     84  C   UNL A   1      44.719  27.609  34.727  1.00  0.00     0.134 A 
ATOM     85  F   UNL A   1      45.685  30.725  33.129  1.00  0.00    -0.206 F 
ATOM     86  C   UNL A   1      46.853  29.385  34.664  1.00  0.00     0.040 A 
ATOM     87  C   UNL A   1      45.847  27.366  35.509  1.00  0.00     0.040 A 
ATOM     88  F   UNL A   1      43.710  26.726  34.783  1.00  0.00    -0.206 F 
ATOM     89  C   UNL A   1      46.921  28.254  35.476  1.00  0.00     0.006 A 
ENDBRANCH  65  82
ENDBRANCH  39  40
ENDBRANCH  31  34
ENDBRANCH  29  30
ENDBRANCH  28  29
ENDBRANCH   1  28
TORSDOF 14
ENDMDL
MODEL 2
REMARK VINA RESULT:     -12.6      3.042      6.653
REMARK SMILES COc1ccc2[nH]c(C(=O)c3cc(C)ccn3)c(CC(=O)NCCCNC(=O)c3ccc(-c4c5nc(c(-c6c(F)cccc6F)c6ccc([nH]6)c(-c6c(F)cccc6F)c6nc(c(-c7c(F)cccc7F)c7ccc4[nH]7)C=C6)C=C5)cc3)c2c1
REMARK SMILES IDX 23 1 22 2 20 3 21 4 19 6 18 7 3 8 4 9 84 10 5 11 83 12 6 13
REMARK SMILES IDX 7 14 8 15 2 17 1 18 9 19 10 20 11 21 12 22 17 23 13 24 16 25
REMARK SMILES IDX 14 26 15 27 24 28 25 29 26 30 27 31 28 33 29 34 30 35 82 36
REMARK SMILES IDX 31 37 81 38 32 39 33 40 34 41 75 42 35 43 80 44 74 45 76 46
REMARK SMILES IDX 36 47 79 48 73 49 72 50 37 52 63 53 46 54 62 55 47 56 50 57
REMARK SMILES IDX 61 58 77 59 48 60 49 61 60 63 78 64 51 65 38 66 39 67 44 68
REMARK SMILES IDX 40 69 41 70 43 71 45 72 42 73 64 74 65 75 70 76 66 77 67 78
REMARK SMILES IDX 69 79 71 80 68 81 52 82 53 83 58 84 54 85 55 86 57 87 59 88
REMARK SMILES IDX 56 89
REMARK H PARENT 22 5 7 16 26 32 76 51 50 62
REMARK Flexibility Score: inf
ROOT
ATOM      1  C   UNL A   1      32.299  26.875  26.081  1.00  0.00     0.117 C 
ENDROOT
BRANCH   1   2
ATOM      2  N   UNL A   1      31.728  25.650  26.597  1.00  0.00    -0.356 N 
ATOM      3  C   UNL A   1      32.136  24.357  26.436  1.00  0.00     0.224 C 
ATOM      4  O   UNL A   1      31.597  23.514  27.158  1.00  0.00    -0.275 OA
ATOM      5  H   UNL A   1      30.922  25.766  27.151  1.00  0.00     0.163 HD
BRANCH   3   6
ATOM      6  C   UNL A   1      33.288  23.993  25.505  1.00  0.00     0.138 C 
BRANCH   6   7
ATOM      7  C   UNL A   1      32.896  23.208  24.279  1.00  0.00    -0.002 A 
ATOM      8  C   UNL A   1      32.484  19.435  24.825  1.00  0.00     0.119 A 
ATOM      9  C   UNL A   1      32.225  19.121  23.494  1.00  0.00     0.048 A 
ATOM     10  C   UNL A   1      32.673  20.767  25.211  1.00  0.00     0.057 A 
ATOM     11  C   UNL A   1      32.180  20.122  22.515  1.00  0.00     0.030 A 
ATOM     12  C   UNL A   1      32.662  21.791  24.242  1.00  0.00     0.008 A 
ATOM     13  C   UNL A   1      32.407  21.443  22.921  1.00  0.00     0.046 A 
ATOM     14  N   UNL A   1      32.431  22.604  22.188  1.00  0.00    -0.352 N 
ATOM     15  C   UNL A   1      32.644  23.701  22.996  1.00  0.00     0.093 A 
ATOM     16  H   UNL A   1      32.313  22.648  21.212  1.00  0.00     0.167 HD
BRANCH   8  17
ATOM     17  O   UNL A   1      32.533  18.522  25.845  1.00  0.00    -0.497 OA
ATOM     18  C   UNL A   1      32.497  17.160  25.428  1.00  0.00     0.278 C 
ENDBRANCH   8  17
BRANCH  15  19
ATOM     19  C   UNL A   1      32.616  25.090  22.548  1.00  0.00     0.227 C 
ATOM     20  O   UNL A   1      33.552  25.631  21.960  1.00  0.00    -0.285 OA
BRANCH  19  21
ATOM     21  C   UNL A   1      31.432  25.930  22.867  1.00  0.00     0.113 A 
ATOM     22  C   UNL A   1      31.392  27.254  22.439  1.00  0.00     0.036 A 
ATOM     23  N   UNL A   1      30.436  25.327  23.563  1.00  0.00    -0.253 NA
ATOM     24  C   UNL A   1      30.258  28.012  22.740  1.00  0.00    -0.047 A 
ATOM     25  C   UNL A   1      29.338  26.069  23.806  1.00  0.00     0.112 A 
ATOM     26  C   UNL A   1      30.144  29.445  22.316  1.00  0.00     0.044 C 
ATOM     27  C   UNL A   1      29.207  27.396  23.426  1.00  0.00     0.023 A 
ENDBRANCH  19  21
ENDBRANCH  15  19
ENDBRANCH   6   7
ENDBRANCH   3   6
ENDBRANCH   1   2
BRANCH   1  28
ATOM     28  C   UNL A   1      32.396  27.977  27.132  1.00  0.00     0.042 C 
BRANCH  28  29
ATOM     29  C   UNL A   1      33.785  28.593  27.275  1.00  0.00     0.118 C 
BRANCH  29  30
ATOM     30  N   UNL A   1      33.747  29.981  27.716  1.00  0.00    -0.352 N 
ATOM     31  C   UNL A   1      34.685  30.736  28.373  1.00  0.00     0.251 C 
ATOM     32  H   UNL A   1      32.909  30.455  27.509  1.00  0.00     0.163 HD
ATOM     33  O   UNL A   1      34.376  31.847  28.797  1.00  0.00    -0.269 OA
BRANCH  31  34
ATOM     34  C   UNL A   1      36.059  30.230  28.597  1.00  0.00     0.039 A 
ATOM     35  C   UNL A   1      36.967  30.270  27.532  1.00  0.00     0.014 A 
ATOM     36  C   UNL A   1      36.444  29.668  29.816  1.00  0.00     0.014 A 
ATOM     37  C   UNL A   1      38.272  29.804  27.708  1.00  0.00     0.010 A 
ATOM     38  C   UNL A   1      37.763  29.259  30.009  1.00  0.00     0.010 A 
ATOM     39  C   UNL A   1      38.691  29.322  28.957  1.00  0.00    -0.014 A 
BRANCH  39  40
ATOM     40  C   UNL A   1      40.087  28.870  29.185  1.00  0.00     0.031 A 
ATOM     41  C   UNL A   1      41.089  29.801  29.810  1.00  0.00     0.074 A 
ATOM     42  C   UNL A   1      40.470  27.647  28.772  1.00  0.00     0.049 A 
ATOM     43  N   UNL A   1      42.376  29.638  29.981  1.00  0.00    -0.248 NA
ATOM     44  C   UNL A   1      40.578  31.096  30.287  1.00  0.00     0.031 C 
ATOM     45  C   UNL A   1      39.602  26.655  28.134  1.00  0.00     0.029 A 
ATOM     46  N   UNL A   1      41.698  27.034  28.816  1.00  0.00    -0.354 N 
ATOM     47  C   UNL A   1      42.831  30.812  30.567  1.00  0.00     0.074 A 
ATOM     48  C   UNL A   1      41.690  31.694  30.689  1.00  0.00     0.031 C 
ATOM     49  C   UNL A   1      40.321  25.555  27.859  1.00  0.00     0.029 A 
ATOM     50  C   UNL A   1      41.706  25.776  28.265  1.00  0.00     0.049 A 
ATOM     51  H   UNL A   1      42.497  27.456  29.206  1.00  0.00     0.167 HD
ATOM     52  C   UNL A   1      44.083  31.121  30.982  1.00  0.00     0.037 A 
ATOM     53  C   UNL A   1      42.718  24.904  28.093  1.00  0.00     0.037 A 
ATOM     54  C   UNL A   1      45.214  30.235  30.887  1.00  0.00     0.049 A 
ATOM     55  C   UNL A   1      44.099  25.277  28.553  1.00  0.00     0.074 A 
ATOM     56  C   UNL A   1      46.516  30.450  31.304  1.00  0.00     0.029 A 
ATOM     57  N   UNL A   1      45.173  28.961  30.344  1.00  0.00    -0.354 N 
ATOM     58  N   UNL A   1      44.510  26.381  29.127  1.00  0.00    -0.248 NA
ATOM     59  C   UNL A   1      45.159  24.279  28.343  1.00  0.00     0.031 C 
ATOM     60  C   UNL A   1      47.269  29.312  30.994  1.00  0.00     0.029 A 
ATOM     61  C   UNL A   1      46.428  28.378  30.412  1.00  0.00     0.049 A 
ATOM     62  H   UNL A   1      44.370  28.532  29.966  1.00  0.00     0.167 HD
ATOM     63  C   UNL A   1      45.864  26.201  29.375  1.00  0.00     0.074 A 
ATOM     64  C   UNL A   1      46.206  24.877  28.895  1.00  0.00     0.031 C 
ATOM     65  C   UNL A   1      46.745  27.053  29.950  1.00  0.00     0.037 A 
BRANCH  52  66
ATOM     66  C   UNL A   1      44.295  32.476  31.588  1.00  0.00     0.057 A 
ATOM     67  C   UNL A   1      44.174  32.690  32.967  1.00  0.00     0.134 A 
ATOM     68  C   UNL A   1      44.663  33.567  30.792  1.00  0.00     0.134 A 
ATOM     69  F   UNL A   1      43.813  31.687  33.780  1.00  0.00    -0.206 F 
ATOM     70  C   UNL A   1      44.393  33.948  33.531  1.00  0.00     0.040 A 
ATOM     71  C   UNL A   1      44.907  34.825  31.348  1.00  0.00     0.040 A 
ATOM     72  F   UNL A   1      44.802  33.428  29.465  1.00  0.00    -0.206 F 
ATOM     73  C   UNL A   1      44.768  35.018  32.721  1.00  0.00     0.006 A 
ENDBRANCH  52  66
BRANCH  53  74
ATOM     74  C   UNL A   1      42.465  23.582  27.470  1.00  0.00     0.057 A 
ATOM     75  C   UNL A   1      42.558  23.413  26.083  1.00  0.00     0.134 A 
ATOM     76  C   UNL A   1      42.106  22.467  28.234  1.00  0.00     0.134 A 
ATOM     77  F   UNL A   1      42.878  24.451  25.297  1.00  0.00    -0.206 F 
ATOM     78  C   UNL A   1      42.281  22.188  25.477  1.00  0.00     0.040 A 
ATOM     79  C   UNL A   1      41.848  21.229  27.643  1.00  0.00     0.040 A 
ATOM     80  F   UNL A   1      42.007  22.564  29.568  1.00  0.00    -0.206 F 
ATOM     81  C   UNL A   1      41.928  21.090  26.259  1.00  0.00     0.006 A 
ENDBRANCH  53  74
BRANCH  65  82
ATOM     82  C   UNL A   1      48.148  26.565  30.137  1.00  0.00     0.057 A 
ATOM     83  C   UNL A   1      48.541  25.862  31.282  1.00  0.00     0.134 A 
ATOM     84  C   UNL A   1      49.109  26.765  29.137  1.00  0.00     0.134 A 
ATOM     85  F   UNL A   1      47.669  25.651  32.280  1.00  0.00    -0.206 F 
ATOM     86  C   UNL A   1      49.844  25.389  31.434  1.00  0.00     0.040 A 
ATOM     87  C   UNL A   1      50.409  26.280  29.268  1.00  0.00     0.040 A 
ATOM     88  F   UNL A   1      48.794  27.427  28.014  1.00  0.00    -0.206 F 
ATOM     89  C   UNL A   1      50.782  25.592  30.423  1.00  0.00     0.006 A 
ENDBRANCH  65  82
ENDBRANCH  39  40
ENDBRANCH  31  34
ENDBRANCH  29  30
ENDBRANCH  28  29
ENDBRANCH   1  28
TORSDOF 14
ENDMDL
MODEL 3
REMARK VINA RESULT:     -12.4      3.825      7.924
REMARK SMILES COc1ccc2[nH]c(C(=O)c3cc(C)ccn3)c(CC(=O)NCCCNC(=O)c3ccc(-c4c5nc(c(-c6c(F)cccc6F)c6ccc([nH]6)c(-c6c(F)cccc6F)c6nc(c(-c7c(F)cccc7F)c7ccc4[nH]7)C=C6)C=C5)cc3)c2c1
REMARK SMILES IDX 23 1 22 2 20 3 21 4 19 6 18 7 3 8 4 9 84 10 5 11 83 12 6 13
REMARK SMILES IDX 7 14 8 15 2 17 1 18 9 19 10 20 11 21 12 22 17 23 13 24 16 25
REMARK SMILES IDX 14 26 15 27 24 28 25 29 26 30 27 31 28 33 29 34 30 35 82 36
REMARK SMILES IDX 31 37 81 38 32 39 33 40 34 41 75 42 35 43 80 44 74 45 76 46
REMARK SMILES IDX 36 47 79 48 73 49 72 50 37 52 63 53 46 54 62 55 47 56 50 57
REMARK SMILES IDX 61 58 77 59 48 60 49 61 60 63 78 64 51 65 38 66 39 67 44 68
REMARK SMILES IDX 40 69 41 70 43 71 45 72 42 73 64 74 65 75 70 76 66 77 67 78
REMARK SMILES IDX 69 79 71 80 68 81 52 82 53 83 58 84 54 85 55 86 57 87 59 88
REMARK SMILES IDX 56 89
REMARK H PARENT 22 5 7 16 26 32 76 51 50 62
REMARK Flexibility Score: inf
ROOT
ATOM      1  C   UNL A   1      37.102  21.049  24.613  1.00  0.00     0.117 C 
ENDROOT
BRANCH   1   2
ATOM      2  N   UNL A   1      37.464  22.192  25.423  1.00  0.00    -0.356 N 
ATOM      3  C   UNL A   1      36.870  23.417  25.525  1.00  0.00     0.224 C 
ATOM      4  O   UNL A   1      37.253  24.141  26.449  1.00  0.00    -0.275 OA
ATOM      5  H   UNL A   1      38.262  22.067  25.988  1.00  0.00     0.163 HD
BRANCH   3   6
ATOM      6  C   UNL A   1      35.705  23.817  24.626  1.00  0.00     0.138 C 
BRANCH   6   7
ATOM      7  C   UNL A   1      34.432  24.174  25.350  1.00  0.00    -0.002 A 
ATOM      8  C   UNL A   1      33.222  27.777  24.834  1.00  0.00     0.119 A 
ATOM      9  C   UNL A   1      32.138  27.693  25.704  1.00  0.00     0.048 A 
ATOM     10  C   UNL A   1      34.026  26.655  24.601  1.00  0.00     0.057 A 
ATOM     11  C   UNL A   1      31.849  26.501  26.381  1.00  0.00     0.030 A 
ATOM     12  C   UNL A   1      33.775  25.451  25.291  1.00  0.00     0.008 A 
ATOM     13  C   UNL A   1      32.688  25.403  26.156  1.00  0.00     0.046 A 
ATOM     14  N   UNL A   1      32.650  24.136  26.682  1.00  0.00    -0.352 N 
ATOM     15  C   UNL A   1      33.645  23.342  26.150  1.00  0.00     0.093 A 
ATOM     16  H   UNL A   1      31.997  23.832  27.353  1.00  0.00     0.167 HD
BRANCH   8  17
ATOM     17  O   UNL A   1      33.567  28.896  24.124  1.00  0.00    -0.497 OA
ATOM     18  C   UNL A   1      34.003  28.644  22.791  1.00  0.00     0.278 C 
ENDBRANCH   8  17
BRANCH  15  19
ATOM     19  C   UNL A   1      33.812  21.917  26.414  1.00  0.00     0.227 C 
ATOM     20  O   UNL A   1      34.412  21.475  27.393  1.00  0.00    -0.285 OA
BRANCH  19  21
ATOM     21  C   UNL A   1      33.294  20.932  25.427  1.00  0.00     0.113 A 
ATOM     22  C   UNL A   1      32.845  21.373  24.186  1.00  0.00     0.036 A 
ATOM     23  N   UNL A   1      33.306  19.632  25.812  1.00  0.00    -0.253 NA
ATOM     24  C   UNL A   1      32.380  20.422  23.275  1.00  0.00    -0.047 A 
ATOM     25  C   UNL A   1      32.890  18.732  24.900  1.00  0.00     0.112 A 
ATOM     26  C   UNL A   1      31.878  20.821  21.921  1.00  0.00     0.044 C 
ATOM     27  C   UNL A   1      32.419  19.074  23.640  1.00  0.00     0.023 A 
ENDBRANCH  19  21
ENDBRANCH  15  19
ENDBRANCH   6   7
ENDBRANCH   3   6
ENDBRANCH   1   2
BRANCH   1  28
ATOM     28  C   UNL A   1      38.107  19.905  24.714  1.00  0.00     0.042 C 
BRANCH  28  29
ATOM     29  C   UNL A   1      38.953  19.916  25.984  1.00  0.00     0.118 C 
BRANCH  29  30
ATOM     30  N   UNL A   1      40.198  19.174  25.842  1.00  0.00    -0.352 N 
ATOM     31  C   UNL A   1      41.501  19.576  25.994  1.00  0.00     0.251 C 
ATOM     32  H   UNL A   1      40.086  18.227  25.596  1.00  0.00     0.163 HD
ATOM     33  O   UNL A   1      42.408  18.817  25.662  1.00  0.00    -0.269 OA
BRANCH  31  34
ATOM     34  C   UNL A   1      41.834  20.913  26.535  1.00  0.00     0.039 A 
ATOM     35  C   UNL A   1      42.230  21.915  25.641  1.00  0.00     0.014 A 
ATOM     36  C   UNL A   1      41.816  21.176  27.907  1.00  0.00     0.014 A 
ATOM     37  C   UNL A   1      42.549  23.190  26.116  1.00  0.00     0.010 A 
ATOM     38  C   UNL A   1      42.076  22.464  28.374  1.00  0.00     0.010 A 
ATOM     39  C   UNL A   1      42.446  23.484  27.483  1.00  0.00    -0.014 A 
BRANCH  39  40
ATOM     40  C   UNL A   1      42.727  24.845  28.007  1.00  0.00     0.031 A 
ATOM     41  C   UNL A   1      44.120  25.217  28.435  1.00  0.00     0.074 A 
ATOM     42  C   UNL A   1      41.719  25.725  28.157  1.00  0.00     0.049 A 
ATOM     43  N   UNL A   1      44.541  26.306  29.025  1.00  0.00    -0.248 NA
ATOM     44  C   UNL A   1      45.174  24.222  28.183  1.00  0.00     0.031 C 
ATOM     45  C   UNL A   1      40.320  25.483  27.800  1.00  0.00     0.029 A 
ATOM     46  N   UNL A   1      41.715  27.001  28.665  1.00  0.00    -0.354 N 
ATOM     47  C   UNL A   1      45.902  26.121  29.231  1.00  0.00     0.074 A 
ATOM     48  C   UNL A   1      46.230  24.801  28.737  1.00  0.00     0.031 C 
ATOM     49  C   UNL A   1      39.597  26.578  28.087  1.00  0.00     0.029 A 
ATOM     50  C   UNL A   1      40.472  27.584  28.682  1.00  0.00     0.049 A 
ATOM     51  H   UNL A   1      42.528  27.455  28.986  1.00  0.00     0.167 HD
ATOM     52  C   UNL A   1      46.801  26.980  29.769  1.00  0.00     0.037 A 
ATOM     53  C   UNL A   1      40.078  28.788  29.140  1.00  0.00     0.037 A 
ATOM     54  C   UNL A   1      46.483  28.304  30.235  1.00  0.00     0.049 A 
ATOM     55  C   UNL A   1      41.095  29.718  29.741  1.00  0.00     0.074 A 
ATOM     56  C   UNL A   1      47.332  29.257  30.772  1.00  0.00     0.029 A 
ATOM     57  N   UNL A   1      45.216  28.864  30.213  1.00  0.00    -0.354 N 
ATOM     58  N   UNL A   1      42.383  29.538  29.908  1.00  0.00    -0.248 NA
ATOM     59  C   UNL A   1      40.604  31.020  30.216  1.00  0.00     0.031 C 
ATOM     60  C   UNL A   1      46.573  30.388  31.094  1.00  0.00     0.029 A 
ATOM     61  C   UNL A   1      45.259  30.149  30.729  1.00  0.00     0.049 A 
ATOM     62  H   UNL A   1      44.405  28.416  29.879  1.00  0.00     0.167 HD
ATOM     63  C   UNL A   1      42.860  30.712  30.476  1.00  0.00     0.074 A 
ATOM     64  C   UNL A   1      41.724  31.600  30.620  1.00  0.00     0.031 C 
ATOM     65  C   UNL A   1      44.125  31.027  30.844  1.00  0.00     0.037 A 
BRANCH  52  66
ATOM     66  C   UNL A   1      48.223  26.516  29.872  1.00  0.00     0.057 A 
ATOM     67  C   UNL A   1      48.682  25.800  30.985  1.00  0.00     0.134 A 
ATOM     68  C   UNL A   1      49.131  26.751  28.832  1.00  0.00     0.134 A 
ATOM     69  F   UNL A   1      47.864  25.554  32.019  1.00  0.00    -0.206 F 
ATOM     70  C   UNL A   1      50.001  25.351  31.069  1.00  0.00     0.040 A 
ATOM     71  C   UNL A   1      50.446  26.287  28.895  1.00  0.00     0.040 A 
ATOM     72  F   UNL A   1      48.753  27.425  27.735  1.00  0.00    -0.206 F 
ATOM     73  C   UNL A   1      50.886  25.588  30.018  1.00  0.00     0.006 A 
ENDBRANCH  52  66
BRANCH  53  74
ATOM     74  C   UNL A   1      38.656  29.197  29.035  1.00  0.00     0.057 A 
ATOM     75  C   UNL A   1      37.802  29.114  30.141  1.00  0.00     0.134 A 
ATOM     76  C   UNL A   1      38.112  29.658  27.832  1.00  0.00     0.134 A 
ATOM     77  F   UNL A   1      38.263  28.659  31.316  1.00  0.00    -0.206 F 
ATOM     78  C   UNL A   1      36.453  29.452  30.049  1.00  0.00     0.040 A 
ATOM     79  C   UNL A   1      36.768  30.022  27.731  1.00  0.00     0.040 A 
ATOM     80  F   UNL A   1      38.881  29.767  26.738  1.00  0.00    -0.206 F 
ATOM     81  C   UNL A   1      35.933  29.912  28.841  1.00  0.00     0.006 A 
ENDBRANCH  53  74
BRANCH  65  82
ATOM     82  C   UNL A   1      44.357  32.401  31.391  1.00  0.00     0.057 A 
ATOM     83  C   UNL A   1      44.300  32.671  32.763  1.00  0.00     0.134 A 
ATOM     84  C   UNL A   1      44.683  33.460  30.534  1.00  0.00     0.134 A 
ATOM     85  F   UNL A   1      43.979  31.700  33.632  1.00  0.00    -0.206 F 
ATOM     86  C   UNL A   1      44.544  33.949  33.264  1.00  0.00     0.040 A 
ATOM     87  C   UNL A   1      44.949  34.739  31.024  1.00  0.00     0.040 A 
ATOM     88  F   UNL A   1      44.758  33.265  29.209  1.00  0.00    -0.206 F 
ATOM     89  C   UNL A   1      44.876  34.987  32.394  1.00  0.00     0.006 A 
ENDBRANCH  65  82
ENDBRANCH  39  40
ENDBRANCH  31  34
ENDBRANCH  29  30
ENDBRANCH  28  29
ENDBRANCH   1  28
TORSDOF 14
ENDMDL
