MODEL 1
REMARK VINA RESULT:     -11.2      0.000      0.000
REMARK SMILES CNC(=O)NC1=[NH+]N=CN[C@@H]1C(=O)NCCCNC(=O)c1ccc(-c2c3nc(c(-c4c(F)cccc4F)c4ccc([nH]4)c(-c4c(F)cccc4F)c4nc(c(-c5c(F)cccc5F)c5ccc2[nH]5)C=C4)C=C3)cc1
REMARK SMILES IDX 17 1 16 2 15 3 14 4 12 5 13 6 11 8 1 9 2 10 3 11 4 13 5 14
REMARK SMILES IDX 6 15 7 17 8 18 10 20 9 21 18 23 19 24 20 26 21 27 22 28
REMARK SMILES IDX 74 29 23 30 73 31 24 32 25 33 26 34 67 35 27 36 72 37 66 38
REMARK SMILES IDX 68 39 28 40 71 41 65 42 64 43 29 45 55 46 38 47 54 48 39 49
REMARK SMILES IDX 42 50 53 51 69 52 40 53 41 54 52 56 70 57 43 58 30 59 31 60
REMARK SMILES IDX 36 61 32 62 33 63 35 64 37 65 34 66 56 67 57 68 62 69 58 70
REMARK SMILES IDX 59 71 61 72 63 73 60 74 44 75 45 76 50 77 46 78 47 79 49 80
REMARK SMILES IDX 51 81 48 82
REMARK H PARENT 14 7 2 12 5 16 7 19 10 22 18 25 68 44 42 55
REMARK Flexibility Score: inf
ROOT
ATOM      1  C   UNL A   1      34.775  32.600  28.694  1.00  0.00     0.118 C 
ENDROOT
BRANCH   1   2
ATOM      2  C   UNL A   1      34.309  33.773  27.840  1.00  0.00     0.042 C 
BRANCH   2   3
ATOM      3  C   UNL A   1      34.338  35.108  28.574  1.00  0.00     0.117 C 
BRANCH   3   4
ATOM      4  N   UNL A   1      33.110  35.362  29.302  1.00  0.00    -0.354 N 
ATOM      5  C   UNL A   1      32.906  35.792  30.579  1.00  0.00     0.255 C 
ATOM      6  O   UNL A   1      31.730  35.828  30.964  1.00  0.00    -0.272 OA
ATOM      7  H   UNL A   1      32.286  35.196  28.789  1.00  0.00     0.163 HD
BRANCH   5   8
ATOM      8  C   UNL A   1      34.044  36.143  31.551  1.00  0.00     0.287 C 
ATOM      9  C   UNL A   1      36.921  34.713  32.428  1.00  0.00     0.147 C 
ATOM     10  N   UNL A   1      36.074  33.639  31.941  1.00  0.00    -0.321 N 
ATOM     11  C   UNL A   1      34.825  33.283  32.340  1.00  0.00     0.406 C 
ATOM     12  H   UNL A   1      36.461  33.092  31.219  1.00  0.00     0.167 HD
ATOM     13  O   UNL A   1      34.378  32.176  32.058  1.00  0.00    -0.221 OA
ATOM     14  N   UNL A   1      34.119  34.166  33.104  1.00  0.00    -0.191 N 
ATOM     15  C   UNL A   1      33.920  35.511  32.934  1.00  0.00     0.309 C 
ATOM     16  H   UNL A   1      33.689  33.777  33.899  1.00  0.00     0.317 HD
ATOM     17  N   UNL A   1      33.670  36.170  34.026  1.00  0.00    -0.148 N 
ATOM     18  N   UNL A   1      33.653  37.578  33.988  1.00  0.00    -0.077 NA
ATOM     19  H   UNL A   1      33.496  35.691  34.869  1.00  0.00     0.342 HD
ATOM     20  N   UNL A   1      34.184  37.585  31.676  1.00  0.00    -0.352 N 
ATOM     21  C   UNL A   1      33.944  38.168  32.876  1.00  0.00     0.241 C 
ATOM     22  H   UNL A   1      34.449  38.129  30.900  1.00  0.00     0.163 HD
ENDBRANCH   5   8
ENDBRANCH   3   4
ENDBRANCH   2   3
ENDBRANCH   1   2
BRANCH   1  23
ATOM     23  N   UNL A   1      34.078  31.363  28.369  1.00  0.00    -0.352 N 
ATOM     24  C   UNL A   1      34.572  30.122  28.056  1.00  0.00     0.251 C 
ATOM     25  H   UNL A   1      33.096  31.428  28.372  1.00  0.00     0.163 HD
ATOM     26  O   UNL A   1      33.823  29.268  27.595  1.00  0.00    -0.269 OA
BRANCH  24  27
ATOM     27  C   UNL A   1      35.999  29.811  28.271  1.00  0.00     0.039 A 
ATOM     28  C   UNL A   1      36.403  29.328  29.518  1.00  0.00     0.014 A 
ATOM     29  C   UNL A   1      36.942  30.033  27.264  1.00  0.00     0.014 A 
ATOM     30  C   UNL A   1      37.745  29.018  29.736  1.00  0.00     0.010 A 
ATOM     31  C   UNL A   1      38.263  29.641  27.454  1.00  0.00     0.010 A 
ATOM     32  C   UNL A   1      38.681  29.143  28.696  1.00  0.00    -0.014 A 
BRANCH  32  33
ATOM     33  C   UNL A   1      40.103  28.771  28.895  1.00  0.00     0.031 A 
ATOM     34  C   UNL A   1      41.065  29.760  29.493  1.00  0.00     0.074 A 
ATOM     35  C   UNL A   1      40.535  27.563  28.486  1.00  0.00     0.049 A 
ATOM     36  N   UNL A   1      42.350  29.638  29.702  1.00  0.00    -0.248 NA
ATOM     37  C   UNL A   1      40.516  31.070  29.879  1.00  0.00     0.031 C 
ATOM     38  C   UNL A   1      39.707  26.541  27.843  1.00  0.00     0.029 A 
ATOM     39  N   UNL A   1      41.781  26.992  28.545  1.00  0.00    -0.354 N 
ATOM     40  C   UNL A   1      42.765  30.856  30.230  1.00  0.00     0.074 A 
ATOM     41  C   UNL A   1      41.607  31.723  30.251  1.00  0.00     0.031 C 
ATOM     42  C   UNL A   1      40.459  25.457  27.596  1.00  0.00     0.029 A 
ATOM     43  C   UNL A   1      41.828  25.721  28.026  1.00  0.00     0.049 A 
ATOM     44  H   UNL A   1      42.566  27.450  28.922  1.00  0.00     0.167 HD
ATOM     45  C   UNL A   1      43.991  31.208  30.680  1.00  0.00     0.037 A 
ATOM     46  C   UNL A   1      42.862  24.867  27.909  1.00  0.00     0.037 A 
ATOM     47  C   UNL A   1      45.132  30.332  30.680  1.00  0.00     0.049 A 
ATOM     48  C   UNL A   1      44.213  25.284  28.416  1.00  0.00     0.074 A 
ATOM     49  C   UNL A   1      46.403  30.570  31.172  1.00  0.00     0.029 A 
ATOM     50  N   UNL A   1      45.138  29.046  30.159  1.00  0.00    -0.354 N 
ATOM     51  N   UNL A   1      44.574  26.412  28.982  1.00  0.00    -0.248 NA
ATOM     52  C   UNL A   1      45.302  24.306  28.277  1.00  0.00     0.031 C 
ATOM     53  C   UNL A   1      47.191  29.445  30.906  1.00  0.00     0.029 A 
ATOM     54  C   UNL A   1      46.398  28.488  30.296  1.00  0.00     0.049 A 
ATOM     55  H   UNL A   1      44.361  28.597  29.753  1.00  0.00     0.167 HD
ATOM     56  C   UNL A   1      45.921  26.270  29.288  1.00  0.00     0.074 A 
ATOM     57  C   UNL A   1      46.308  24.941  28.862  1.00  0.00     0.031 C 
ATOM     58  C   UNL A   1      46.763  27.161  29.868  1.00  0.00     0.037 A 
BRANCH  45  59
ATOM     59  C   UNL A   1      44.158  32.602  31.217  1.00  0.00     0.057 A 
ATOM     60  C   UNL A   1      43.954  32.901  32.572  1.00  0.00     0.134 A 
ATOM     61  C   UNL A   1      44.554  33.650  30.379  1.00  0.00     0.134 A 
ATOM     62  F   UNL A   1      43.561  31.946  33.428  1.00  0.00    -0.206 F 
ATOM     63  C   UNL A   1      44.110  34.198  33.065  1.00  0.00     0.040 A 
ATOM     64  C   UNL A   1      44.742  34.944  30.867  1.00  0.00     0.040 A 
ATOM     65  F   UNL A   1      44.773  33.433  29.073  1.00  0.00    -0.206 F 
ATOM     66  C   UNL A   1      44.514  35.223  32.213  1.00  0.00     0.006 A 
ENDBRANCH  45  59
BRANCH  46  67
ATOM     67  C   UNL A   1      42.653  23.524  27.310  1.00  0.00     0.057 A 
ATOM     68  C   UNL A   1      42.291  22.429  28.104  1.00  0.00     0.134 A 
ATOM     69  C   UNL A   1      42.815  23.300  25.938  1.00  0.00     0.134 A 
ATOM     70  F   UNL A   1      42.137  22.578  29.428  1.00  0.00    -0.206 F 
ATOM     71  C   UNL A   1      42.119  21.156  27.559  1.00  0.00     0.040 A 
ATOM     72  C   UNL A   1      42.621  22.038  25.376  1.00  0.00     0.040 A 
ATOM     73  F   UNL A   1      43.152  24.310  25.122  1.00  0.00    -0.206 F 
ATOM     74  C   UNL A   1      42.279  20.959  26.189  1.00  0.00     0.006 A 
ENDBRANCH  46  67
BRANCH  58  75
ATOM     75  C   UNL A   1      48.176  26.713  30.101  1.00  0.00     0.057 A 
ATOM     76  C   UNL A   1      48.543  25.985  31.240  1.00  0.00     0.134 A 
ATOM     77  C   UNL A   1      49.173  26.981  29.155  1.00  0.00     0.134 A 
ATOM     78  F   UNL A   1      47.637  25.706  32.190  1.00  0.00    -0.206 F 
ATOM     79  C   UNL A   1      49.858  25.564  31.443  1.00  0.00     0.040 A 
ATOM     80  C   UNL A   1      50.486  26.540  29.333  1.00  0.00     0.040 A 
ATOM     81  F   UNL A   1      48.887  27.665  28.037  1.00  0.00    -0.206 F 
ATOM     82  C   UNL A   1      50.831  25.835  30.484  1.00  0.00     0.006 A 
ENDBRANCH  58  75
ENDBRANCH  32  33
ENDBRANCH  24  27
ENDBRANCH   1  23
TORSDOF 10
ENDMDL
MODEL 2
REMARK VINA RESULT:     -11.2      2.044      2.431
REMARK SMILES CNC(=O)NC1=[NH+]N=CN[C@@H]1C(=O)NCCCNC(=O)c1ccc(-c2c3nc(c(-c4c(F)cccc4F)c4ccc([nH]4)c(-c4c(F)cccc4F)c4nc(c(-c5c(F)cccc5F)c5ccc2[nH]5)C=C4)C=C3)cc1
REMARK SMILES IDX 17 1 16 2 15 3 14 4 12 5 13 6 11 8 1 9 2 10 3 11 4 13 5 14
REMARK SMILES IDX 6 15 7 17 8 18 10 20 9 21 18 23 19 24 20 26 21 27 22 28
REMARK SMILES IDX 74 29 23 30 73 31 24 32 25 33 26 34 67 35 27 36 72 37 66 38
REMARK SMILES IDX 68 39 28 40 71 41 65 42 64 43 29 45 55 46 38 47 54 48 39 49
REMARK SMILES IDX 42 50 53 51 69 52 40 53 41 54 52 56 70 57 43 58 30 59 31 60
REMARK SMILES IDX 36 61 32 62 33 63 35 64 37 65 34 66 56 67 57 68 62 69 58 70
REMARK SMILES IDX 59 71 61 72 63 73 60 74 44 75 45 76 50 77 46 78 47 79 49 80
REMARK SMILES IDX 51 81 48 82
REMARK H PARENT 14 7 2 12 5 16 7 19 10 22 18 25 68 44 42 55
REMARK Flexibility Score: inf
ROOT
ATOM      1  C   UNL A   1      34.405  33.100  28.676  1.00  0.00     0.118 C 
ENDROOT
BRANCH   1   2
ATOM      2  C   UNL A   1      34.622  34.307  27.769  1.00  0.00     0.042 C 
BRANCH   2   3
ATOM      3  C   UNL A   1      34.256  35.632  28.426  1.00  0.00     0.117 C 
BRANCH   3   4
ATOM      4  N   UNL A   1      33.080  35.524  29.267  1.00  0.00    -0.354 N 
ATOM      5  C   UNL A   1      32.931  35.678  30.612  1.00  0.00     0.255 C 
ATOM      6  O   UNL A   1      31.810  35.429  31.073  1.00  0.00    -0.272 OA
ATOM      7  H   UNL A   1      32.250  35.301  28.785  1.00  0.00     0.163 HD
BRANCH   5   8
ATOM      8  C   UNL A   1      34.083  36.058  31.557  1.00  0.00     0.287 C 
ATOM      9  C   UNL A   1      36.996  34.681  32.397  1.00  0.00     0.147 C 
ATOM     10  N   UNL A   1      36.156  33.589  31.940  1.00  0.00    -0.321 N 
ATOM     11  C   UNL A   1      34.920  33.220  32.368  1.00  0.00     0.406 C 
ATOM     12  H   UNL A   1      36.536  33.037  31.218  1.00  0.00     0.167 HD
ATOM     13  O   UNL A   1      34.483  32.104  32.109  1.00  0.00    -0.221 OA
ATOM     14  N   UNL A   1      34.216  34.103  33.134  1.00  0.00    -0.191 N 
ATOM     15  C   UNL A   1      33.994  35.443  32.950  1.00  0.00     0.309 C 
ATOM     16  H   UNL A   1      33.806  33.718  33.942  1.00  0.00     0.317 HD
ATOM     17  N   UNL A   1      33.756  36.112  34.039  1.00  0.00    -0.148 N 
ATOM     18  N   UNL A   1      33.718  37.519  33.983  1.00  0.00    -0.077 NA
ATOM     19  H   UNL A   1      33.605  35.642  34.891  1.00  0.00     0.342 HD
ATOM     20  N   UNL A   1      34.204  37.504  31.661  1.00  0.00    -0.352 N 
ATOM     21  C   UNL A   1      33.978  38.099  32.858  1.00  0.00     0.241 C 
ATOM     22  H   UNL A   1      34.446  38.041  30.873  1.00  0.00     0.163 HD
ENDBRANCH   5   8
ENDBRANCH   3   4
ENDBRANCH   2   3
ENDBRANCH   1   2
BRANCH   1  23
ATOM     23  N   UNL A   1      33.790  31.981  27.975  1.00  0.00    -0.352 N 
ATOM     24  C   UNL A   1      34.310  30.764  27.618  1.00  0.00     0.251 C 
ATOM     25  H   UNL A   1      32.851  32.122  27.716  1.00  0.00     0.163 HD
ATOM     26  O   UNL A   1      33.697  30.046  26.836  1.00  0.00    -0.269 OA
BRANCH  24  27
ATOM     27  C   UNL A   1      35.604  30.315  28.171  1.00  0.00     0.039 A 
ATOM     28  C   UNL A   1      35.625  29.705  29.427  1.00  0.00     0.014 A 
ATOM     29  C   UNL A   1      36.796  30.530  27.474  1.00  0.00     0.014 A 
ATOM     30  C   UNL A   1      36.837  29.263  29.960  1.00  0.00     0.010 A 
ATOM     31  C   UNL A   1      37.988  30.012  27.966  1.00  0.00     0.010 A 
ATOM     32  C   UNL A   1      38.024  29.386  29.219  1.00  0.00    -0.014 A 
BRANCH  32  33
ATOM     33  C   UNL A   1      39.313  28.878  29.749  1.00  0.00     0.031 A 
ATOM     34  C   UNL A   1      39.939  29.522  30.955  1.00  0.00     0.074 A 
ATOM     35  C   UNL A   1      39.942  27.875  29.109  1.00  0.00     0.049 A 
ATOM     36  N   UNL A   1      41.080  29.252  31.536  1.00  0.00    -0.248 NA
ATOM     37  C   UNL A   1      39.202  30.636  31.571  1.00  0.00     0.031 C 
ATOM     38  C   UNL A   1      39.459  27.208  27.898  1.00  0.00     0.029 A 
ATOM     39  N   UNL A   1      41.129  27.243  29.384  1.00  0.00    -0.354 N 
ATOM     40  C   UNL A   1      41.202  30.168  32.574  1.00  0.00     0.074 A 
ATOM     41  C   UNL A   1      40.050  31.040  32.505  1.00  0.00     0.031 C 
ATOM     42  C   UNL A   1      40.324  26.241  27.553  1.00  0.00     0.029 A 
ATOM     43  C   UNL A   1      41.440  26.245  28.493  1.00  0.00     0.049 A 
ATOM     44  H   UNL A   1      41.702  27.483  30.147  1.00  0.00     0.167 HD
ATOM     45  C   UNL A   1      42.171  30.256  33.515  1.00  0.00     0.037 A 
ATOM     46  C   UNL A   1      42.508  25.427  28.442  1.00  0.00     0.037 A 
ATOM     47  C   UNL A   1      43.300  29.368  33.593  1.00  0.00     0.049 A 
ATOM     48  C   UNL A   1      43.570  25.546  29.497  1.00  0.00     0.074 A 
ATOM     49  C   UNL A   1      44.305  29.333  34.544  1.00  0.00     0.029 A 
ATOM     50  N   UNL A   1      43.575  28.360  32.681  1.00  0.00    -0.354 N 
ATOM     51  N   UNL A   1      43.635  26.369  30.518  1.00  0.00    -0.248 NA
ATOM     52  C   UNL A   1      44.706  24.618  29.401  1.00  0.00     0.031 C 
ATOM     53  C   UNL A   1      45.213  28.331  34.180  1.00  0.00     0.029 A 
ATOM     54  C   UNL A   1      44.747  27.711  33.033  1.00  0.00     0.049 A 
ATOM     55  H   UNL A   1      43.018  28.138  31.899  1.00  0.00     0.167 HD
ATOM     56  C   UNL A   1      44.801  26.041  31.197  1.00  0.00     0.074 A 
ATOM     57  C   UNL A   1      45.402  24.934  30.484  1.00  0.00     0.031 C 
ATOM     58  C   UNL A   1      45.328  26.607  32.311  1.00  0.00     0.037 A 
BRANCH  45  59
ATOM     59  C   UNL A   1      42.045  31.348  34.539  1.00  0.00     0.057 A 
ATOM     60  C   UNL A   1      41.326  31.167  35.729  1.00  0.00     0.134 A 
ATOM     61  C   UNL A   1      42.673  32.584  34.349  1.00  0.00     0.134 A 
ATOM     62  F   UNL A   1      40.689  30.010  35.969  1.00  0.00    -0.206 F 
ATOM     63  C   UNL A   1      41.213  32.185  36.677  1.00  0.00     0.040 A 
ATOM     64  C   UNL A   1      42.592  33.600  35.303  1.00  0.00     0.040 A 
ATOM     65  F   UNL A   1      43.383  32.825  33.235  1.00  0.00    -0.206 F 
ATOM     66  C   UNL A   1      41.854  33.404  36.468  1.00  0.00     0.006 A 
ENDBRANCH  45  59
BRANCH  46  67
ATOM     67  C   UNL A   1      42.611  24.406  27.368  1.00  0.00     0.057 A 
ATOM     68  C   UNL A   1      42.156  23.098  27.570  1.00  0.00     0.134 A 
ATOM     69  C   UNL A   1      43.171  24.709  26.121  1.00  0.00     0.134 A 
ATOM     70  F   UNL A   1      41.626  22.743  28.749  1.00  0.00    -0.206 F 
ATOM     71  C   UNL A   1      42.273  22.122  26.579  1.00  0.00     0.040 A 
ATOM     72  C   UNL A   1      43.270  23.750  25.112  1.00  0.00     0.040 A 
ATOM     73  F   UNL A   1      43.617  25.947  25.861  1.00  0.00    -0.206 F 
ATOM     74  C   UNL A   1      42.827  22.449  25.343  1.00  0.00     0.006 A 
ENDBRANCH  46  67
BRANCH  58  75
ATOM     75  C   UNL A   1      46.602  26.017  32.840  1.00  0.00     0.057 A 
ATOM     76  C   UNL A   1      46.602  24.979  33.780  1.00  0.00     0.134 A 
ATOM     77  C   UNL A   1      47.843  26.468  32.372  1.00  0.00     0.134 A 
ATOM     78  F   UNL A   1      45.447  24.511  34.276  1.00  0.00    -0.206 F 
ATOM     79  C   UNL A   1      47.793  24.430  34.257  1.00  0.00     0.040 A 
ATOM     80  C   UNL A   1      49.040  25.907  32.821  1.00  0.00     0.040 A 
ATOM     81  F   UNL A   1      47.913  27.453  31.464  1.00  0.00    -0.206 F 
ATOM     82  C   UNL A   1      49.015  24.889  33.772  1.00  0.00     0.006 A 
ENDBRANCH  58  75
ENDBRANCH  32  33
ENDBRANCH  24  27
ENDBRANCH   1  23
TORSDOF 10
ENDMDL
MODEL 3
REMARK VINA RESULT:     -11.2      0.430      6.469
REMARK SMILES CNC(=O)NC1=[NH+]N=CN[C@@H]1C(=O)NCCCNC(=O)c1ccc(-c2c3nc(c(-c4c(F)cccc4F)c4ccc([nH]4)c(-c4c(F)cccc4F)c4nc(c(-c5c(F)cccc5F)c5ccc2[nH]5)C=C4)C=C3)cc1
REMARK SMILES IDX 17 1 16 2 15 3 14 4 12 5 13 6 11 8 1 9 2 10 3 11 4 13 5 14
REMARK SMILES IDX 6 15 7 17 8 18 10 20 9 21 18 23 19 24 20 26 21 27 22 28
REMARK SMILES IDX 74 29 23 30 73 31 24 32 25 33 26 34 67 35 27 36 72 37 66 38
REMARK SMILES IDX 68 39 28 40 71 41 65 42 64 43 29 45 55 46 38 47 54 48 39 49
REMARK SMILES IDX 42 50 53 51 69 52 40 53 41 54 52 56 70 57 43 58 30 59 31 60
REMARK SMILES IDX 36 61 32 62 33 63 35 64 37 65 34 66 56 67 57 68 62 69 58 70
REMARK SMILES IDX 59 71 61 72 63 73 60 74 44 75 45 76 50 77 46 78 47 79 49 80
REMARK SMILES IDX 51 81 48 82
REMARK H PARENT 14 7 2 12 5 16 7 19 10 22 18 25 68 44 42 55
REMARK Flexibility Score: inf
ROOT
ATOM      1  C   UNL A   1      34.652  32.462  28.719  1.00  0.00     0.118 C 
ENDROOT
BRANCH   1   2
ATOM      2  C   UNL A   1      33.994  33.640  28.008  1.00  0.00     0.042 C 
BRANCH   2   3
ATOM      3  C   UNL A   1      34.211  34.972  28.714  1.00  0.00     0.117 C 
BRANCH   3   4
ATOM      4  N   UNL A   1      33.017  35.435  29.394  1.00  0.00    -0.354 N 
ATOM      5  C   UNL A   1      32.855  35.996  30.626  1.00  0.00     0.255 C 
ATOM      6  O   UNL A   1      31.689  36.207  30.984  1.00  0.00    -0.272 OA
ATOM      7  H   UNL A   1      32.183  35.327  28.881  1.00  0.00     0.163 HD
BRANCH   5   8
ATOM      8  C   UNL A   1      34.019  36.289  31.586  1.00  0.00     0.287 C 
ATOM      9  C   UNL A   1      36.830  34.718  32.435  1.00  0.00     0.147 C 
ATOM     10  N   UNL A   1      35.926  33.688  31.956  1.00  0.00    -0.321 N 
ATOM     11  C   UNL A   1      34.665  33.394  32.368  1.00  0.00     0.406 C 
ATOM     12  H   UNL A   1      36.277  33.122  31.231  1.00  0.00     0.167 HD
ATOM     13  O   UNL A   1      34.160  32.311  32.090  1.00  0.00    -0.221 OA
ATOM     14  N   UNL A   1      34.011  34.310  33.139  1.00  0.00    -0.191 N 
ATOM     15  C   UNL A   1      33.878  35.664  32.971  1.00  0.00     0.309 C 
ATOM     16  H   UNL A   1      33.570  33.943  33.938  1.00  0.00     0.317 HD
ATOM     17  N   UNL A   1      33.672  36.333  34.065  1.00  0.00    -0.148 N 
ATOM     18  N   UNL A   1      33.724  37.741  34.028  1.00  0.00    -0.077 NA
ATOM     19  H   UNL A   1      33.482  35.863  34.910  1.00  0.00     0.342 HD
ATOM     20  N   UNL A   1      34.232  37.723  31.710  1.00  0.00    -0.352 N 
ATOM     21  C   UNL A   1      34.033  38.316  32.912  1.00  0.00     0.241 C 
ATOM     22  H   UNL A   1      34.516  38.253  30.932  1.00  0.00     0.163 HD
ENDBRANCH   5   8
ENDBRANCH   3   4
ENDBRANCH   2   3
ENDBRANCH   1   2
BRANCH   1  23
ATOM     23  N   UNL A   1      34.044  31.187  28.363  1.00  0.00    -0.352 N 
ATOM     24  C   UNL A   1      34.622  29.984  28.050  1.00  0.00     0.251 C 
ATOM     25  H   UNL A   1      33.059  31.190  28.344  1.00  0.00     0.163 HD
ATOM     26  O   UNL A   1      33.940  29.090  27.562  1.00  0.00    -0.269 OA
BRANCH  24  27
ATOM     27  C   UNL A   1      36.061  29.762  28.298  1.00  0.00     0.039 A 
ATOM     28  C   UNL A   1      36.469  29.330  29.562  1.00  0.00     0.014 A 
ATOM     29  C   UNL A   1      37.008  30.017  27.302  1.00  0.00     0.014 A 
ATOM     30  C   UNL A   1      37.823  29.103  29.810  1.00  0.00     0.010 A 
ATOM     31  C   UNL A   1      38.345  29.707  27.524  1.00  0.00     0.010 A 
ATOM     32  C   UNL A   1      38.768  29.261  28.783  1.00  0.00    -0.014 A 
BRANCH  32  33
ATOM     33  C   UNL A   1      40.206  28.977  29.016  1.00  0.00     0.031 A 
ATOM     34  C   UNL A   1      40.790  27.655  28.600  1.00  0.00     0.074 A 
ATOM     35  C   UNL A   1      40.966  29.888  29.650  1.00  0.00     0.049 A 
ATOM     36  N   UNL A   1      42.008  27.204  28.760  1.00  0.00    -0.248 NA
ATOM     37  C   UNL A   1      39.880  26.702  27.946  1.00  0.00     0.031 C 
ATOM     38  C   UNL A   1      40.497  31.183  30.148  1.00  0.00     0.029 A 
ATOM     39  N   UNL A   1      42.295  29.863  29.990  1.00  0.00    -0.354 N 
ATOM     40  C   UNL A   1      42.006  25.915  28.240  1.00  0.00     0.074 A 
ATOM     41  C   UNL A   1      40.652  25.633  27.816  1.00  0.00     0.031 C 
ATOM     42  C   UNL A   1      41.528  31.841  30.702  1.00  0.00     0.029 A 
ATOM     43  C   UNL A   1      42.719  31.001  30.632  1.00  0.00     0.049 A 
ATOM     44  H   UNL A   1      42.887  29.102  29.793  1.00  0.00     0.167 HD
ATOM     45  C   UNL A   1      43.043  25.057  28.103  1.00  0.00     0.037 A 
ATOM     46  C   UNL A   1      43.934  31.327  31.113  1.00  0.00     0.037 A 
ATOM     47  C   UNL A   1      44.393  25.354  28.504  1.00  0.00     0.049 A 
ATOM     48  C   UNL A   1      45.068  30.355  30.950  1.00  0.00     0.074 A 
ATOM     49  C   UNL A   1      45.528  24.578  28.352  1.00  0.00     0.029 A 
ATOM     50  N   UNL A   1      44.787  26.523  29.138  1.00  0.00    -0.354 N 
ATOM     51  N   UNL A   1      45.069  29.169  30.388  1.00  0.00    -0.248 NA
ATOM     52  C   UNL A   1      46.375  30.769  31.479  1.00  0.00     0.031 C 
ATOM     53  C   UNL A   1      46.602  25.259  28.937  1.00  0.00     0.029 A 
ATOM     54  C   UNL A   1      46.146  26.479  29.406  1.00  0.00     0.049 A 
ATOM     55  H   UNL A   1      44.190  27.273  29.364  1.00  0.00     0.167 HD
ATOM     56  C   UNL A   1      46.375  28.708  30.474  1.00  0.00     0.074 A 
ATOM     57  C   UNL A   1      47.143  29.749  31.124  1.00  0.00     0.031 C 
ATOM     58  C   UNL A   1      46.893  27.527  30.053  1.00  0.00     0.037 A 
BRANCH  45  59
ATOM     59  C   UNL A   1      42.757  23.716  27.489  1.00  0.00     0.057 A 
ATOM     60  C   UNL A   1      42.844  23.502  26.106  1.00  0.00     0.134 A 
ATOM     61  C   UNL A   1      42.418  22.619  28.289  1.00  0.00     0.134 A 
ATOM     62  F   UNL A   1      43.151  24.514  25.280  1.00  0.00    -0.206 F 
ATOM     63  C   UNL A   1      42.576  22.254  25.540  1.00  0.00     0.040 A 
ATOM     64  C   UNL A   1      42.178  21.359  27.738  1.00  0.00     0.040 A 
ATOM     65  F   UNL A   1      42.323  22.750  29.621  1.00  0.00    -0.206 F 
ATOM     66  C   UNL A   1      42.250  21.176  26.359  1.00  0.00     0.006 A 
ENDBRANCH  45  59
BRANCH  46  67
ATOM     67  C   UNL A   1      44.145  32.642  31.770  1.00  0.00     0.057 A 
ATOM     68  C   UNL A   1      44.022  32.783  33.157  1.00  0.00     0.134 A 
ATOM     69  C   UNL A   1      44.467  33.787  31.031  1.00  0.00     0.134 A 
ATOM     70  F   UNL A   1      43.699  31.727  33.917  1.00  0.00    -0.206 F 
ATOM     71  C   UNL A   1      44.190  34.019  33.784  1.00  0.00     0.040 A 
ATOM     72  C   UNL A   1      44.664  35.023  31.647  1.00  0.00     0.040 A 
ATOM     73  F   UNL A   1      44.609  33.716  29.699  1.00  0.00    -0.206 F 
ATOM     74  C   UNL A   1      44.517  35.143  33.028  1.00  0.00     0.006 A 
ENDBRANCH  46  67
BRANCH  58  75
ATOM     75  C   UNL A   1      48.364  27.315  30.259  1.00  0.00     0.057 A 
ATOM     76  C   UNL A   1      48.867  26.672  31.397  1.00  0.00     0.134 A 
ATOM     77  C   UNL A   1      49.286  27.726  29.287  1.00  0.00     0.134 A 
ATOM     78  F   UNL A   1      48.037  26.266  32.370  1.00  0.00    -0.206 F 
ATOM     79  C   UNL A   1      50.236  26.470  31.574  1.00  0.00     0.040 A 
ATOM     80  C   UNL A   1      50.655  27.504  29.440  1.00  0.00     0.040 A 
ATOM     81  F   UNL A   1      48.870  28.338  28.168  1.00  0.00    -0.206 F 
ATOM     82  C   UNL A   1      51.133  26.880  30.590  1.00  0.00     0.006 A 
ENDBRANCH  58  75
ENDBRANCH  32  33
ENDBRANCH  24  27
ENDBRANCH   1  23
TORSDOF 10
ENDMDL
