MODEL 1
REMARK VINA RESULT:     -12.4      0.000      0.000
REMARK SMILES O=C(NCCCNC(=O)[C@@H]1CCCC[C@@H]1C(=O)Nc1cccc(Br)c1)c1ccc(-c2c3nc(c(-c4c(F)cccc4F)c4ccc([nH]4)c(-c4c(F)cccc4F)c4nc(c(-c5c(F)cccc5F)c5ccc2[nH]5)C=C4)C=C3)cc1
REMARK SMILES IDX 5 1 4 2 3 3 1 4 2 5 26 7 27 8 79 9 28 10 78 11 29 12 30 13
REMARK SMILES IDX 31 14 72 15 32 16 77 17 71 18 73 19 33 20 76 21 70 22 69 23
REMARK SMILES IDX 34 25 60 26 43 27 59 28 44 29 47 30 58 31 74 32 45 33 46 34
REMARK SMILES IDX 57 36 75 37 48 38 35 39 36 40 41 41 37 42 38 43 40 44 42 45
REMARK SMILES IDX 39 46 61 47 62 48 67 49 63 50 64 51 66 52 68 53 65 54 49 55
REMARK SMILES IDX 50 56 55 57 51 58 52 59 54 60 56 61 53 62 6 63 7 64 8 65
REMARK SMILES IDX 9 67 10 68 11 69 15 70 12 71 14 72 13 73 16 74 17 75 18 76
REMARK SMILES IDX 19 78 20 79 25 80 21 81 23 82 22 83 24 84
REMARK H PARENT 3 6 73 24 47 35 7 66 18 77
REMARK Flexibility Score: inf
ROOT
ATOM      1  C   UNL A   1      38.042  19.983  24.992  1.00  0.00     0.042 C 
ENDROOT
BRANCH   1   2
ATOM      2  C   UNL A   1      39.168  20.102  26.005  1.00  0.00     0.118 C 
BRANCH   2   3
ATOM      3  N   UNL A   1      40.187  19.073  25.883  1.00  0.00    -0.352 N 
ATOM      4  O   UNL A   1      42.295  18.246  25.884  1.00  0.00    -0.269 OA
ATOM      5  C   UNL A   1      41.547  19.203  26.060  1.00  0.00     0.251 C 
ATOM      6  H   UNL A   1      39.867  18.173  25.647  1.00  0.00     0.163 HD
BRANCH   5   7
ATOM      7  C   UNL A   1      42.105  20.530  26.405  1.00  0.00     0.039 A 
ATOM      8  C   UNL A   1      42.266  20.908  27.741  1.00  0.00     0.014 A 
ATOM      9  C   UNL A   1      42.399  21.425  25.376  1.00  0.00     0.014 A 
ATOM     10  C   UNL A   1      42.579  22.229  28.047  1.00  0.00     0.010 A 
ATOM     11  C   UNL A   1      42.795  22.729  25.686  1.00  0.00     0.010 A 
ATOM     12  C   UNL A   1      42.857  23.149  27.023  1.00  0.00    -0.014 A 
BRANCH  12  13
ATOM     13  C   UNL A   1      43.300  24.522  27.371  1.00  0.00     0.031 A 
ATOM     14  C   UNL A   1      42.327  25.568  27.839  1.00  0.00     0.074 A 
ATOM     15  C   UNL A   1      44.608  24.817  27.247  1.00  0.00     0.049 A 
ATOM     16  N   UNL A   1      42.553  26.822  28.136  1.00  0.00    -0.248 NA
ATOM     17  C   UNL A   1      40.920  25.162  27.985  1.00  0.00     0.031 C 
ATOM     18  C   UNL A   1      45.640  23.885  26.783  1.00  0.00     0.029 A 
ATOM     19  N   UNL A   1      45.295  25.977  27.492  1.00  0.00    -0.354 N 
ATOM     20  C   UNL A   1      41.319  27.363  28.479  1.00  0.00     0.074 A 
ATOM     21  C   UNL A   1      40.344  26.302  28.346  1.00  0.00     0.031 C 
ATOM     22  C   UNL A   1      46.828  24.503  26.795  1.00  0.00     0.029 A 
ATOM     23  C   UNL A   1      46.636  25.888  27.208  1.00  0.00     0.049 A 
ATOM     24  H   UNL A   1      44.870  26.794  27.840  1.00  0.00     0.167 HD
ATOM     25  C   UNL A   1      41.036  28.629  28.870  1.00  0.00     0.037 A 
ATOM     26  C   UNL A   1      47.600  26.824  27.239  1.00  0.00     0.037 A 
ATOM     27  C   UNL A   1      42.019  29.669  29.032  1.00  0.00     0.049 A 
ATOM     28  C   UNL A   1      47.247  28.220  27.653  1.00  0.00     0.074 A 
ATOM     29  C   UNL A   1      41.841  30.955  29.515  1.00  0.00     0.029 A 
ATOM     30  N   UNL A   1      43.361  29.547  28.707  1.00  0.00    -0.354 N 
ATOM     31  N   UNL A   1      46.088  28.698  28.031  1.00  0.00    -0.248 NA
ATOM     32  C   UNL A   1      48.333  29.210  27.632  1.00  0.00     0.031 C 
ATOM     33  C   UNL A   1      43.066  31.626  29.437  1.00  0.00     0.029 A 
ATOM     34  C   UNL A   1      44.014  30.746  28.940  1.00  0.00     0.049 A 
ATOM     35  H   UNL A   1      43.787  28.729  28.361  1.00  0.00     0.167 HD
ATOM     36  C   UNL A   1      46.301  30.043  28.291  1.00  0.00     0.074 A 
ATOM     37  C   UNL A   1      47.707  30.299  28.056  1.00  0.00     0.031 C 
ATOM     38  C   UNL A   1      45.410  30.985  28.682  1.00  0.00     0.037 A 
BRANCH  25  39
ATOM     39  C   UNL A   1      39.605  28.982  29.144  1.00  0.00     0.057 A 
ATOM     40  C   UNL A   1      38.746  29.431  28.134  1.00  0.00     0.134 A 
ATOM     41  C   UNL A   1      39.054  28.771  30.416  1.00  0.00     0.134 A 
ATOM     42  F   UNL A   1      39.212  29.658  26.897  1.00  0.00    -0.206 F 
ATOM     43  C   UNL A   1      37.389  29.659  28.379  1.00  0.00     0.040 A 
ATOM     44  C   UNL A   1      37.697  28.980  30.668  1.00  0.00     0.040 A 
ATOM     45  F   UNL A   1      39.822  28.334  31.426  1.00  0.00    -0.206 F 
ATOM     46  C   UNL A   1      36.860  29.424  29.647  1.00  0.00     0.006 A 
ENDBRANCH  25  39
BRANCH  26  47
ATOM     47  C   UNL A   1      48.978  26.472  26.821  1.00  0.00     0.057 A 
ATOM     48  C   UNL A   1      49.889  25.912  27.721  1.00  0.00     0.134 A 
ATOM     49  C   UNL A   1      49.410  26.679  25.504  1.00  0.00     0.134 A 
ATOM     50  F   UNL A   1      49.537  25.707  28.999  1.00  0.00    -0.206 F 
ATOM     51  C   UNL A   1      51.186  25.577  27.331  1.00  0.00     0.040 A 
ATOM     52  C   UNL A   1      50.695  26.327  25.094  1.00  0.00     0.040 A 
ATOM     53  F   UNL A   1      48.579  27.206  24.594  1.00  0.00    -0.206 F 
ATOM     54  C   UNL A   1      51.589  25.779  26.011  1.00  0.00     0.006 A 
ENDBRANCH  26  47
BRANCH  38  55
ATOM     55  C   UNL A   1      45.934  32.376  28.865  1.00  0.00     0.057 A 
ATOM     56  C   UNL A   1      45.893  33.311  27.824  1.00  0.00     0.134 A 
ATOM     57  C   UNL A   1      46.466  32.788  30.091  1.00  0.00     0.134 A 
ATOM     58  F   UNL A   1      45.411  32.968  26.620  1.00  0.00    -0.206 F 
ATOM     59  C   UNL A   1      46.380  34.607  27.991  1.00  0.00     0.040 A 
ATOM     60  C   UNL A   1      46.937  34.088  30.278  1.00  0.00     0.040 A 
ATOM     61  F   UNL A   1      46.529  31.939  31.127  1.00  0.00    -0.206 F 
ATOM     62  C   UNL A   1      46.899  35.000  29.224  1.00  0.00     0.006 A 
ENDBRANCH  38  55
ENDBRANCH  12  13
ENDBRANCH   5   7
ENDBRANCH   2   3
ENDBRANCH   1   2
BRANCH   1  63
ATOM     63  C   UNL A   1      37.297  21.280  24.723  1.00  0.00     0.117 C 
BRANCH  63  64
ATOM     64  N   UNL A   1      36.742  21.876  25.932  1.00  0.00    -0.356 N 
ATOM     65  C   UNL A   1      35.655  22.695  26.070  1.00  0.00     0.223 C 
ATOM     66  H   UNL A   1      37.216  21.659  26.768  1.00  0.00     0.163 HD
ATOM     67  O   UNL A   1      35.235  22.924  27.200  1.00  0.00    -0.275 OA
BRANCH  65  68
ATOM     68  C   UNL A   1      35.011  23.258  24.822  1.00  0.00     0.091 C 
ATOM     69  C   UNL A   1      34.348  24.608  25.104  1.00  0.00     0.014 C 
ATOM     70  C   UNL A   1      34.094  22.267  24.082  1.00  0.00     0.091 C 
ATOM     71  C   UNL A   1      33.989  25.277  23.783  1.00  0.00     0.001 C 
ATOM     72  C   UNL A   1      33.664  22.944  22.751  1.00  0.00     0.014 C 
ATOM     73  C   UNL A   1      33.125  24.379  22.900  1.00  0.00     0.001 C 
BRANCH  70  74
ATOM     74  C   UNL A   1      32.827  21.834  24.839  1.00  0.00     0.228 C 
ATOM     75  O   UNL A   1      32.246  22.618  25.597  1.00  0.00    -0.274 OA
ATOM     76  N   UNL A   1      32.170  20.661  24.591  1.00  0.00    -0.326 N 
ATOM     77  H   UNL A   1      31.214  20.715  24.814  1.00  0.00     0.169 HD
BRANCH  76  78
ATOM     78  C   UNL A   1      32.530  19.397  24.094  1.00  0.00     0.042 A 
ATOM     79  C   UNL A   1      32.153  18.917  22.847  1.00  0.00     0.026 A 
ATOM     80  C   UNL A   1      33.435  18.635  24.846  1.00  0.00     0.041 A 
ATOM     81  C   UNL A   1      32.649  17.710  22.344  1.00  0.00     0.003 A 
ATOM     82  C   UNL A   1      33.923  17.420  24.351  1.00  0.00     0.020 A 
ATOM     83  C   UNL A   1      33.534  16.953  23.100  1.00  0.00     0.016 A 
ATOM     84  Br  UNL A   1      35.153  16.413  25.376  1.00  0.00    -0.051 Br
ENDBRANCH  76  78
ENDBRANCH  70  74
ENDBRANCH  65  68
ENDBRANCH  63  64
ENDBRANCH   1  63
TORSDOF 12
ENDMDL
MODEL 2
REMARK VINA RESULT:     -12.3      6.185     10.968
REMARK SMILES O=C(NCCCNC(=O)[C@@H]1CCCC[C@@H]1C(=O)Nc1cccc(Br)c1)c1ccc(-c2c3nc(c(-c4c(F)cccc4F)c4ccc([nH]4)c(-c4c(F)cccc4F)c4nc(c(-c5c(F)cccc5F)c5ccc2[nH]5)C=C4)C=C3)cc1
REMARK SMILES IDX 5 1 4 2 3 3 1 4 2 5 26 7 27 8 79 9 28 10 78 11 29 12 30 13
REMARK SMILES IDX 31 14 72 15 32 16 77 17 71 18 73 19 33 20 76 21 70 22 69 23
REMARK SMILES IDX 34 25 60 26 43 27 59 28 44 29 47 30 58 31 74 32 45 33 46 34
REMARK SMILES IDX 57 36 75 37 48 38 35 39 36 40 41 41 37 42 38 43 40 44 42 45
REMARK SMILES IDX 39 46 61 47 62 48 67 49 63 50 64 51 66 52 68 53 65 54 49 55
REMARK SMILES IDX 50 56 55 57 51 58 52 59 54 60 56 61 53 62 6 63 7 64 8 65
REMARK SMILES IDX 9 67 10 68 11 69 15 70 12 71 14 72 13 73 16 74 17 75 18 76
REMARK SMILES IDX 19 78 20 79 25 80 21 81 23 82 22 83 24 84
REMARK H PARENT 3 6 73 24 47 35 7 66 18 77
REMARK Flexibility Score: inf
ROOT
ATOM      1  C   UNL A   1      31.559  31.925  26.849  1.00  0.00     0.042 C 
ENDROOT
BRANCH   1   2
ATOM      2  C   UNL A   1      32.772  32.802  27.114  1.00  0.00     0.118 C 
BRANCH   2   3
ATOM      3  N   UNL A   1      32.449  34.119  27.637  1.00  0.00    -0.352 N 
ATOM      4  O   UNL A   1      32.692  35.917  28.991  1.00  0.00    -0.269 OA
ATOM      5  C   UNL A   1      33.106  34.823  28.622  1.00  0.00     0.251 C 
ATOM      6  H   UNL A   1      31.665  34.562  27.240  1.00  0.00     0.163 HD
BRANCH   5   7
ATOM      7  C   UNL A   1      34.287  34.215  29.276  1.00  0.00     0.039 A 
ATOM      8  C   UNL A   1      35.578  34.518  28.837  1.00  0.00     0.014 A 
ATOM      9  C   UNL A   1      34.086  33.277  30.291  1.00  0.00     0.014 A 
ATOM     10  C   UNL A   1      36.656  33.775  29.310  1.00  0.00     0.010 A 
ATOM     11  C   UNL A   1      35.180  32.591  30.824  1.00  0.00     0.010 A 
ATOM     12  C   UNL A   1      36.469  32.812  30.315  1.00  0.00    -0.014 A 
BRANCH  12  13
ATOM     13  C   UNL A   1      37.645  32.112  30.887  1.00  0.00     0.031 A 
ATOM     14  C   UNL A   1      38.373  31.042  30.123  1.00  0.00     0.074 A 
ATOM     15  C   UNL A   1      38.045  32.453  32.128  1.00  0.00     0.049 A 
ATOM     16  N   UNL A   1      39.386  30.307  30.504  1.00  0.00    -0.248 NA
ATOM     17  C   UNL A   1      37.901  30.749  28.759  1.00  0.00     0.031 C 
ATOM     18  C   UNL A   1      37.401  33.464  32.970  1.00  0.00     0.029 A 
ATOM     19  N   UNL A   1      39.079  31.989  32.898  1.00  0.00    -0.354 N 
ATOM     20  C   UNL A   1      39.660  29.450  29.444  1.00  0.00     0.074 A 
ATOM     21  C   UNL A   1      38.698  29.750  28.404  1.00  0.00     0.031 C 
ATOM     22  C   UNL A   1      38.065  33.557  34.131  1.00  0.00     0.029 A 
ATOM     23  C   UNL A   1      39.140  32.573  34.139  1.00  0.00     0.049 A 
ATOM     24  H   UNL A   1      39.717  31.304  32.591  1.00  0.00     0.167 HD
ATOM     25  C   UNL A   1      40.626  28.506  29.355  1.00  0.00     0.037 A 
ATOM     26  C   UNL A   1      39.947  32.322  35.185  1.00  0.00     0.037 A 
ATOM     27  C   UNL A   1      41.600  28.239  30.383  1.00  0.00     0.049 A 
ATOM     28  C   UNL A   1      40.990  31.254  35.060  1.00  0.00     0.074 A 
ATOM     29  C   UNL A   1      42.676  27.368  30.345  1.00  0.00     0.029 A 
ATOM     30  N   UNL A   1      41.611  28.833  31.636  1.00  0.00    -0.354 N 
ATOM     31  N   UNL A   1      41.272  30.495  34.030  1.00  0.00    -0.248 NA
ATOM     32  C   UNL A   1      41.818  30.997  36.247  1.00  0.00     0.031 C 
ATOM     33  C   UNL A   1      43.309  27.399  31.591  1.00  0.00     0.029 A 
ATOM     34  C   UNL A   1      42.649  28.316  32.394  1.00  0.00     0.049 A 
ATOM     35  H   UNL A   1      40.974  29.518  31.942  1.00  0.00     0.167 HD
ATOM     36  C   UNL A   1      42.306  29.669  34.442  1.00  0.00     0.074 A 
ATOM     37  C   UNL A   1      42.622  30.039  35.807  1.00  0.00     0.031 C 
ATOM     38  C   UNL A   1      42.934  28.685  33.755  1.00  0.00     0.037 A 
BRANCH  25  39
ATOM     39  C   UNL A   1      40.688  27.670  28.112  1.00  0.00     0.057 A 
ATOM     40  C   UNL A   1      41.446  28.054  26.999  1.00  0.00     0.134 A 
ATOM     41  C   UNL A   1      40.063  26.416  28.069  1.00  0.00     0.134 A 
ATOM     42  F   UNL A   1      42.064  29.243  26.975  1.00  0.00    -0.206 F 
ATOM     43  C   UNL A   1      41.580  27.219  25.886  1.00  0.00     0.040 A 
ATOM     44  C   UNL A   1      40.203  25.567  26.970  1.00  0.00     0.040 A 
ATOM     45  F   UNL A   1      39.329  25.986  29.107  1.00  0.00    -0.206 F 
ATOM     46  C   UNL A   1      40.965  25.968  25.874  1.00  0.00     0.006 A 
ENDBRANCH  25  39
BRANCH  26  47
ATOM     47  C   UNL A   1      39.761  33.070  36.451  1.00  0.00     0.057 A 
ATOM     48  C   UNL A   1      40.485  34.235  36.719  1.00  0.00     0.134 A 
ATOM     49  C   UNL A   1      38.844  32.639  37.418  1.00  0.00     0.134 A 
ATOM     50  F   UNL A   1      41.390  34.685  35.837  1.00  0.00    -0.206 F 
ATOM     51  C   UNL A   1      40.311  34.943  37.908  1.00  0.00     0.040 A 
ATOM     52  C   UNL A   1      38.641  33.350  38.600  1.00  0.00     0.040 A 
ATOM     53  F   UNL A   1      38.114  31.532  37.215  1.00  0.00    -0.206 F 
ATOM     54  C   UNL A   1      39.382  34.504  38.850  1.00  0.00     0.006 A 
ENDBRANCH  26  47
BRANCH  38  55
ATOM     55  C   UNL A   1      44.013  27.939  34.478  1.00  0.00     0.057 A 
ATOM     56  C   UNL A   1      43.745  26.736  35.143  1.00  0.00     0.134 A 
ATOM     57  C   UNL A   1      45.329  28.414  34.495  1.00  0.00     0.134 A 
ATOM     58  F   UNL A   1      42.499  26.241  35.176  1.00  0.00    -0.206 F 
ATOM     59  C   UNL A   1      44.748  26.039  35.816  1.00  0.00     0.040 A 
ATOM     60  C   UNL A   1      46.345  27.716  35.147  1.00  0.00     0.040 A 
ATOM     61  F   UNL A   1      45.648  29.560  33.873  1.00  0.00    -0.206 F 
ATOM     62  C   UNL A   1      46.055  26.527  35.814  1.00  0.00     0.006 A 
ENDBRANCH  38  55
ENDBRANCH  12  13
ENDBRANCH   5   7
ENDBRANCH   2   3
ENDBRANCH   1   2
BRANCH   1  63
ATOM     63  C   UNL A   1      31.885  30.467  26.573  1.00  0.00     0.117 C 
BRANCH  63  64
ATOM     64  N   UNL A   1      32.749  30.289  25.413  1.00  0.00    -0.356 N 
ATOM     65  C   UNL A   1      32.951  29.170  24.650  1.00  0.00     0.223 C 
ATOM     66  H   UNL A   1      33.259  31.085  25.138  1.00  0.00     0.163 HD
ATOM     67  O   UNL A   1      33.566  29.286  23.594  1.00  0.00    -0.275 OA
BRANCH  65  68
ATOM     68  C   UNL A   1      32.387  27.853  25.136  1.00  0.00     0.091 C 
ATOM     69  C   UNL A   1      33.314  26.690  24.776  1.00  0.00     0.014 C 
ATOM     70  C   UNL A   1      30.918  27.611  24.741  1.00  0.00     0.091 C 
ATOM     71  C   UNL A   1      32.877  25.445  25.538  1.00  0.00     0.001 C 
ATOM     72  C   UNL A   1      30.457  26.313  25.459  1.00  0.00     0.014 C 
ATOM     73  C   UNL A   1      31.406  25.111  25.296  1.00  0.00     0.001 C 
BRANCH  70  74
ATOM     74  C   UNL A   1      30.647  27.456  23.234  1.00  0.00     0.228 C 
ATOM     75  O   UNL A   1      31.067  26.473  22.615  1.00  0.00    -0.274 OA
ATOM     76  N   UNL A   1      29.792  28.266  22.541  1.00  0.00    -0.326 N 
ATOM     77  H   UNL A   1      29.407  27.817  21.755  1.00  0.00     0.169 HD
BRANCH  76  78
ATOM     78  C   UNL A   1      29.330  29.586  22.677  1.00  0.00     0.042 A 
ATOM     79  C   UNL A   1      29.435  30.328  23.846  1.00  0.00     0.026 A 
ATOM     80  C   UNL A   1      28.861  30.235  21.527  1.00  0.00     0.041 A 
ATOM     81  C   UNL A   1      29.083  31.681  23.891  1.00  0.00     0.003 A 
ATOM     82  C   UNL A   1      28.495  31.585  21.572  1.00  0.00     0.020 A 
ATOM     83  C   UNL A   1      28.605  32.313  22.751  1.00  0.00     0.016 A 
ATOM     84  Br  UNL A   1      27.877  32.444  20.005  1.00  0.00    -0.051 Br
ENDBRANCH  76  78
ENDBRANCH  70  74
ENDBRANCH  65  68
ENDBRANCH  63  64
ENDBRANCH   1  63
TORSDOF 12
ENDMDL
MODEL 3
REMARK VINA RESULT:     -12.2      1.089      6.231
REMARK SMILES O=C(NCCCNC(=O)[C@@H]1CCCC[C@@H]1C(=O)Nc1cccc(Br)c1)c1ccc(-c2c3nc(c(-c4c(F)cccc4F)c4ccc([nH]4)c(-c4c(F)cccc4F)c4nc(c(-c5c(F)cccc5F)c5ccc2[nH]5)C=C4)C=C3)cc1
REMARK SMILES IDX 5 1 4 2 3 3 1 4 2 5 26 7 27 8 79 9 28 10 78 11 29 12 30 13
REMARK SMILES IDX 31 14 72 15 32 16 77 17 71 18 73 19 33 20 76 21 70 22 69 23
REMARK SMILES IDX 34 25 60 26 43 27 59 28 44 29 47 30 58 31 74 32 45 33 46 34
REMARK SMILES IDX 57 36 75 37 48 38 35 39 36 40 41 41 37 42 38 43 40 44 42 45
REMARK SMILES IDX 39 46 61 47 62 48 67 49 63 50 64 51 66 52 68 53 65 54 49 55
REMARK SMILES IDX 50 56 55 57 51 58 52 59 54 60 56 61 53 62 6 63 7 64 8 65
REMARK SMILES IDX 9 67 10 68 11 69 15 70 12 71 14 72 13 73 16 74 17 75 18 76
REMARK SMILES IDX 19 78 20 79 25 80 21 81 23 82 22 83 24 84
REMARK H PARENT 3 6 73 24 47 35 7 66 18 77
REMARK Flexibility Score: inf
ROOT
ATOM      1  C   UNL A   1      38.000  20.003  24.901  1.00  0.00     0.042 C 
ENDROOT
BRANCH   1   2
ATOM      2  C   UNL A   1      39.138  20.241  25.879  1.00  0.00     0.118 C 
BRANCH   2   3
ATOM      3  N   UNL A   1      40.190  19.239  25.821  1.00  0.00    -0.352 N 
ATOM      4  O   UNL A   1      42.310  18.462  25.990  1.00  0.00    -0.269 OA
ATOM      5  C   UNL A   1      41.525  19.395  26.124  1.00  0.00     0.251 C 
ATOM      6  H   UNL A   1      39.916  18.340  25.530  1.00  0.00     0.163 HD
BRANCH   5   7
ATOM      7  C   UNL A   1      42.014  20.723  26.557  1.00  0.00     0.039 A 
ATOM      8  C   UNL A   1      42.037  21.067  27.911  1.00  0.00     0.014 A 
ATOM      9  C   UNL A   1      42.385  21.654  25.584  1.00  0.00     0.014 A 
ATOM     10  C   UNL A   1      42.288  22.385  28.281  1.00  0.00     0.010 A 
ATOM     11  C   UNL A   1      42.718  22.957  25.965  1.00  0.00     0.010 A 
ATOM     12  C   UNL A   1      42.641  23.340  27.313  1.00  0.00    -0.014 A 
BRANCH  12  13
ATOM     13  C   UNL A   1      43.015  24.711  27.738  1.00  0.00     0.031 A 
ATOM     14  C   UNL A   1      44.451  25.111  27.928  1.00  0.00     0.074 A 
ATOM     15  C   UNL A   1      42.026  25.597  27.964  1.00  0.00     0.049 A 
ATOM     16  N   UNL A   1      44.936  26.255  28.340  1.00  0.00    -0.248 NA
ATOM     17  C   UNL A   1      45.478  24.100  27.628  1.00  0.00     0.031 C 
ATOM     18  C   UNL A   1      40.595  25.312  27.830  1.00  0.00     0.029 A 
ATOM     19  N   UNL A   1      42.068  26.910  28.355  1.00  0.00    -0.354 N 
ATOM     20  C   UNL A   1      46.316  26.098  28.373  1.00  0.00     0.074 A 
ATOM     21  C   UNL A   1      46.595  24.743  27.947  1.00  0.00     0.031 C 
ATOM     22  C   UNL A   1      39.898  26.420  28.115  1.00  0.00     0.029 A 
ATOM     23  C   UNL A   1      40.825  27.473  28.510  1.00  0.00     0.049 A 
ATOM     24  H   UNL A   1      42.907  27.402  28.510  1.00  0.00     0.167 HD
ATOM     25  C   UNL A   1      47.257  27.006  28.726  1.00  0.00     0.037 A 
ATOM     26  C   UNL A   1      40.465  28.689  28.956  1.00  0.00     0.037 A 
ATOM     27  C   UNL A   1      46.972  28.364  29.116  1.00  0.00     0.049 A 
ATOM     28  C   UNL A   1      41.532  29.661  29.360  1.00  0.00     0.074 A 
ATOM     29  C   UNL A   1      47.864  29.384  29.398  1.00  0.00     0.029 A 
ATOM     30  N   UNL A   1      45.699  28.886  29.287  1.00  0.00    -0.354 N 
ATOM     31  N   UNL A   1      42.833  29.516  29.329  1.00  0.00    -0.248 NA
ATOM     32  C   UNL A   1      41.080  30.962  29.875  1.00  0.00     0.031 C 
ATOM     33  C   UNL A   1      47.132  30.511  29.786  1.00  0.00     0.029 A 
ATOM     34  C   UNL A   1      45.783  30.203  29.712  1.00  0.00     0.049 A 
ATOM     35  H   UNL A   1      44.861  28.395  29.132  1.00  0.00     0.167 HD
ATOM     36  C   UNL A   1      43.358  30.701  29.820  1.00  0.00     0.074 A 
ATOM     37  C   UNL A   1      42.235  31.567  30.116  1.00  0.00     0.031 C 
ATOM     38  C   UNL A   1      44.654  31.040  30.018  1.00  0.00     0.037 A 
BRANCH  25  39
ATOM     39  C   UNL A   1      48.694  26.576  28.723  1.00  0.00     0.057 A 
ATOM     40  C   UNL A   1      49.523  26.772  27.612  1.00  0.00     0.134 A 
ATOM     41  C   UNL A   1      49.279  26.054  29.884  1.00  0.00     0.134 A 
ATOM     42  F   UNL A   1      49.023  27.263  26.469  1.00  0.00    -0.206 F 
ATOM     43  C   UNL A   1      50.885  26.462  27.656  1.00  0.00     0.040 A 
ATOM     44  C   UNL A   1      50.641  25.756  29.946  1.00  0.00     0.040 A 
ATOM     45  F   UNL A   1      48.540  25.850  30.986  1.00  0.00    -0.206 F 
ATOM     46  C   UNL A   1      51.449  25.961  28.829  1.00  0.00     0.006 A 
ENDBRANCH  25  39
BRANCH  26  47
ATOM     47  C   UNL A   1      39.029  29.030  29.083  1.00  0.00     0.057 A 
ATOM     48  C   UNL A   1      38.352  28.880  30.297  1.00  0.00     0.134 A 
ATOM     49  C   UNL A   1      38.303  29.526  27.992  1.00  0.00     0.134 A 
ATOM     50  F   UNL A   1      38.991  28.393  31.370  1.00  0.00    -0.206 F 
ATOM     51  C   UNL A   1      37.000  29.201  30.421  1.00  0.00     0.040 A 
ATOM     52  C   UNL A   1      36.958  29.875  28.108  1.00  0.00     0.040 A 
ATOM     53  F   UNL A   1      38.900  29.699  26.804  1.00  0.00    -0.206 F 
ATOM     54  C   UNL A   1      36.301  29.707  29.325  1.00  0.00     0.006 A 
ENDBRANCH  26  47
BRANCH  38  55
ATOM     55  C   UNL A   1      44.917  32.399  30.590  1.00  0.00     0.057 A 
ATOM     56  C   UNL A   1      45.042  33.523  29.764  1.00  0.00     0.134 A 
ATOM     57  C   UNL A   1      45.028  32.589  31.971  1.00  0.00     0.134 A 
ATOM     58  F   UNL A   1      44.963  33.400  28.431  1.00  0.00    -0.206 F 
ATOM     59  C   UNL A   1      45.287  34.790  30.294  1.00  0.00     0.040 A 
ATOM     60  C   UNL A   1      45.252  33.854  32.515  1.00  0.00     0.040 A 
ATOM     61  F   UNL A   1      44.914  31.551  32.813  1.00  0.00    -0.206 F 
ATOM     62  C   UNL A   1      45.387  34.958  31.675  1.00  0.00     0.006 A 
ENDBRANCH  38  55
ENDBRANCH  12  13
ENDBRANCH   5   7
ENDBRANCH   2   3
ENDBRANCH   1   2
BRANCH   1  63
ATOM     63  C   UNL A   1      37.137  21.223  24.630  1.00  0.00     0.117 C 
BRANCH  63  64
ATOM     64  N   UNL A   1      36.675  21.873  25.850  1.00  0.00    -0.356 N 
ATOM     65  C   UNL A   1      35.627  22.734  26.025  1.00  0.00     0.223 C 
ATOM     66  H   UNL A   1      37.190  21.663  26.663  1.00  0.00     0.163 HD
ATOM     67  O   UNL A   1      35.283  23.010  27.171  1.00  0.00    -0.275 OA
BRANCH  65  68
ATOM     68  C   UNL A   1      34.930  23.284  24.801  1.00  0.00     0.091 C 
ATOM     69  C   UNL A   1      34.240  24.614  25.109  1.00  0.00     0.014 C 
ATOM     70  C   UNL A   1      34.016  22.271  24.085  1.00  0.00     0.091 C 
ATOM     71  C   UNL A   1      33.822  25.278  23.802  1.00  0.00     0.001 C 
ATOM     72  C   UNL A   1      33.527  22.941  22.771  1.00  0.00     0.014 C 
ATOM     73  C   UNL A   1      32.955  24.360  22.943  1.00  0.00     0.001 C 
BRANCH  70  74
ATOM     74  C   UNL A   1      32.786  21.801  24.879  1.00  0.00     0.228 C 
ATOM     75  O   UNL A   1      32.210  22.566  25.661  1.00  0.00    -0.274 OA
ATOM     76  N   UNL A   1      32.151  20.614  24.645  1.00  0.00    -0.326 N 
ATOM     77  H   UNL A   1      31.201  20.642  24.898  1.00  0.00     0.169 HD
BRANCH  76  78
ATOM     78  C   UNL A   1      32.526  19.362  24.128  1.00  0.00     0.042 A 
ATOM     79  C   UNL A   1      32.164  18.903  22.869  1.00  0.00     0.026 A 
ATOM     80  C   UNL A   1      33.431  18.594  24.873  1.00  0.00     0.041 A 
ATOM     81  C   UNL A   1      32.675  17.709  22.347  1.00  0.00     0.003 A 
ATOM     82  C   UNL A   1      33.933  17.393  24.361  1.00  0.00     0.020 A 
ATOM     83  C   UNL A   1      33.560  16.946  23.098  1.00  0.00     0.016 A 
ATOM     84  Br  UNL A   1      35.163  16.377  25.378  1.00  0.00    -0.051 Br
ENDBRANCH  76  78
ENDBRANCH  70  74
ENDBRANCH  65  68
ENDBRANCH  63  64
ENDBRANCH   1  63
TORSDOF 12
ENDMDL
