MODEL 1
REMARK VINA RESULT:     -14.7      0.000      0.000
REMARK SMILES C[C@]12C(=O)N(c3ccc(C(=O)NCCCNC(=O)c4ccc(-c5c6nc(c(-c7c(F)cccc7F)c7ccc([nH]7)c(-c7c(F)cccc7F)c7nc(c(-c8c(F)cccc8F)c8ccc5[nH]8)C=C7)C=C6)cc4)cc3)C(=O)[C@H]1[C@H]1c3ccccc3[C@@H]2c2ccccc21
REMARK SMILES IDX 14 1 13 2 12 3 10 4 11 5 9 7 6 8 7 9 74 10 8 11 73 12 5 13
REMARK SMILES IDX 1 14 2 15 3 16 77 17 85 18 4 19 75 20 78 21 84 22 86 23
REMARK SMILES IDX 76 24 79 25 91 26 83 27 87 28 80 29 90 30 82 31 88 32 81 33
REMARK SMILES IDX 89 34 15 35 16 36 17 37 18 39 19 40 20 41 72 42 21 43 71 44
REMARK SMILES IDX 22 45 23 46 24 47 65 48 25 49 70 50 64 51 66 52 26 53 69 54
REMARK SMILES IDX 63 55 62 56 27 58 53 59 36 60 52 61 37 62 40 63 51 64 67 65
REMARK SMILES IDX 38 66 39 67 50 69 68 70 41 71 28 72 29 73 34 74 30 75 31 76
REMARK SMILES IDX 33 77 35 78 32 79 54 80 55 81 60 82 56 83 57 84 59 85 61 86
REMARK SMILES IDX 58 87 42 88 43 89 48 90 44 91 45 92 47 93 49 94 46 95
REMARK H PARENT 12 6 16 38 66 57 40 68
REMARK Flexibility Score: inf
ROOT
ATOM      1  C   UNL A   1      30.652  31.576  26.083  1.00  0.00     0.042 C 
ENDROOT
BRANCH   1   2
ATOM      2  C   UNL A   1      30.377  32.014  24.652  1.00  0.00     0.118 C 
BRANCH   2   3
ATOM      3  N   UNL A   1      29.012  31.732  24.237  1.00  0.00    -0.352 N 
ATOM      4  C   UNL A   1      28.462  30.724  23.490  1.00  0.00     0.251 C 
ATOM      5  O   UNL A   1      27.290  30.845  23.130  1.00  0.00    -0.269 OA
ATOM      6  H   UNL A   1      28.356  32.393  24.557  1.00  0.00     0.163 HD
BRANCH   4   7
ATOM      7  C   UNL A   1      29.213  29.507  23.094  1.00  0.00     0.039 A 
ATOM      8  C   UNL A   1      30.692  27.114  22.640  1.00  0.00     0.052 A 
ATOM      9  C   UNL A   1      29.427  27.092  23.251  1.00  0.00     0.027 A 
ATOM     10  C   UNL A   1      31.174  28.365  22.228  1.00  0.00     0.027 A 
ATOM     11  C   UNL A   1      28.696  28.267  23.473  1.00  0.00     0.016 A 
ATOM     12  C   UNL A   1      30.470  29.546  22.498  1.00  0.00     0.016 A 
BRANCH   8  13
ATOM     13  N   UNL A   1      31.554  25.974  22.654  1.00  0.00    -0.250 N 
ATOM     14  C   UNL A   1      32.414  22.587  23.188  1.00  0.00     0.024 C 
ATOM     15  C   UNL A   1      32.371  24.039  23.683  1.00  0.00     0.071 C 
ATOM     16  C   UNL A   1      31.165  24.728  23.092  1.00  0.00     0.241 C 
ATOM     17  C   UNL A   1      33.574  24.862  23.146  1.00  0.00     0.107 C 
ATOM     18  C   UNL A   1      32.293  24.171  25.248  1.00  0.00     0.066 C 
ATOM     19  O   UNL A   1      30.060  24.211  23.069  1.00  0.00    -0.273 OA
ATOM     20  C   UNL A   1      32.912  26.000  22.403  1.00  0.00     0.238 C 
ATOM     21  C   UNL A   1      34.437  25.409  24.332  1.00  0.00     0.063 C 
ATOM     22  C   UNL A   1      32.347  25.666  25.614  1.00  0.00    -0.036 A 
ATOM     23  C   UNL A   1      33.600  23.570  25.755  1.00  0.00    -0.036 A 
ATOM     24  O   UNL A   1      33.555  26.789  21.718  1.00  0.00    -0.274 OA
ATOM     25  C   UNL A   1      33.516  26.323  25.143  1.00  0.00    -0.036 A 
ATOM     26  C   UNL A   1      34.757  24.216  25.238  1.00  0.00    -0.036 A 
ATOM     27  C   UNL A   1      31.359  26.387  26.270  1.00  0.00     0.005 A 
ATOM     28  C   UNL A   1      33.702  22.510  26.644  1.00  0.00     0.005 A 
ATOM     29  C   UNL A   1      33.704  27.685  25.340  1.00  0.00     0.004 A 
ATOM     30  C   UNL A   1      36.019  23.793  25.623  1.00  0.00     0.004 A 
ATOM     31  C   UNL A   1      31.544  27.761  26.455  1.00  0.00     0.000 A 
ATOM     32  C   UNL A   1      34.975  22.088  27.023  1.00  0.00     0.000 A 
ATOM     33  C   UNL A   1      32.707  28.402  26.001  1.00  0.00     0.000 A 
ATOM     34  C   UNL A   1      36.121  22.723  26.517  1.00  0.00     0.000 A 
ENDBRANCH   8  13
ENDBRANCH   4   7
ENDBRANCH   2   3
ENDBRANCH   1   2
BRANCH   1  35
ATOM     35  C   UNL A   1      32.045  31.957  26.568  1.00  0.00     0.118 C 
BRANCH  35  36
ATOM     36  N   UNL A   1      32.106  33.318  27.095  1.00  0.00    -0.352 N 
ATOM     37  C   UNL A   1      32.959  33.914  27.994  1.00  0.00     0.251 C 
ATOM     38  H   UNL A   1      31.410  33.918  26.742  1.00  0.00     0.163 HD
ATOM     39  O   UNL A   1      32.670  35.015  28.454  1.00  0.00    -0.269 OA
BRANCH  37  40
ATOM     40  C   UNL A   1      34.198  33.237  28.439  1.00  0.00     0.039 A 
ATOM     41  C   UNL A   1      34.189  31.904  28.842  1.00  0.00     0.014 A 
ATOM     42  C   UNL A   1      35.408  33.942  28.418  1.00  0.00     0.014 A 
ATOM     43  C   UNL A   1      35.324  31.345  29.417  1.00  0.00     0.010 A 
ATOM     44  C   UNL A   1      36.579  33.340  28.894  1.00  0.00     0.010 A 
ATOM     45  C   UNL A   1      36.534  32.055  29.457  1.00  0.00    -0.014 A 
BRANCH  45  46
ATOM     46  C   UNL A   1      37.719  31.434  30.108  1.00  0.00     0.031 A 
ATOM     47  C   UNL A   1      38.024  31.695  31.561  1.00  0.00     0.074 A 
ATOM     48  C   UNL A   1      38.485  30.574  29.407  1.00  0.00     0.049 A 
ATOM     49  N   UNL A   1      38.988  31.207  32.302  1.00  0.00    -0.248 NA
ATOM     50  C   UNL A   1      37.141  32.629  32.276  1.00  0.00     0.031 C 
ATOM     51  C   UNL A   1      38.304  30.240  27.992  1.00  0.00     0.029 A 
ATOM     52  N   UNL A   1      39.551  29.801  29.794  1.00  0.00    -0.354 N 
ATOM     53  C   UNL A   1      38.846  31.797  33.552  1.00  0.00     0.074 A 
ATOM     54  C   UNL A   1      37.717  32.695  33.468  1.00  0.00     0.031 C 
ATOM     55  C   UNL A   1      39.187  29.291  27.646  1.00  0.00     0.029 A 
ATOM     56  C   UNL A   1      40.035  28.992  28.794  1.00  0.00     0.049 A 
ATOM     57  H   UNL A   1      39.932  29.824  30.701  1.00  0.00     0.167 HD
ATOM     58  C   UNL A   1      39.582  31.599  34.673  1.00  0.00     0.037 A 
ATOM     59  C   UNL A   1      41.056  28.115  28.796  1.00  0.00     0.037 A 
ATOM     60  C   UNL A   1      40.675  30.670  34.776  1.00  0.00     0.049 A 
ATOM     61  C   UNL A   1      41.852  27.919  30.055  1.00  0.00     0.074 A 
ATOM     62  C   UNL A   1      41.444  30.362  35.886  1.00  0.00     0.029 A 
ATOM     63  N   UNL A   1      41.151  29.892  33.733  1.00  0.00    -0.354 N 
ATOM     64  N   UNL A   1      41.681  28.463  31.234  1.00  0.00    -0.248 NA
ATOM     65  C   UNL A   1      42.988  26.990  29.977  1.00  0.00     0.031 C 
ATOM     66  C   UNL A   1      42.410  29.424  35.505  1.00  0.00     0.029 A 
ATOM     67  C   UNL A   1      42.218  29.122  34.166  1.00  0.00     0.049 A 
ATOM     68  H   UNL A   1      40.787  29.889  32.818  1.00  0.00     0.167 HD
ATOM     69  C   UNL A   1      42.679  27.936  32.041  1.00  0.00     0.074 A 
ATOM     70  C   UNL A   1      43.433  27.007  31.224  1.00  0.00     0.031 C 
ATOM     71  C   UNL A   1      42.955  28.202  33.341  1.00  0.00     0.037 A 
BRANCH  58  72
ATOM     72  C   UNL A   1      39.237  32.413  35.886  1.00  0.00     0.057 A 
ATOM     73  C   UNL A   1      38.318  31.929  36.826  1.00  0.00     0.134 A 
ATOM     74  C   UNL A   1      39.766  33.691  36.097  1.00  0.00     0.134 A 
ATOM     75  F   UNL A   1      37.771  30.713  36.680  1.00  0.00    -0.206 F 
ATOM     76  C   UNL A   1      37.932  32.692  37.929  1.00  0.00     0.040 A 
ATOM     77  C   UNL A   1      39.403  34.457  37.207  1.00  0.00     0.040 A 
ATOM     78  F   UNL A   1      40.661  34.207  35.241  1.00  0.00    -0.206 F 
ATOM     79  C   UNL A   1      38.476  33.959  38.123  1.00  0.00     0.006 A 
ENDBRANCH  58  72
BRANCH  59  80
ATOM     80  C   UNL A   1      41.405  27.369  27.561  1.00  0.00     0.057 A 
ATOM     81  C   UNL A   1      42.246  27.926  26.591  1.00  0.00     0.134 A 
ATOM     82  C   UNL A   1      40.935  26.070  27.341  1.00  0.00     0.134 A 
ATOM     83  F   UNL A   1      42.726  29.170  26.743  1.00  0.00    -0.206 F 
ATOM     84  C   UNL A   1      42.606  27.220  25.443  1.00  0.00     0.040 A 
ATOM     85  C   UNL A   1      41.309  25.341  26.210  1.00  0.00     0.040 A 
ATOM     86  F   UNL A   1      40.143  25.475  28.244  1.00  0.00    -0.206 F 
ATOM     87  C   UNL A   1      42.145  25.919  25.256  1.00  0.00     0.006 A 
ENDBRANCH  59  80
BRANCH  71  88
ATOM     88  C   UNL A   1      44.104  27.462  33.954  1.00  0.00     0.057 A 
ATOM     89  C   UNL A   1      45.393  28.008  33.942  1.00  0.00     0.134 A 
ATOM     90  C   UNL A   1      43.935  26.207  34.553  1.00  0.00     0.134 A 
ATOM     91  F   UNL A   1      45.623  29.203  33.378  1.00  0.00    -0.206 F 
ATOM     92  C   UNL A   1      46.475  27.332  34.508  1.00  0.00     0.040 A 
ATOM     93  C   UNL A   1      45.003  25.533  35.143  1.00  0.00     0.040 A 
ATOM     94  F   UNL A   1      42.720  25.640  34.610  1.00  0.00    -0.206 F 
ATOM     95  C   UNL A   1      46.279  26.094  35.118  1.00  0.00     0.006 A 
ENDBRANCH  71  88
ENDBRANCH  45  46
ENDBRANCH  37  40
ENDBRANCH  35  36
ENDBRANCH   1  35
TORSDOF 11
ENDMDL
MODEL 2
REMARK VINA RESULT:     -14.7      4.114      9.092
REMARK SMILES C[C@]12C(=O)N(c3ccc(C(=O)NCCCNC(=O)c4ccc(-c5c6nc(c(-c7c(F)cccc7F)c7ccc([nH]7)c(-c7c(F)cccc7F)c7nc(c(-c8c(F)cccc8F)c8ccc5[nH]8)C=C7)C=C6)cc4)cc3)C(=O)[C@H]1[C@H]1c3ccccc3[C@@H]2c2ccccc21
REMARK SMILES IDX 14 1 13 2 12 3 10 4 11 5 9 7 6 8 7 9 74 10 8 11 73 12 5 13
REMARK SMILES IDX 1 14 2 15 3 16 77 17 85 18 4 19 75 20 78 21 84 22 86 23
REMARK SMILES IDX 76 24 79 25 91 26 83 27 87 28 80 29 90 30 82 31 88 32 81 33
REMARK SMILES IDX 89 34 15 35 16 36 17 37 18 39 19 40 20 41 72 42 21 43 71 44
REMARK SMILES IDX 22 45 23 46 24 47 65 48 25 49 70 50 64 51 66 52 26 53 69 54
REMARK SMILES IDX 63 55 62 56 27 58 53 59 36 60 52 61 37 62 40 63 51 64 67 65
REMARK SMILES IDX 38 66 39 67 50 69 68 70 41 71 28 72 29 73 34 74 30 75 31 76
REMARK SMILES IDX 33 77 35 78 32 79 54 80 55 81 60 82 56 83 57 84 59 85 61 86
REMARK SMILES IDX 58 87 42 88 43 89 48 90 44 91 45 92 47 93 49 94 46 95
REMARK H PARENT 12 6 16 38 66 57 40 68
REMARK Flexibility Score: inf
ROOT
ATOM      1  C   UNL A   1      37.213  19.943  24.555  1.00  0.00     0.042 C 
ENDROOT
BRANCH   1   2
ATOM      2  C   UNL A   1      36.454  18.854  25.299  1.00  0.00     0.118 C 
BRANCH   2   3
ATOM      3  N   UNL A   1      35.623  18.052  24.414  1.00  0.00    -0.352 N 
ATOM      4  C   UNL A   1      34.298  18.124  24.073  1.00  0.00     0.251 C 
ATOM      5  O   UNL A   1      33.812  17.185  23.443  1.00  0.00    -0.269 OA
ATOM      6  H   UNL A   1      36.107  17.316  23.975  1.00  0.00     0.163 HD
BRANCH   4   7
ATOM      7  C   UNL A   1      33.431  19.274  24.431  1.00  0.00     0.039 A 
ATOM      8  C   UNL A   1      31.970  21.661  24.966  1.00  0.00     0.052 A 
ATOM      9  C   UNL A   1      32.117  21.167  23.659  1.00  0.00     0.027 A 
ATOM     10  C   UNL A   1      32.542  20.903  25.998  1.00  0.00     0.027 A 
ATOM     11  C   UNL A   1      32.832  19.991  23.394  1.00  0.00     0.016 A 
ATOM     12  C   UNL A   1      33.303  19.758  25.730  1.00  0.00     0.016 A 
BRANCH   8  13
ATOM     13  N   UNL A   1      31.485  22.981  25.220  1.00  0.00    -0.250 N 
ATOM     14  C   UNL A   1      30.035  26.099  24.397  1.00  0.00     0.024 C 
ATOM     15  C   UNL A   1      31.283  25.235  24.630  1.00  0.00     0.071 C 
ATOM     16  C   UNL A   1      30.976  23.809  24.244  1.00  0.00     0.241 C 
ATOM     17  C   UNL A   1      31.643  25.148  26.138  1.00  0.00     0.107 C 
ATOM     18  C   UNL A   1      32.538  25.706  23.810  1.00  0.00     0.066 C 
ATOM     19  O   UNL A   1      30.396  23.519  23.210  1.00  0.00    -0.273 OA
ATOM     20  C   UNL A   1      31.616  23.662  26.416  1.00  0.00     0.238 C 
ATOM     21  C   UNL A   1      33.074  25.728  26.394  1.00  0.00     0.063 C 
ATOM     22  C   UNL A   1      33.736  24.820  24.200  1.00  0.00    -0.036 A 
ATOM     23  C   UNL A   1      32.857  27.098  24.349  1.00  0.00    -0.036 A 
ATOM     24  O   UNL A   1      31.717  23.212  27.552  1.00  0.00    -0.274 OA
ATOM     25  C   UNL A   1      34.039  24.855  25.589  1.00  0.00    -0.036 A 
ATOM     26  C   UNL A   1      33.115  27.116  25.748  1.00  0.00    -0.036 A 
ATOM     27  C   UNL A   1      34.449  23.985  23.352  1.00  0.00     0.005 A 
ATOM     28  C   UNL A   1      32.916  28.257  23.590  1.00  0.00     0.005 A 
ATOM     29  C   UNL A   1      35.056  24.075  26.122  1.00  0.00     0.004 A 
ATOM     30  C   UNL A   1      33.438  28.306  26.379  1.00  0.00     0.004 A 
ATOM     31  C   UNL A   1      35.465  23.191  23.894  1.00  0.00     0.000 A 
ATOM     32  C   UNL A   1      33.237  29.450  24.233  1.00  0.00     0.000 A 
ATOM     33  C   UNL A   1      35.770  23.240  25.263  1.00  0.00     0.000 A 
ATOM     34  C   UNL A   1      33.495  29.475  25.613  1.00  0.00     0.000 A 
ENDBRANCH   8  13
ENDBRANCH   4   7
ENDBRANCH   2   3
ENDBRANCH   1   2
BRANCH   1  35
ATOM     35  C   UNL A   1      38.415  20.470  25.328  1.00  0.00     0.118 C 
BRANCH  35  36
ATOM     36  N   UNL A   1      39.459  19.462  25.501  1.00  0.00    -0.352 N 
ATOM     37  C   UNL A   1      40.763  19.560  25.923  1.00  0.00     0.251 C 
ATOM     38  H   UNL A   1      39.176  18.547  25.275  1.00  0.00     0.163 HD
ATOM     39  O   UNL A   1      41.516  18.603  25.769  1.00  0.00    -0.269 OA
BRANCH  37  40
ATOM     40  C   UNL A   1      41.282  20.808  26.528  1.00  0.00     0.039 A 
ATOM     41  C   UNL A   1      41.243  21.014  27.905  1.00  0.00     0.014 A 
ATOM     42  C   UNL A   1      41.858  21.782  25.703  1.00  0.00     0.014 A 
ATOM     43  C   UNL A   1      41.574  22.257  28.431  1.00  0.00     0.010 A 
ATOM     44  C   UNL A   1      42.297  22.994  26.249  1.00  0.00     0.010 A 
ATOM     45  C   UNL A   1      42.101  23.267  27.611  1.00  0.00    -0.014 A 
BRANCH  45  46
ATOM     46  C   UNL A   1      42.415  24.594  28.206  1.00  0.00     0.031 A 
ATOM     47  C   UNL A   1      43.832  24.958  28.571  1.00  0.00     0.074 A 
ATOM     48  C   UNL A   1      41.431  25.503  28.354  1.00  0.00     0.049 A 
ATOM     49  N   UNL A   1      44.295  26.082  29.061  1.00  0.00    -0.248 NA
ATOM     50  C   UNL A   1      44.863  23.929  28.370  1.00  0.00     0.031 C 
ATOM     51  C   UNL A   1      40.017  25.276  28.047  1.00  0.00     0.029 A 
ATOM     52  N   UNL A   1      41.472  26.810  28.771  1.00  0.00    -0.354 N 
ATOM     53  C   UNL A   1      45.656  25.883  29.254  1.00  0.00     0.074 A 
ATOM     54  C   UNL A   1      45.946  24.525  28.851  1.00  0.00     0.031 C 
ATOM     55  C   UNL A   1      39.336  26.418  28.231  1.00  0.00     0.029 A 
ATOM     56  C   UNL A   1      40.252  27.440  28.725  1.00  0.00     0.049 A 
ATOM     57  H   UNL A   1      42.297  27.254  29.074  1.00  0.00     0.167 HD
ATOM     58  C   UNL A   1      46.585  26.756  29.715  1.00  0.00     0.037 A 
ATOM     59  C   UNL A   1      39.904  28.698  29.055  1.00  0.00     0.037 A 
ATOM     60  C   UNL A   1      46.312  28.122  30.071  1.00  0.00     0.049 A 
ATOM     61  C   UNL A   1      40.957  29.641  29.562  1.00  0.00     0.074 A 
ATOM     62  C   UNL A   1      47.200  29.097  30.496  1.00  0.00     0.029 A 
ATOM     63  N   UNL A   1      45.058  28.712  30.038  1.00  0.00    -0.354 N 
ATOM     64  N   UNL A   1      42.243  29.442  29.708  1.00  0.00    -0.248 NA
ATOM     65  C   UNL A   1      40.504  30.982  29.958  1.00  0.00     0.031 C 
ATOM     66  C   UNL A   1      46.476  30.267  30.755  1.00  0.00     0.029 A 
ATOM     67  C   UNL A   1      45.145  30.029  30.456  1.00  0.00     0.049 A 
ATOM     68  H   UNL A   1      44.229  28.260  29.760  1.00  0.00     0.167 HD
ATOM     69  C   UNL A   1      42.755  30.634  30.201  1.00  0.00     0.074 A 
ATOM     70  C   UNL A   1      41.646  31.559  30.302  1.00  0.00     0.031 C 
ATOM     71  C   UNL A   1      44.030  30.935  30.548  1.00  0.00     0.037 A 
BRANCH  58  72
ATOM     72  C   UNL A   1      47.992  26.258  29.873  1.00  0.00     0.057 A 
ATOM     73  C   UNL A   1      48.430  25.747  31.101  1.00  0.00     0.134 A 
ATOM     74  C   UNL A   1      48.927  26.335  28.834  1.00  0.00     0.134 A 
ATOM     75  F   UNL A   1      47.585  25.651  32.139  1.00  0.00    -0.206 F 
ATOM     76  C   UNL A   1      49.751  25.338  31.292  1.00  0.00     0.040 A 
ATOM     77  C   UNL A   1      50.246  25.910  29.007  1.00  0.00     0.040 A 
ATOM     78  F   UNL A   1      48.568  26.803  27.629  1.00  0.00    -0.206 F 
ATOM     79  C   UNL A   1      50.662  25.416  30.243  1.00  0.00     0.006 A 
ENDBRANCH  58  72
BRANCH  59  80
ATOM     80  C   UNL A   1      38.491  29.139  28.940  1.00  0.00     0.057 A 
ATOM     81  C   UNL A   1      37.629  29.103  30.042  1.00  0.00     0.134 A 
ATOM     82  C   UNL A   1      37.982  29.639  27.736  1.00  0.00     0.134 A 
ATOM     83  F   UNL A   1      38.056  28.631  31.223  1.00  0.00    -0.206 F 
ATOM     84  C   UNL A   1      36.309  29.547  29.952  1.00  0.00     0.040 A 
ATOM     85  C   UNL A   1      36.672  30.111  27.638  1.00  0.00     0.040 A 
ATOM     86  F   UNL A   1      38.766  29.717  26.652  1.00  0.00    -0.206 F 
ATOM     87  C   UNL A   1      35.831  30.062  28.749  1.00  0.00     0.006 A 
ENDBRANCH  59  80
BRANCH  71  88
ATOM     88  C   UNL A   1      44.285  32.325  31.047  1.00  0.00     0.057 A 
ATOM     89  C   UNL A   1      44.219  32.616  32.415  1.00  0.00     0.134 A 
ATOM     90  C   UNL A   1      44.592  33.375  30.173  1.00  0.00     0.134 A 
ATOM     91  F   UNL A   1      43.923  31.656  33.304  1.00  0.00    -0.206 F 
ATOM     92  C   UNL A   1      44.453  33.905  32.896  1.00  0.00     0.040 A 
ATOM     93  C   UNL A   1      44.851  34.662  30.644  1.00  0.00     0.040 A 
ATOM     94  F   UNL A   1      44.686  33.154  28.853  1.00  0.00    -0.206 F 
ATOM     95  C   UNL A   1      44.778  34.930  32.010  1.00  0.00     0.006 A 
ENDBRANCH  71  88
ENDBRANCH  45  46
ENDBRANCH  37  40
ENDBRANCH  35  36
ENDBRANCH   1  35
TORSDOF 11
ENDMDL
MODEL 3
REMARK VINA RESULT:     -14.6      4.025      9.193
REMARK SMILES C[C@]12C(=O)N(c3ccc(C(=O)NCCCNC(=O)c4ccc(-c5c6nc(c(-c7c(F)cccc7F)c7ccc([nH]7)c(-c7c(F)cccc7F)c7nc(c(-c8c(F)cccc8F)c8ccc5[nH]8)C=C7)C=C6)cc4)cc3)C(=O)[C@H]1[C@H]1c3ccccc3[C@@H]2c2ccccc21
REMARK SMILES IDX 14 1 13 2 12 3 10 4 11 5 9 7 6 8 7 9 74 10 8 11 73 12 5 13
REMARK SMILES IDX 1 14 2 15 3 16 77 17 85 18 4 19 75 20 78 21 84 22 86 23
REMARK SMILES IDX 76 24 79 25 91 26 83 27 87 28 80 29 90 30 82 31 88 32 81 33
REMARK SMILES IDX 89 34 15 35 16 36 17 37 18 39 19 40 20 41 72 42 21 43 71 44
REMARK SMILES IDX 22 45 23 46 24 47 65 48 25 49 70 50 64 51 66 52 26 53 69 54
REMARK SMILES IDX 63 55 62 56 27 58 53 59 36 60 52 61 37 62 40 63 51 64 67 65
REMARK SMILES IDX 38 66 39 67 50 69 68 70 41 71 28 72 29 73 34 74 30 75 31 76
REMARK SMILES IDX 33 77 35 78 32 79 54 80 55 81 60 82 56 83 57 84 59 85 61 86
REMARK SMILES IDX 58 87 42 88 43 89 48 90 44 91 45 92 47 93 49 94 46 95
REMARK H PARENT 12 6 16 38 66 57 40 68
REMARK Flexibility Score: inf
ROOT
ATOM      1  C   UNL A   1      37.449  19.730  25.040  1.00  0.00     0.042 C 
ENDROOT
BRANCH   1   2
ATOM      2  C   UNL A   1      36.398  20.773  24.691  1.00  0.00     0.118 C 
BRANCH   2   3
ATOM      3  N   UNL A   1      36.937  21.855  23.882  1.00  0.00    -0.352 N 
ATOM      4  C   UNL A   1      36.396  23.030  23.431  1.00  0.00     0.251 C 
ATOM      5  O   UNL A   1      37.028  23.673  22.593  1.00  0.00    -0.269 OA
ATOM      6  H   UNL A   1      37.872  21.717  23.606  1.00  0.00     0.163 HD
BRANCH   4   7
ATOM      7  C   UNL A   1      35.090  23.553  23.903  1.00  0.00     0.039 A 
ATOM      8  C   UNL A   1      32.569  24.718  24.540  1.00  0.00     0.052 A 
ATOM      9  C   UNL A   1      32.713  23.820  23.469  1.00  0.00     0.027 A 
ATOM     10  C   UNL A   1      33.714  24.983  25.304  1.00  0.00     0.027 A 
ATOM     11  C   UNL A   1      33.952  23.243  23.156  1.00  0.00     0.016 A 
ATOM     12  C   UNL A   1      34.963  24.450  24.959  1.00  0.00     0.016 A 
BRANCH   8  13
ATOM     13  N   UNL A   1      31.391  25.511  24.702  1.00  0.00    -0.250 N 
ATOM     14  C   UNL A   1      28.166  26.703  23.876  1.00  0.00     0.024 C 
ATOM     15  C   UNL A   1      29.692  26.855  23.818  1.00  0.00     0.071 C 
ATOM     16  C   UNL A   1      30.327  25.486  23.827  1.00  0.00     0.241 C 
ATOM     17  C   UNL A   1      30.248  27.536  25.100  1.00  0.00     0.107 C 
ATOM     18  C   UNL A   1      30.202  27.624  22.545  1.00  0.00     0.066 C 
ATOM     19  O   UNL A   1      29.924  24.572  23.127  1.00  0.00    -0.273 OA
ATOM     20  C   UNL A   1      31.231  26.518  25.634  1.00  0.00     0.238 C 
ATOM     21  C   UNL A   1      30.981  28.870  24.738  1.00  0.00     0.063 C 
ATOM     22  C   UNL A   1      31.730  27.787  22.654  1.00  0.00    -0.036 A 
ATOM     23  C   UNL A   1      29.622  29.029  22.680  1.00  0.00    -0.036 A 
ATOM     24  O   UNL A   1      31.770  26.649  26.728  1.00  0.00    -0.274 OA
ATOM     25  C   UNL A   1      32.144  28.483  23.822  1.00  0.00    -0.036 A 
ATOM     26  C   UNL A   1      30.016  29.690  23.876  1.00  0.00    -0.036 A 
ATOM     27  C   UNL A   1      32.674  27.270  21.779  1.00  0.00     0.005 A 
ATOM     28  C   UNL A   1      28.802  29.649  21.750  1.00  0.00     0.005 A 
ATOM     29  C   UNL A   1      33.490  28.674  24.105  1.00  0.00     0.004 A 
ATOM     30  C   UNL A   1      29.583  30.982  24.131  1.00  0.00     0.004 A 
ATOM     31  C   UNL A   1      34.030  27.453  22.073  1.00  0.00     0.000 A 
ATOM     32  C   UNL A   1      28.368  30.947  22.015  1.00  0.00     0.000 A 
ATOM     33  C   UNL A   1      34.434  28.153  23.220  1.00  0.00     0.000 A 
ATOM     34  C   UNL A   1      28.754  31.605  23.193  1.00  0.00     0.000 A 
ENDBRANCH   8  13
ENDBRANCH   4   7
ENDBRANCH   2   3
ENDBRANCH   1   2
BRANCH   1  35
ATOM     35  C   UNL A   1      38.704  20.329  25.663  1.00  0.00     0.118 C 
BRANCH  35  36
ATOM     36  N   UNL A   1      39.802  19.370  25.751  1.00  0.00    -0.352 N 
ATOM     37  C   UNL A   1      41.137  19.532  26.038  1.00  0.00     0.251 C 
ATOM     38  H   UNL A   1      39.538  18.439  25.573  1.00  0.00     0.163 HD
ATOM     39  O   UNL A   1      41.912  18.603  25.829  1.00  0.00    -0.269 OA
BRANCH  37  40
ATOM     40  C   UNL A   1      41.659  20.815  26.563  1.00  0.00     0.039 A 
ATOM     41  C   UNL A   1      41.748  21.052  27.933  1.00  0.00     0.014 A 
ATOM     42  C   UNL A   1      42.106  21.791  25.665  1.00  0.00     0.014 A 
ATOM     43  C   UNL A   1      42.075  22.319  28.398  1.00  0.00     0.010 A 
ATOM     44  C   UNL A   1      42.544  23.033  26.140  1.00  0.00     0.010 A 
ATOM     45  C   UNL A   1      42.473  23.330  27.509  1.00  0.00    -0.014 A 
BRANCH  45  46
ATOM     46  C   UNL A   1      42.787  24.684  28.043  1.00  0.00     0.031 A 
ATOM     47  C   UNL A   1      44.216  25.120  28.242  1.00  0.00     0.074 A 
ATOM     48  C   UNL A   1      41.782  25.549  28.285  1.00  0.00     0.049 A 
ATOM     49  N   UNL A   1      44.675  26.275  28.658  1.00  0.00    -0.248 NA
ATOM     50  C   UNL A   1      45.267  24.136  27.944  1.00  0.00     0.031 C 
ATOM     51  C   UNL A   1      40.355  25.250  28.142  1.00  0.00     0.029 A 
ATOM     52  N   UNL A   1      41.806  26.866  28.673  1.00  0.00    -0.354 N 
ATOM     53  C   UNL A   1      46.058  26.143  28.701  1.00  0.00     0.074 A 
ATOM     54  C   UNL A   1      46.366  24.792  28.290  1.00  0.00     0.031 C 
ATOM     55  C   UNL A   1      39.645  26.364  28.381  1.00  0.00     0.029 A 
ATOM     56  C   UNL A   1      40.559  27.438  28.753  1.00  0.00     0.049 A 
ATOM     57  H   UNL A   1      42.637  27.353  28.874  1.00  0.00     0.167 HD
ATOM     58  C   UNL A   1      46.989  27.068  29.041  1.00  0.00     0.037 A 
ATOM     59  C   UNL A   1      40.189  28.685  29.098  1.00  0.00     0.037 A 
ATOM     60  C   UNL A   1      46.691  28.428  29.402  1.00  0.00     0.049 A 
ATOM     61  C   UNL A   1      41.245  29.686  29.469  1.00  0.00     0.074 A 
ATOM     62  C   UNL A   1      47.572  29.452  29.709  1.00  0.00     0.029 A 
ATOM     63  N   UNL A   1      45.414  28.958  29.499  1.00  0.00    -0.354 N 
ATOM     64  N   UNL A   1      42.548  29.551  29.473  1.00  0.00    -0.248 NA
ATOM     65  C   UNL A   1      40.775  31.014  29.890  1.00  0.00     0.031 C 
ATOM     66  C   UNL A   1      46.826  30.592  30.027  1.00  0.00     0.029 A 
ATOM     67  C   UNL A   1      45.483  30.287  29.883  1.00  0.00     0.049 A 
ATOM     68  H   UNL A   1      44.582  28.463  29.323  1.00  0.00     0.167 HD
ATOM     69  C   UNL A   1      43.053  30.775  29.886  1.00  0.00     0.074 A 
ATOM     70  C   UNL A   1      41.918  31.650  30.095  1.00  0.00     0.031 C 
ATOM     71  C   UNL A   1      44.343  31.143  30.084  1.00  0.00     0.037 A 
BRANCH  58  72
ATOM     72  C   UNL A   1      48.427  26.640  29.048  1.00  0.00     0.057 A 
ATOM     73  C   UNL A   1      48.990  26.068  30.196  1.00  0.00     0.134 A 
ATOM     74  C   UNL A   1      49.267  26.841  27.947  1.00  0.00     0.134 A 
ATOM     75  F   UNL A   1      48.240  25.852  31.288  1.00  0.00    -0.206 F 
ATOM     76  C   UNL A   1      50.341  25.720  30.251  1.00  0.00     0.040 A 
ATOM     77  C   UNL A   1      50.615  26.479  27.982  1.00  0.00     0.040 A 
ATOM     78  F   UNL A   1      48.786  27.372  26.813  1.00  0.00    -0.206 F 
ATOM     79  C   UNL A   1      51.157  25.923  29.141  1.00  0.00     0.006 A 
ENDBRANCH  58  72
BRANCH  59  80
ATOM     80  C   UNL A   1      38.753  29.057  29.134  1.00  0.00     0.057 A 
ATOM     81  C   UNL A   1      38.006  28.953  30.314  1.00  0.00     0.134 A 
ATOM     82  C   UNL A   1      38.104  29.560  28.001  1.00  0.00     0.134 A 
ATOM     83  F   UNL A   1      38.571  28.474  31.433  1.00  0.00    -0.206 F 
ATOM     84  C   UNL A   1      36.665  29.333  30.366  1.00  0.00     0.040 A 
ATOM     85  C   UNL A   1      36.770  29.969  28.045  1.00  0.00     0.040 A 
ATOM     86  F   UNL A   1      38.772  29.703  26.848  1.00  0.00    -0.206 F 
ATOM     87  C   UNL A   1      36.047  29.852  29.231  1.00  0.00     0.006 A 
ENDBRANCH  59  80
BRANCH  71  88
ATOM     88  C   UNL A   1      44.584  32.554  30.528  1.00  0.00     0.057 A 
ATOM     89  C   UNL A   1      44.729  33.583  29.590  1.00  0.00     0.134 A 
ATOM     90  C   UNL A   1      44.674  32.892  31.884  1.00  0.00     0.134 A 
ATOM     91  F   UNL A   1      44.659  33.324  28.276  1.00  0.00    -0.206 F 
ATOM     92  C   UNL A   1      44.954  34.902  29.987  1.00  0.00     0.040 A 
ATOM     93  C   UNL A   1      44.874  34.209  32.293  1.00  0.00     0.040 A 
ATOM     94  F   UNL A   1      44.525  31.951  32.830  1.00  0.00    -0.206 F 
ATOM     95  C   UNL A   1      45.018  35.219  31.343  1.00  0.00     0.006 A 
ENDBRANCH  71  88
ENDBRANCH  45  46
ENDBRANCH  37  40
ENDBRANCH  35  36
ENDBRANCH   1  35
TORSDOF 11
ENDMDL
