MODEL 1
REMARK VINA RESULT:     -10.5      0.000      0.000
REMARK SMILES C=CC[N@@H+](CC(=O)NCCCNC(=O)c1ccc(-c2c3nc(c(-c4c(F)cccc4F)c4ccc([nH]4)c(-c4c(F)cccc4F)c4nc(c(-c5c(F)cccc5F)c5ccc2[nH]5)C=C4)C=C3)cc1)C[C@H]1C[N@@H+](C(C)C)CCO1
REMARK SMILES IDX 9 1 8 2 6 3 7 4 5 6 4 7 3 9 2 10 1 11 69 12 70 13 71 14
REMARK SMILES IDX 78 15 72 16 77 17 76 18 73 20 74 21 75 22 10 23 11 24 12 25
REMARK SMILES IDX 13 26 14 28 15 29 16 30 68 31 17 32 67 33 18 34 19 35 20 36
REMARK SMILES IDX 61 37 21 38 66 39 60 40 62 41 22 42 65 43 59 44 58 45 23 47
REMARK SMILES IDX 49 48 32 49 48 50 33 51 36 52 47 53 63 54 34 55 35 56 46 58
REMARK SMILES IDX 64 59 37 60 24 61 25 62 30 63 26 64 27 65 29 66 31 67 28 68
REMARK SMILES IDX 50 69 51 70 56 71 52 72 53 73 55 74 57 75 54 76 38 77 39 78
REMARK SMILES IDX 44 79 40 80 41 81 43 82 45 83 42 84
REMARK H PARENT 8 5 4 8 72 19 12 27 62 46 36 57
REMARK Flexibility Score: inf
ROOT
ATOM      1  C   UNL A   1      31.052  29.855  24.839  1.00  0.00     0.118 C 
ENDROOT
BRANCH   1   2
ATOM      2  N   UNL A   1      30.624  29.779  23.453  1.00  0.00    -0.351 N 
ATOM      3  C   UNL A   1      30.061  28.780  22.716  1.00  0.00     0.275 C 
ATOM      4  O   UNL A   1      29.596  29.108  21.618  1.00  0.00    -0.269 OA
ATOM      5  H   UNL A   1      30.770  30.611  22.947  1.00  0.00     0.163 HD
BRANCH   3   6
ATOM      6  C   UNL A   1      29.991  27.326  23.178  1.00  0.00     0.363 C 
BRANCH   6   7
ATOM      7  N   UNL A   1      31.207  26.510  22.966  1.00  0.00    -0.322 N 
ATOM      8  H   UNL A   1      31.770  26.559  23.815  1.00  0.00     0.348 HD
BRANCH   7   9
ATOM      9  C   UNL A   1      32.108  27.106  22.004  1.00  0.00     0.290 C 
BRANCH   9  10
ATOM     10  C   UNL A   1      33.524  27.355  22.415  1.00  0.00     0.025 C 
ATOM     11  C   UNL A   1      33.991  28.596  22.629  1.00  0.00     0.010 C 
ENDBRANCH   9  10
ENDBRANCH   7   9
BRANCH   7  12
ATOM     12  C   UNL A   1      31.030  25.046  23.026  1.00  0.00     0.301 C 
BRANCH  12  13
ATOM     13  C   UNL A   1      31.833  24.130  23.997  1.00  0.00     0.228 C 
ATOM     14  C   UNL A   1      32.994  24.762  24.794  1.00  0.00     0.300 C 
ATOM     15  O   UNL A   1      30.949  23.367  24.853  1.00  0.00    -0.361 OA
ATOM     16  N   UNL A   1      32.707  25.348  26.107  1.00  0.00    -0.329 N 
ATOM     17  C   UNL A   1      30.570  24.043  26.052  1.00  0.00     0.222 C 
ATOM     18  C   UNL A   1      31.789  24.499  26.865  1.00  0.00     0.291 C 
ATOM     19  H   UNL A   1      33.577  25.333  26.639  1.00  0.00     0.348 HD
BRANCH  16  20
ATOM     20  C   UNL A   1      32.506  26.797  26.150  1.00  0.00     0.177 C 
ATOM     21  C   UNL A   1      31.620  27.369  27.260  1.00  0.00     0.075 C 
ATOM     22  C   UNL A   1      33.879  27.477  26.208  1.00  0.00     0.075 C 
ENDBRANCH  16  20
ENDBRANCH  12  13
ENDBRANCH   7  12
ENDBRANCH   6   7
ENDBRANCH   3   6
ENDBRANCH   1   2
BRANCH   1  23
ATOM     23  C   UNL A   1      30.935  31.255  25.457  1.00  0.00     0.042 C 
BRANCH  23  24
ATOM     24  C   UNL A   1      31.798  31.519  26.689  1.00  0.00     0.118 C 
BRANCH  24  25
ATOM     25  N   UNL A   1      31.933  32.938  26.953  1.00  0.00    -0.352 N 
ATOM     26  C   UNL A   1      32.850  33.610  27.720  1.00  0.00     0.251 C 
ATOM     27  H   UNL A   1      31.262  33.509  26.514  1.00  0.00     0.163 HD
ATOM     28  O   UNL A   1      32.612  34.784  28.024  1.00  0.00    -0.269 OA
BRANCH  26  29
ATOM     29  C   UNL A   1      34.113  32.987  28.193  1.00  0.00     0.039 A 
ATOM     30  C   UNL A   1      34.093  31.627  28.532  1.00  0.00     0.014 A 
ATOM     31  C   UNL A   1      35.274  33.730  28.433  1.00  0.00     0.014 A 
ATOM     32  C   UNL A   1      35.218  31.019  29.100  1.00  0.00     0.010 A 
ATOM     33  C   UNL A   1      36.418  33.108  28.948  1.00  0.00     0.010 A 
ATOM     34  C   UNL A   1      36.394  31.753  29.315  1.00  0.00    -0.014 A 
BRANCH  34  35
ATOM     35  C   UNL A   1      37.570  31.131  29.984  1.00  0.00     0.031 A 
ATOM     36  C   UNL A   1      37.860  31.421  31.435  1.00  0.00     0.074 A 
ATOM     37  C   UNL A   1      38.392  30.316  29.295  1.00  0.00     0.049 A 
ATOM     38  N   UNL A   1      38.850  30.998  32.183  1.00  0.00    -0.248 NA
ATOM     39  C   UNL A   1      36.923  32.314  32.132  1.00  0.00     0.031 C 
ATOM     40  C   UNL A   1      38.248  29.967  27.882  1.00  0.00     0.029 A 
ATOM     41  N   UNL A   1      39.518  29.638  29.694  1.00  0.00    -0.354 N 
ATOM     42  C   UNL A   1      38.666  31.589  33.426  1.00  0.00     0.074 A 
ATOM     43  C   UNL A   1      37.488  32.425  33.326  1.00  0.00     0.031 C 
ATOM     44  C   UNL A   1      39.239  29.129  27.535  1.00  0.00     0.029 A 
ATOM     45  C   UNL A   1      40.103  28.904  28.693  1.00  0.00     0.049 A 
ATOM     46  H   UNL A   1      39.872  29.676  30.612  1.00  0.00     0.167 HD
ATOM     47  C   UNL A   1      39.397  31.438  34.557  1.00  0.00     0.037 A 
ATOM     48  C   UNL A   1      41.212  28.138  28.701  1.00  0.00     0.037 A 
ATOM     49  C   UNL A   1      40.546  30.580  34.681  1.00  0.00     0.049 A 
ATOM     50  C   UNL A   1      42.003  27.980  29.969  1.00  0.00     0.074 A 
ATOM     51  C   UNL A   1      41.307  30.316  35.807  1.00  0.00     0.029 A 
ATOM     52  N   UNL A   1      41.097  29.844  33.645  1.00  0.00    -0.354 N 
ATOM     53  N   UNL A   1      41.783  28.504  31.151  1.00  0.00    -0.248 NA
ATOM     54  C   UNL A   1      43.194  27.121  29.906  1.00  0.00     0.031 C 
ATOM     55  C   UNL A   1      42.340  29.444  35.444  1.00  0.00     0.029 A 
ATOM     56  C   UNL A   1      42.199  29.140  34.101  1.00  0.00     0.049 A 
ATOM     57  H   UNL A   1      40.756  29.824  32.721  1.00  0.00     0.167 HD
ATOM     58  C   UNL A   1      42.793  28.021  31.974  1.00  0.00     0.074 A 
ATOM     59  C   UNL A   1      43.619  27.153  31.161  1.00  0.00     0.031 C 
ATOM     60  C   UNL A   1      43.013  28.275  33.286  1.00  0.00     0.037 A 
BRANCH  47  61
ATOM     61  C   UNL A   1      38.974  32.222  35.763  1.00  0.00     0.057 A 
ATOM     62  C   UNL A   1      38.202  31.648  36.782  1.00  0.00     0.134 A 
ATOM     63  C   UNL A   1      39.381  33.552  35.930  1.00  0.00     0.134 A 
ATOM     64  F   UNL A   1      37.772  30.382  36.677  1.00  0.00    -0.206 F 
ATOM     65  C   UNL A   1      37.832  32.377  37.913  1.00  0.00     0.040 A 
ATOM     66  C   UNL A   1      39.036  34.283  37.067  1.00  0.00     0.040 A 
ATOM     67  F   UNL A   1      40.129  34.157  34.995  1.00  0.00    -0.206 F 
ATOM     68  C   UNL A   1      38.254  33.697  38.061  1.00  0.00     0.006 A 
ENDBRANCH  47  61
BRANCH  48  69
ATOM     69  C   UNL A   1      41.636  27.443  27.462  1.00  0.00     0.057 A 
ATOM     70  C   UNL A   1      42.401  28.101  26.492  1.00  0.00     0.134 A 
ATOM     71  C   UNL A   1      41.280  26.112  27.214  1.00  0.00     0.134 A 
ATOM     72  F   UNL A   1      42.752  29.383  26.664  1.00  0.00    -0.206 F 
ATOM     73  C   UNL A   1      42.788  27.463  25.313  1.00  0.00     0.040 A 
ATOM     74  C   UNL A   1      41.677  25.457  26.048  1.00  0.00     0.040 A 
ATOM     75  F   UNL A   1      40.549  25.430  28.108  1.00  0.00    -0.206 F 
ATOM     76  C   UNL A   1      42.429  26.135  25.091  1.00  0.00     0.006 A 
ENDBRANCH  48  69
BRANCH  60  77
ATOM     77  C   UNL A   1      44.177  27.588  33.933  1.00  0.00     0.057 A 
ATOM     78  C   UNL A   1      45.443  28.182  33.989  1.00  0.00     0.134 A 
ATOM     79  C   UNL A   1      44.021  26.336  34.540  1.00  0.00     0.134 A 
ATOM     80  F   UNL A   1      45.660  29.376  33.416  1.00  0.00    -0.206 F 
ATOM     81  C   UNL A   1      46.519  27.547  34.612  1.00  0.00     0.040 A 
ATOM     82  C   UNL A   1      45.084  25.699  35.182  1.00  0.00     0.040 A 
ATOM     83  F   UNL A   1      42.831  25.716  34.525  1.00  0.00    -0.206 F 
ATOM     84  C   UNL A   1      46.338  26.304  35.216  1.00  0.00     0.006 A 
ENDBRANCH  60  77
ENDBRANCH  34  35
ENDBRANCH  26  29
ENDBRANCH  24  25
ENDBRANCH  23  24
ENDBRANCH   1  23
TORSDOF 16
ENDMDL
MODEL 2
REMARK VINA RESULT:     -10.5      4.193      9.017
REMARK SMILES C=CC[N@@H+](CC(=O)NCCCNC(=O)c1ccc(-c2c3nc(c(-c4c(F)cccc4F)c4ccc([nH]4)c(-c4c(F)cccc4F)c4nc(c(-c5c(F)cccc5F)c5ccc2[nH]5)C=C4)C=C3)cc1)C[C@H]1C[N@@H+](C(C)C)CCO1
REMARK SMILES IDX 9 1 8 2 6 3 7 4 5 6 4 7 3 9 2 10 1 11 69 12 70 13 71 14
REMARK SMILES IDX 78 15 72 16 77 17 76 18 73 20 74 21 75 22 10 23 11 24 12 25
REMARK SMILES IDX 13 26 14 28 15 29 16 30 68 31 17 32 67 33 18 34 19 35 20 36
REMARK SMILES IDX 61 37 21 38 66 39 60 40 62 41 22 42 65 43 59 44 58 45 23 47
REMARK SMILES IDX 49 48 32 49 48 50 33 51 36 52 47 53 63 54 34 55 35 56 46 58
REMARK SMILES IDX 64 59 37 60 24 61 25 62 30 63 26 64 27 65 29 66 31 67 28 68
REMARK SMILES IDX 50 69 51 70 56 71 52 72 53 73 55 74 57 75 54 76 38 77 39 78
REMARK SMILES IDX 44 79 40 80 41 81 43 82 45 83 42 84
REMARK H PARENT 8 5 4 8 72 19 12 27 62 46 36 57
REMARK Flexibility Score: inf
ROOT
ATOM      1  C   UNL A   1      36.220  20.489  24.949  1.00  0.00     0.118 C 
ENDROOT
BRANCH   1   2
ATOM      2  N   UNL A   1      36.401  21.827  25.486  1.00  0.00    -0.351 N 
ATOM      3  C   UNL A   1      36.060  23.061  25.019  1.00  0.00     0.275 C 
ATOM      4  O   UNL A   1      36.144  23.992  25.827  1.00  0.00    -0.269 OA
ATOM      5  H   UNL A   1      36.860  21.845  26.357  1.00  0.00     0.163 HD
BRANCH   3   6
ATOM      6  C   UNL A   1      35.599  23.324  23.587  1.00  0.00     0.363 C 
BRANCH   6   7
ATOM      7  N   UNL A   1      34.194  23.753  23.417  1.00  0.00    -0.322 N 
ATOM      8  H   UNL A   1      33.688  23.515  24.269  1.00  0.00     0.348 HD
BRANCH   7   9
ATOM      9  C   UNL A   1      33.488  22.948  22.445  1.00  0.00     0.290 C 
BRANCH   9  10
ATOM     10  C   UNL A   1      32.484  21.954  22.938  1.00  0.00     0.025 C 
ATOM     11  C   UNL A   1      32.661  21.281  24.086  1.00  0.00     0.010 C 
ENDBRANCH   9  10
ENDBRANCH   7   9
BRANCH   7  12
ATOM     12  C   UNL A   1      33.935  25.202  23.525  1.00  0.00     0.301 C 
BRANCH  12  13
ATOM     13  C   UNL A   1      33.010  25.978  22.539  1.00  0.00     0.228 C 
ATOM     14  C   UNL A   1      31.734  26.634  23.109  1.00  0.00     0.300 C 
ATOM     15  O   UNL A   1      33.769  26.902  21.723  1.00  0.00    -0.361 OA
ATOM     16  N   UNL A   1      31.815  28.012  23.603  1.00  0.00    -0.329 N 
ATOM     17  C   UNL A   1      33.955  28.187  22.315  1.00  0.00     0.222 C 
ATOM     18  C   UNL A   1      32.623  28.839  22.708  1.00  0.00     0.291 C 
ATOM     19  H   UNL A   1      30.876  28.406  23.547  1.00  0.00     0.348 HD
BRANCH  16  20
ATOM     20  C   UNL A   1      31.986  28.185  25.047  1.00  0.00     0.177 C 
ATOM     21  C   UNL A   1      31.633  29.543  25.658  1.00  0.00     0.075 C 
ATOM     22  C   UNL A   1      31.186  27.091  25.764  1.00  0.00     0.075 C 
ENDBRANCH  16  20
ENDBRANCH  12  13
ENDBRANCH   7  12
ENDBRANCH   6   7
ENDBRANCH   3   6
ENDBRANCH   1   2
BRANCH   1  23
ATOM     23  C   UNL A   1      37.487  19.622  24.980  1.00  0.00     0.042 C 
BRANCH  23  24
ATOM     24  C   UNL A   1      38.761  20.313  25.460  1.00  0.00     0.118 C 
BRANCH  24  25
ATOM     25  N   UNL A   1      39.827  19.361  25.700  1.00  0.00    -0.352 N 
ATOM     26  C   UNL A   1      41.136  19.571  26.051  1.00  0.00     0.251 C 
ATOM     27  H   UNL A   1      39.573  18.416  25.594  1.00  0.00     0.163 HD
ATOM     28  O   UNL A   1      41.932  18.634  25.934  1.00  0.00    -0.269 OA
BRANCH  26  29
ATOM     29  C   UNL A   1      41.630  20.873  26.569  1.00  0.00     0.039 A 
ATOM     30  C   UNL A   1      41.517  21.123  27.944  1.00  0.00     0.014 A 
ATOM     31  C   UNL A   1      42.078  21.897  25.727  1.00  0.00     0.014 A 
ATOM     32  C   UNL A   1      41.850  22.376  28.469  1.00  0.00     0.010 A 
ATOM     33  C   UNL A   1      42.465  23.133  26.261  1.00  0.00     0.010 A 
ATOM     34  C   UNL A   1      42.327  23.396  27.633  1.00  0.00    -0.014 A 
BRANCH  34  35
ATOM     35  C   UNL A   1      42.616  24.753  28.174  1.00  0.00     0.031 A 
ATOM     36  C   UNL A   1      44.018  25.124  28.586  1.00  0.00     0.074 A 
ATOM     37  C   UNL A   1      41.625  25.655  28.313  1.00  0.00     0.049 A 
ATOM     38  N   UNL A   1      44.460  26.244  29.104  1.00  0.00    -0.248 NA
ATOM     39  C   UNL A   1      45.055  24.098  28.405  1.00  0.00     0.031 C 
ATOM     40  C   UNL A   1      40.220  25.427  27.979  1.00  0.00     0.029 A 
ATOM     41  N   UNL A   1      41.652  26.947  28.780  1.00  0.00    -0.354 N 
ATOM     42  C   UNL A   1      45.817  26.048  29.330  1.00  0.00     0.074 A 
ATOM     43  C   UNL A   1      46.121  24.693  28.922  1.00  0.00     0.031 C 
ATOM     44  C   UNL A   1      39.521  26.544  28.238  1.00  0.00     0.029 A 
ATOM     45  C   UNL A   1      40.423  27.558  28.781  1.00  0.00     0.049 A 
ATOM     46  H   UNL A   1      42.475  27.392  29.085  1.00  0.00     0.167 HD
ATOM     47  C   UNL A   1      46.734  26.920  29.815  1.00  0.00     0.037 A 
ATOM     48  C   UNL A   1      40.058  28.792  29.179  1.00  0.00     0.037 A 
ATOM     49  C   UNL A   1      46.453  28.282  30.187  1.00  0.00     0.049 A 
ATOM     50  C   UNL A   1      41.095  29.745  29.707  1.00  0.00     0.074 A 
ATOM     51  C   UNL A   1      47.335  29.255  30.626  1.00  0.00     0.029 A 
ATOM     52  N   UNL A   1      45.196  28.863  30.162  1.00  0.00    -0.354 N 
ATOM     53  N   UNL A   1      42.383  29.560  29.863  1.00  0.00    -0.248 NA
ATOM     54  C   UNL A   1      40.626  31.079  30.111  1.00  0.00     0.031 C 
ATOM     55  C   UNL A   1      46.604  30.418  30.897  1.00  0.00     0.029 A 
ATOM     56  C   UNL A   1      45.276  30.177  30.593  1.00  0.00     0.049 A 
ATOM     57  H   UNL A   1      44.369  28.410  29.878  1.00  0.00     0.167 HD
ATOM     58  C   UNL A   1      42.881  30.759  30.360  1.00  0.00     0.074 A 
ATOM     59  C   UNL A   1      41.759  31.667  30.470  1.00  0.00     0.031 C 
ATOM     60  C   UNL A   1      44.154  31.075  30.694  1.00  0.00     0.037 A 
BRANCH  47  61
ATOM     61  C   UNL A   1      48.141  26.426  29.972  1.00  0.00     0.057 A 
ATOM     62  C   UNL A   1      48.577  25.803  31.149  1.00  0.00     0.134 A 
ATOM     63  C   UNL A   1      49.057  26.533  28.917  1.00  0.00     0.134 A 
ATOM     64  F   UNL A   1      47.750  25.679  32.197  1.00  0.00    -0.206 F 
ATOM     65  C   UNL A   1      49.882  25.324  31.279  1.00  0.00     0.040 A 
ATOM     66  C   UNL A   1      50.357  26.038  29.029  1.00  0.00     0.040 A 
ATOM     67  F   UNL A   1      48.700  27.111  27.761  1.00  0.00    -0.206 F 
ATOM     68  C   UNL A   1      50.774  25.435  30.214  1.00  0.00     0.006 A 
ENDBRANCH  47  61
BRANCH  48  69
ATOM     69  C   UNL A   1      38.639  29.211  29.077  1.00  0.00     0.057 A 
ATOM     70  C   UNL A   1      37.792  29.159  30.190  1.00  0.00     0.134 A 
ATOM     71  C   UNL A   1      38.096  29.661  27.869  1.00  0.00     0.134 A 
ATOM     72  F   UNL A   1      38.250  28.714  31.369  1.00  0.00    -0.206 F 
ATOM     73  C   UNL A   1      36.449  29.529  30.101  1.00  0.00     0.040 A 
ATOM     74  C   UNL A   1      36.761  30.054  27.772  1.00  0.00     0.040 A 
ATOM     75  F   UNL A   1      38.861  29.734  26.770  1.00  0.00    -0.206 F 
ATOM     76  C   UNL A   1      35.932  29.983  28.890  1.00  0.00     0.006 A 
ENDBRANCH  48  69
BRANCH  60  77
ATOM     77  C   UNL A   1      44.410  32.467  31.186  1.00  0.00     0.057 A 
ATOM     78  C   UNL A   1      44.737  33.510  30.310  1.00  0.00     0.134 A 
ATOM     79  C   UNL A   1      44.291  32.777  32.547  1.00  0.00     0.134 A 
ATOM     80  F   UNL A   1      44.877  33.274  28.997  1.00  0.00    -0.206 F 
ATOM     81  C   UNL A   1      44.952  34.809  30.772  1.00  0.00     0.040 A 
ATOM     82  C   UNL A   1      44.486  34.076  33.018  1.00  0.00     0.040 A 
ATOM     83  F   UNL A   1      43.975  31.824  33.437  1.00  0.00    -0.206 F 
ATOM     84  C   UNL A   1      44.821  35.095  32.130  1.00  0.00     0.006 A 
ENDBRANCH  60  77
ENDBRANCH  34  35
ENDBRANCH  26  29
ENDBRANCH  24  25
ENDBRANCH  23  24
ENDBRANCH   1  23
TORSDOF 16
ENDMDL
MODEL 3
REMARK VINA RESULT:     -10.4      4.492      8.563
REMARK SMILES C=CC[N@@H+](CC(=O)NCCCNC(=O)c1ccc(-c2c3nc(c(-c4c(F)cccc4F)c4ccc([nH]4)c(-c4c(F)cccc4F)c4nc(c(-c5c(F)cccc5F)c5ccc2[nH]5)C=C4)C=C3)cc1)C[C@H]1C[N@@H+](C(C)C)CCO1
REMARK SMILES IDX 9 1 8 2 6 3 7 4 5 6 4 7 3 9 2 10 1 11 69 12 70 13 71 14
REMARK SMILES IDX 78 15 72 16 77 17 76 18 73 20 74 21 75 22 10 23 11 24 12 25
REMARK SMILES IDX 13 26 14 28 15 29 16 30 68 31 17 32 67 33 18 34 19 35 20 36
REMARK SMILES IDX 61 37 21 38 66 39 60 40 62 41 22 42 65 43 59 44 58 45 23 47
REMARK SMILES IDX 49 48 32 49 48 50 33 51 36 52 47 53 63 54 34 55 35 56 46 58
REMARK SMILES IDX 64 59 37 60 24 61 25 62 30 63 26 64 27 65 29 66 31 67 28 68
REMARK SMILES IDX 50 69 51 70 56 71 52 72 53 73 55 74 57 75 54 76 38 77 39 78
REMARK SMILES IDX 44 79 40 80 41 81 43 82 45 83 42 84
REMARK H PARENT 8 5 4 8 72 19 12 27 62 46 36 57
REMARK Flexibility Score: inf
ROOT
ATOM      1  C   UNL A   1      36.452  20.560  24.962  1.00  0.00     0.118 C 
ENDROOT
BRANCH   1   2
ATOM      2  N   UNL A   1      35.202  19.820  24.945  1.00  0.00    -0.351 N 
ATOM      3  C   UNL A   1      33.954  20.109  25.410  1.00  0.00     0.275 C 
ATOM      4  O   UNL A   1      33.044  19.364  25.031  1.00  0.00    -0.269 OA
ATOM      5  H   UNL A   1      35.270  18.937  24.516  1.00  0.00     0.163 HD
BRANCH   3   6
ATOM      6  C   UNL A   1      33.652  21.274  26.350  1.00  0.00     0.363 C 
BRANCH   6   7
ATOM      7  N   UNL A   1      33.507  22.606  25.721  1.00  0.00    -0.322 N 
ATOM      8  H   UNL A   1      33.894  22.552  24.780  1.00  0.00     0.348 HD
BRANCH   7   9
ATOM      9  C   UNL A   1      34.378  23.594  26.320  1.00  0.00     0.290 C 
BRANCH   9  10
ATOM     10  C   UNL A   1      35.550  24.082  25.529  1.00  0.00     0.025 C 
ATOM     11  C   UNL A   1      36.813  23.849  25.919  1.00  0.00     0.010 C 
ENDBRANCH   9  10
ENDBRANCH   7   9
BRANCH   7  12
ATOM     12  C   UNL A   1      32.150  22.972  25.271  1.00  0.00     0.301 C 
BRANCH  12  13
ATOM     13  C   UNL A   1      31.738  23.030  23.769  1.00  0.00     0.228 C 
ATOM     14  C   UNL A   1      30.617  24.011  23.364  1.00  0.00     0.300 C 
ATOM     15  O   UNL A   1      32.896  23.154  22.910  1.00  0.00    -0.361 OA
ATOM     16  N   UNL A   1      30.987  25.376  22.976  1.00  0.00    -0.329 N 
ATOM     17  C   UNL A   1      33.314  24.500  22.685  1.00  0.00     0.222 C 
ATOM     18  C   UNL A   1      32.180  25.371  22.131  1.00  0.00     0.291 C 
ATOM     19  H   UNL A   1      30.242  25.729  22.375  1.00  0.00     0.348 HD
BRANCH  16  20
ATOM     20  C   UNL A   1      30.875  26.406  24.010  1.00  0.00     0.177 C 
ATOM     21  C   UNL A   1      30.579  27.842  23.568  1.00  0.00     0.075 C 
ATOM     22  C   UNL A   1      29.811  25.966  25.022  1.00  0.00     0.075 C 
ENDBRANCH  16  20
ENDBRANCH  12  13
ENDBRANCH   7  12
ENDBRANCH   6   7
ENDBRANCH   3   6
ENDBRANCH   1   2
BRANCH   1  23
ATOM     23  C   UNL A   1      37.706  19.676  24.969  1.00  0.00     0.042 C 
BRANCH  23  24
ATOM     24  C   UNL A   1      38.959  20.293  25.586  1.00  0.00     0.118 C 
BRANCH  24  25
ATOM     25  N   UNL A   1      39.992  19.300  25.806  1.00  0.00    -0.352 N 
ATOM     26  C   UNL A   1      41.325  19.459  26.083  1.00  0.00     0.251 C 
ATOM     27  H   UNL A   1      39.689  18.365  25.748  1.00  0.00     0.163 HD
ATOM     28  O   UNL A   1      42.070  18.481  25.961  1.00  0.00    -0.269 OA
BRANCH  26  29
ATOM     29  C   UNL A   1      41.905  20.752  26.528  1.00  0.00     0.039 A 
ATOM     30  C   UNL A   1      41.868  21.058  27.895  1.00  0.00     0.014 A 
ATOM     31  C   UNL A   1      42.363  21.720  25.628  1.00  0.00     0.014 A 
ATOM     32  C   UNL A   1      42.285  22.311  28.356  1.00  0.00     0.010 A 
ATOM     33  C   UNL A   1      42.834  22.954  26.095  1.00  0.00     0.010 A 
ATOM     34  C   UNL A   1      42.773  23.275  27.460  1.00  0.00    -0.014 A 
BRANCH  34  35
ATOM     35  C   UNL A   1      43.151  24.634  27.934  1.00  0.00     0.031 A 
ATOM     36  C   UNL A   1      42.087  25.668  28.203  1.00  0.00     0.074 A 
ATOM     37  C   UNL A   1      44.446  24.957  28.113  1.00  0.00     0.049 A 
ATOM     38  N   UNL A   1      42.220  26.913  28.593  1.00  0.00    -0.248 NA
ATOM     39  C   UNL A   1      40.692  25.252  27.994  1.00  0.00     0.031 C 
ATOM     40  C   UNL A   1      45.581  24.067  27.869  1.00  0.00     0.029 A 
ATOM     41  N   UNL A   1      45.025  26.128  28.537  1.00  0.00    -0.354 N 
ATOM     42  C   UNL A   1      40.933  27.432  28.653  1.00  0.00     0.074 A 
ATOM     43  C   UNL A   1      40.034  26.379  28.231  1.00  0.00     0.031 C 
ATOM     44  C   UNL A   1      46.719  24.719  28.160  1.00  0.00     0.029 A 
ATOM     45  C   UNL A   1      46.396  26.079  28.585  1.00  0.00     0.049 A 
ATOM     46  H   UNL A   1      44.505  26.927  28.784  1.00  0.00     0.167 HD
ATOM     47  C   UNL A   1      40.530  28.666  29.042  1.00  0.00     0.037 A 
ATOM     48  C   UNL A   1      47.295  27.023  28.928  1.00  0.00     0.037 A 
ATOM     49  C   UNL A   1      41.410  29.708  29.501  1.00  0.00     0.049 A 
ATOM     50  C   UNL A   1      46.824  28.383  29.362  1.00  0.00     0.074 A 
ATOM     51  C   UNL A   1      41.082  30.966  29.976  1.00  0.00     0.029 A 
ATOM     52  N   UNL A   1      42.791  29.612  29.545  1.00  0.00    -0.354 N 
ATOM     53  N   UNL A   1      45.599  28.839  29.465  1.00  0.00    -0.248 NA
ATOM     54  C   UNL A   1      47.860  29.358  29.733  1.00  0.00     0.031 C 
ATOM     55  C   UNL A   1      42.269  31.644  30.278  1.00  0.00     0.029 A 
ATOM     56  C   UNL A   1      43.331  30.795  30.022  1.00  0.00     0.049 A 
ATOM     57  H   UNL A   1      43.312  28.820  29.277  1.00  0.00     0.167 HD
ATOM     58  C   UNL A   1      45.717  30.142  29.932  1.00  0.00     0.074 A 
ATOM     59  C   UNL A   1      47.132  30.401  30.103  1.00  0.00     0.031 C 
ATOM     60  C   UNL A   1      44.740  31.042  30.195  1.00  0.00     0.037 A 
BRANCH  47  61
ATOM     61  C   UNL A   1      39.060  28.961  28.989  1.00  0.00     0.057 A 
ATOM     62  C   UNL A   1      38.237  28.804  30.111  1.00  0.00     0.134 A 
ATOM     63  C   UNL A   1      38.472  29.451  27.816  1.00  0.00     0.134 A 
ATOM     64  F   UNL A   1      38.739  28.329  31.261  1.00  0.00    -0.206 F 
ATOM     65  C   UNL A   1      36.874  29.104  30.062  1.00  0.00     0.040 A 
ATOM     66  C   UNL A   1      37.116  29.774  27.762  1.00  0.00     0.040 A 
ATOM     67  F   UNL A   1      39.208  29.632  26.709  1.00  0.00    -0.206 F 
ATOM     68  C   UNL A   1      36.311  29.597  28.887  1.00  0.00     0.006 A 
ENDBRANCH  47  61
BRANCH  48  69
ATOM     69  C   UNL A   1      48.744  26.709  28.890  1.00  0.00     0.057 A 
ATOM     70  C   UNL A   1      49.410  26.243  30.029  1.00  0.00     0.134 A 
ATOM     71  C   UNL A   1      49.496  26.874  27.721  1.00  0.00     0.134 A 
ATOM     72  F   UNL A   1      48.746  26.087  31.184  1.00  0.00    -0.206 F 
ATOM     73  C   UNL A   1      50.777  25.965  30.011  1.00  0.00     0.040 A 
ATOM     74  C   UNL A   1      50.859  26.580  27.684  1.00  0.00     0.040 A 
ATOM     75  F   UNL A   1      48.911  27.315  26.598  1.00  0.00    -0.206 F 
ATOM     76  C   UNL A   1      51.504  26.129  28.834  1.00  0.00     0.006 A 
ENDBRANCH  48  69
BRANCH  60  77
ATOM     77  C   UNL A   1      45.161  32.381  30.719  1.00  0.00     0.057 A 
ATOM     78  C   UNL A   1      45.333  32.615  32.088  1.00  0.00     0.134 A 
ATOM     79  C   UNL A   1      45.434  33.437  29.841  1.00  0.00     0.134 A 
ATOM     80  F   UNL A   1      45.075  31.646  32.980  1.00  0.00    -0.206 F 
ATOM     81  C   UNL A   1      45.746  33.858  32.568  1.00  0.00     0.040 A 
ATOM     82  C   UNL A   1      45.865  34.680  30.308  1.00  0.00     0.040 A 
ATOM     83  F   UNL A   1      45.294  33.276  28.516  1.00  0.00    -0.206 F 
ATOM     84  C   UNL A   1      46.019  34.894  31.676  1.00  0.00     0.006 A 
ENDBRANCH  60  77
ENDBRANCH  34  35
ENDBRANCH  26  29
ENDBRANCH  24  25
ENDBRANCH  23  24
ENDBRANCH   1  23
TORSDOF 16
ENDMDL
