MODEL 1
REMARK VINA RESULT:     -13.1      0.000      0.000
REMARK SMILES Cc1ccc(-c2nc(C)c(C(=O)N3CCC(C(=O)NCCCNC(=O)c4ccc(-c5c6nc(c(-c7c(F)cccc7F)c7ccc([nH]7)c(-c7c(F)cccc7F)c7nc(c(-c8c(F)cccc8F)c8ccc5[nH]8)C=C7)C=C6)cc4)CC3)s2)o1
REMARK SMILES IDX 21 1 20 2 19 3 17 4 18 5 16 7 11 8 12 9 13 10 14 11 81 12
REMARK SMILES IDX 15 13 80 14 10 15 6 16 7 17 82 18 8 19 9 20 5 21 1 22 2 23
REMARK SMILES IDX 3 24 83 25 4 26 22 27 23 28 24 29 25 31 26 32 27 33 79 34
REMARK SMILES IDX 28 35 78 36 29 37 30 38 31 39 72 40 32 41 77 42 71 43 73 44
REMARK SMILES IDX 33 45 76 46 70 47 69 48 34 50 60 51 43 52 59 53 44 54 47 55
REMARK SMILES IDX 58 56 74 57 45 58 46 59 57 61 75 62 48 63 35 64 36 65 41 66
REMARK SMILES IDX 37 67 38 68 40 69 42 70 39 71 61 72 62 73 67 74 63 75 64 76
REMARK SMILES IDX 66 77 68 78 65 79 49 80 50 81 55 82 51 83 52 84 54 85 56 86
REMARK SMILES IDX 53 87
REMARK H PARENT 19 6 23 30 73 49 47 60
REMARK Flexibility Score: inf
ROOT
ATOM      1  C   UNL A   1      31.340  32.253  26.705  1.00  0.00     0.042 C 
ENDROOT
BRANCH   1   2
ATOM      2  C   UNL A   1      31.416  30.759  26.434  1.00  0.00     0.117 C 
BRANCH   2   3
ATOM      3  N   UNL A   1      32.351  30.438  25.365  1.00  0.00    -0.356 N 
ATOM      4  C   UNL A   1      32.743  29.241  24.853  1.00  0.00     0.223 C 
ATOM      5  O   UNL A   1      33.581  29.244  23.950  1.00  0.00    -0.275 OA
ATOM      6  H   UNL A   1      32.772  31.221  24.942  1.00  0.00     0.163 HD
BRANCH   4   7
ATOM      7  C   UNL A   1      32.167  27.932  25.368  1.00  0.00     0.082 C 
ATOM      8  C   UNL A   1      31.469  24.171  23.877  1.00  0.00     0.265 C 
ATOM      9  O   UNL A   1      31.034  24.420  22.751  1.00  0.00    -0.268 OA
ATOM     10  N   UNL A   1      31.528  25.194  24.822  1.00  0.00    -0.338 N 
ATOM     11  C   UNL A   1      30.433  26.144  24.896  1.00  0.00     0.120 C 
ATOM     12  C   UNL A   1      32.672  25.451  25.683  1.00  0.00     0.120 C 
ATOM     13  C   UNL A   1      30.890  27.558  24.604  1.00  0.00     0.035 C 
ATOM     14  C   UNL A   1      33.249  26.840  25.440  1.00  0.00     0.035 C 
BRANCH   8  15
ATOM     15  C   UNL A   1      31.807  22.822  24.313  1.00  0.00     0.115 A 
ATOM     16  C   UNL A   1      32.472  20.481  24.295  1.00  0.00     0.159 A 
ATOM     17  N   UNL A   1      31.778  20.740  25.378  1.00  0.00    -0.237 NA
ATOM     18  S   UNL A   1      32.785  21.828  23.289  1.00  0.00    -0.105 S 
ATOM     19  C   UNL A   1      31.373  22.063  25.395  1.00  0.00     0.062 A 
ATOM     20  C   UNL A   1      30.480  22.440  26.521  1.00  0.00     0.068 C 
BRANCH  16  21
ATOM     21  C   UNL A   1      32.879  19.140  23.981  1.00  0.00     0.162 A 
ATOM     22  C   UNL A   1      34.824  16.305  25.001  1.00  0.00     0.087 C 
ATOM     23  C   UNL A   1      33.945  17.217  24.241  1.00  0.00     0.101 A 
ATOM     24  C   UNL A   1      33.278  17.126  23.042  1.00  0.00     0.046 A 
ATOM     25  O   UNL A   1      33.718  18.431  24.806  1.00  0.00    -0.459 OA
ATOM     26  C   UNL A   1      32.580  18.350  22.883  1.00  0.00     0.054 A 
ENDBRANCH  16  21
ENDBRANCH   8  15
ENDBRANCH   4   7
ENDBRANCH   2   3
ENDBRANCH   1   2
BRANCH   1  27
ATOM     27  C   UNL A   1      32.675  32.873  27.079  1.00  0.00     0.118 C 
BRANCH  27  28
ATOM     28  N   UNL A   1      32.531  34.203  27.655  1.00  0.00    -0.352 N 
ATOM     29  C   UNL A   1      33.164  34.769  28.732  1.00  0.00     0.251 C 
ATOM     30  H   UNL A   1      31.879  34.785  27.203  1.00  0.00     0.163 HD
ATOM     31  O   UNL A   1      32.753  35.834  29.189  1.00  0.00    -0.269 OA
BRANCH  29  32
ATOM     32  C   UNL A   1      34.325  34.099  29.353  1.00  0.00     0.039 A 
ATOM     33  C   UNL A   1      34.101  33.126  30.330  1.00  0.00     0.014 A 
ATOM     34  C   UNL A   1      35.631  34.437  28.988  1.00  0.00     0.014 A 
ATOM     35  C   UNL A   1      35.186  32.456  30.897  1.00  0.00     0.010 A 
ATOM     36  C   UNL A   1      36.701  33.696  29.476  1.00  0.00     0.010 A 
ATOM     37  C   UNL A   1      36.493  32.710  30.450  1.00  0.00    -0.014 A 
BRANCH  37  38
ATOM     38  C   UNL A   1      37.652  31.968  31.004  1.00  0.00     0.031 A 
ATOM     39  C   UNL A   1      38.150  32.268  32.392  1.00  0.00     0.074 A 
ATOM     40  C   UNL A   1      38.286  31.057  30.241  1.00  0.00     0.049 A 
ATOM     41  N   UNL A   1      39.161  31.747  33.038  1.00  0.00    -0.248 NA
ATOM     42  C   UNL A   1      37.438  33.315  33.143  1.00  0.00     0.031 C 
ATOM     43  C   UNL A   1      37.938  30.721  28.858  1.00  0.00     0.029 A 
ATOM     44  N   UNL A   1      39.358  30.248  30.518  1.00  0.00    -0.354 N 
ATOM     45  C   UNL A   1      39.212  32.409  34.259  1.00  0.00     0.074 A 
ATOM     46  C   UNL A   1      38.174  33.414  34.239  1.00  0.00     0.031 C 
ATOM     47  C   UNL A   1      38.757  29.751  28.422  1.00  0.00     0.029 A 
ATOM     48  C   UNL A   1      39.708  29.422  29.478  1.00  0.00     0.049 A 
ATOM     49  H   UNL A   1      39.832  30.259  31.381  1.00  0.00     0.167 HD
ATOM     50  C   UNL A   1      40.030  32.181  35.314  1.00  0.00     0.037 A 
ATOM     51  C   UNL A   1      40.685  28.501  29.388  1.00  0.00     0.037 A 
ATOM     52  C   UNL A   1      41.046  31.162  35.341  1.00  0.00     0.049 A 
ATOM     53  C   UNL A   1      41.574  28.258  30.578  1.00  0.00     0.074 A 
ATOM     54  C   UNL A   1      41.888  30.810  36.380  1.00  0.00     0.029 A 
ATOM     55  N   UNL A   1      41.355  30.329  34.275  1.00  0.00    -0.354 N 
ATOM     56  N   UNL A   1      41.562  28.840  31.752  1.00  0.00    -0.248 NA
ATOM     57  C   UNL A   1      42.603  27.221  30.431  1.00  0.00     0.031 C 
ATOM     58  C   UNL A   1      42.739  29.795  35.930  1.00  0.00     0.029 A 
ATOM     59  C   UNL A   1      42.389  29.476  34.627  1.00  0.00     0.049 A 
ATOM     60  H   UNL A   1      40.907  30.342  33.399  1.00  0.00     0.167 HD
ATOM     61  C   UNL A   1      42.557  28.221  32.494  1.00  0.00     0.074 A 
ATOM     62  C   UNL A   1      43.142  27.206  31.642  1.00  0.00     0.031 C 
ATOM     63  C   UNL A   1      42.955  28.468  33.767  1.00  0.00     0.037 A 
BRANCH  50  64
ATOM     64  C   UNL A   1      39.851  33.046  36.528  1.00  0.00     0.057 A 
ATOM     65  C   UNL A   1      38.920  32.733  37.530  1.00  0.00     0.134 A 
ATOM     66  C   UNL A   1      40.634  34.192  36.714  1.00  0.00     0.134 A 
ATOM     67  F   UNL A   1      38.127  31.658  37.408  1.00  0.00    -0.206 F 
ATOM     68  C   UNL A   1      38.755  33.543  38.655  1.00  0.00     0.040 A 
ATOM     69  C   UNL A   1      40.499  34.992  37.850  1.00  0.00     0.040 A 
ATOM     70  F   UNL A   1      41.548  34.549  35.799  1.00  0.00    -0.206 F 
ATOM     71  C   UNL A   1      39.553  34.672  38.821  1.00  0.00     0.006 A 
ENDBRANCH  50  64
BRANCH  51  72
ATOM     72  C   UNL A   1      40.853  27.712  28.142  1.00  0.00     0.057 A 
ATOM     73  C   UNL A   1      41.640  28.190  27.086  1.00  0.00     0.134 A 
ATOM     74  C   UNL A   1      40.229  26.471  27.970  1.00  0.00     0.134 A 
ATOM     75  F   UNL A   1      42.250  29.380  27.184  1.00  0.00    -0.206 F 
ATOM     76  C   UNL A   1      41.780  27.475  25.896  1.00  0.00     0.040 A 
ATOM     77  C   UNL A   1      40.383  25.733  26.796  1.00  0.00     0.040 A 
ATOM     78  F   UNL A   1      39.471  25.954  28.947  1.00  0.00    -0.206 F 
ATOM     79  C   UNL A   1      41.153  26.239  25.751  1.00  0.00     0.006 A 
ENDBRANCH  51  72
BRANCH  63  80
ATOM     80  C   UNL A   1      44.043  27.597  34.325  1.00  0.00     0.057 A 
ATOM     81  C   UNL A   1      45.392  27.974  34.281  1.00  0.00     0.134 A 
ATOM     82  C   UNL A   1      43.732  26.375  34.935  1.00  0.00     0.134 A 
ATOM     83  F   UNL A   1      45.757  29.128  33.700  1.00  0.00    -0.206 F 
ATOM     84  C   UNL A   1      46.396  27.151  34.794  1.00  0.00     0.040 A 
ATOM     85  C   UNL A   1      44.724  25.558  35.478  1.00  0.00     0.040 A 
ATOM     86  F   UNL A   1      42.460  25.960  35.021  1.00  0.00    -0.206 F 
ATOM     87  C   UNL A   1      46.061  25.941  35.400  1.00  0.00     0.006 A 
ENDBRANCH  63  80
ENDBRANCH  37  38
ENDBRANCH  29  32
ENDBRANCH  27  28
ENDBRANCH   1  27
TORSDOF 12
ENDMDL
MODEL 2
REMARK VINA RESULT:     -13.0      4.938     10.615
REMARK SMILES Cc1ccc(-c2nc(C)c(C(=O)N3CCC(C(=O)NCCCNC(=O)c4ccc(-c5c6nc(c(-c7c(F)cccc7F)c7ccc([nH]7)c(-c7c(F)cccc7F)c7nc(c(-c8c(F)cccc8F)c8ccc5[nH]8)C=C7)C=C6)cc4)CC3)s2)o1
REMARK SMILES IDX 21 1 20 2 19 3 17 4 18 5 16 7 11 8 12 9 13 10 14 11 81 12
REMARK SMILES IDX 15 13 80 14 10 15 6 16 7 17 82 18 8 19 9 20 5 21 1 22 2 23
REMARK SMILES IDX 3 24 83 25 4 26 22 27 23 28 24 29 25 31 26 32 27 33 79 34
REMARK SMILES IDX 28 35 78 36 29 37 30 38 31 39 72 40 32 41 77 42 71 43 73 44
REMARK SMILES IDX 33 45 76 46 70 47 69 48 34 50 60 51 43 52 59 53 44 54 47 55
REMARK SMILES IDX 58 56 74 57 45 58 46 59 57 61 75 62 48 63 35 64 36 65 41 66
REMARK SMILES IDX 37 67 38 68 40 69 42 70 39 71 61 72 62 73 67 74 63 75 64 76
REMARK SMILES IDX 66 77 68 78 65 79 49 80 50 81 55 82 51 83 52 84 54 85 56 86
REMARK SMILES IDX 53 87
REMARK H PARENT 19 6 23 30 73 49 47 60
REMARK Flexibility Score: inf
ROOT
ATOM      1  C   UNL A   1      38.147  19.314  24.949  1.00  0.00     0.042 C 
ENDROOT
BRANCH   1   2
ATOM      2  C   UNL A   1      37.110  20.378  24.626  1.00  0.00     0.117 C 
BRANCH   2   3
ATOM      3  N   UNL A   1      36.273  20.701  25.774  1.00  0.00    -0.356 N 
ATOM      4  C   UNL A   1      35.269  21.606  25.918  1.00  0.00     0.223 C 
ATOM      5  O   UNL A   1      34.728  21.699  27.021  1.00  0.00    -0.275 OA
ATOM      6  H   UNL A   1      36.468  20.174  26.582  1.00  0.00     0.163 HD
BRANCH   4   7
ATOM      7  C   UNL A   1      34.816  22.479  24.760  1.00  0.00     0.082 C 
ATOM      8  C   UNL A   1      31.375  24.411  23.629  1.00  0.00     0.265 C 
ATOM      9  O   UNL A   1      30.511  23.576  23.902  1.00  0.00    -0.268 OA
ATOM     10  N   UNL A   1      32.709  24.013  23.572  1.00  0.00    -0.338 N 
ATOM     11  C   UNL A   1      33.034  22.731  22.975  1.00  0.00     0.120 C 
ATOM     12  C   UNL A   1      33.812  24.750  24.171  1.00  0.00     0.120 C 
ATOM     13  C   UNL A   1      33.694  21.796  23.966  1.00  0.00     0.035 C 
ATOM     14  C   UNL A   1      34.527  23.917  25.227  1.00  0.00     0.035 C 
BRANCH   8  15
ATOM     15  C   UNL A   1      31.056  25.777  23.233  1.00  0.00     0.115 A 
ATOM     16  C   UNL A   1      29.915  27.916  23.005  1.00  0.00     0.159 A 
ATOM     17  N   UNL A   1      30.718  27.726  21.984  1.00  0.00    -0.237 NA
ATOM     18  S   UNL A   1      29.966  26.702  24.208  1.00  0.00    -0.105 S 
ATOM     19  C   UNL A   1      31.359  26.504  22.087  1.00  0.00     0.062 A 
ATOM     20  C   UNL A   1      32.207  26.132  20.925  1.00  0.00     0.068 C 
BRANCH  16  21
ATOM     21  C   UNL A   1      29.032  29.047  23.050  1.00  0.00     0.162 A 
ATOM     22  C   UNL A   1      28.778  32.623  23.126  1.00  0.00     0.087 C 
ATOM     23  C   UNL A   1      28.452  31.182  23.125  1.00  0.00     0.101 A 
ATOM     24  C   UNL A   1      27.280  30.465  23.193  1.00  0.00     0.046 A 
ATOM     25  O   UNL A   1      29.511  30.334  23.051  1.00  0.00    -0.459 OA
ATOM     26  C   UNL A   1      27.650  29.097  23.126  1.00  0.00     0.054 A 
ENDBRANCH  16  21
ENDBRANCH   8  15
ENDBRANCH   4   7
ENDBRANCH   2   3
ENDBRANCH   1   2
BRANCH   1  27
ATOM     27  C   UNL A   1      39.275  19.812  25.834  1.00  0.00     0.118 C 
BRANCH  27  28
ATOM     28  N   UNL A   1      40.403  18.891  25.873  1.00  0.00    -0.352 N 
ATOM     29  C   UNL A   1      41.743  19.145  26.009  1.00  0.00     0.251 C 
ATOM     30  H   UNL A   1      40.166  17.940  25.789  1.00  0.00     0.163 HD
ATOM     31  O   UNL A   1      42.557  18.245  25.810  1.00  0.00    -0.269 OA
BRANCH  29  32
ATOM     32  C   UNL A   1      42.214  20.496  26.378  1.00  0.00     0.039 A 
ATOM     33  C   UNL A   1      42.590  21.381  25.365  1.00  0.00     0.014 A 
ATOM     34  C   UNL A   1      42.301  20.888  27.717  1.00  0.00     0.014 A 
ATOM     35  C   UNL A   1      42.998  22.674  25.695  1.00  0.00     0.010 A 
ATOM     36  C   UNL A   1      42.605  22.205  28.037  1.00  0.00     0.010 A 
ATOM     37  C   UNL A   1      42.976  23.109  27.031  1.00  0.00    -0.014 A 
BRANCH  37  38
ATOM     38  C   UNL A   1      43.356  24.496  27.393  1.00  0.00     0.031 A 
ATOM     39  C   UNL A   1      44.796  24.928  27.330  1.00  0.00     0.074 A 
ATOM     40  C   UNL A   1      42.411  25.354  27.824  1.00  0.00     0.049 A 
ATOM     41  N   UNL A   1      45.325  26.086  27.632  1.00  0.00    -0.248 NA
ATOM     42  C   UNL A   1      45.776  23.917  26.902  1.00  0.00     0.031 C 
ATOM     43  C   UNL A   1      40.990  25.037  27.988  1.00  0.00     0.029 A 
ATOM     44  N   UNL A   1      42.502  26.669  28.205  1.00  0.00    -0.354 N 
ATOM     45  C   UNL A   1      46.694  25.937  27.443  1.00  0.00     0.074 A 
ATOM     46  C   UNL A   1      46.922  24.561  27.065  1.00  0.00     0.031 C 
ATOM     47  C   UNL A   1      40.339  26.135  28.401  1.00  0.00     0.029 A 
ATOM     48  C   UNL A   1      41.298  27.222  28.565  1.00  0.00     0.049 A 
ATOM     49  H   UNL A   1      43.352  27.166  28.220  1.00  0.00     0.167 HD
ATOM     50  C   UNL A   1      47.671  26.870  27.546  1.00  0.00     0.037 A 
ATOM     51  C   UNL A   1      41.001  28.469  28.978  1.00  0.00     0.037 A 
ATOM     52  C   UNL A   1      47.438  28.246  27.897  1.00  0.00     0.049 A 
ATOM     53  C   UNL A   1      42.102  29.489  29.073  1.00  0.00     0.074 A 
ATOM     54  C   UNL A   1      48.349  29.283  27.972  1.00  0.00     0.029 A 
ATOM     55  N   UNL A   1      46.199  28.775  28.232  1.00  0.00    -0.354 N 
ATOM     56  N   UNL A   1      43.381  29.354  28.819  1.00  0.00    -0.248 NA
ATOM     57  C   UNL A   1      41.714  30.840  29.501  1.00  0.00     0.031 C 
ATOM     58  C   UNL A   1      47.672  30.431  28.397  1.00  0.00     0.029 A 
ATOM     59  C   UNL A   1      46.327  30.121  28.534  1.00  0.00     0.049 A 
ATOM     60  H   UNL A   1      45.356  28.269  28.254  1.00  0.00     0.167 HD
ATOM     61  C   UNL A   1      43.945  30.605  29.025  1.00  0.00     0.074 A 
ATOM     62  C   UNL A   1      42.865  31.491  29.409  1.00  0.00     0.031 C 
ATOM     63  C   UNL A   1      45.240  30.989  28.908  1.00  0.00     0.037 A 
BRANCH  50  64
ATOM     64  C   UNL A   1      49.079  26.431  27.264  1.00  0.00     0.057 A 
ATOM     65  C   UNL A   1      49.932  25.982  28.283  1.00  0.00     0.134 A 
ATOM     66  C   UNL A   1      49.582  26.431  25.957  1.00  0.00     0.134 A 
ATOM     67  F   UNL A   1      49.520  25.971  29.559  1.00  0.00    -0.206 F 
ATOM     68  C   UNL A   1      51.242  25.578  28.015  1.00  0.00     0.040 A 
ATOM     69  C   UNL A   1      50.879  26.000  25.674  1.00  0.00     0.040 A 
ATOM     70  F   UNL A   1      48.820  26.842  24.933  1.00  0.00    -0.206 F 
ATOM     71  C   UNL A   1      51.715  25.578  26.705  1.00  0.00     0.006 A 
ENDBRANCH  50  64
BRANCH  51  72
ATOM     72  C   UNL A   1      39.598  28.834  29.297  1.00  0.00     0.057 A 
ATOM     73  C   UNL A   1      39.078  28.645  30.584  1.00  0.00     0.134 A 
ATOM     74  C   UNL A   1      38.742  29.370  28.328  1.00  0.00     0.134 A 
ATOM     75  F   UNL A   1      39.844  28.119  31.550  1.00  0.00    -0.206 F 
ATOM     76  C   UNL A   1      37.752  28.953  30.889  1.00  0.00     0.040 A 
ATOM     77  C   UNL A   1      37.421  29.707  28.627  1.00  0.00     0.040 A 
ATOM     78  F   UNL A   1      39.182  29.584  27.080  1.00  0.00    -0.206 F 
ATOM     79  C   UNL A   1      36.920  29.490  29.909  1.00  0.00     0.006 A 
ENDBRANCH  51  72
BRANCH  63  80
ATOM     80  C   UNL A   1      45.549  32.437  29.157  1.00  0.00     0.057 A 
ATOM     81  C   UNL A   1      45.483  33.396  28.138  1.00  0.00     0.134 A 
ATOM     82  C   UNL A   1      45.897  32.880  30.440  1.00  0.00     0.134 A 
ATOM     83  F   UNL A   1      45.167  33.036  26.884  1.00  0.00    -0.206 F 
ATOM     84  C   UNL A   1      45.783  34.738  28.378  1.00  0.00     0.040 A 
ATOM     85  C   UNL A   1      46.170  34.223  30.699  1.00  0.00     0.040 A 
ATOM     86  F   UNL A   1      45.968  32.015  31.463  1.00  0.00    -0.206 F 
ATOM     87  C   UNL A   1      46.122  35.154  29.665  1.00  0.00     0.006 A 
ENDBRANCH  63  80
ENDBRANCH  37  38
ENDBRANCH  29  32
ENDBRANCH  27  28
ENDBRANCH   1  27
TORSDOF 12
ENDMDL
MODEL 3
REMARK VINA RESULT:     -12.9      4.443      9.904
REMARK SMILES Cc1ccc(-c2nc(C)c(C(=O)N3CCC(C(=O)NCCCNC(=O)c4ccc(-c5c6nc(c(-c7c(F)cccc7F)c7ccc([nH]7)c(-c7c(F)cccc7F)c7nc(c(-c8c(F)cccc8F)c8ccc5[nH]8)C=C7)C=C6)cc4)CC3)s2)o1
REMARK SMILES IDX 21 1 20 2 19 3 17 4 18 5 16 7 11 8 12 9 13 10 14 11 81 12
REMARK SMILES IDX 15 13 80 14 10 15 6 16 7 17 82 18 8 19 9 20 5 21 1 22 2 23
REMARK SMILES IDX 3 24 83 25 4 26 22 27 23 28 24 29 25 31 26 32 27 33 79 34
REMARK SMILES IDX 28 35 78 36 29 37 30 38 31 39 72 40 32 41 77 42 71 43 73 44
REMARK SMILES IDX 33 45 76 46 70 47 69 48 34 50 60 51 43 52 59 53 44 54 47 55
REMARK SMILES IDX 58 56 74 57 45 58 46 59 57 61 75 62 48 63 35 64 36 65 41 66
REMARK SMILES IDX 37 67 38 68 40 69 42 70 39 71 61 72 62 73 67 74 63 75 64 76
REMARK SMILES IDX 66 77 68 78 65 79 49 80 50 81 55 82 51 83 52 84 54 85 56 86
REMARK SMILES IDX 53 87
REMARK H PARENT 19 6 23 30 73 49 47 60
REMARK Flexibility Score: inf
ROOT
ATOM      1  C   UNL A   1      37.445  19.618  25.119  1.00  0.00     0.042 C 
ENDROOT
BRANCH   1   2
ATOM      2  C   UNL A   1      36.378  20.624  24.720  1.00  0.00     0.117 C 
BRANCH   2   3
ATOM      3  N   UNL A   1      36.900  21.669  23.851  1.00  0.00    -0.356 N 
ATOM      4  C   UNL A   1      36.350  22.841  23.436  1.00  0.00     0.223 C 
ATOM      5  O   UNL A   1      37.006  23.548  22.668  1.00  0.00    -0.275 OA
ATOM      6  H   UNL A   1      37.806  21.497  23.505  1.00  0.00     0.163 HD
BRANCH   4   7
ATOM      7  C   UNL A   1      34.972  23.278  23.902  1.00  0.00     0.082 C 
ATOM      8  C   UNL A   1      32.986  26.826  24.472  1.00  0.00     0.265 C 
ATOM      9  O   UNL A   1      33.857  27.526  24.989  1.00  0.00    -0.268 OA
ATOM     10  N   UNL A   1      33.171  25.446  24.413  1.00  0.00    -0.338 N 
ATOM     11  C   UNL A   1      33.758  24.768  25.555  1.00  0.00     0.120 C 
ATOM     12  C   UNL A   1      32.914  24.632  23.235  1.00  0.00     0.120 C 
ATOM     13  C   UNL A   1      35.065  24.091  25.200  1.00  0.00     0.035 C 
ATOM     14  C   UNL A   1      34.180  23.934  22.756  1.00  0.00     0.035 C 
BRANCH   8  15
ATOM     15  C   UNL A   1      31.703  27.359  24.030  1.00  0.00     0.115 A 
ATOM     16  C   UNL A   1      29.974  28.884  23.247  1.00  0.00     0.159 A 
ATOM     17  N   UNL A   1      29.425  27.865  23.865  1.00  0.00    -0.237 NA
ATOM     18  S   UNL A   1      31.675  28.809  23.087  1.00  0.00    -0.105 S 
ATOM     19  C   UNL A   1      30.395  26.997  24.335  1.00  0.00     0.062 A 
ATOM     20  C   UNL A   1      29.891  25.864  25.153  1.00  0.00     0.068 C 
BRANCH  16  21
ATOM     21  C   UNL A   1      29.179  29.991  22.797  1.00  0.00     0.162 A 
ATOM     22  C   UNL A   1      27.853  31.747  19.966  1.00  0.00     0.087 C 
ATOM     23  C   UNL A   1      28.202  31.345  21.343  1.00  0.00     0.101 A 
ATOM     24  C   UNL A   1      27.936  31.865  22.589  1.00  0.00     0.046 A 
ATOM     25  O   UNL A   1      28.959  30.224  21.461  1.00  0.00    -0.459 OA
ATOM     26  C   UNL A   1      28.546  30.988  23.522  1.00  0.00     0.054 A 
ENDBRANCH  16  21
ENDBRANCH   8  15
ENDBRANCH   4   7
ENDBRANCH   2   3
ENDBRANCH   1   2
BRANCH   1  27
ATOM     27  C   UNL A   1      38.685  20.253  25.722  1.00  0.00     0.118 C 
BRANCH  27  28
ATOM     28  N   UNL A   1      39.814  19.333  25.776  1.00  0.00    -0.352 N 
ATOM     29  C   UNL A   1      41.133  19.574  26.065  1.00  0.00     0.251 C 
ATOM     30  H   UNL A   1      39.596  18.395  25.574  1.00  0.00     0.163 HD
ATOM     31  O   UNL A   1      41.971  18.699  25.855  1.00  0.00    -0.269 OA
BRANCH  29  32
ATOM     32  C   UNL A   1      41.552  20.881  26.610  1.00  0.00     0.039 A 
ATOM     33  C   UNL A   1      41.952  21.886  25.727  1.00  0.00     0.014 A 
ATOM     34  C   UNL A   1      41.567  21.115  27.988  1.00  0.00     0.014 A 
ATOM     35  C   UNL A   1      42.312  23.139  26.224  1.00  0.00     0.010 A 
ATOM     36  C   UNL A   1      41.823  22.391  28.473  1.00  0.00     0.010 A 
ATOM     37  C   UNL A   1      42.217  23.414  27.598  1.00  0.00    -0.014 A 
BRANCH  37  38
ATOM     38  C   UNL A   1      42.545  24.756  28.137  1.00  0.00     0.031 A 
ATOM     39  C   UNL A   1      43.962  25.096  28.512  1.00  0.00     0.074 A 
ATOM     40  C   UNL A   1      41.560  25.654  28.333  1.00  0.00     0.049 A 
ATOM     41  N   UNL A   1      44.439  26.203  29.022  1.00  0.00    -0.248 NA
ATOM     42  C   UNL A   1      44.973  24.044  28.320  1.00  0.00     0.031 C 
ATOM     43  C   UNL A   1      40.138  25.422  28.067  1.00  0.00     0.029 A 
ATOM     44  N   UNL A   1      41.603  26.941  28.804  1.00  0.00    -0.354 N 
ATOM     45  C   UNL A   1      45.795  25.974  29.221  1.00  0.00     0.074 A 
ATOM     46  C   UNL A   1      46.054  24.604  28.840  1.00  0.00     0.031 C 
ATOM     47  C   UNL A   1      39.451  26.541  28.344  1.00  0.00     0.029 A 
ATOM     48  C   UNL A   1      40.375  27.556  28.839  1.00  0.00     0.049 A 
ATOM     49  H   UNL A   1      42.436  27.382  29.089  1.00  0.00     0.167 HD
ATOM     50  C   UNL A   1      46.746  26.837  29.653  1.00  0.00     0.037 A 
ATOM     51  C   UNL A   1      40.034  28.799  29.226  1.00  0.00     0.037 A 
ATOM     52  C   UNL A   1      46.490  28.207  30.007  1.00  0.00     0.049 A 
ATOM     53  C   UNL A   1      41.110  29.741  29.692  1.00  0.00     0.074 A 
ATOM     54  C   UNL A   1      47.392  29.179  30.401  1.00  0.00     0.029 A 
ATOM     55  N   UNL A   1      45.236  28.801  30.008  1.00  0.00    -0.354 N 
ATOM     56  N   UNL A   1      42.400  29.534  29.804  1.00  0.00    -0.248 NA
ATOM     57  C   UNL A   1      40.683  31.093  30.074  1.00  0.00     0.031 C 
ATOM     58  C   UNL A   1      46.679  30.349  30.685  1.00  0.00     0.029 A 
ATOM     59  C   UNL A   1      45.338  30.121  30.415  1.00  0.00     0.049 A 
ATOM     60  H   UNL A   1      44.398  28.349  29.759  1.00  0.00     0.167 HD
ATOM     61  C   UNL A   1      42.942  30.736  30.238  1.00  0.00     0.074 A 
ATOM     62  C   UNL A   1      41.843  31.672  30.352  1.00  0.00     0.031 C 
ATOM     63  C   UNL A   1      44.234  31.040  30.517  1.00  0.00     0.037 A 
BRANCH  50  64
ATOM     64  C   UNL A   1      48.152  26.320  29.758  1.00  0.00     0.057 A 
ATOM     65  C   UNL A   1      49.052  26.400  28.685  1.00  0.00     0.134 A 
ATOM     66  C   UNL A   1      48.623  25.758  30.951  1.00  0.00     0.134 A 
ATOM     67  F   UNL A   1      48.663  26.912  27.508  1.00  0.00    -0.206 F 
ATOM     68  C   UNL A   1      50.358  25.914  28.787  1.00  0.00     0.040 A 
ATOM     69  C   UNL A   1      49.935  25.298  31.075  1.00  0.00     0.040 A 
ATOM     70  F   UNL A   1      47.818  25.654  32.020  1.00  0.00    -0.206 F 
ATOM     71  C   UNL A   1      50.805  25.369  29.989  1.00  0.00     0.006 A 
ENDBRANCH  50  64
BRANCH  51  72
ATOM     72  C   UNL A   1      38.618  29.240  29.155  1.00  0.00     0.057 A 
ATOM     73  C   UNL A   1      38.066  29.702  27.954  1.00  0.00     0.134 A 
ATOM     74  C   UNL A   1      37.787  29.218  30.281  1.00  0.00     0.134 A 
ATOM     75  F   UNL A   1      38.817  29.763  26.845  1.00  0.00    -0.206 F 
ATOM     76  C   UNL A   1      36.746  30.150  27.881  1.00  0.00     0.040 A 
ATOM     77  C   UNL A   1      36.458  29.637  30.216  1.00  0.00     0.040 A 
ATOM     78  F   UNL A   1      38.253  28.776  31.458  1.00  0.00    -0.206 F 
ATOM     79  C   UNL A   1      35.937  30.114  29.014  1.00  0.00     0.006 A 
ENDBRANCH  51  72
BRANCH  63  80
ATOM     80  C   UNL A   1      44.530  32.453  30.931  1.00  0.00     0.057 A 
ATOM     81  C   UNL A   1      44.549  32.844  32.276  1.00  0.00     0.134 A 
ATOM     82  C   UNL A   1      44.821  33.429  29.969  1.00  0.00     0.134 A 
ATOM     83  F   UNL A   1      44.268  31.960  33.246  1.00  0.00    -0.206 F 
ATOM     84  C   UNL A   1      44.815  34.163  32.647  1.00  0.00     0.040 A 
ATOM     85  C   UNL A   1      45.117  34.743  30.330  1.00  0.00     0.040 A 
ATOM     86  F   UNL A   1      44.830  33.118  28.664  1.00  0.00    -0.206 F 
ATOM     87  C   UNL A   1      45.106  35.115  31.671  1.00  0.00     0.006 A 
ENDBRANCH  63  80
ENDBRANCH  37  38
ENDBRANCH  29  32
ENDBRANCH  27  28
ENDBRANCH   1  27
TORSDOF 12
ENDMDL
