MODEL 1
REMARK VINA RESULT:     -11.8      0.000      0.000
REMARK SMILES COc1ccc([C@@H](CC(=O)NCCCNC(=O)c2ccc(-c3c4nc(c(-c5c(F)cccc5F)c5ccc([nH]5)c(-c5c(F)cccc5F)c5nc(c(-c6c(F)cccc6F)c6ccc3[nH]6)C=C5)C=C4)cc2)N2C(=O)[C@H]3CC=CC[C@H]3C2=O)cc1OC
REMARK SMILES IDX 12 1 11 2 9 3 10 4 8 6 7 7 6 8 3 9 4 10 84 11 5 12 83 13
REMARK SMILES IDX 2 14 1 15 85 16 86 17 72 18 73 19 81 20 74 21 75 22 80 23
REMARK SMILES IDX 82 24 76 25 79 26 77 27 78 28 13 29 14 30 15 31 16 32 17 34
REMARK SMILES IDX 18 35 19 36 71 37 20 38 70 39 21 40 22 41 23 42 64 43 24 44
REMARK SMILES IDX 69 45 63 46 65 47 25 48 68 49 62 50 61 51 26 53 52 54 35 55
REMARK SMILES IDX 51 56 36 57 39 58 50 59 66 60 37 61 38 62 49 64 67 65 40 66
REMARK SMILES IDX 27 67 28 68 33 69 29 70 30 71 32 72 34 73 31 74 53 75 54 76
REMARK SMILES IDX 59 77 55 78 56 79 58 80 60 81 57 82 41 83 42 84 47 85 43 86
REMARK SMILES IDX 44 87 46 88 48 89 45 90
REMARK H PARENT 11 5 15 33 65 52 39 63
REMARK Flexibility Score: inf
ROOT
ATOM      1  C   UNL A   1      37.367  21.095  24.514  1.00  0.00     0.117 C 
ENDROOT
BRANCH   1   2
ATOM      2  N   UNL A   1      37.673  22.116  25.501  1.00  0.00    -0.356 N 
ATOM      3  C   UNL A   1      37.256  23.407  25.596  1.00  0.00     0.222 C 
ATOM      4  O   UNL A   1      37.941  24.133  26.319  1.00  0.00    -0.275 OA
ATOM      5  H   UNL A   1      38.281  21.826  26.219  1.00  0.00     0.163 HD
BRANCH   3   6
ATOM      6  C   UNL A   1      35.977  23.900  24.933  1.00  0.00     0.130 C 
BRANCH   6   7
ATOM      7  C   UNL A   1      34.651  23.790  25.742  1.00  0.00     0.133 C 
BRANCH   7   8
ATOM      8  C   UNL A   1      34.105  22.357  25.606  1.00  0.00    -0.020 A 
ATOM      9  C   UNL A   1      32.809  19.844  25.348  1.00  0.00     0.160 A 
ATOM     10  C   UNL A   1      33.461  20.188  26.533  1.00  0.00     0.051 A 
ATOM     11  C   UNL A   1      32.879  20.718  24.254  1.00  0.00     0.161 A 
ATOM     12  C   UNL A   1      34.105  21.427  26.654  1.00  0.00     0.010 A 
ATOM     13  C   UNL A   1      33.515  21.961  24.393  1.00  0.00     0.056 A 
BRANCH   9  14
ATOM     14  O   UNL A   1      31.999  18.750  25.235  1.00  0.00    -0.493 OA
ATOM     15  C   UNL A   1      32.604  17.473  25.325  1.00  0.00     0.278 C 
ENDBRANCH   9  14
BRANCH  11  16
ATOM     16  O   UNL A   1      32.331  20.513  23.011  1.00  0.00    -0.493 OA
ATOM     17  C   UNL A   1      32.075  21.680  22.235  1.00  0.00     0.278 C 
ENDBRANCH  11  16
ENDBRANCH   7   8
BRANCH   7  18
ATOM     18  N   UNL A   1      33.662  24.842  25.473  1.00  0.00    -0.274 N 
ATOM     19  C   UNL A   1      32.483  24.981  26.140  1.00  0.00     0.234 C 
ATOM     20  C   UNL A   1      33.462  25.401  24.243  1.00  0.00     0.234 C 
ATOM     21  O   UNL A   1      31.942  24.151  26.858  1.00  0.00    -0.274 OA
ATOM     22  C   UNL A   1      31.848  26.291  25.737  1.00  0.00     0.095 C 
ATOM     23  C   UNL A   1      32.519  26.573  24.390  1.00  0.00     0.095 C 
ATOM     24  O   UNL A   1      33.919  25.037  23.177  1.00  0.00    -0.274 OA
ATOM     25  C   UNL A   1      32.073  27.333  26.836  1.00  0.00     0.041 C 
ATOM     26  C   UNL A   1      33.341  27.863  24.282  1.00  0.00     0.041 C 
ATOM     27  C   UNL A   1      33.398  28.031  26.750  1.00  0.00    -0.030 C 
ATOM     28  C   UNL A   1      33.980  28.283  25.571  1.00  0.00    -0.030 C 
ENDBRANCH   7  18
ENDBRANCH   6   7
ENDBRANCH   3   6
ENDBRANCH   1   2
BRANCH   1  29
ATOM     29  C   UNL A   1      38.181  19.837  24.803  1.00  0.00     0.042 C 
BRANCH  29  30
ATOM     30  C   UNL A   1      39.038  19.881  26.060  1.00  0.00     0.118 C 
BRANCH  30  31
ATOM     31  N   UNL A   1      40.298  19.183  25.890  1.00  0.00    -0.352 N 
ATOM     32  C   UNL A   1      41.607  19.596  25.940  1.00  0.00     0.251 C 
ATOM     33  H   UNL A   1      40.196  18.223  25.701  1.00  0.00     0.163 HD
ATOM     34  O   UNL A   1      42.465  18.807  25.543  1.00  0.00    -0.269 OA
BRANCH  32  35
ATOM     35  C   UNL A   1      42.049  20.933  26.435  1.00  0.00     0.039 A 
ATOM     36  C   UNL A   1      41.959  21.176  27.816  1.00  0.00     0.014 A 
ATOM     37  C   UNL A   1      42.410  21.992  25.603  1.00  0.00     0.014 A 
ATOM     38  C   UNL A   1      42.241  22.442  28.353  1.00  0.00     0.010 A 
ATOM     39  C   UNL A   1      42.762  23.238  26.142  1.00  0.00     0.010 A 
ATOM     40  C   UNL A   1      42.658  23.487  27.521  1.00  0.00    -0.014 A 
BRANCH  40  41
ATOM     41  C   UNL A   1      42.900  24.864  28.041  1.00  0.00     0.031 A 
ATOM     42  C   UNL A   1      44.280  25.257  28.498  1.00  0.00     0.074 A 
ATOM     43  C   UNL A   1      41.892  25.749  28.162  1.00  0.00     0.049 A 
ATOM     44  N   UNL A   1      44.671  26.338  29.125  1.00  0.00    -0.248 NA
ATOM     45  C   UNL A   1      45.359  24.294  28.233  1.00  0.00     0.031 C 
ATOM     46  C   UNL A   1      40.511  25.517  27.750  1.00  0.00     0.029 A 
ATOM     47  N   UNL A   1      41.868  27.018  28.691  1.00  0.00    -0.354 N 
ATOM     48  C   UNL A   1      46.031  26.173  29.352  1.00  0.00     0.074 A 
ATOM     49  C   UNL A   1      46.391  24.872  28.829  1.00  0.00     0.031 C 
ATOM     50  C   UNL A   1      39.769  26.596  28.049  1.00  0.00     0.029 A 
ATOM     51  C   UNL A   1      40.616  27.587  28.706  1.00  0.00     0.049 A 
ATOM     52  H   UNL A   1      42.672  27.476  29.028  1.00  0.00     0.167 HD
ATOM     53  C   UNL A   1      46.907  27.030  29.929  1.00  0.00     0.037 A 
ATOM     54  C   UNL A   1      40.191  28.763  29.207  1.00  0.00     0.037 A 
ATOM     55  C   UNL A   1      46.565  28.340  30.418  1.00  0.00     0.049 A 
ATOM     56  C   UNL A   1      41.177  29.688  29.866  1.00  0.00     0.074 A 
ATOM     57  C   UNL A   1      47.396  29.293  30.982  1.00  0.00     0.029 A 
ATOM     58  N   UNL A   1      45.292  28.884  30.391  1.00  0.00    -0.354 N 
ATOM     59  N   UNL A   1      42.463  29.526  30.055  1.00  0.00    -0.248 NA
ATOM     60  C   UNL A   1      40.653  30.964  30.380  1.00  0.00     0.031 C 
ATOM     61  C   UNL A   1      46.617  30.403  31.327  1.00  0.00     0.029 A 
ATOM     62  C   UNL A   1      45.311  30.156  30.941  1.00  0.00     0.049 A 
ATOM     63  H   UNL A   1      44.491  28.434  30.035  1.00  0.00     0.167 HD
ATOM     64  C   UNL A   1      42.908  30.690  30.670  1.00  0.00     0.074 A 
ATOM     65  C   UNL A   1      41.755  31.550  30.825  1.00  0.00     0.031 C 
ATOM     66  C   UNL A   1      44.162  31.015  31.065  1.00  0.00     0.037 A 
BRANCH  53  67
ATOM     67  C   UNL A   1      48.329  26.570  30.072  1.00  0.00     0.057 A 
ATOM     68  C   UNL A   1      49.303  26.870  29.110  1.00  0.00     0.134 A 
ATOM     69  C   UNL A   1      48.735  25.843  31.198  1.00  0.00     0.134 A 
ATOM     70  F   UNL A   1      48.975  27.553  28.003  1.00  0.00    -0.206 F 
ATOM     71  C   UNL A   1      50.623  26.440  29.250  1.00  0.00     0.040 A 
ATOM     72  C   UNL A   1      50.057  25.431  31.361  1.00  0.00     0.040 A 
ATOM     73  F   UNL A   1      47.855  25.529  32.160  1.00  0.00    -0.206 F 
ATOM     74  C   UNL A   1      51.005  25.723  30.382  1.00  0.00     0.006 A 
ENDBRANCH  53  67
BRANCH  54  75
ATOM     75  C   UNL A   1      38.760  29.145  29.100  1.00  0.00     0.057 A 
ATOM     76  C   UNL A   1      38.223  29.598  27.890  1.00  0.00     0.134 A 
ATOM     77  C   UNL A   1      37.903  29.085  30.206  1.00  0.00     0.134 A 
ATOM     78  F   UNL A   1      39.002  29.697  26.803  1.00  0.00    -0.206 F 
ATOM     79  C   UNL A   1      36.890  29.996  27.785  1.00  0.00     0.040 A 
ATOM     80  C   UNL A   1      36.562  29.458  30.109  1.00  0.00     0.040 A 
ATOM     81  F   UNL A   1      38.357  28.656  31.392  1.00  0.00    -0.206 F 
ATOM     82  C   UNL A   1      36.053  29.922  28.897  1.00  0.00     0.006 A 
ENDBRANCH  54  75
BRANCH  66  83
ATOM     83  C   UNL A   1      44.372  32.380  31.650  1.00  0.00     0.057 A 
ATOM     84  C   UNL A   1      44.665  33.492  30.853  1.00  0.00     0.134 A 
ATOM     85  C   UNL A   1      44.222  32.590  33.027  1.00  0.00     0.134 A 
ATOM     86  F   UNL A   1      44.834  33.354  29.529  1.00  0.00    -0.206 F 
ATOM     87  C   UNL A   1      44.814  34.766  31.406  1.00  0.00     0.040 A 
ATOM     88  C   UNL A   1      44.346  33.862  33.588  1.00  0.00     0.040 A 
ATOM     89  F   UNL A   1      43.934  31.567  33.845  1.00  0.00    -0.206 F 
ATOM     90  C   UNL A   1      44.646  34.954  32.777  1.00  0.00     0.006 A 
ENDBRANCH  66  83
ENDBRANCH  40  41
ENDBRANCH  32  35
ENDBRANCH  30  31
ENDBRANCH  29  30
ENDBRANCH   1  29
TORSDOF 15
ENDMDL
MODEL 2
REMARK VINA RESULT:     -11.8      0.932      6.089
REMARK SMILES COc1ccc([C@@H](CC(=O)NCCCNC(=O)c2ccc(-c3c4nc(c(-c5c(F)cccc5F)c5ccc([nH]5)c(-c5c(F)cccc5F)c5nc(c(-c6c(F)cccc6F)c6ccc3[nH]6)C=C5)C=C4)cc2)N2C(=O)[C@H]3CC=CC[C@H]3C2=O)cc1OC
REMARK SMILES IDX 12 1 11 2 9 3 10 4 8 6 7 7 6 8 3 9 4 10 84 11 5 12 83 13
REMARK SMILES IDX 2 14 1 15 85 16 86 17 72 18 73 19 81 20 74 21 75 22 80 23
REMARK SMILES IDX 82 24 76 25 79 26 77 27 78 28 13 29 14 30 15 31 16 32 17 34
REMARK SMILES IDX 18 35 19 36 71 37 20 38 70 39 21 40 22 41 23 42 64 43 24 44
REMARK SMILES IDX 69 45 63 46 65 47 25 48 68 49 62 50 61 51 26 53 52 54 35 55
REMARK SMILES IDX 51 56 36 57 39 58 50 59 66 60 37 61 38 62 49 64 67 65 40 66
REMARK SMILES IDX 27 67 28 68 33 69 29 70 30 71 32 72 34 73 31 74 53 75 54 76
REMARK SMILES IDX 59 77 55 78 56 79 58 80 60 81 57 82 41 83 42 84 47 85 43 86
REMARK SMILES IDX 44 87 46 88 48 89 45 90
REMARK H PARENT 11 5 15 33 65 52 39 63
REMARK Flexibility Score: inf
ROOT
ATOM      1  C   UNL A   1      37.395  21.259  24.651  1.00  0.00     0.117 C 
ENDROOT
BRANCH   1   2
ATOM      2  N   UNL A   1      37.688  22.271  25.650  1.00  0.00    -0.356 N 
ATOM      3  C   UNL A   1      37.275  23.562  25.750  1.00  0.00     0.222 C 
ATOM      4  O   UNL A   1      37.951  24.280  26.489  1.00  0.00    -0.275 OA
ATOM      5  H   UNL A   1      38.285  21.972  26.375  1.00  0.00     0.163 HD
BRANCH   3   6
ATOM      6  C   UNL A   1      36.008  24.065  25.071  1.00  0.00     0.130 C 
BRANCH   6   7
ATOM      7  C   UNL A   1      34.668  23.943  25.854  1.00  0.00     0.133 C 
BRANCH   7   8
ATOM      8  C   UNL A   1      34.131  22.508  25.698  1.00  0.00    -0.020 A 
ATOM      9  C   UNL A   1      32.851  19.992  25.405  1.00  0.00     0.160 A 
ATOM     10  C   UNL A   1      33.503  20.322  26.594  1.00  0.00     0.051 A 
ATOM     11  C   UNL A   1      32.913  20.881  24.324  1.00  0.00     0.161 A 
ATOM     12  C   UNL A   1      34.140  21.563  26.732  1.00  0.00     0.010 A 
ATOM     13  C   UNL A   1      33.541  22.126  24.480  1.00  0.00     0.056 A 
BRANCH   9  14
ATOM     14  O   UNL A   1      32.048  18.894  25.279  1.00  0.00    -0.493 OA
ATOM     15  C   UNL A   1      32.676  17.638  25.094  1.00  0.00     0.278 C 
ENDBRANCH   9  14
BRANCH  11  16
ATOM     16  O   UNL A   1      32.363  20.692  23.080  1.00  0.00    -0.493 OA
ATOM     17  C   UNL A   1      32.047  21.870  22.344  1.00  0.00     0.278 C 
ENDBRANCH  11  16
ENDBRANCH   7   8
BRANCH   7  18
ATOM     18  N   UNL A   1      33.679  24.993  25.574  1.00  0.00    -0.274 N 
ATOM     19  C   UNL A   1      32.487  25.121  26.219  1.00  0.00     0.234 C 
ATOM     20  C   UNL A   1      33.500  25.560  24.344  1.00  0.00     0.234 C 
ATOM     21  O   UNL A   1      31.936  24.284  26.921  1.00  0.00    -0.274 OA
ATOM     22  C   UNL A   1      31.854  26.431  25.813  1.00  0.00     0.095 C 
ATOM     23  C   UNL A   1      32.549  26.726  24.482  1.00  0.00     0.095 C 
ATOM     24  O   UNL A   1      33.980  25.206  23.285  1.00  0.00    -0.274 OA
ATOM     25  C   UNL A   1      32.052  27.466  26.924  1.00  0.00     0.041 C 
ATOM     26  C   UNL A   1      33.366  28.021  24.399  1.00  0.00     0.041 C 
ATOM     27  C   UNL A   1      33.375  28.171  26.869  1.00  0.00    -0.030 C 
ATOM     28  C   UNL A   1      33.979  28.434  25.704  1.00  0.00    -0.030 C 
ENDBRANCH   7  18
ENDBRANCH   6   7
ENDBRANCH   3   6
ENDBRANCH   1   2
BRANCH   1  29
ATOM     29  C   UNL A   1      38.159  19.978  24.972  1.00  0.00     0.042 C 
BRANCH  29  30
ATOM     30  C   UNL A   1      39.114  20.058  26.155  1.00  0.00     0.118 C 
BRANCH  30  31
ATOM     31  N   UNL A   1      40.302  19.250  25.958  1.00  0.00    -0.352 N 
ATOM     32  C   UNL A   1      41.643  19.545  25.977  1.00  0.00     0.251 C 
ATOM     33  H   UNL A   1      40.109  18.303  25.775  1.00  0.00     0.163 HD
ATOM     34  O   UNL A   1      42.417  18.682  25.563  1.00  0.00    -0.269 OA
BRANCH  32  35
ATOM     35  C   UNL A   1      42.214  20.837  26.458  1.00  0.00     0.039 A 
ATOM     36  C   UNL A   1      42.182  21.087  27.840  1.00  0.00     0.014 A 
ATOM     37  C   UNL A   1      42.645  21.861  25.614  1.00  0.00     0.014 A 
ATOM     38  C   UNL A   1      42.589  22.323  28.367  1.00  0.00     0.010 A 
ATOM     39  C   UNL A   1      43.119  23.070  26.141  1.00  0.00     0.010 A 
ATOM     40  C   UNL A   1      43.074  23.327  27.521  1.00  0.00    -0.014 A 
BRANCH  40  41
ATOM     41  C   UNL A   1      43.451  24.677  28.032  1.00  0.00     0.031 A 
ATOM     42  C   UNL A   1      42.378  25.696  28.311  1.00  0.00     0.074 A 
ATOM     43  C   UNL A   1      44.743  25.024  28.194  1.00  0.00     0.049 A 
ATOM     44  N   UNL A   1      42.495  26.967  28.605  1.00  0.00    -0.248 NA
ATOM     45  C   UNL A   1      40.988  25.224  28.229  1.00  0.00     0.031 C 
ATOM     46  C   UNL A   1      45.887  24.143  27.977  1.00  0.00     0.029 A 
ATOM     47  N   UNL A   1      45.314  26.220  28.558  1.00  0.00    -0.354 N 
ATOM     48  C   UNL A   1      41.197  27.451  28.714  1.00  0.00     0.074 A 
ATOM     49  C   UNL A   1      40.309  26.346  28.420  1.00  0.00     0.031 C 
ATOM     50  C   UNL A   1      47.022  24.825  28.198  1.00  0.00     0.029 A 
ATOM     51  C   UNL A   1      46.689  26.204  28.542  1.00  0.00     0.049 A 
ATOM     52  H   UNL A   1      44.788  27.014  28.807  1.00  0.00     0.167 HD
ATOM     53  C   UNL A   1      40.779  28.696  29.044  1.00  0.00     0.037 A 
ATOM     54  C   UNL A   1      47.582  27.188  28.759  1.00  0.00     0.037 A 
ATOM     55  C   UNL A   1      41.655  29.790  29.375  1.00  0.00     0.049 A 
ATOM     56  C   UNL A   1      47.096  28.570  29.099  1.00  0.00     0.074 A 
ATOM     57  C   UNL A   1      41.320  31.076  29.760  1.00  0.00     0.029 A 
ATOM     58  N   UNL A   1      43.039  29.722  29.369  1.00  0.00    -0.354 N 
ATOM     59  N   UNL A   1      45.866  29.006  29.219  1.00  0.00    -0.248 NA
ATOM     60  C   UNL A   1      48.121  29.597  29.340  1.00  0.00     0.031 C 
ATOM     61  C   UNL A   1      42.503  31.797  29.956  1.00  0.00     0.029 A 
ATOM     62  C   UNL A   1      43.573  30.948  29.731  1.00  0.00     0.049 A 
ATOM     63  H   UNL A   1      43.565  28.922  29.140  1.00  0.00     0.167 HD
ATOM     64  C   UNL A   1      45.969  30.342  29.586  1.00  0.00     0.074 A 
ATOM     65  C   UNL A   1      47.382  30.647  29.668  1.00  0.00     0.031 C 
ATOM     66  C   UNL A   1      44.981  31.233  29.837  1.00  0.00     0.037 A 
BRANCH  53  67
ATOM     67  C   UNL A   1      39.300  28.946  29.057  1.00  0.00     0.057 A 
ATOM     68  C   UNL A   1      38.535  28.802  30.222  1.00  0.00     0.134 A 
ATOM     69  C   UNL A   1      38.636  29.363  27.896  1.00  0.00     0.134 A 
ATOM     70  F   UNL A   1      39.110  28.394  31.364  1.00  0.00    -0.206 F 
ATOM     71  C   UNL A   1      37.160  29.037  30.226  1.00  0.00     0.040 A 
ATOM     72  C   UNL A   1      37.266  29.626  27.894  1.00  0.00     0.040 A 
ATOM     73  F   UNL A   1      39.310  29.527  26.748  1.00  0.00    -0.206 F 
ATOM     74  C   UNL A   1      36.522  29.456  29.061  1.00  0.00     0.006 A 
ENDBRANCH  53  67
BRANCH  54  75
ATOM     75  C   UNL A   1      49.037  26.907  28.671  1.00  0.00     0.057 A 
ATOM     76  C   UNL A   1      49.718  27.001  27.452  1.00  0.00     0.134 A 
ATOM     77  C   UNL A   1      49.776  26.519  29.795  1.00  0.00     0.134 A 
ATOM     78  F   UNL A   1      49.057  27.347  26.337  1.00  0.00    -0.206 F 
ATOM     79  C   UNL A   1      51.077  26.704  27.348  1.00  0.00     0.040 A 
ATOM     80  C   UNL A   1      51.141  26.241  29.710  1.00  0.00     0.040 A 
ATOM     81  F   UNL A   1      49.183  26.415  30.992  1.00  0.00    -0.206 F 
ATOM     82  C   UNL A   1      51.794  26.326  28.482  1.00  0.00     0.006 A 
ENDBRANCH  54  75
BRANCH  66  83
ATOM     83  C   UNL A   1      45.381  32.608  30.282  1.00  0.00     0.057 A 
ATOM     84  C   UNL A   1      45.595  32.918  31.630  1.00  0.00     0.134 A 
ATOM     85  C   UNL A   1      45.613  33.618  29.339  1.00  0.00     0.134 A 
ATOM     86  F   UNL A   1      45.378  31.999  32.582  1.00  0.00    -0.206 F 
ATOM     87  C   UNL A   1      46.012  34.191  32.027  1.00  0.00     0.040 A 
ATOM     88  C   UNL A   1      46.051  34.886  29.721  1.00  0.00     0.040 A 
ATOM     89  F   UNL A   1      45.433  33.382  28.030  1.00  0.00    -0.206 F 
ATOM     90  C   UNL A   1      46.249  35.176  31.069  1.00  0.00     0.006 A 
ENDBRANCH  66  83
ENDBRANCH  40  41
ENDBRANCH  32  35
ENDBRANCH  30  31
ENDBRANCH  29  30
ENDBRANCH   1  29
TORSDOF 15
ENDMDL
MODEL 3
REMARK VINA RESULT:     -11.7      3.078      5.319
REMARK SMILES COc1ccc([C@@H](CC(=O)NCCCNC(=O)c2ccc(-c3c4nc(c(-c5c(F)cccc5F)c5ccc([nH]5)c(-c5c(F)cccc5F)c5nc(c(-c6c(F)cccc6F)c6ccc3[nH]6)C=C5)C=C4)cc2)N2C(=O)[C@H]3CC=CC[C@H]3C2=O)cc1OC
REMARK SMILES IDX 12 1 11 2 9 3 10 4 8 6 7 7 6 8 3 9 4 10 84 11 5 12 83 13
REMARK SMILES IDX 2 14 1 15 85 16 86 17 72 18 73 19 81 20 74 21 75 22 80 23
REMARK SMILES IDX 82 24 76 25 79 26 77 27 78 28 13 29 14 30 15 31 16 32 17 34
REMARK SMILES IDX 18 35 19 36 71 37 20 38 70 39 21 40 22 41 23 42 64 43 24 44
REMARK SMILES IDX 69 45 63 46 65 47 25 48 68 49 62 50 61 51 26 53 52 54 35 55
REMARK SMILES IDX 51 56 36 57 39 58 50 59 66 60 37 61 38 62 49 64 67 65 40 66
REMARK SMILES IDX 27 67 28 68 33 69 29 70 30 71 32 72 34 73 31 74 53 75 54 76
REMARK SMILES IDX 59 77 55 78 56 79 58 80 60 81 57 82 41 83 42 84 47 85 43 86
REMARK SMILES IDX 44 87 46 88 48 89 45 90
REMARK H PARENT 11 5 15 33 65 52 39 63
REMARK Flexibility Score: inf
ROOT
ATOM      1  C   UNL A   1      38.328  22.700  25.962  1.00  0.00     0.117 C 
ENDROOT
BRANCH   1   2
ATOM      2  N   UNL A   1      37.755  23.121  24.696  1.00  0.00    -0.356 N 
ATOM      3  C   UNL A   1      36.696  22.631  23.998  1.00  0.00     0.222 C 
ATOM      4  O   UNL A   1      36.654  22.945  22.807  1.00  0.00    -0.275 OA
ATOM      5  H   UNL A   1      38.207  23.887  24.274  1.00  0.00     0.163 HD
BRANCH   3   6
ATOM      6  C   UNL A   1      35.584  21.829  24.663  1.00  0.00     0.130 C 
BRANCH   6   7
ATOM      7  C   UNL A   1      34.198  21.786  23.956  1.00  0.00     0.133 C 
BRANCH   7   8
ATOM      8  C   UNL A   1      33.416  23.062  24.320  1.00  0.00    -0.020 A 
ATOM      9  C   UNL A   1      32.191  25.573  24.821  1.00  0.00     0.160 A 
ATOM     10  C   UNL A   1      32.810  24.867  25.853  1.00  0.00     0.051 A 
ATOM     11  C   UNL A   1      32.101  24.985  23.552  1.00  0.00     0.161 A 
ATOM     12  C   UNL A   1      33.408  23.624  25.603  1.00  0.00     0.010 A 
ATOM     13  C   UNL A   1      32.716  23.748  23.311  1.00  0.00     0.056 A 
BRANCH   9  14
ATOM     14  O   UNL A   1      31.771  26.866  24.954  1.00  0.00    -0.493 OA
ATOM     15  C   UNL A   1      32.725  27.892  24.746  1.00  0.00     0.278 C 
ENDBRANCH   9  14
BRANCH  11  16
ATOM     16  O   UNL A   1      31.493  25.526  22.446  1.00  0.00    -0.493 OA
ATOM     17  C   UNL A   1      32.341  25.806  21.334  1.00  0.00     0.278 C 
ENDBRANCH  11  16
ENDBRANCH   7   8
BRANCH   7  18
ATOM     18  N   UNL A   1      33.440  20.540  24.135  1.00  0.00    -0.274 N 
ATOM     19  C   UNL A   1      32.480  20.092  23.280  1.00  0.00     0.234 C 
ATOM     20  C   UNL A   1      33.132  20.006  25.354  1.00  0.00     0.234 C 
ATOM     21  O   UNL A   1      31.918  20.734  22.403  1.00  0.00    -0.274 OA
ATOM     22  C   UNL A   1      32.092  18.688  23.678  1.00  0.00     0.095 C 
ATOM     23  C   UNL A   1      32.528  18.637  25.145  1.00  0.00     0.095 C 
ATOM     24  O   UNL A   1      33.274  20.518  26.447  1.00  0.00    -0.274 OA
ATOM     25  C   UNL A   1      32.760  17.682  22.737  1.00  0.00     0.041 C 
ATOM     26  C   UNL A   1      33.583  17.588  25.517  1.00  0.00     0.041 C 
ATOM     27  C   UNL A   1      34.165  17.327  23.126  1.00  0.00    -0.030 C 
ATOM     28  C   UNL A   1      34.544  17.276  24.409  1.00  0.00    -0.030 C 
ENDBRANCH   7  18
ENDBRANCH   6   7
ENDBRANCH   3   6
ENDBRANCH   1   2
BRANCH   1  29
ATOM     29  C   UNL A   1      39.197  21.464  25.751  1.00  0.00     0.042 C 
BRANCH  29  30
ATOM     30  C   UNL A   1      40.472  21.406  26.580  1.00  0.00     0.118 C 
BRANCH  30  31
ATOM     31  N   UNL A   1      41.626  21.893  25.849  1.00  0.00    -0.352 N 
ATOM     32  C   UNL A   1      42.209  23.132  25.746  1.00  0.00     0.251 C 
ATOM     33  H   UNL A   1      42.082  21.198  25.322  1.00  0.00     0.163 HD
ATOM     34  O   UNL A   1      43.065  23.283  24.873  1.00  0.00    -0.269 OA
BRANCH  32  35
ATOM     35  C   UNL A   1      41.868  24.297  26.613  1.00  0.00     0.039 A 
ATOM     36  C   UNL A   1      42.549  25.504  26.377  1.00  0.00     0.014 A 
ATOM     37  C   UNL A   1      41.026  24.223  27.723  1.00  0.00     0.014 A 
ATOM     38  C   UNL A   1      42.377  26.614  27.218  1.00  0.00     0.010 A 
ATOM     39  C   UNL A   1      40.798  25.351  28.524  1.00  0.00     0.010 A 
ATOM     40  C   UNL A   1      41.488  26.553  28.297  1.00  0.00    -0.014 A 
BRANCH  40  41
ATOM     41  C   UNL A   1      41.329  27.686  29.255  1.00  0.00     0.031 A 
ATOM     42  C   UNL A   1      42.244  27.791  30.446  1.00  0.00     0.074 A 
ATOM     43  C   UNL A   1      40.340  28.589  29.106  1.00  0.00     0.049 A 
ATOM     44  N   UNL A   1      42.179  28.596  31.477  1.00  0.00    -0.248 NA
ATOM     45  C   UNL A   1      43.373  26.849  30.492  1.00  0.00     0.031 C 
ATOM     46  C   UNL A   1      39.389  28.623  28.000  1.00  0.00     0.029 A 
ATOM     47  N   UNL A   1      39.956  29.641  29.903  1.00  0.00    -0.354 N 
ATOM     48  C   UNL A   1      43.236  28.240  32.303  1.00  0.00     0.074 A 
ATOM     49  C   UNL A   1      43.907  27.123  31.673  1.00  0.00     0.031 C 
ATOM     50  C   UNL A   1      38.522  29.632  28.188  1.00  0.00     0.029 A 
ATOM     51  C   UNL A   1      38.837  30.299  29.448  1.00  0.00     0.049 A 
ATOM     52  H   UNL A   1      40.437  29.899  30.722  1.00  0.00     0.167 HD
ATOM     53  C   UNL A   1      43.626  28.800  33.474  1.00  0.00     0.037 A 
ATOM     54  C   UNL A   1      38.131  31.310  29.990  1.00  0.00     0.037 A 
ATOM     55  C   UNL A   1      42.988  29.935  34.088  1.00  0.00     0.049 A 
ATOM     56  C   UNL A   1      38.568  31.900  31.303  1.00  0.00     0.074 A 
ATOM     57  C   UNL A   1      43.339  30.594  35.253  1.00  0.00     0.029 A 
ATOM     58  N   UNL A   1      41.874  30.583  33.581  1.00  0.00    -0.354 N 
ATOM     59  N   UNL A   1      39.582  31.566  32.061  1.00  0.00    -0.248 NA
ATOM     60  C   UNL A   1      37.764  33.012  31.834  1.00  0.00     0.031 C 
ATOM     61  C   UNL A   1      42.416  31.623  35.469  1.00  0.00     0.029 A 
ATOM     62  C   UNL A   1      41.516  31.628  34.418  1.00  0.00     0.049 A 
ATOM     63  H   UNL A   1      41.405  30.337  32.751  1.00  0.00     0.167 HD
ATOM     64  C   UNL A   1      39.562  32.448  33.135  1.00  0.00     0.074 A 
ATOM     65  C   UNL A   1      38.434  33.332  32.931  1.00  0.00     0.031 C 
ATOM     66  C   UNL A   1      40.407  32.520  34.191  1.00  0.00     0.037 A 
BRANCH  53  67
ATOM     67  C   UNL A   1      44.802  28.184  34.175  1.00  0.00     0.057 A 
ATOM     68  C   UNL A   1      44.650  27.133  35.088  1.00  0.00     0.134 A 
ATOM     69  C   UNL A   1      46.104  28.629  33.911  1.00  0.00     0.134 A 
ATOM     70  F   UNL A   1      43.428  26.670  35.393  1.00  0.00    -0.206 F 
ATOM     71  C   UNL A   1      45.748  26.565  35.736  1.00  0.00     0.040 A 
ATOM     72  C   UNL A   1      47.211  28.051  34.532  1.00  0.00     0.040 A 
ATOM     73  F   UNL A   1      46.320  29.627  33.041  1.00  0.00    -0.206 F 
ATOM     74  C   UNL A   1      47.034  27.020  35.453  1.00  0.00     0.006 A 
ENDBRANCH  53  67
BRANCH  54  75
ATOM     75  C   UNL A   1      36.936  31.843  29.290  1.00  0.00     0.057 A 
ATOM     76  C   UNL A   1      36.975  33.077  28.632  1.00  0.00     0.134 A 
ATOM     77  C   UNL A   1      35.723  31.143  29.277  1.00  0.00     0.134 A 
ATOM     78  F   UNL A   1      38.104  33.803  28.629  1.00  0.00    -0.206 F 
ATOM     79  C   UNL A   1      35.849  33.607  28.002  1.00  0.00     0.040 A 
ATOM     80  C   UNL A   1      34.595  31.651  28.631  1.00  0.00     0.040 A 
ATOM     81  F   UNL A   1      35.622  29.953  29.886  1.00  0.00    -0.206 F 
ATOM     82  C   UNL A   1      34.654  32.890  27.997  1.00  0.00     0.006 A 
ENDBRANCH  54  75
BRANCH  66  83
ATOM     83  C   UNL A   1      40.188  33.624  35.181  1.00  0.00     0.057 A 
ATOM     84  C   UNL A   1      40.665  34.922  34.964  1.00  0.00     0.134 A 
ATOM     85  C   UNL A   1      39.437  33.395  36.342  1.00  0.00     0.134 A 
ATOM     86  F   UNL A   1      41.401  35.203  33.878  1.00  0.00    -0.206 F 
ATOM     87  C   UNL A   1      40.414  35.952  35.873  1.00  0.00     0.040 A 
ATOM     88  C   UNL A   1      39.161  34.421  37.247  1.00  0.00     0.040 A 
ATOM     89  F   UNL A   1      38.946  32.175  36.606  1.00  0.00    -0.206 F 
ATOM     90  C   UNL A   1      39.653  35.704  37.014  1.00  0.00     0.006 A 
ENDBRANCH  66  83
ENDBRANCH  40  41
ENDBRANCH  32  35
ENDBRANCH  30  31
ENDBRANCH  29  30
ENDBRANCH   1  29
TORSDOF 15
ENDMDL
