MODEL 1
REMARK VINA RESULT:     -11.3      0.000      0.000
REMARK SMILES C[C@H]1[C@@H](C(=O)NCCCNC(=O)c2ccc(-c3c4nc(c(-c5c(F)cccc5F)c5ccc([nH]5)c(-c5c(F)cccc5F)c5nc(c(-c6c(F)cccc6F)c6ccc3[nH]6)C=C5)C=C4)cc2)CC[N@@H+]1CC(=O)NNC(=O)c1cccs1
REMARK SMILES IDX 7 1 6 2 4 3 5 4 3 6 1 7 2 8 69 9 67 10 68 11 70 13 71 14
REMARK SMILES IDX 72 15 73 16 74 18 75 19 76 21 77 22 78 23 81 24 79 25 80 26
REMARK SMILES IDX 8 27 9 28 10 29 11 30 12 32 13 33 14 34 66 35 15 36 65 37
REMARK SMILES IDX 16 38 17 39 18 40 59 41 19 42 64 43 58 44 60 45 20 46 63 47
REMARK SMILES IDX 57 48 56 49 21 51 47 52 30 53 46 54 31 55 34 56 45 57 61 58
REMARK SMILES IDX 32 59 33 60 44 62 62 63 35 64 22 65 23 66 28 67 24 68 25 69
REMARK SMILES IDX 27 70 29 71 26 72 48 73 49 74 54 75 50 76 51 77 53 78 55 79
REMARK SMILES IDX 52 80 36 81 37 82 42 83 38 84 39 85 41 86 43 87 40 88
REMARK H PARENT 6 5 69 12 73 17 74 20 10 31 60 50 34 61
REMARK Flexibility Score: inf
ROOT
ATOM      1  C   UNL A   1      36.980  20.225  24.689  1.00  0.00     0.117 C 
ENDROOT
BRANCH   1   2
ATOM      2  N   UNL A   1      37.230  21.519  25.299  1.00  0.00    -0.356 N 
ATOM      3  C   UNL A   1      36.375  22.515  25.659  1.00  0.00     0.229 C 
ATOM      4  O   UNL A   1      36.885  23.610  25.906  1.00  0.00    -0.275 OA
ATOM      5  H   UNL A   1      38.178  21.707  25.484  1.00  0.00     0.163 HD
BRANCH   3   6
ATOM      6  C   UNL A   1      34.885  22.239  25.849  1.00  0.00     0.142 C 
ATOM      7  C   UNL A   1      34.406  23.348  23.499  1.00  0.00     0.076 C 
ATOM      8  C   UNL A   1      33.897  22.595  24.720  1.00  0.00     0.194 C 
ATOM      9  N   UNL A   1      32.859  23.449  25.309  1.00  0.00    -0.324 N 
ATOM     10  C   UNL A   1      34.337  22.984  27.080  1.00  0.00     0.081 C 
ATOM     11  C   UNL A   1      33.423  24.050  26.512  1.00  0.00     0.263 C 
ATOM     12  H   UNL A   1      32.625  24.189  24.648  1.00  0.00     0.348 HD
BRANCH   9  13
ATOM     13  C   UNL A   1      31.517  22.866  25.431  1.00  0.00     0.365 C 
BRANCH  13  14
ATOM     14  C   UNL A   1      30.588  23.539  26.441  1.00  0.00     0.293 C 
ATOM     15  O   UNL A   1      30.423  23.074  27.572  1.00  0.00    -0.267 OA
ATOM     16  N   UNL A   1      29.927  24.696  26.118  1.00  0.00    -0.262 N 
ATOM     17  H   UNL A   1      29.426  25.144  26.839  1.00  0.00     0.191 HD
BRANCH  16  18
ATOM     18  N   UNL A   1      29.902  25.295  24.860  1.00  0.00    -0.263 N 
ATOM     19  C   UNL A   1      30.319  26.598  24.632  1.00  0.00     0.279 C 
ATOM     20  H   UNL A   1      29.571  24.768  24.096  1.00  0.00     0.191 HD
ATOM     21  O   UNL A   1      29.802  27.206  23.688  1.00  0.00    -0.266 OA
BRANCH  19  22
ATOM     22  C   UNL A   1      31.347  27.157  25.494  1.00  0.00     0.094 A 
ATOM     23  C   UNL A   1      31.264  27.544  26.821  1.00  0.00     0.026 A 
ATOM     24  S   UNL A   1      32.945  27.328  24.898  1.00  0.00    -0.139 S 
ATOM     25  C   UNL A   1      32.507  28.019  27.331  1.00  0.00     0.012 A 
ATOM     26  C   UNL A   1      33.507  27.953  26.388  1.00  0.00     0.065 A 
ENDBRANCH  19  22
ENDBRANCH  16  18
ENDBRANCH  13  14
ENDBRANCH   9  13
ENDBRANCH   3   6
ENDBRANCH   1   2
BRANCH   1  27
ATOM     27  C   UNL A   1      38.124  19.264  25.012  1.00  0.00     0.042 C 
BRANCH  27  28
ATOM     28  C   UNL A   1      39.188  19.838  25.936  1.00  0.00     0.118 C 
BRANCH  28  29
ATOM     29  N   UNL A   1      40.443  19.120  25.843  1.00  0.00    -0.352 N 
ATOM     30  C   UNL A   1      41.740  19.560  25.977  1.00  0.00     0.251 C 
ATOM     31  H   UNL A   1      40.353  18.159  25.653  1.00  0.00     0.163 HD
ATOM     32  O   UNL A   1      42.651  18.817  25.641  1.00  0.00    -0.269 OA
BRANCH  30  33
ATOM     33  C   UNL A   1      42.061  20.917  26.497  1.00  0.00     0.039 A 
ATOM     34  C   UNL A   1      41.984  21.128  27.878  1.00  0.00     0.014 A 
ATOM     35  C   UNL A   1      42.349  22.001  25.662  1.00  0.00     0.014 A 
ATOM     36  C   UNL A   1      42.222  22.398  28.414  1.00  0.00     0.010 A 
ATOM     37  C   UNL A   1      42.689  23.242  26.204  1.00  0.00     0.010 A 
ATOM     38  C   UNL A   1      42.599  23.465  27.584  1.00  0.00    -0.014 A 
BRANCH  38  39
ATOM     39  C   UNL A   1      42.845  24.822  28.144  1.00  0.00     0.031 A 
ATOM     40  C   UNL A   1      44.235  25.238  28.556  1.00  0.00     0.074 A 
ATOM     41  C   UNL A   1      41.818  25.679  28.309  1.00  0.00     0.049 A 
ATOM     42  N   UNL A   1      44.641  26.368  29.080  1.00  0.00    -0.248 NA
ATOM     43  C   UNL A   1      45.305  24.244  28.383  1.00  0.00     0.031 C 
ATOM     44  C   UNL A   1      40.417  25.389  28.003  1.00  0.00     0.029 A 
ATOM     45  N   UNL A   1      41.795  26.970  28.775  1.00  0.00    -0.354 N 
ATOM     46  C   UNL A   1      46.003  26.212  29.311  1.00  0.00     0.074 A 
ATOM     47  C   UNL A   1      46.343  24.860  28.927  1.00  0.00     0.031 C 
ATOM     48  C   UNL A   1      39.676  26.479  28.261  1.00  0.00     0.029 A 
ATOM     49  C   UNL A   1      40.541  27.533  28.780  1.00  0.00     0.049 A 
ATOM     50  H   UNL A   1      42.601  27.448  29.078  1.00  0.00     0.167 HD
ATOM     51  C   UNL A   1      46.899  27.119  29.770  1.00  0.00     0.037 A 
ATOM     52  C   UNL A   1      40.134  28.759  29.159  1.00  0.00     0.037 A 
ATOM     53  C   UNL A   1      46.571  28.475  30.124  1.00  0.00     0.049 A 
ATOM     54  C   UNL A   1      41.148  29.754  29.650  1.00  0.00     0.074 A 
ATOM     55  C   UNL A   1      47.418  29.486  30.547  1.00  0.00     0.029 A 
ATOM     56  N   UNL A   1      45.294  29.011  30.093  1.00  0.00    -0.354 N 
ATOM     57  N   UNL A   1      42.442  29.611  29.800  1.00  0.00    -0.248 NA
ATOM     58  C   UNL A   1      40.645  31.087  30.012  1.00  0.00     0.031 C 
ATOM     59  C   UNL A   1      46.645  30.623  30.808  1.00  0.00     0.029 A 
ATOM     60  C   UNL A   1      45.325  30.334  30.504  1.00  0.00     0.049 A 
ATOM     61  H   UNL A   1      44.482  28.524  29.819  1.00  0.00     0.167 HD
ATOM     62  C   UNL A   1      42.910  30.836  30.255  1.00  0.00     0.074 A 
ATOM     63  C   UNL A   1      41.764  31.719  30.335  1.00  0.00     0.031 C 
ATOM     64  C   UNL A   1      44.176  31.199  30.581  1.00  0.00     0.037 A 
BRANCH  51  65
ATOM     65  C   UNL A   1      48.326  26.671  29.906  1.00  0.00     0.057 A 
ATOM     66  C   UNL A   1      48.807  26.083  31.084  1.00  0.00     0.134 A 
ATOM     67  C   UNL A   1      49.227  26.808  28.841  1.00  0.00     0.134 A 
ATOM     68  F   UNL A   1      48.001  25.934  32.147  1.00  0.00    -0.206 F 
ATOM     69  C   UNL A   1      50.137  25.676  31.210  1.00  0.00     0.040 A 
ATOM     70  C   UNL A   1      50.551  26.378  28.945  1.00  0.00     0.040 A 
ATOM     71  F   UNL A   1      48.833  27.354  27.682  1.00  0.00    -0.206 F 
ATOM     72  C   UNL A   1      51.012  25.818  30.135  1.00  0.00     0.006 A 
ENDBRANCH  51  65
BRANCH  52  73
ATOM     73  C   UNL A   1      38.697  29.123  29.062  1.00  0.00     0.057 A 
ATOM     74  C   UNL A   1      37.856  29.051  30.178  1.00  0.00     0.134 A 
ATOM     75  C   UNL A   1      38.133  29.550  27.854  1.00  0.00     0.134 A 
ATOM     76  F   UNL A   1      38.335  28.630  31.358  1.00  0.00    -0.206 F 
ATOM     77  C   UNL A   1      36.501  29.376  30.094  1.00  0.00     0.040 A 
ATOM     78  C   UNL A   1      36.786  29.902  27.762  1.00  0.00     0.040 A 
ATOM     79  F   UNL A   1      38.889  29.647  26.751  1.00  0.00    -0.206 F 
ATOM     80  C   UNL A   1      35.964  29.809  28.884  1.00  0.00     0.006 A 
ENDBRANCH  52  73
BRANCH  64  81
ATOM     81  C   UNL A   1      44.387  32.615  31.030  1.00  0.00     0.057 A 
ATOM     82  C   UNL A   1      44.645  33.647  30.118  1.00  0.00     0.134 A 
ATOM     83  C   UNL A   1      44.308  32.954  32.387  1.00  0.00     0.134 A 
ATOM     84  F   UNL A   1      44.747  33.386  28.807  1.00  0.00    -0.206 F 
ATOM     85  C   UNL A   1      44.845  34.962  30.543  1.00  0.00     0.040 A 
ATOM     86  C   UNL A   1      44.479  34.269  32.821  1.00  0.00     0.040 A 
ATOM     87  F   UNL A   1      44.056  32.014  33.311  1.00  0.00    -0.206 F 
ATOM     88  C   UNL A   1      44.756  35.276  31.898  1.00  0.00     0.006 A 
ENDBRANCH  64  81
ENDBRANCH  38  39
ENDBRANCH  30  33
ENDBRANCH  28  29
ENDBRANCH  27  28
ENDBRANCH   1  27
TORSDOF 14
ENDMDL
MODEL 2
REMARK VINA RESULT:     -11.3      1.116      2.028
REMARK SMILES C[C@H]1[C@@H](C(=O)NCCCNC(=O)c2ccc(-c3c4nc(c(-c5c(F)cccc5F)c5ccc([nH]5)c(-c5c(F)cccc5F)c5nc(c(-c6c(F)cccc6F)c6ccc3[nH]6)C=C5)C=C4)cc2)CC[N@@H+]1CC(=O)NNC(=O)c1cccs1
REMARK SMILES IDX 7 1 6 2 4 3 5 4 3 6 1 7 2 8 69 9 67 10 68 11 70 13 71 14
REMARK SMILES IDX 72 15 73 16 74 18 75 19 76 21 77 22 78 23 81 24 79 25 80 26
REMARK SMILES IDX 8 27 9 28 10 29 11 30 12 32 13 33 14 34 66 35 15 36 65 37
REMARK SMILES IDX 16 38 17 39 18 40 59 41 19 42 64 43 58 44 60 45 20 46 63 47
REMARK SMILES IDX 57 48 56 49 21 51 47 52 30 53 46 54 31 55 34 56 45 57 61 58
REMARK SMILES IDX 32 59 33 60 44 62 62 63 35 64 22 65 23 66 28 67 24 68 25 69
REMARK SMILES IDX 27 70 29 71 26 72 48 73 49 74 54 75 50 76 51 77 53 78 55 79
REMARK SMILES IDX 52 80 36 81 37 82 42 83 38 84 39 85 41 86 43 87 40 88
REMARK H PARENT 6 5 69 12 73 17 74 20 10 31 60 50 34 61
REMARK Flexibility Score: inf
ROOT
ATOM      1  C   UNL A   1      37.040  20.987  24.570  1.00  0.00     0.117 C 
ENDROOT
BRANCH   1   2
ATOM      2  N   UNL A   1      35.949  20.728  25.493  1.00  0.00    -0.356 N 
ATOM      3  C   UNL A   1      34.681  21.220  25.535  1.00  0.00     0.229 C 
ATOM      4  O   UNL A   1      34.057  21.035  26.582  1.00  0.00    -0.275 OA
ATOM      5  H   UNL A   1      36.163  20.088  26.210  1.00  0.00     0.163 HD
BRANCH   3   6
ATOM      6  C   UNL A   1      34.048  21.863  24.303  1.00  0.00     0.142 C 
ATOM      7  C   UNL A   1      34.917  24.221  25.118  1.00  0.00     0.076 C 
ATOM      8  C   UNL A   1      34.232  23.373  24.055  1.00  0.00     0.194 C 
ATOM      9  N   UNL A   1      32.893  23.949  23.889  1.00  0.00    -0.324 N 
ATOM     10  C   UNL A   1      32.521  21.662  24.296  1.00  0.00     0.081 C 
ATOM     11  C   UNL A   1      31.948  23.044  24.533  1.00  0.00     0.263 C 
ATOM     12  H   UNL A   1      32.860  24.852  24.361  1.00  0.00     0.348 HD
BRANCH   9  13
ATOM     13  C   UNL A   1      32.540  24.421  22.544  1.00  0.00     0.365 C 
BRANCH  13  14
ATOM     14  C   UNL A   1      32.851  25.888  22.251  1.00  0.00     0.293 C 
ATOM     15  O   UNL A   1      33.880  26.221  21.656  1.00  0.00    -0.267 OA
ATOM     16  N   UNL A   1      31.976  26.876  22.626  1.00  0.00    -0.262 N 
ATOM     17  H   UNL A   1      32.173  27.791  22.320  1.00  0.00     0.191 HD
BRANCH  16  18
ATOM     18  N   UNL A   1      30.832  26.697  23.403  1.00  0.00    -0.263 N 
ATOM     19  C   UNL A   1      30.844  26.744  24.790  1.00  0.00     0.279 C 
ATOM     20  H   UNL A   1      29.976  26.527  22.946  1.00  0.00     0.191 HD
ATOM     21  O   UNL A   1      29.985  26.087  25.389  1.00  0.00    -0.266 OA
BRANCH  19  22
ATOM     22  C   UNL A   1      31.839  27.574  25.447  1.00  0.00     0.094 A 
ATOM     23  C   UNL A   1      32.989  27.199  26.119  1.00  0.00     0.026 A 
ATOM     24  S   UNL A   1      31.698  29.281  25.365  1.00  0.00    -0.139 S 
ATOM     25  C   UNL A   1      33.730  28.316  26.602  1.00  0.00     0.012 A 
ATOM     26  C   UNL A   1      33.139  29.511  26.258  1.00  0.00     0.065 A 
ENDBRANCH  19  22
ENDBRANCH  16  18
ENDBRANCH  13  14
ENDBRANCH   9  13
ENDBRANCH   3   6
ENDBRANCH   1   2
BRANCH   1  27
ATOM     27  C   UNL A   1      38.101  19.893  24.693  1.00  0.00     0.042 C 
BRANCH  27  28
ATOM     28  C   UNL A   1      38.927  19.956  25.970  1.00  0.00     0.118 C 
BRANCH  28  29
ATOM     29  N   UNL A   1      40.160  19.203  25.864  1.00  0.00    -0.352 N 
ATOM     30  C   UNL A   1      41.470  19.606  25.987  1.00  0.00     0.251 C 
ATOM     31  H   UNL A   1      40.042  18.245  25.674  1.00  0.00     0.163 HD
ATOM     32  O   UNL A   1      42.357  18.838  25.642  1.00  0.00    -0.269 OA
BRANCH  30  33
ATOM     33  C   UNL A   1      41.834  20.953  26.506  1.00  0.00     0.039 A 
ATOM     34  C   UNL A   1      41.751  21.170  27.886  1.00  0.00     0.014 A 
ATOM     35  C   UNL A   1      42.168  22.023  25.671  1.00  0.00     0.014 A 
ATOM     36  C   UNL A   1      42.028  22.433  28.420  1.00  0.00     0.010 A 
ATOM     37  C   UNL A   1      42.546  23.252  26.212  1.00  0.00     0.010 A 
ATOM     38  C   UNL A   1      42.451  23.484  27.592  1.00  0.00    -0.014 A 
BRANCH  38  39
ATOM     39  C   UNL A   1      42.740  24.833  28.150  1.00  0.00     0.031 A 
ATOM     40  C   UNL A   1      44.146  25.215  28.538  1.00  0.00     0.074 A 
ATOM     41  C   UNL A   1      41.737  25.714  28.334  1.00  0.00     0.049 A 
ATOM     42  N   UNL A   1      44.589  26.333  29.058  1.00  0.00    -0.248 NA
ATOM     43  C   UNL A   1      45.189  24.195  28.344  1.00  0.00     0.031 C 
ATOM     44  C   UNL A   1      40.324  25.459  28.052  1.00  0.00     0.029 A 
ATOM     45  N   UNL A   1      41.753  27.004  28.804  1.00  0.00    -0.354 N 
ATOM     46  C   UNL A   1      45.950  26.143  29.264  1.00  0.00     0.074 A 
ATOM     47  C   UNL A   1      46.250  24.784  28.871  1.00  0.00     0.031 C 
ATOM     48  C   UNL A   1      39.614  26.565  28.326  1.00  0.00     0.029 A 
ATOM     49  C   UNL A   1      40.514  27.597  28.832  1.00  0.00     0.049 A 
ATOM     50  H   UNL A   1      42.575  27.462  29.094  1.00  0.00     0.167 HD
ATOM     51  C   UNL A   1      46.876  27.027  29.709  1.00  0.00     0.037 A 
ATOM     52  C   UNL A   1      40.143  28.831  29.220  1.00  0.00     0.037 A 
ATOM     53  C   UNL A   1      46.587  28.390  30.072  1.00  0.00     0.049 A 
ATOM     54  C   UNL A   1      41.189  29.801  29.695  1.00  0.00     0.074 A 
ATOM     55  C   UNL A   1      47.465  29.379  30.482  1.00  0.00     0.029 A 
ATOM     56  N   UNL A   1      45.322  28.957  30.064  1.00  0.00    -0.354 N 
ATOM     57  N   UNL A   1      42.481  29.626  29.823  1.00  0.00    -0.248 NA
ATOM     58  C   UNL A   1      40.724  31.145  30.069  1.00  0.00     0.031 C 
ATOM     59  C   UNL A   1      46.725  30.533  30.759  1.00  0.00     0.029 A 
ATOM     60  C   UNL A   1      45.393  30.278  30.477  1.00  0.00     0.049 A 
ATOM     61  H   UNL A   1      44.495  28.490  29.803  1.00  0.00     0.167 HD
ATOM     62  C   UNL A   1      42.987  30.839  30.272  1.00  0.00     0.074 A 
ATOM     63  C   UNL A   1      41.864  31.748  30.373  1.00  0.00     0.031 C 
ATOM     64  C   UNL A   1      44.266  31.169  30.576  1.00  0.00     0.037 A 
BRANCH  51  65
ATOM     65  C   UNL A   1      48.294  26.545  29.819  1.00  0.00     0.057 A 
ATOM     66  C   UNL A   1      49.218  26.725  28.780  1.00  0.00     0.134 A 
ATOM     67  C   UNL A   1      48.751  25.914  30.983  1.00  0.00     0.134 A 
ATOM     68  F   UNL A   1      48.843  27.311  27.632  1.00  0.00    -0.206 F 
ATOM     69  C   UNL A   1      50.533  26.268  28.882  1.00  0.00     0.040 A 
ATOM     70  C   UNL A   1      50.072  25.478  31.108  1.00  0.00     0.040 A 
ATOM     71  F   UNL A   1      47.924  25.715  32.020  1.00  0.00    -0.206 F 
ATOM     72  C   UNL A   1      50.965  25.648  30.052  1.00  0.00     0.006 A 
ENDBRANCH  51  65
BRANCH  52  73
ATOM     73  C   UNL A   1      38.714  29.230  29.149  1.00  0.00     0.057 A 
ATOM     74  C   UNL A   1      37.893  29.185  30.282  1.00  0.00     0.134 A 
ATOM     75  C   UNL A   1      38.137  29.665  27.950  1.00  0.00     0.134 A 
ATOM     76  F   UNL A   1      38.384  28.758  31.455  1.00  0.00    -0.206 F 
ATOM     77  C   UNL A   1      36.545  29.542  30.223  1.00  0.00     0.040 A 
ATOM     78  C   UNL A   1      36.797  30.049  27.883  1.00  0.00     0.040 A 
ATOM     79  F   UNL A   1      38.873  29.738  26.832  1.00  0.00    -0.206 F 
ATOM     80  C   UNL A   1      35.995  29.982  29.021  1.00  0.00     0.006 A 
ENDBRANCH  52  73
BRANCH  64  81
ATOM     81  C   UNL A   1      44.520  32.579  31.025  1.00  0.00     0.057 A 
ATOM     82  C   UNL A   1      44.507  32.935  32.380  1.00  0.00     0.134 A 
ATOM     83  C   UNL A   1      44.803  33.585  30.093  1.00  0.00     0.134 A 
ATOM     84  F   UNL A   1      44.229  32.020  33.321  1.00  0.00    -0.206 F 
ATOM     85  C   UNL A   1      44.740  34.249  32.791  1.00  0.00     0.040 A 
ATOM     86  C   UNL A   1      45.064  34.896  30.494  1.00  0.00     0.040 A 
ATOM     87  F   UNL A   1      44.839  33.309  28.781  1.00  0.00    -0.206 F 
ATOM     88  C   UNL A   1      45.025  35.232  31.845  1.00  0.00     0.006 A 
ENDBRANCH  64  81
ENDBRANCH  38  39
ENDBRANCH  30  33
ENDBRANCH  28  29
ENDBRANCH  27  28
ENDBRANCH   1  27
TORSDOF 14
ENDMDL
MODEL 3
REMARK VINA RESULT:     -11.3      1.183      6.356
REMARK SMILES C[C@H]1[C@@H](C(=O)NCCCNC(=O)c2ccc(-c3c4nc(c(-c5c(F)cccc5F)c5ccc([nH]5)c(-c5c(F)cccc5F)c5nc(c(-c6c(F)cccc6F)c6ccc3[nH]6)C=C5)C=C4)cc2)CC[N@@H+]1CC(=O)NNC(=O)c1cccs1
REMARK SMILES IDX 7 1 6 2 4 3 5 4 3 6 1 7 2 8 69 9 67 10 68 11 70 13 71 14
REMARK SMILES IDX 72 15 73 16 74 18 75 19 76 21 77 22 78 23 81 24 79 25 80 26
REMARK SMILES IDX 8 27 9 28 10 29 11 30 12 32 13 33 14 34 66 35 15 36 65 37
REMARK SMILES IDX 16 38 17 39 18 40 59 41 19 42 64 43 58 44 60 45 20 46 63 47
REMARK SMILES IDX 57 48 56 49 21 51 47 52 30 53 46 54 31 55 34 56 45 57 61 58
REMARK SMILES IDX 32 59 33 60 44 62 62 63 35 64 22 65 23 66 28 67 24 68 25 69
REMARK SMILES IDX 27 70 29 71 26 72 48 73 49 74 54 75 50 76 51 77 53 78 55 79
REMARK SMILES IDX 52 80 36 81 37 82 42 83 38 84 39 85 41 86 43 87 40 88
REMARK H PARENT 6 5 69 12 73 17 74 20 10 31 60 50 34 61
REMARK Flexibility Score: inf
ROOT
ATOM      1  C   UNL A   1      36.595  20.514  24.624  1.00  0.00     0.117 C 
ENDROOT
BRANCH   1   2
ATOM      2  N   UNL A   1      35.651  20.599  25.723  1.00  0.00    -0.356 N 
ATOM      3  C   UNL A   1      34.508  21.326  25.863  1.00  0.00     0.229 C 
ATOM      4  O   UNL A   1      34.051  21.412  27.005  1.00  0.00    -0.275 OA
ATOM      5  H   UNL A   1      35.874  20.037  26.500  1.00  0.00     0.163 HD
BRANCH   3   6
ATOM      6  C   UNL A   1      33.791  21.900  24.644  1.00  0.00     0.142 C 
ATOM      7  C   UNL A   1      35.074  24.184  24.994  1.00  0.00     0.076 C 
ATOM      8  C   UNL A   1      34.134  23.324  24.160  1.00  0.00     0.194 C 
ATOM      9  N   UNL A   1      32.872  24.070  24.087  1.00  0.00    -0.324 N 
ATOM     10  C   UNL A   1      32.267  21.932  24.863  1.00  0.00     0.081 C 
ATOM     11  C   UNL A   1      31.922  23.403  24.971  1.00  0.00     0.263 C 
ATOM     12  H   UNL A   1      33.029  25.019  24.426  1.00  0.00     0.348 HD
BRANCH   9  13
ATOM     13  C   UNL A   1      32.390  24.420  22.746  1.00  0.00     0.365 C 
BRANCH  13  14
ATOM     14  C   UNL A   1      32.713  25.836  22.271  1.00  0.00     0.293 C 
ATOM     15  O   UNL A   1      33.728  26.078  21.612  1.00  0.00    -0.267 OA
ATOM     16  N   UNL A   1      31.864  26.877  22.550  1.00  0.00    -0.262 N 
ATOM     17  H   UNL A   1      32.065  27.746  22.132  1.00  0.00     0.191 HD
BRANCH  16  18
ATOM     18  N   UNL A   1      30.742  26.812  23.375  1.00  0.00    -0.263 N 
ATOM     19  C   UNL A   1      30.812  26.900  24.758  1.00  0.00     0.279 C 
ATOM     20  H   UNL A   1      29.858  26.697  22.956  1.00  0.00     0.191 HD
ATOM     21  O   UNL A   1      29.929  26.331  25.411  1.00  0.00    -0.266 OA
BRANCH  19  22
ATOM     22  C   UNL A   1      31.894  27.669  25.349  1.00  0.00     0.094 A 
ATOM     23  C   UNL A   1      33.065  27.226  25.938  1.00  0.00     0.026 A 
ATOM     24  S   UNL A   1      31.841  29.381  25.288  1.00  0.00    -0.139 S 
ATOM     25  C   UNL A   1      33.898  28.296  26.376  1.00  0.00     0.012 A 
ATOM     26  C   UNL A   1      33.351  29.524  26.081  1.00  0.00     0.065 A 
ENDBRANCH  19  22
ENDBRANCH  16  18
ENDBRANCH  13  14
ENDBRANCH   9  13
ENDBRANCH   3   6
ENDBRANCH   1   2
BRANCH   1  27
ATOM     27  C   UNL A   1      37.733  19.557  24.985  1.00  0.00     0.042 C 
BRANCH  27  28
ATOM     28  C   UNL A   1      38.894  20.207  25.722  1.00  0.00     0.118 C 
BRANCH  28  29
ATOM     29  N   UNL A   1      40.025  19.313  25.863  1.00  0.00    -0.352 N 
ATOM     30  C   UNL A   1      41.346  19.576  26.144  1.00  0.00     0.251 C 
ATOM     31  H   UNL A   1      39.814  18.360  25.739  1.00  0.00     0.163 HD
ATOM     32  O   UNL A   1      42.167  18.681  26.000  1.00  0.00    -0.269 OA
BRANCH  30  33
ATOM     33  C   UNL A   1      41.803  20.918  26.595  1.00  0.00     0.039 A 
ATOM     34  C   UNL A   1      41.800  21.187  27.969  1.00  0.00     0.014 A 
ATOM     35  C   UNL A   1      42.151  21.940  25.706  1.00  0.00     0.014 A 
ATOM     36  C   UNL A   1      42.167  22.451  28.443  1.00  0.00     0.010 A 
ATOM     37  C   UNL A   1      42.617  23.166  26.184  1.00  0.00     0.010 A 
ATOM     38  C   UNL A   1      42.601  23.449  27.557  1.00  0.00    -0.014 A 
BRANCH  38  39
ATOM     39  C   UNL A   1      42.986  24.799  28.051  1.00  0.00     0.031 A 
ATOM     40  C   UNL A   1      41.934  25.852  28.296  1.00  0.00     0.074 A 
ATOM     41  C   UNL A   1      44.284  25.095  28.258  1.00  0.00     0.049 A 
ATOM     42  N   UNL A   1      42.077  27.088  28.706  1.00  0.00    -0.248 NA
ATOM     43  C   UNL A   1      40.539  25.474  28.017  1.00  0.00     0.031 C 
ATOM     44  C   UNL A   1      45.408  24.192  28.011  1.00  0.00     0.029 A 
ATOM     45  N   UNL A   1      44.877  26.243  28.724  1.00  0.00    -0.354 N 
ATOM     46  C   UNL A   1      40.799  27.634  28.718  1.00  0.00     0.074 A 
ATOM     47  C   UNL A   1      39.901  26.617  28.217  1.00  0.00     0.031 C 
ATOM     48  C   UNL A   1      46.551  24.807  28.356  1.00  0.00     0.029 A 
ATOM     49  C   UNL A   1      46.246  26.158  28.817  1.00  0.00     0.049 A 
ATOM     50  H   UNL A   1      44.370  27.051  28.968  1.00  0.00     0.167 HD
ATOM     51  C   UNL A   1      40.400  28.860  29.136  1.00  0.00     0.037 A 
ATOM     52  C   UNL A   1      47.152  27.064  29.227  1.00  0.00     0.037 A 
ATOM     53  C   UNL A   1      41.286  29.864  29.664  1.00  0.00     0.049 A 
ATOM     54  C   UNL A   1      46.686  28.412  29.703  1.00  0.00     0.074 A 
ATOM     55  C   UNL A   1      40.971  31.116  30.166  1.00  0.00     0.029 A 
ATOM     56  N   UNL A   1      42.662  29.729  29.762  1.00  0.00    -0.354 N 
ATOM     57  N   UNL A   1      45.468  28.889  29.769  1.00  0.00    -0.248 NA
ATOM     58  C   UNL A   1      47.722  29.342  30.174  1.00  0.00     0.031 C 
ATOM     59  C   UNL A   1      42.162  31.753  30.531  1.00  0.00     0.029 A 
ATOM     60  C   UNL A   1      43.214  30.881  30.301  1.00  0.00     0.049 A 
ATOM     61  H   UNL A   1      43.173  28.932  29.489  1.00  0.00     0.167 HD
ATOM     62  C   UNL A   1      45.587  30.165  30.304  1.00  0.00     0.074 A 
ATOM     63  C   UNL A   1      46.996  30.379  30.566  1.00  0.00     0.031 C 
ATOM     64  C   UNL A   1      44.617  31.080  30.553  1.00  0.00     0.037 A 
BRANCH  51  65
ATOM     65  C   UNL A   1      38.935  29.177  29.048  1.00  0.00     0.057 A 
ATOM     66  C   UNL A   1      38.335  29.569  27.842  1.00  0.00     0.134 A 
ATOM     67  C   UNL A   1      38.106  29.067  30.172  1.00  0.00     0.134 A 
ATOM     68  F   UNL A   1      39.073  29.706  26.730  1.00  0.00    -0.206 F 
ATOM     69  C   UNL A   1      36.974  29.871  27.766  1.00  0.00     0.040 A 
ATOM     70  C   UNL A   1      36.739  29.338  30.102  1.00  0.00     0.040 A 
ATOM     71  F   UNL A   1      38.611  28.689  31.355  1.00  0.00    -0.206 F 
ATOM     72  C   UNL A   1      36.170  29.750  28.897  1.00  0.00     0.006 A 
ENDBRANCH  51  65
BRANCH  52  73
ATOM     73  C   UNL A   1      48.596  26.715  29.232  1.00  0.00     0.057 A 
ATOM     74  C   UNL A   1      49.177  26.055  30.321  1.00  0.00     0.134 A 
ATOM     75  C   UNL A   1      49.428  27.032  28.152  1.00  0.00     0.134 A 
ATOM     76  F   UNL A   1      48.435  25.743  31.395  1.00  0.00    -0.206 F 
ATOM     77  C   UNL A   1      50.535  25.736  30.343  1.00  0.00     0.040 A 
ATOM     78  C   UNL A   1      50.782  26.697  28.150  1.00  0.00     0.040 A 
ATOM     79  F   UNL A   1      48.929  27.657  27.075  1.00  0.00    -0.206 F 
ATOM     80  C   UNL A   1      51.341  26.053  29.252  1.00  0.00     0.006 A 
ENDBRANCH  52  73
BRANCH  64  81
ATOM     81  C   UNL A   1      45.047  32.383  31.159  1.00  0.00     0.057 A 
ATOM     82  C   UNL A   1      45.383  33.490  30.368  1.00  0.00     0.134 A 
ATOM     83  C   UNL A   1      45.103  32.541  32.550  1.00  0.00     0.134 A 
ATOM     84  F   UNL A   1      45.364  33.400  29.030  1.00  0.00    -0.206 F 
ATOM     85  C   UNL A   1      45.786  34.699  30.938  1.00  0.00     0.040 A 
ATOM     86  C   UNL A   1      45.478  33.752  33.131  1.00  0.00     0.040 A 
ATOM     87  F   UNL A   1      44.786  31.523  33.365  1.00  0.00    -0.206 F 
ATOM     88  C   UNL A   1      45.828  34.833  32.325  1.00  0.00     0.006 A 
ENDBRANCH  64  81
ENDBRANCH  38  39
ENDBRANCH  30  33
ENDBRANCH  28  29
ENDBRANCH  27  28
ENDBRANCH   1  27
TORSDOF 14
ENDMDL
