MODEL 1
REMARK VINA RESULT:     -11.0      0.000      0.000
REMARK SMILES CC[N@@H+](C)CCNC(=O)N1CCC(CC(=O)NCCCNC(=O)c2ccc(-c3c4nc(c(-c5c(F)cccc5F)c5ccc([nH]5)c(-c5c(F)cccc5F)c5nc(c(-c6c(F)cccc6F)c6ccc3[nH]6)C=C5)C=C4)cc2)CC1
REMARK SMILES IDX 15 1 16 2 17 3 14 5 13 6 7 7 8 8 9 10 10 11 11 12 79 13
REMARK SMILES IDX 12 14 78 15 6 16 5 17 3 18 4 19 2 21 1 22 18 23 19 24 20 25
REMARK SMILES IDX 21 26 22 27 23 29 24 30 25 31 77 32 26 33 76 34 27 35 28 36
REMARK SMILES IDX 29 37 70 38 30 39 75 40 69 41 71 42 31 43 74 44 68 45 67 46
REMARK SMILES IDX 32 48 58 49 41 50 57 51 42 52 45 53 56 54 72 55 43 56 44 57
REMARK SMILES IDX 55 59 73 60 46 61 33 62 34 63 39 64 35 65 36 66 38 67 40 68
REMARK SMILES IDX 37 69 59 70 60 71 65 72 61 73 62 74 64 75 66 76 63 77 47 78
REMARK SMILES IDX 48 79 53 80 49 81 50 82 52 83 54 84 51 85
REMARK H PARENT 17 4 7 9 3 20 21 28 71 47 45 58
REMARK Flexibility Score: inf
ROOT
ATOM      1  C   UNL A   1      33.600  20.190  24.869  1.00  0.00     0.220 C 
ATOM      2  O   UNL A   1      32.719  19.593  25.489  1.00  0.00    -0.275 OA
ATOM      3  N   UNL A   1      34.883  20.087  25.319  1.00  0.00    -0.356 N 
ATOM      4  H   UNL A   1      34.986  19.532  26.125  1.00  0.00     0.163 HD
ENDROOT
BRANCH   1   5
ATOM      5  C   UNL A   1      33.255  21.041  23.661  1.00  0.00     0.103 C 
BRANCH   5   6
ATOM      6  C   UNL A   1      33.091  22.534  24.007  1.00  0.00     0.002 C 
ATOM      7  N   UNL A   1      31.501  26.571  21.502  1.00  0.00    -0.332 N 
ATOM      8  C   UNL A   1      32.535  25.716  21.725  1.00  0.00     0.317 C 
ATOM      9  H   UNL A   1      31.085  26.553  20.610  1.00  0.00     0.165 HD
ATOM     10  O   UNL A   1      33.305  25.448  20.805  1.00  0.00    -0.249 OA
ATOM     11  N   UNL A   1      32.677  25.230  23.002  1.00  0.00    -0.325 N 
ATOM     12  C   UNL A   1      33.994  24.864  23.472  1.00  0.00     0.121 C 
ATOM     13  C   UNL A   1      31.575  24.562  23.688  1.00  0.00     0.121 C 
ATOM     14  C   UNL A   1      34.206  23.366  23.367  1.00  0.00     0.026 C 
ATOM     15  C   UNL A   1      31.708  23.041  23.554  1.00  0.00     0.026 C 
BRANCH   7  16
ATOM     16  C   UNL A   1      30.959  27.509  22.470  1.00  0.00     0.179 C 
BRANCH  16  17
ATOM     17  C   UNL A   1      32.014  28.505  23.007  1.00  0.00     0.283 C 
BRANCH  17  18
ATOM     18  N   UNL A   1      32.320  28.516  24.449  1.00  0.00    -0.336 N 
ATOM     19  C   UNL A   1      31.734  29.669  25.130  1.00  0.00     0.332 C 
ATOM     20  H   UNL A   1      31.871  27.662  24.779  1.00  0.00     0.347 HD
BRANCH  18  21
ATOM     21  C   UNL A   1      33.729  28.353  24.820  1.00  0.00     0.258 C 
ATOM     22  C   UNL A   1      34.000  28.408  26.320  1.00  0.00     0.071 C 
ENDBRANCH  18  21
ENDBRANCH  17  18
ENDBRANCH  16  17
ENDBRANCH   7  16
ENDBRANCH   5   6
ENDBRANCH   1   5
BRANCH   3  23
ATOM     23  C   UNL A   1      36.129  20.655  24.815  1.00  0.00     0.117 C 
BRANCH  23  24
ATOM     24  C   UNL A   1      37.319  19.700  24.941  1.00  0.00     0.042 C 
BRANCH  24  25
ATOM     25  C   UNL A   1      38.601  20.353  25.441  1.00  0.00     0.118 C 
BRANCH  25  26
ATOM     26  N   UNL A   1      39.640  19.369  25.690  1.00  0.00    -0.352 N 
ATOM     27  C   UNL A   1      40.951  19.556  26.061  1.00  0.00     0.251 C 
ATOM     28  H   UNL A   1      39.365  18.430  25.577  1.00  0.00     0.163 HD
ATOM     29  O   UNL A   1      41.743  18.623  25.967  1.00  0.00    -0.269 OA
BRANCH  27  30
ATOM     30  C   UNL A   1      41.423  20.867  26.570  1.00  0.00     0.039 A 
ATOM     31  C   UNL A   1      41.456  21.084  27.952  1.00  0.00     0.014 A 
ATOM     32  C   UNL A   1      41.767  21.906  25.701  1.00  0.00     0.014 A 
ATOM     33  C   UNL A   1      41.873  22.321  28.460  1.00  0.00     0.010 A 
ATOM     34  C   UNL A   1      42.253  23.111  26.208  1.00  0.00     0.010 A 
ATOM     35  C   UNL A   1      42.297  23.338  27.592  1.00  0.00    -0.014 A 
BRANCH  35  36
ATOM     36  C   UNL A   1      42.757  24.659  28.100  1.00  0.00     0.031 A 
ATOM     37  C   UNL A   1      41.752  25.738  28.404  1.00  0.00     0.074 A 
ATOM     38  C   UNL A   1      44.074  24.919  28.220  1.00  0.00     0.049 A 
ATOM     39  N   UNL A   1      41.952  26.993  28.724  1.00  0.00    -0.248 NA
ATOM     40  C   UNL A   1      40.332  25.364  28.307  1.00  0.00     0.031 C 
ATOM     41  C   UNL A   1      45.153  23.974  27.934  1.00  0.00     0.029 A 
ATOM     42  N   UNL A   1      44.726  26.067  28.596  1.00  0.00    -0.354 N 
ATOM     43  C   UNL A   1      40.688  27.560  28.838  1.00  0.00     0.074 A 
ATOM     44  C   UNL A   1      39.729  26.525  28.514  1.00  0.00     0.031 C 
ATOM     45  C   UNL A   1      46.334  24.576  28.155  1.00  0.00     0.029 A 
ATOM     46  C   UNL A   1      46.096  25.960  28.556  1.00  0.00     0.049 A 
ATOM     47  H   UNL A   1      44.259  26.889  28.869  1.00  0.00     0.167 HD
ATOM     48  C   UNL A   1      40.354  28.824  29.195  1.00  0.00     0.037 A 
ATOM     49  C   UNL A   1      47.053  26.876  28.797  1.00  0.00     0.037 A 
ATOM     50  C   UNL A   1      41.304  29.843  29.556  1.00  0.00     0.049 A 
ATOM     51  C   UNL A   1      46.658  28.273  29.191  1.00  0.00     0.074 A 
ATOM     52  C   UNL A   1      41.060  31.133  29.992  1.00  0.00     0.029 A 
ATOM     53  N   UNL A   1      42.681  29.684  29.527  1.00  0.00    -0.354 N 
ATOM     54  N   UNL A   1      45.460  28.783  29.337  1.00  0.00    -0.248 NA
ATOM     55  C   UNL A   1      47.749  29.222  29.453  1.00  0.00     0.031 C 
ATOM     56  C   UNL A   1      42.290  31.767  30.193  1.00  0.00     0.029 A 
ATOM     57  C   UNL A   1      43.299  30.858  29.923  1.00  0.00     0.049 A 
ATOM     58  H   UNL A   1      43.149  28.858  29.266  1.00  0.00     0.167 HD
ATOM     59  C   UNL A   1      45.651  30.099  29.737  1.00  0.00     0.074 A 
ATOM     60  C   UNL A   1      47.082  30.309  29.816  1.00  0.00     0.031 C 
ATOM     61  C   UNL A   1      44.724  31.048  30.013  1.00  0.00     0.037 A 
BRANCH  48  62
ATOM     62  C   UNL A   1      38.896  29.175  29.215  1.00  0.00     0.057 A 
ATOM     63  C   UNL A   1      38.222  29.606  28.066  1.00  0.00     0.134 A 
ATOM     64  C   UNL A   1      38.146  29.048  30.392  1.00  0.00     0.134 A 
ATOM     65  F   UNL A   1      38.884  29.760  26.908  1.00  0.00    -0.206 F 
ATOM     66  C   UNL A   1      36.863  29.923  28.090  1.00  0.00     0.040 A 
ATOM     67  C   UNL A   1      36.780  29.336  30.423  1.00  0.00     0.040 A 
ATOM     68  F   UNL A   1      38.727  28.632  31.528  1.00  0.00    -0.206 F 
ATOM     69  C   UNL A   1      36.137  29.782  29.271  1.00  0.00     0.006 A 
ENDBRANCH  48  62
BRANCH  49  70
ATOM     70  C   UNL A   1      48.484  26.500  28.687  1.00  0.00     0.057 A 
ATOM     71  C   UNL A   1      49.197  26.042  29.802  1.00  0.00     0.134 A 
ATOM     72  C   UNL A   1      49.174  26.588  27.472  1.00  0.00     0.134 A 
ATOM     73  F   UNL A   1      48.595  25.955  30.998  1.00  0.00    -0.206 F 
ATOM     74  C   UNL A   1      50.547  25.701  29.717  1.00  0.00     0.040 A 
ATOM     75  C   UNL A   1      50.519  26.228  27.367  1.00  0.00     0.040 A 
ATOM     76  F   UNL A   1      48.547  27.017  26.367  1.00  0.00    -0.206 F 
ATOM     77  C   UNL A   1      51.210  25.788  28.494  1.00  0.00     0.006 A 
ENDBRANCH  49  70
BRANCH  61  78
ATOM     78  C   UNL A   1      45.221  32.388  30.468  1.00  0.00     0.057 A 
ATOM     79  C   UNL A   1      45.450  33.435  29.568  1.00  0.00     0.134 A 
ATOM     80  C   UNL A   1      45.421  32.647  31.830  1.00  0.00     0.134 A 
ATOM     81  F   UNL A   1      45.289  33.247  28.250  1.00  0.00    -0.206 F 
ATOM     82  C   UNL A   1      45.873  34.692  30.006  1.00  0.00     0.040 A 
ATOM     83  C   UNL A   1      45.822  33.904  32.282  1.00  0.00     0.040 A 
ATOM     84  F   UNL A   1      45.212  31.687  32.744  1.00  0.00    -0.206 F 
ATOM     85  C   UNL A   1      46.052  34.930  31.368  1.00  0.00     0.006 A 
ENDBRANCH  61  78
ENDBRANCH  35  36
ENDBRANCH  27  30
ENDBRANCH  25  26
ENDBRANCH  24  25
ENDBRANCH  23  24
ENDBRANCH   3  23
TORSDOF 15
ENDMDL
MODEL 2
REMARK VINA RESULT:     -11.0      0.788      1.727
REMARK SMILES CC[N@@H+](C)CCNC(=O)N1CCC(CC(=O)NCCCNC(=O)c2ccc(-c3c4nc(c(-c5c(F)cccc5F)c5ccc([nH]5)c(-c5c(F)cccc5F)c5nc(c(-c6c(F)cccc6F)c6ccc3[nH]6)C=C5)C=C4)cc2)CC1
REMARK SMILES IDX 15 1 16 2 17 3 14 5 13 6 7 7 8 8 9 10 10 11 11 12 79 13
REMARK SMILES IDX 12 14 78 15 6 16 5 17 3 18 4 19 2 21 1 22 18 23 19 24 20 25
REMARK SMILES IDX 21 26 22 27 23 29 24 30 25 31 77 32 26 33 76 34 27 35 28 36
REMARK SMILES IDX 29 37 70 38 30 39 75 40 69 41 71 42 31 43 74 44 68 45 67 46
REMARK SMILES IDX 32 48 58 49 41 50 57 51 42 52 45 53 56 54 72 55 43 56 44 57
REMARK SMILES IDX 55 59 73 60 46 61 33 62 34 63 39 64 35 65 36 66 38 67 40 68
REMARK SMILES IDX 37 69 59 70 60 71 65 72 61 73 62 74 64 75 66 76 63 77 47 78
REMARK SMILES IDX 48 79 53 80 49 81 50 82 52 83 54 84 51 85
REMARK H PARENT 17 4 7 9 3 20 21 28 71 47 45 58
REMARK Flexibility Score: inf
ROOT
ATOM      1  C   UNL A   1      33.587  20.082  24.796  1.00  0.00     0.220 C 
ATOM      2  O   UNL A   1      32.711  19.417  25.352  1.00  0.00    -0.275 OA
ATOM      3  N   UNL A   1      34.860  19.996  25.276  1.00  0.00    -0.356 N 
ATOM      4  H   UNL A   1      34.961  19.395  26.050  1.00  0.00     0.163 HD
ENDROOT
BRANCH   1   5
ATOM      5  C   UNL A   1      33.244  20.993  23.632  1.00  0.00     0.103 C 
BRANCH   5   6
ATOM      6  C   UNL A   1      33.076  22.466  24.054  1.00  0.00     0.002 C 
ATOM      7  N   UNL A   1      31.444  26.615  21.770  1.00  0.00    -0.332 N 
ATOM      8  C   UNL A   1      32.484  25.755  21.939  1.00  0.00     0.317 C 
ATOM      9  H   UNL A   1      31.020  26.640  20.882  1.00  0.00     0.165 HD
ATOM     10  O   UNL A   1      33.246  25.538  21.001  1.00  0.00    -0.249 OA
ATOM     11  N   UNL A   1      32.641  25.206  23.189  1.00  0.00    -0.325 N 
ATOM     12  C   UNL A   1      33.964  24.825  23.628  1.00  0.00     0.121 C 
ATOM     13  C   UNL A   1      31.548  24.500  23.852  1.00  0.00     0.121 C 
ATOM     14  C   UNL A   1      34.181  23.335  23.446  1.00  0.00     0.026 C 
ATOM     15  C   UNL A   1      31.688  22.988  23.640  1.00  0.00     0.026 C 
BRANCH   7  16
ATOM     16  C   UNL A   1      30.907  27.501  22.788  1.00  0.00     0.179 C 
BRANCH  16  17
ATOM     17  C   UNL A   1      30.625  28.929  22.263  1.00  0.00     0.283 C 
BRANCH  17  18
ATOM     18  N   UNL A   1      30.372  30.012  23.232  1.00  0.00    -0.336 N 
ATOM     19  C   UNL A   1      30.949  29.725  24.544  1.00  0.00     0.332 C 
ATOM     20  H   UNL A   1      30.859  30.804  22.812  1.00  0.00     0.347 HD
BRANCH  18  21
ATOM     21  C   UNL A   1      28.984  30.464  23.360  1.00  0.00     0.258 C 
ATOM     22  C   UNL A   1      28.720  31.864  22.816  1.00  0.00     0.071 C 
ENDBRANCH  18  21
ENDBRANCH  17  18
ENDBRANCH  16  17
ENDBRANCH   7  16
ENDBRANCH   5   6
ENDBRANCH   1   5
BRANCH   3  23
ATOM     23  C   UNL A   1      36.098  20.636  24.846  1.00  0.00     0.117 C 
BRANCH  23  24
ATOM     24  C   UNL A   1      37.315  19.712  24.932  1.00  0.00     0.042 C 
BRANCH  24  25
ATOM     25  C   UNL A   1      38.565  20.368  25.505  1.00  0.00     0.118 C 
BRANCH  25  26
ATOM     26  N   UNL A   1      39.639  19.407  25.682  1.00  0.00    -0.352 N 
ATOM     27  C   UNL A   1      40.955  19.619  26.024  1.00  0.00     0.251 C 
ATOM     28  H   UNL A   1      39.390  18.466  25.537  1.00  0.00     0.163 HD
ATOM     29  O   UNL A   1      41.771  18.716  25.867  1.00  0.00    -0.269 OA
BRANCH  27  30
ATOM     30  C   UNL A   1      41.402  20.922  26.574  1.00  0.00     0.039 A 
ATOM     31  C   UNL A   1      41.169  21.201  27.925  1.00  0.00     0.014 A 
ATOM     32  C   UNL A   1      41.986  21.897  25.760  1.00  0.00     0.014 A 
ATOM     33  C   UNL A   1      41.558  22.433  28.466  1.00  0.00     0.010 A 
ATOM     34  C   UNL A   1      42.440  23.093  26.316  1.00  0.00     0.010 A 
ATOM     35  C   UNL A   1      42.218  23.381  27.671  1.00  0.00    -0.014 A 
BRANCH  35  36
ATOM     36  C   UNL A   1      42.655  24.694  28.217  1.00  0.00     0.031 A 
ATOM     37  C   UNL A   1      41.640  25.778  28.469  1.00  0.00     0.074 A 
ATOM     38  C   UNL A   1      43.963  24.944  28.420  1.00  0.00     0.049 A 
ATOM     39  N   UNL A   1      41.828  27.028  28.813  1.00  0.00    -0.248 NA
ATOM     40  C   UNL A   1      40.226  25.414  28.283  1.00  0.00     0.031 C 
ATOM     41  C   UNL A   1      45.052  23.994  28.192  1.00  0.00     0.029 A 
ATOM     42  N   UNL A   1      44.600  26.084  28.846  1.00  0.00    -0.354 N 
ATOM     43  C   UNL A   1      40.564  27.603  28.854  1.00  0.00     0.074 A 
ATOM     44  C   UNL A   1      39.620  26.578  28.463  1.00  0.00     0.031 C 
ATOM     45  C   UNL A   1      46.221  24.585  28.490  1.00  0.00     0.029 A 
ATOM     46  C   UNL A   1      45.968  25.967  28.888  1.00  0.00     0.049 A 
ATOM     47  H   UNL A   1      44.121  26.907  29.097  1.00  0.00     0.167 HD
ATOM     48  C   UNL A   1      40.217  28.866  29.202  1.00  0.00     0.037 A 
ATOM     49  C   UNL A   1      46.915  26.875  29.196  1.00  0.00     0.037 A 
ATOM     50  C   UNL A   1      41.150  29.876  29.629  1.00  0.00     0.049 A 
ATOM     51  C   UNL A   1      46.506  28.271  29.577  1.00  0.00     0.074 A 
ATOM     52  C   UNL A   1      40.888  31.164  30.061  1.00  0.00     0.029 A 
ATOM     53  N   UNL A   1      42.525  29.707  29.683  1.00  0.00    -0.354 N 
ATOM     54  N   UNL A   1      45.304  28.788  29.655  1.00  0.00    -0.248 NA
ATOM     55  C   UNL A   1      47.585  29.210  29.914  1.00  0.00     0.031 C 
ATOM     56  C   UNL A   1      42.108  31.787  30.343  1.00  0.00     0.029 A 
ATOM     57  C   UNL A   1      43.126  30.873  30.126  1.00  0.00     0.049 A 
ATOM     58  H   UNL A   1      43.003  28.880  29.444  1.00  0.00     0.167 HD
ATOM     59  C   UNL A   1      45.479  30.099  30.077  1.00  0.00     0.074 A 
ATOM     60  C   UNL A   1      46.904  30.298  30.246  1.00  0.00     0.031 C 
ATOM     61  C   UNL A   1      44.543  31.052  30.305  1.00  0.00     0.037 A 
BRANCH  48  62
ATOM     62  C   UNL A   1      38.762  29.228  29.137  1.00  0.00     0.057 A 
ATOM     63  C   UNL A   1      37.936  29.178  30.266  1.00  0.00     0.134 A 
ATOM     64  C   UNL A   1      38.188  29.666  27.936  1.00  0.00     0.134 A 
ATOM     65  F   UNL A   1      38.421  28.757  31.445  1.00  0.00    -0.206 F 
ATOM     66  C   UNL A   1      36.586  29.525  30.200  1.00  0.00     0.040 A 
ATOM     67  C   UNL A   1      36.845  30.041  27.863  1.00  0.00     0.040 A 
ATOM     68  F   UNL A   1      38.924  29.745  26.817  1.00  0.00    -0.206 F 
ATOM     69  C   UNL A   1      36.038  29.964  28.996  1.00  0.00     0.006 A 
ENDBRANCH  48  62
BRANCH  49  70
ATOM     70  C   UNL A   1      48.348  26.489  29.170  1.00  0.00     0.057 A 
ATOM     71  C   UNL A   1      49.141  26.740  28.044  1.00  0.00     0.134 A 
ATOM     72  C   UNL A   1      48.958  25.861  30.262  1.00  0.00     0.134 A 
ATOM     73  F   UNL A   1      48.607  27.321  26.959  1.00  0.00    -0.206 F 
ATOM     74  C   UNL A   1      50.485  26.368  27.999  1.00  0.00     0.040 A 
ATOM     75  C   UNL A   1      50.307  25.503  30.239  1.00  0.00     0.040 A 
ATOM     76  F   UNL A   1      48.252  25.595  31.372  1.00  0.00    -0.206 F 
ATOM     77  C   UNL A   1      51.073  25.752  29.102  1.00  0.00     0.006 A 
ENDBRANCH  49  70
BRANCH  61  78
ATOM     78  C   UNL A   1      45.021  32.385  30.801  1.00  0.00     0.057 A 
ATOM     79  C   UNL A   1      45.319  33.435  29.926  1.00  0.00     0.134 A 
ATOM     80  C   UNL A   1      45.130  32.634  32.175  1.00  0.00     0.134 A 
ATOM     81  F   UNL A   1      45.246  33.257  28.599  1.00  0.00    -0.206 F 
ATOM     82  C   UNL A   1      45.723  34.685  30.400  1.00  0.00     0.040 A 
ATOM     83  C   UNL A   1      45.510  33.884  32.662  1.00  0.00     0.040 A 
ATOM     84  F   UNL A   1      44.851  31.670  33.067  1.00  0.00    -0.206 F 
ATOM     85  C   UNL A   1      45.811  34.913  31.773  1.00  0.00     0.006 A 
ENDBRANCH  61  78
ENDBRANCH  35  36
ENDBRANCH  27  30
ENDBRANCH  25  26
ENDBRANCH  24  25
ENDBRANCH  23  24
ENDBRANCH   3  23
TORSDOF 15
ENDMDL
MODEL 3
REMARK VINA RESULT:     -10.9      1.540      2.424
REMARK SMILES CC[N@@H+](C)CCNC(=O)N1CCC(CC(=O)NCCCNC(=O)c2ccc(-c3c4nc(c(-c5c(F)cccc5F)c5ccc([nH]5)c(-c5c(F)cccc5F)c5nc(c(-c6c(F)cccc6F)c6ccc3[nH]6)C=C5)C=C4)cc2)CC1
REMARK SMILES IDX 15 1 16 2 17 3 14 5 13 6 7 7 8 8 9 10 10 11 11 12 79 13
REMARK SMILES IDX 12 14 78 15 6 16 5 17 3 18 4 19 2 21 1 22 18 23 19 24 20 25
REMARK SMILES IDX 21 26 22 27 23 29 24 30 25 31 77 32 26 33 76 34 27 35 28 36
REMARK SMILES IDX 29 37 70 38 30 39 75 40 69 41 71 42 31 43 74 44 68 45 67 46
REMARK SMILES IDX 32 48 58 49 41 50 57 51 42 52 45 53 56 54 72 55 43 56 44 57
REMARK SMILES IDX 55 59 73 60 46 61 33 62 34 63 39 64 35 65 36 66 38 67 40 68
REMARK SMILES IDX 37 69 59 70 60 71 65 72 61 73 62 74 64 75 66 76 63 77 47 78
REMARK SMILES IDX 48 79 53 80 49 81 50 82 52 83 54 84 51 85
REMARK H PARENT 17 4 7 9 3 20 21 28 71 47 45 58
REMARK Flexibility Score: inf
ROOT
ATOM      1  C   UNL A   1      33.519  20.154  25.489  1.00  0.00     0.220 C 
ATOM      2  O   UNL A   1      32.605  19.335  25.378  1.00  0.00    -0.275 OA
ATOM      3  N   UNL A   1      34.745  19.815  24.998  1.00  0.00    -0.356 N 
ATOM      4  H   UNL A   1      34.786  18.918  24.594  1.00  0.00     0.163 HD
ENDROOT
BRANCH   1   5
ATOM      5  C   UNL A   1      33.288  21.483  26.183  1.00  0.00     0.103 C 
BRANCH   5   6
ATOM      6  C   UNL A   1      31.991  22.179  25.728  1.00  0.00     0.002 C 
ATOM      7  N   UNL A   1      30.689  26.923  24.781  1.00  0.00    -0.332 N 
ATOM      8  C   UNL A   1      30.903  25.982  25.739  1.00  0.00     0.317 C 
ATOM      9  H   UNL A   1      31.314  27.683  24.748  1.00  0.00     0.165 HD
ATOM     10  O   UNL A   1      31.354  26.323  26.829  1.00  0.00    -0.249 OA
ATOM     11  N   UNL A   1      30.556  24.689  25.430  1.00  0.00    -0.325 N 
ATOM     12  C   UNL A   1      30.163  23.793  26.495  1.00  0.00     0.121 C 
ATOM     13  C   UNL A   1      31.067  24.029  24.232  1.00  0.00     0.121 C 
ATOM     14  C   UNL A   1      31.321  22.902  26.901  1.00  0.00     0.026 C 
ATOM     15  C   UNL A   1      32.284  23.164  24.581  1.00  0.00     0.026 C 
BRANCH   7  16
ATOM     16  C   UNL A   1      29.615  26.903  23.803  1.00  0.00     0.179 C 
BRANCH  16  17
ATOM     17  C   UNL A   1      29.556  28.184  22.938  1.00  0.00     0.283 C 
BRANCH  17  18
ATOM     18  N   UNL A   1      28.509  29.186  23.212  1.00  0.00    -0.336 N 
ATOM     19  C   UNL A   1      27.165  28.619  23.124  1.00  0.00     0.332 C 
ATOM     20  H   UNL A   1      28.703  29.453  24.177  1.00  0.00     0.347 HD
BRANCH  18  21
ATOM     21  C   UNL A   1      28.595  30.442  22.462  1.00  0.00     0.258 C 
ATOM     22  C   UNL A   1      27.881  31.621  23.114  1.00  0.00     0.071 C 
ENDBRANCH  18  21
ENDBRANCH  17  18
ENDBRANCH  16  17
ENDBRANCH   7  16
ENDBRANCH   5   6
ENDBRANCH   1   5
BRANCH   3  23
ATOM     23  C   UNL A   1      36.007  20.548  24.967  1.00  0.00     0.117 C 
BRANCH  23  24
ATOM     24  C   UNL A   1      37.234  19.632  24.943  1.00  0.00     0.042 C 
BRANCH  24  25
ATOM     25  C   UNL A   1      38.537  20.316  25.334  1.00  0.00     0.118 C 
BRANCH  25  26
ATOM     26  N   UNL A   1      39.587  19.349  25.606  1.00  0.00    -0.352 N 
ATOM     27  C   UNL A   1      40.873  19.555  26.048  1.00  0.00     0.251 C 
ATOM     28  H   UNL A   1      39.342  18.408  25.451  1.00  0.00     0.163 HD
ATOM     29  O   UNL A   1      41.691  18.644  25.966  1.00  0.00    -0.269 OA
BRANCH  27  30
ATOM     30  C   UNL A   1      41.286  20.861  26.618  1.00  0.00     0.039 A 
ATOM     31  C   UNL A   1      41.789  21.845  25.760  1.00  0.00     0.014 A 
ATOM     32  C   UNL A   1      41.249  21.101  27.994  1.00  0.00     0.014 A 
ATOM     33  C   UNL A   1      42.211  23.077  26.274  1.00  0.00     0.010 A 
ATOM     34  C   UNL A   1      41.599  22.354  28.497  1.00  0.00     0.010 A 
ATOM     35  C   UNL A   1      42.098  23.351  27.645  1.00  0.00    -0.014 A 
BRANCH  35  36
ATOM     36  C   UNL A   1      42.526  24.655  28.221  1.00  0.00     0.031 A 
ATOM     37  C   UNL A   1      41.511  25.743  28.453  1.00  0.00     0.074 A 
ATOM     38  C   UNL A   1      43.829  24.892  28.469  1.00  0.00     0.049 A 
ATOM     39  N   UNL A   1      41.697  26.988  28.817  1.00  0.00    -0.248 NA
ATOM     40  C   UNL A   1      40.102  25.392  28.217  1.00  0.00     0.031 C 
ATOM     41  C   UNL A   1      44.918  23.936  28.266  1.00  0.00     0.029 A 
ATOM     42  N   UNL A   1      44.459  26.022  28.928  1.00  0.00    -0.354 N 
ATOM     43  C   UNL A   1      40.436  27.572  28.824  1.00  0.00     0.074 A 
ATOM     44  C   UNL A   1      39.498  26.558  28.391  1.00  0.00     0.031 C 
ATOM     45  C   UNL A   1      46.080  24.515  28.607  1.00  0.00     0.029 A 
ATOM     46  C   UNL A   1      45.825  25.895  29.013  1.00  0.00     0.049 A 
ATOM     47  H   UNL A   1      43.979  26.846  29.173  1.00  0.00     0.167 HD
ATOM     48  C   UNL A   1      40.088  28.833  29.175  1.00  0.00     0.037 A 
ATOM     49  C   UNL A   1      46.768  26.791  29.362  1.00  0.00     0.037 A 
ATOM     50  C   UNL A   1      41.013  29.831  29.644  1.00  0.00     0.049 A 
ATOM     51  C   UNL A   1      46.356  28.186  29.746  1.00  0.00     0.074 A 
ATOM     52  C   UNL A   1      40.747  31.116  30.082  1.00  0.00     0.029 A 
ATOM     53  N   UNL A   1      42.384  29.651  29.740  1.00  0.00    -0.354 N 
ATOM     54  N   UNL A   1      45.157  28.711  29.791  1.00  0.00    -0.248 NA
ATOM     55  C   UNL A   1      47.431  29.113  30.129  1.00  0.00     0.031 C 
ATOM     56  C   UNL A   1      41.961  31.727  30.410  1.00  0.00     0.029 A 
ATOM     57  C   UNL A   1      42.979  30.808  30.216  1.00  0.00     0.049 A 
ATOM     58  H   UNL A   1      42.864  28.823  29.507  1.00  0.00     0.167 HD
ATOM     59  C   UNL A   1      45.328  30.016  30.234  1.00  0.00     0.074 A 
ATOM     60  C   UNL A   1      46.747  30.203  30.451  1.00  0.00     0.031 C 
ATOM     61  C   UNL A   1      44.392  30.974  30.443  1.00  0.00     0.037 A 
BRANCH  48  62
ATOM     62  C   UNL A   1      38.639  29.207  29.067  1.00  0.00     0.057 A 
ATOM     63  C   UNL A   1      37.779  29.164  30.171  1.00  0.00     0.134 A 
ATOM     64  C   UNL A   1      38.103  29.649  27.850  1.00  0.00     0.134 A 
ATOM     65  F   UNL A   1      38.226  28.740  31.364  1.00  0.00    -0.206 F 
ATOM     66  C   UNL A   1      36.434  29.522  30.066  1.00  0.00     0.040 A 
ATOM     67  C   UNL A   1      36.766  30.035  27.737  1.00  0.00     0.040 A 
ATOM     68  F   UNL A   1      38.873  29.722  26.753  1.00  0.00    -0.206 F 
ATOM     69  C   UNL A   1      35.926  29.965  28.846  1.00  0.00     0.006 A 
ENDBRANCH  48  62
BRANCH  49  70
ATOM     70  C   UNL A   1      48.198  26.395  29.378  1.00  0.00     0.057 A 
ATOM     71  C   UNL A   1      48.768  25.798  30.508  1.00  0.00     0.134 A 
ATOM     72  C   UNL A   1      49.029  26.603  28.270  1.00  0.00     0.134 A 
ATOM     73  F   UNL A   1      48.027  25.592  31.608  1.00  0.00    -0.206 F 
ATOM     74  C   UNL A   1      50.114  25.436  30.544  1.00  0.00     0.040 A 
ATOM     75  C   UNL A   1      50.372  26.224  28.283  1.00  0.00     0.040 A 
ATOM     76  F   UNL A   1      48.542  27.168  27.155  1.00  0.00    -0.206 F 
ATOM     77  C   UNL A   1      50.919  25.644  29.425  1.00  0.00     0.006 A 
ENDBRANCH  49  70
BRANCH  61  78
ATOM     78  C   UNL A   1      44.862  32.297  30.969  1.00  0.00     0.057 A 
ATOM     79  C   UNL A   1      44.993  32.542  32.341  1.00  0.00     0.134 A 
ATOM     80  C   UNL A   1      45.239  33.319  30.088  1.00  0.00     0.134 A 
ATOM     81  F   UNL A   1      44.638  31.608  33.236  1.00  0.00    -0.206 F 
ATOM     82  C   UNL A   1      45.472  33.763  32.820  1.00  0.00     0.040 A 
ATOM     83  C   UNL A   1      45.739  34.535  30.553  1.00  0.00     0.040 A 
ATOM     84  F   UNL A   1      45.144  33.144  28.761  1.00  0.00    -0.206 F 
ATOM     85  C   UNL A   1      45.854  34.761  31.923  1.00  0.00     0.006 A 
ENDBRANCH  61  78
ENDBRANCH  35  36
ENDBRANCH  27  30
ENDBRANCH  25  26
ENDBRANCH  24  25
ENDBRANCH  23  24
ENDBRANCH   3  23
TORSDOF 15
ENDMDL
