MODEL 1
REMARK VINA RESULT:     -11.3      0.000      0.000
REMARK SMILES CC(=O)[C@H]1CC(C)=C(C)C[C@@H]1C(=O)NCCCNC(=O)c1ccc(-c2c3nc(c(-c4c(F)cccc4F)c4ccc([nH]4)c(-c4c(F)cccc4F)c4nc(c(-c5c(F)cccc5F)c5ccc2[nH]5)C=C4)C=C3)cc1
REMARK SMILES IDX 16 1 15 2 14 3 12 4 13 5 11 7 4 8 5 9 6 10 10 11 7 12 8 13
REMARK SMILES IDX 9 14 2 15 1 16 3 17 17 18 18 19 19 20 20 22 21 23 22 24
REMARK SMILES IDX 74 25 23 26 73 27 24 28 25 29 26 30 67 31 27 32 72 33 66 34
REMARK SMILES IDX 68 35 28 36 71 37 65 38 64 39 29 41 55 42 38 43 54 44 39 45
REMARK SMILES IDX 42 46 53 47 69 48 40 49 41 50 52 52 70 53 43 54 30 55 31 56
REMARK SMILES IDX 36 57 32 58 33 59 35 60 37 61 34 62 56 63 57 64 62 65 58 66
REMARK SMILES IDX 59 67 61 68 63 69 60 70 44 71 45 72 50 73 46 74 47 75 49 76
REMARK SMILES IDX 51 77 48 78
REMARK H PARENT 14 6 18 21 68 40 42 51
REMARK Flexibility Score: inf
ROOT
ATOM      1  C   UNL A   1      32.269  27.947  27.526  1.00  0.00     0.042 C 
ENDROOT
BRANCH   1   2
ATOM      2  C   UNL A   1      31.521  27.459  26.286  1.00  0.00     0.117 C 
BRANCH   2   3
ATOM      3  N   UNL A   1      31.409  26.008  26.265  1.00  0.00    -0.356 N 
ATOM      4  C   UNL A   1      32.146  25.078  25.593  1.00  0.00     0.224 C 
ATOM      5  O   UNL A   1      31.777  23.903  25.638  1.00  0.00    -0.275 OA
ATOM      6  H   UNL A   1      30.687  25.641  26.825  1.00  0.00     0.163 HD
BRANCH   4   7
ATOM      7  C   UNL A   1      33.420  25.498  24.869  1.00  0.00     0.093 C 
ATOM      8  C   UNL A   1      33.380  25.005  23.409  1.00  0.00     0.072 C 
ATOM      9  C   UNL A   1      34.399  23.939  22.994  1.00  0.00     0.043 C 
ATOM     10  C   UNL A   1      35.538  23.626  23.924  1.00  0.00    -0.074 C 
ATOM     11  C   UNL A   1      34.610  25.075  25.743  1.00  0.00     0.045 C 
ATOM     12  C   UNL A   1      36.552  22.678  23.327  1.00  0.00     0.039 C 
ATOM     13  C   UNL A   1      35.628  24.133  25.167  1.00  0.00    -0.074 C 
ATOM     14  C   UNL A   1      36.754  23.782  26.109  1.00  0.00     0.039 C 
BRANCH   8  15
ATOM     15  C   UNL A   1      33.451  26.186  22.432  1.00  0.00     0.134 C 
ATOM     16  C   UNL A   1      33.611  27.563  23.035  1.00  0.00     0.088 C 
ATOM     17  O   UNL A   1      33.372  26.051  21.210  1.00  0.00    -0.300 OA
ENDBRANCH   8  15
ENDBRANCH   4   7
ENDBRANCH   2   3
ENDBRANCH   1   2
BRANCH   1  18
ATOM     18  C   UNL A   1      33.606  28.621  27.216  1.00  0.00     0.118 C 
BRANCH  18  19
ATOM     19  N   UNL A   1      33.648  30.011  27.656  1.00  0.00    -0.352 N 
ATOM     20  C   UNL A   1      34.625  30.710  28.316  1.00  0.00     0.251 C 
ATOM     21  H   UNL A   1      32.841  30.534  27.444  1.00  0.00     0.163 HD
ATOM     22  O   UNL A   1      34.369  31.828  28.766  1.00  0.00    -0.269 OA
BRANCH  20  23
ATOM     23  C   UNL A   1      35.972  30.138  28.509  1.00  0.00     0.039 A 
ATOM     24  C   UNL A   1      36.876  30.174  27.443  1.00  0.00     0.014 A 
ATOM     25  C   UNL A   1      36.340  29.537  29.717  1.00  0.00     0.014 A 
ATOM     26  C   UNL A   1      38.171  29.679  27.612  1.00  0.00     0.010 A 
ATOM     27  C   UNL A   1      37.651  29.103  29.905  1.00  0.00     0.010 A 
ATOM     28  C   UNL A   1      38.581  29.180  28.859  1.00  0.00    -0.014 A 
BRANCH  28  29
ATOM     29  C   UNL A   1      39.993  28.785  29.098  1.00  0.00     0.031 A 
ATOM     30  C   UNL A   1      40.969  29.750  29.706  1.00  0.00     0.074 A 
ATOM     31  C   UNL A   1      40.409  27.569  28.692  1.00  0.00     0.049 A 
ATOM     32  N   UNL A   1      42.253  29.603  29.916  1.00  0.00    -0.248 NA
ATOM     33  C   UNL A   1      40.440  31.061  30.111  1.00  0.00     0.031 C 
ATOM     34  C   UNL A   1      39.569  26.559  28.045  1.00  0.00     0.029 A 
ATOM     35  N   UNL A   1      41.648  26.982  28.749  1.00  0.00    -0.354 N 
ATOM     36  C   UNL A   1      42.687  30.802  30.466  1.00  0.00     0.074 A 
ATOM     37  C   UNL A   1      41.539  31.682  30.517  1.00  0.00     0.031 C 
ATOM     38  C   UNL A   1      40.310  25.473  27.782  1.00  0.00     0.029 A 
ATOM     39  C   UNL A   1      41.685  25.721  28.203  1.00  0.00     0.049 A 
ATOM     40  H   UNL A   1      42.435  27.421  29.144  1.00  0.00     0.167 HD
ATOM     41  C   UNL A   1      43.926  31.131  30.904  1.00  0.00     0.037 A 
ATOM     42  C   UNL A   1      42.712  24.866  28.047  1.00  0.00     0.037 A 
ATOM     43  C   UNL A   1      45.063  30.247  30.870  1.00  0.00     0.049 A 
ATOM     44  C   UNL A   1      44.078  25.262  28.529  1.00  0.00     0.074 A 
ATOM     45  C   UNL A   1      46.342  30.467  31.351  1.00  0.00     0.029 A 
ATOM     46  N   UNL A   1      45.058  28.976  30.316  1.00  0.00    -0.354 N 
ATOM     47  N   UNL A   1      44.459  26.374  29.109  1.00  0.00    -0.248 NA
ATOM     48  C   UNL A   1      45.159  24.284  28.335  1.00  0.00     0.031 C 
ATOM     49  C   UNL A   1      47.123  29.347  31.048  1.00  0.00     0.029 A 
ATOM     50  C   UNL A   1      46.319  28.410  30.419  1.00  0.00     0.049 A 
ATOM     51  H   UNL A   1      44.275  28.539  29.910  1.00  0.00     0.167 HD
ATOM     52  C   UNL A   1      45.814  26.223  29.369  1.00  0.00     0.074 A 
ATOM     53  C   UNL A   1      46.186  24.903  28.898  1.00  0.00     0.031 C 
ATOM     54  C   UNL A   1      46.674  27.098  29.944  1.00  0.00     0.037 A 
BRANCH  41  55
ATOM     55  C   UNL A   1      44.119  32.510  31.466  1.00  0.00     0.057 A 
ATOM     56  C   UNL A   1      43.964  32.778  32.832  1.00  0.00     0.134 A 
ATOM     57  C   UNL A   1      44.506  33.572  30.639  1.00  0.00     0.134 A 
ATOM     58  F   UNL A   1      43.585  31.807  33.677  1.00  0.00    -0.206 F 
ATOM     59  C   UNL A   1      44.165  34.057  33.353  1.00  0.00     0.040 A 
ATOM     60  C   UNL A   1      44.734  34.850  31.152  1.00  0.00     0.040 A 
ATOM     61  F   UNL A   1      44.679  33.383  29.322  1.00  0.00    -0.206 F 
ATOM     62  C   UNL A   1      44.559  35.097  32.512  1.00  0.00     0.006 A 
ENDBRANCH  41  55
BRANCH  42  63
ATOM     63  C   UNL A   1      42.485  23.543  27.415  1.00  0.00     0.057 A 
ATOM     64  C   UNL A   1      42.646  23.365  26.037  1.00  0.00     0.134 A 
ATOM     65  C   UNL A   1      42.103  22.427  28.171  1.00  0.00     0.134 A 
ATOM     66  F   UNL A   1      42.993  24.401  25.259  1.00  0.00    -0.206 F 
ATOM     67  C   UNL A   1      42.419  22.131  25.427  1.00  0.00     0.040 A 
ATOM     68  C   UNL A   1      41.896  21.180  27.578  1.00  0.00     0.040 A 
ATOM     69  F   UNL A   1      41.940  22.530  29.498  1.00  0.00    -0.206 F 
ATOM     70  C   UNL A   1      42.047  21.033  26.201  1.00  0.00     0.006 A 
ENDBRANCH  42  63
BRANCH  54  71
ATOM     71  C   UNL A   1      48.095  26.647  30.113  1.00  0.00     0.057 A 
ATOM     72  C   UNL A   1      48.510  25.924  31.238  1.00  0.00     0.134 A 
ATOM     73  C   UNL A   1      49.052  26.914  29.125  1.00  0.00     0.134 A 
ATOM     74  F   UNL A   1      47.646  25.650  32.227  1.00  0.00    -0.206 F 
ATOM     75  C   UNL A   1      49.833  25.501  31.387  1.00  0.00     0.040 A 
ATOM     76  C   UNL A   1      50.371  26.474  29.250  1.00  0.00     0.040 A 
ATOM     77  F   UNL A   1      48.719  27.595  28.019  1.00  0.00    -0.206 F 
ATOM     78  C   UNL A   1      50.765  25.771  30.387  1.00  0.00     0.006 A 
ENDBRANCH  54  71
ENDBRANCH  28  29
ENDBRANCH  20  23
ENDBRANCH  18  19
ENDBRANCH   1  18
TORSDOF 11
ENDMDL
MODEL 2
REMARK VINA RESULT:     -11.1      2.805      8.011
REMARK SMILES CC(=O)[C@H]1CC(C)=C(C)C[C@@H]1C(=O)NCCCNC(=O)c1ccc(-c2c3nc(c(-c4c(F)cccc4F)c4ccc([nH]4)c(-c4c(F)cccc4F)c4nc(c(-c5c(F)cccc5F)c5ccc2[nH]5)C=C4)C=C3)cc1
REMARK SMILES IDX 16 1 15 2 14 3 12 4 13 5 11 7 4 8 5 9 6 10 10 11 7 12 8 13
REMARK SMILES IDX 9 14 2 15 1 16 3 17 17 18 18 19 19 20 20 22 21 23 22 24
REMARK SMILES IDX 74 25 23 26 73 27 24 28 25 29 26 30 67 31 27 32 72 33 66 34
REMARK SMILES IDX 68 35 28 36 71 37 65 38 64 39 29 41 55 42 38 43 54 44 39 45
REMARK SMILES IDX 42 46 53 47 69 48 40 49 41 50 52 52 70 53 43 54 30 55 31 56
REMARK SMILES IDX 36 57 32 58 33 59 35 60 37 61 34 62 56 63 57 64 62 65 58 66
REMARK SMILES IDX 59 67 61 68 63 69 60 70 44 71 45 72 50 73 46 74 47 75 49 76
REMARK SMILES IDX 51 77 48 78
REMARK H PARENT 14 6 18 21 68 40 42 51
REMARK Flexibility Score: inf
ROOT
ATOM      1  C   UNL A   1      36.486  23.238  23.706  1.00  0.00     0.042 C 
ENDROOT
BRANCH   1   2
ATOM      2  C   UNL A   1      34.982  22.977  23.773  1.00  0.00     0.117 C 
BRANCH   2   3
ATOM      3  N   UNL A   1      34.224  24.061  23.166  1.00  0.00    -0.356 N 
ATOM      4  C   UNL A   1      33.419  25.001  23.739  1.00  0.00     0.224 C 
ATOM      5  O   UNL A   1      32.779  25.747  22.997  1.00  0.00    -0.275 OA
ATOM      6  H   UNL A   1      34.306  24.125  22.187  1.00  0.00     0.163 HD
BRANCH   4   7
ATOM      7  C   UNL A   1      33.381  25.143  25.256  1.00  0.00     0.093 C 
ATOM      8  C   UNL A   1      31.924  25.060  25.754  1.00  0.00     0.072 C 
ATOM      9  C   UNL A   1      31.317  26.320  26.379  1.00  0.00     0.043 C 
ATOM     10  C   UNL A   1      32.224  27.468  26.719  1.00  0.00    -0.074 C 
ATOM     11  C   UNL A   1      34.201  26.388  25.625  1.00  0.00     0.045 C 
ATOM     12  C   UNL A   1      31.527  28.578  27.472  1.00  0.00     0.039 C 
ATOM     13  C   UNL A   1      33.524  27.502  26.372  1.00  0.00    -0.074 C 
ATOM     14  C   UNL A   1      34.419  28.677  26.683  1.00  0.00     0.039 C 
BRANCH   8  15
ATOM     15  C   UNL A   1      31.743  23.876  26.714  1.00  0.00     0.134 C 
ATOM     16  C   UNL A   1      32.900  22.911  26.836  1.00  0.00     0.088 C 
ATOM     17  O   UNL A   1      30.710  23.688  27.359  1.00  0.00    -0.300 OA
ENDBRANCH   8  15
ENDBRANCH   4   7
ENDBRANCH   2   3
ENDBRANCH   1   2
BRANCH   1  18
ATOM     18  C   UNL A   1      37.110  23.607  25.053  1.00  0.00     0.118 C 
BRANCH  18  19
ATOM     19  N   UNL A   1      38.211  22.723  25.421  1.00  0.00    -0.352 N 
ATOM     20  C   UNL A   1      39.377  22.981  26.093  1.00  0.00     0.251 C 
ATOM     21  H   UNL A   1      38.097  21.786  25.142  1.00  0.00     0.163 HD
ATOM     22  O   UNL A   1      40.260  22.123  26.123  1.00  0.00    -0.269 OA
BRANCH  20  23
ATOM     23  C   UNL A   1      39.596  24.276  26.768  1.00  0.00     0.039 A 
ATOM     24  C   UNL A   1      39.082  24.459  28.056  1.00  0.00     0.014 A 
ATOM     25  C   UNL A   1      40.273  25.321  26.132  1.00  0.00     0.014 A 
ATOM     26  C   UNL A   1      39.312  25.657  28.733  1.00  0.00     0.010 A 
ATOM     27  C   UNL A   1      40.557  26.492  26.833  1.00  0.00     0.010 A 
ATOM     28  C   UNL A   1      40.090  26.666  28.143  1.00  0.00    -0.014 A 
BRANCH  28  29
ATOM     29  C   UNL A   1      40.466  27.886  28.903  1.00  0.00     0.031 A 
ATOM     30  C   UNL A   1      41.806  27.990  29.574  1.00  0.00     0.074 A 
ATOM     31  C   UNL A   1      39.559  28.871  29.048  1.00  0.00     0.049 A 
ATOM     32  N   UNL A   1      42.272  28.944  30.340  1.00  0.00    -0.248 NA
ATOM     33  C   UNL A   1      42.735  26.867  29.378  1.00  0.00     0.031 C 
ATOM     34  C   UNL A   1      38.208  28.868  28.485  1.00  0.00     0.029 A 
ATOM     35  N   UNL A   1      39.632  30.063  29.727  1.00  0.00    -0.354 N 
ATOM     36  C   UNL A   1      43.542  28.534  30.725  1.00  0.00     0.074 A 
ATOM     37  C   UNL A   1      43.755  27.225  30.146  1.00  0.00     0.031 C 
ATOM     38  C   UNL A   1      37.585  30.006  28.826  1.00  0.00     0.029 A 
ATOM     39  C   UNL A   1      38.476  30.803  29.663  1.00  0.00     0.049 A 
ATOM     40  H   UNL A   1      40.435  30.357  30.213  1.00  0.00     0.167 HD
ATOM     41  C   UNL A   1      44.451  29.196  31.480  1.00  0.00     0.037 A 
ATOM     42  C   UNL A   1      38.163  31.985  30.225  1.00  0.00     0.037 A 
ATOM     43  C   UNL A   1      44.243  30.507  32.040  1.00  0.00     0.049 A 
ATOM     44  C   UNL A   1      39.186  32.691  31.069  1.00  0.00     0.074 A 
ATOM     45  C   UNL A   1      45.130  31.287  32.763  1.00  0.00     0.029 A 
ATOM     46  N   UNL A   1      43.062  31.228  31.947  1.00  0.00    -0.354 N 
ATOM     47  N   UNL A   1      40.407  32.321  31.369  1.00  0.00    -0.248 NA
ATOM     48  C   UNL A   1      38.787  33.981  31.651  1.00  0.00     0.031 C 
ATOM     49  C   UNL A   1      44.471  32.460  33.145  1.00  0.00     0.029 A 
ATOM     50  C   UNL A   1      43.189  32.432  32.622  1.00  0.00     0.049 A 
ATOM     51  H   UNL A   1      42.254  30.929  31.472  1.00  0.00     0.167 HD
ATOM     52  C   UNL A   1      40.930  33.338  32.156  1.00  0.00     0.074 A 
ATOM     53  C   UNL A   1      39.898  34.350  32.272  1.00  0.00     0.031 C 
ATOM     54  C   UNL A   1      42.153  33.427  32.732  1.00  0.00     0.037 A 
BRANCH  41  55
ATOM     55  C   UNL A   1      45.763  28.515  31.742  1.00  0.00     0.057 A 
ATOM     56  C   UNL A   1      46.887  28.744  30.937  1.00  0.00     0.134 A 
ATOM     57  C   UNL A   1      45.916  27.654  32.836  1.00  0.00     0.134 A 
ATOM     58  F   UNL A   1      46.804  29.550  29.867  1.00  0.00    -0.206 F 
ATOM     59  C   UNL A   1      48.110  28.124  31.197  1.00  0.00     0.040 A 
ATOM     60  C   UNL A   1      47.142  27.048  33.121  1.00  0.00     0.040 A 
ATOM     61  F   UNL A   1      44.883  27.396  33.651  1.00  0.00    -0.206 F 
ATOM     62  C   UNL A   1      48.241  27.278  32.297  1.00  0.00     0.006 A 
ENDBRANCH  41  55
BRANCH  42  63
ATOM     63  C   UNL A   1      36.824  32.582  29.998  1.00  0.00     0.057 A 
ATOM     64  C   UNL A   1      36.607  33.488  28.955  1.00  0.00     0.134 A 
ATOM     65  C   UNL A   1      35.733  32.263  30.817  1.00  0.00     0.134 A 
ATOM     66  F   UNL A   1      37.618  33.846  28.150  1.00  0.00    -0.206 F 
ATOM     67  C   UNL A   1      35.357  34.071  28.741  1.00  0.00     0.040 A 
ATOM     68  C   UNL A   1      34.471  32.820  30.599  1.00  0.00     0.040 A 
ATOM     69  F   UNL A   1      35.875  31.396  31.829  1.00  0.00    -0.206 F 
ATOM     70  C   UNL A   1      34.284  33.732  29.563  1.00  0.00     0.006 A 
ENDBRANCH  42  63
BRANCH  54  71
ATOM     71  C   UNL A   1      42.448  34.667  33.522  1.00  0.00     0.057 A 
ATOM     72  C   UNL A   1      42.981  35.814  32.921  1.00  0.00     0.134 A 
ATOM     73  C   UNL A   1      42.166  34.725  34.893  1.00  0.00     0.134 A 
ATOM     74  F   UNL A   1      43.287  35.818  31.615  1.00  0.00    -0.206 F 
ATOM     75  C   UNL A   1      43.247  36.969  33.661  1.00  0.00     0.040 A 
ATOM     76  C   UNL A   1      42.403  35.881  35.638  1.00  0.00     0.040 A 
ATOM     77  F   UNL A   1      41.647  33.664  35.528  1.00  0.00    -0.206 F 
ATOM     78  C   UNL A   1      42.951  37.006  35.022  1.00  0.00     0.006 A 
ENDBRANCH  54  71
ENDBRANCH  28  29
ENDBRANCH  20  23
ENDBRANCH  18  19
ENDBRANCH   1  18
TORSDOF 11
ENDMDL
MODEL 3
REMARK VINA RESULT:     -11.0      4.087      8.360
REMARK SMILES CC(=O)[C@H]1CC(C)=C(C)C[C@@H]1C(=O)NCCCNC(=O)c1ccc(-c2c3nc(c(-c4c(F)cccc4F)c4ccc([nH]4)c(-c4c(F)cccc4F)c4nc(c(-c5c(F)cccc5F)c5ccc2[nH]5)C=C4)C=C3)cc1
REMARK SMILES IDX 16 1 15 2 14 3 12 4 13 5 11 7 4 8 5 9 6 10 10 11 7 12 8 13
REMARK SMILES IDX 9 14 2 15 1 16 3 17 17 18 18 19 19 20 20 22 21 23 22 24
REMARK SMILES IDX 74 25 23 26 73 27 24 28 25 29 26 30 67 31 27 32 72 33 66 34
REMARK SMILES IDX 68 35 28 36 71 37 65 38 64 39 29 41 55 42 38 43 54 44 39 45
REMARK SMILES IDX 42 46 53 47 69 48 40 49 41 50 52 52 70 53 43 54 30 55 31 56
REMARK SMILES IDX 36 57 32 58 33 59 35 60 37 61 34 62 56 63 57 64 62 65 58 66
REMARK SMILES IDX 59 67 61 68 63 69 60 70 44 71 45 72 50 73 46 74 47 75 49 76
REMARK SMILES IDX 51 77 48 78
REMARK H PARENT 14 6 18 21 68 40 42 51
REMARK Flexibility Score: inf
ROOT
ATOM      1  C   UNL A   1      31.420  32.140  26.519  1.00  0.00     0.042 C 
ENDROOT
BRANCH   1   2
ATOM      2  C   UNL A   1      31.670  30.717  26.021  1.00  0.00     0.117 C 
BRANCH   2   3
ATOM      3  N   UNL A   1      31.643  29.756  27.113  1.00  0.00    -0.356 N 
ATOM      4  C   UNL A   1      31.689  28.392  27.087  1.00  0.00     0.224 C 
ATOM      5  O   UNL A   1      31.525  27.787  28.147  1.00  0.00    -0.275 OA
ATOM      6  H   UNL A   1      31.584  30.152  28.012  1.00  0.00     0.163 HD
BRANCH   4   7
ATOM      7  C   UNL A   1      31.999  27.669  25.782  1.00  0.00     0.093 C 
ATOM      8  C   UNL A   1      30.688  27.203  25.117  1.00  0.00     0.072 C 
ATOM      9  C   UNL A   1      30.444  25.694  25.015  1.00  0.00     0.043 C 
ATOM     10  C   UNL A   1      31.581  24.756  25.310  1.00  0.00    -0.074 C 
ATOM     11  C   UNL A   1      33.073  26.613  26.081  1.00  0.00     0.045 C 
ATOM     12  C   UNL A   1      31.253  23.310  25.018  1.00  0.00     0.039 C 
ATOM     13  C   UNL A   1      32.764  25.170  25.798  1.00  0.00    -0.074 C 
ATOM     14  C   UNL A   1      33.886  24.217  26.130  1.00  0.00     0.039 C 
BRANCH   8  15
ATOM     15  C   UNL A   1      30.521  27.842  23.732  1.00  0.00     0.134 C 
ATOM     16  C   UNL A   1      31.147  27.116  22.564  1.00  0.00     0.088 C 
ATOM     17  O   UNL A   1      29.920  28.902  23.551  1.00  0.00    -0.300 OA
ENDBRANCH   8  15
ENDBRANCH   4   7
ENDBRANCH   2   3
ENDBRANCH   1   2
BRANCH   1  18
ATOM     18  C   UNL A   1      32.598  32.744  27.284  1.00  0.00     0.118 C 
BRANCH  18  19
ATOM     19  N   UNL A   1      32.382  34.144  27.631  1.00  0.00    -0.352 N 
ATOM     20  C   UNL A   1      32.983  34.933  28.577  1.00  0.00     0.251 C 
ATOM     21  H   UNL A   1      31.691  34.598  27.096  1.00  0.00     0.163 HD
ATOM     22  O   UNL A   1      32.506  36.039  28.833  1.00  0.00    -0.269 OA
BRANCH  20  23
ATOM     23  C   UNL A   1      34.182  34.470  29.305  1.00  0.00     0.039 A 
ATOM     24  C   UNL A   1      34.032  33.983  30.607  1.00  0.00     0.014 A 
ATOM     25  C   UNL A   1      35.454  34.544  28.729  1.00  0.00     0.014 A 
ATOM     26  C   UNL A   1      35.142  33.500  31.301  1.00  0.00     0.010 A 
ATOM     27  C   UNL A   1      36.550  34.002  29.397  1.00  0.00     0.010 A 
ATOM     28  C   UNL A   1      36.403  33.464  30.684  1.00  0.00    -0.014 A 
BRANCH  28  29
ATOM     29  C   UNL A   1      37.564  32.822  31.351  1.00  0.00     0.031 A 
ATOM     30  C   UNL A   1      38.221  31.611  30.753  1.00  0.00     0.074 A 
ATOM     31  C   UNL A   1      37.976  33.294  32.544  1.00  0.00     0.049 A 
ATOM     32  N   UNL A   1      39.193  30.878  31.234  1.00  0.00    -0.248 NA
ATOM     33  C   UNL A   1      37.705  31.150  29.455  1.00  0.00     0.031 C 
ATOM     34  C   UNL A   1      37.390  34.433  33.251  1.00  0.00     0.029 A 
ATOM     35  N   UNL A   1      38.977  32.864  33.380  1.00  0.00    -0.354 N 
ATOM     36  C   UNL A   1      39.398  29.865  30.306  1.00  0.00     0.074 A 
ATOM     37  C   UNL A   1      38.420  30.052  29.256  1.00  0.00     0.031 C 
ATOM     38  C   UNL A   1      38.049  34.624  34.404  1.00  0.00     0.029 A 
ATOM     39  C   UNL A   1      39.078  33.598  34.537  1.00  0.00     0.049 A 
ATOM     40  H   UNL A   1      39.564  32.103  33.170  1.00  0.00     0.167 HD
ATOM     41  C   UNL A   1      40.328  28.880  30.322  1.00  0.00     0.037 A 
ATOM     42  C   UNL A   1      39.900  33.454  35.593  1.00  0.00     0.037 A 
ATOM     43  C   UNL A   1      41.312  28.707  31.360  1.00  0.00     0.049 A 
ATOM     44  C   UNL A   1      40.912  32.344  35.591  1.00  0.00     0.074 A 
ATOM     45  C   UNL A   1      42.336  27.779  31.431  1.00  0.00     0.029 A 
ATOM     46  N   UNL A   1      41.388  29.475  32.513  1.00  0.00    -0.354 N 
ATOM     47  N   UNL A   1      41.139  31.435  34.675  1.00  0.00    -0.248 NA
ATOM     48  C   UNL A   1      41.785  32.241  36.771  1.00  0.00     0.031 C 
ATOM     49  C   UNL A   1      43.005  27.956  32.647  1.00  0.00     0.029 A 
ATOM     50  C   UNL A   1      42.426  29.024  33.313  1.00  0.00     0.049 A 
ATOM     51  H   UNL A   1      40.793  30.228  32.730  1.00  0.00     0.167 HD
ATOM     52  C   UNL A   1      42.191  30.666  35.155  1.00  0.00     0.074 A 
ATOM     53  C   UNL A   1      42.569  31.227  36.437  1.00  0.00     0.031 C 
ATOM     54  C   UNL A   1      42.788  29.591  34.587  1.00  0.00     0.037 A 
BRANCH  41  55
ATOM     55  C   UNL A   1      40.330  27.910  29.177  1.00  0.00     0.057 A 
ATOM     56  C   UNL A   1      39.529  26.760  29.182  1.00  0.00     0.134 A 
ATOM     57  C   UNL A   1      41.108  28.150  28.037  1.00  0.00     0.134 A 
ATOM     58  F   UNL A   1      38.768  26.467  30.248  1.00  0.00    -0.206 F 
ATOM     59  C   UNL A   1      39.518  25.872  28.105  1.00  0.00     0.040 A 
ATOM     60  C   UNL A   1      41.086  27.282  26.943  1.00  0.00     0.040 A 
ATOM     61  F   UNL A   1      41.892  29.235  27.962  1.00  0.00    -0.206 F 
ATOM     62  C   UNL A   1      40.293  26.136  26.978  1.00  0.00     0.006 A 
ENDBRANCH  41  55
BRANCH  42  63
ATOM     63  C   UNL A   1      39.808  34.394  36.738  1.00  0.00     0.057 A 
ATOM     64  C   UNL A   1      39.067  34.068  37.879  1.00  0.00     0.134 A 
ATOM     65  C   UNL A   1      40.455  35.636  36.719  1.00  0.00     0.134 A 
ATOM     66  F   UNL A   1      38.410  32.901  37.947  1.00  0.00    -0.206 F 
ATOM     67  C   UNL A   1      38.957  34.950  38.955  1.00  0.00     0.040 A 
ATOM     68  C   UNL A   1      40.374  36.518  37.798  1.00  0.00     0.040 A 
ATOM     69  F   UNL A   1      41.187  36.003  35.657  1.00  0.00    -0.206 F 
ATOM     70  C   UNL A   1      39.616  36.178  38.917  1.00  0.00     0.006 A 
ENDBRANCH  42  63
BRANCH  54  71
ATOM     71  C   UNL A   1      43.926  28.965  35.339  1.00  0.00     0.057 A 
ATOM     72  C   UNL A   1      43.715  27.960  36.291  1.00  0.00     0.134 A 
ATOM     73  C   UNL A   1      45.248  29.351  35.086  1.00  0.00     0.134 A 
ATOM     74  F   UNL A   1      42.471  27.556  36.590  1.00  0.00    -0.206 F 
ATOM     75  C   UNL A   1      44.779  27.376  36.983  1.00  0.00     0.040 A 
ATOM     76  C   UNL A   1      46.321  28.757  35.752  1.00  0.00     0.040 A 
ATOM     77  F   UNL A   1      45.519  30.303  34.180  1.00  0.00    -0.206 F 
ATOM     78  C   UNL A   1      46.087  27.771  36.708  1.00  0.00     0.006 A 
ENDBRANCH  54  71
ENDBRANCH  28  29
ENDBRANCH  20  23
ENDBRANCH  18  19
ENDBRANCH   1  18
TORSDOF 11
ENDMDL
