MODEL 1
REMARK VINA RESULT:     -12.2      0.000      0.000
REMARK SMILES COc1ccc(C(=O)N2CC[C@@H](C(=O)NCCCNC(=O)c3ccc(-c4c5nc(c(-c6c(F)cccc6F)c6ccc([nH]6)c(-c6c(F)cccc6F)c6nc(c(-c7c(F)cccc7F)c7ccc4[nH]7)C=C6)C=C5)cc3)[C@H]2C)cc1O
REMARK SMILES IDX 16 1 15 2 13 3 14 4 12 6 9 7 10 8 76 9 11 10 77 11 7 12 8 13
REMARK SMILES IDX 6 14 3 15 4 16 79 17 5 18 78 19 2 20 1 21 80 22 17 24 18 25
REMARK SMILES IDX 19 26 20 27 21 29 22 30 23 31 75 32 24 33 74 34 25 35 26 36
REMARK SMILES IDX 27 37 68 38 28 39 73 40 67 41 69 42 29 43 72 44 66 45 65 46
REMARK SMILES IDX 30 48 56 49 39 50 55 51 40 52 43 53 54 54 70 55 41 56 42 57
REMARK SMILES IDX 53 59 71 60 44 61 31 62 32 63 37 64 33 65 34 66 36 67 38 68
REMARK SMILES IDX 35 69 57 70 58 71 63 72 59 73 60 74 62 75 64 76 61 77 45 78
REMARK SMILES IDX 46 79 51 80 47 81 48 82 50 83 52 84 49 85
REMARK H PARENT 15 5 80 23 19 28 69 47 43 58
REMARK Flexibility Score: inf
ROOT
ATOM      1  C   UNL A   1      32.036  27.778  22.986  1.00  0.00     0.117 C 
ENDROOT
BRANCH   1   2
ATOM      2  N   UNL A   1      32.461  26.889  21.916  1.00  0.00    -0.356 N 
ATOM      3  C   UNL A   1      33.005  25.648  21.904  1.00  0.00     0.225 C 
ATOM      4  O   UNL A   1      33.295  25.192  20.792  1.00  0.00    -0.275 OA
ATOM      5  H   UNL A   1      32.326  27.266  21.017  1.00  0.00     0.163 HD
BRANCH   3   6
ATOM      6  C   UNL A   1      33.269  24.811  23.144  1.00  0.00     0.102 C 
ATOM      7  N   UNL A   1      32.613  22.653  23.933  1.00  0.00    -0.335 N 
ATOM      8  C   UNL A   1      34.063  22.700  23.955  1.00  0.00     0.121 C 
ATOM      9  C   UNL A   1      32.099  24.025  23.779  1.00  0.00     0.094 C 
ATOM     10  C   UNL A   1      34.432  23.821  23.009  1.00  0.00     0.037 C 
ATOM     11  C   UNL A   1      30.736  24.201  23.135  1.00  0.00     0.032 C 
BRANCH   7  12
ATOM     12  C   UNL A   1      32.015  21.676  24.729  1.00  0.00     0.254 C 
ATOM     13  O   UNL A   1      31.309  21.954  25.697  1.00  0.00    -0.269 OA
BRANCH  12  14
ATOM     14  C   UNL A   1      32.333  20.246  24.478  1.00  0.00     0.043 A 
ATOM     15  C   UNL A   1      33.008  17.552  24.025  1.00  0.00     0.160 A 
ATOM     16  C   UNL A   1      33.268  18.151  25.263  1.00  0.00     0.051 A 
ATOM     17  C   UNL A   1      32.403  18.317  23.025  1.00  0.00     0.158 A 
ATOM     18  C   UNL A   1      32.930  19.489  25.492  1.00  0.00     0.018 A 
ATOM     19  C   UNL A   1      32.124  19.668  23.224  1.00  0.00     0.064 A 
BRANCH  15  20
ATOM     20  O   UNL A   1      33.337  16.226  23.947  1.00  0.00    -0.493 OA
ATOM     21  C   UNL A   1      33.063  15.424  25.092  1.00  0.00     0.278 C 
ENDBRANCH  15  20
BRANCH  17  22
ATOM     22  O   UNL A   1      31.974  17.789  21.840  1.00  0.00    -0.504 OA
ATOM     23  H   UNL A   1      31.365  17.078  21.836  1.00  0.00     0.293 HD
ENDBRANCH  17  22
ENDBRANCH  12  14
ENDBRANCH   7  12
ENDBRANCH   3   6
ENDBRANCH   1   2
BRANCH   1  24
ATOM     24  C   UNL A   1      33.111  28.799  23.359  1.00  0.00     0.042 C 
BRANCH  24  25
ATOM     25  C   UNL A   1      33.371  28.949  24.852  1.00  0.00     0.118 C 
BRANCH  25  26
ATOM     26  N   UNL A   1      32.645  30.057  25.446  1.00  0.00    -0.352 N 
ATOM     27  C   UNL A   1      32.905  30.785  26.583  1.00  0.00     0.251 C 
ATOM     28  H   UNL A   1      31.838  30.333  24.954  1.00  0.00     0.163 HD
ATOM     29  O   UNL A   1      32.055  31.568  27.000  1.00  0.00    -0.269 OA
BRANCH  27  30
ATOM     30  C   UNL A   1      34.177  30.627  27.331  1.00  0.00     0.039 A 
ATOM     31  C   UNL A   1      34.920  31.773  27.636  1.00  0.00     0.014 A 
ATOM     32  C   UNL A   1      34.680  29.373  27.685  1.00  0.00     0.014 A 
ATOM     33  C   UNL A   1      36.125  31.665  28.338  1.00  0.00     0.010 A 
ATOM     34  C   UNL A   1      35.831  29.272  28.466  1.00  0.00     0.010 A 
ATOM     35  C   UNL A   1      36.577  30.415  28.787  1.00  0.00    -0.014 A 
BRANCH  35  36
ATOM     36  C   UNL A   1      37.842  30.282  29.560  1.00  0.00     0.031 A 
ATOM     37  C   UNL A   1      39.018  29.546  28.972  1.00  0.00     0.074 A 
ATOM     38  C   UNL A   1      37.922  30.777  30.811  1.00  0.00     0.049 A 
ATOM     39  N   UNL A   1      40.178  29.271  29.512  1.00  0.00    -0.248 NA
ATOM     40  C   UNL A   1      38.857  29.025  27.604  1.00  0.00     0.031 C 
ATOM     41  C   UNL A   1      36.846  31.474  31.518  1.00  0.00     0.029 A 
ATOM     42  N   UNL A   1      38.957  30.766  31.712  1.00  0.00    -0.354 N 
ATOM     43  C   UNL A   1      40.873  28.531  28.564  1.00  0.00     0.074 A 
ATOM     44  C   UNL A   1      39.987  28.354  27.434  1.00  0.00     0.031 C 
ATOM     45  C   UNL A   1      37.286  31.846  32.731  1.00  0.00     0.029 A 
ATOM     46  C   UNL A   1      38.660  31.385  32.903  1.00  0.00     0.049 A 
ATOM     47  H   UNL A   1      39.831  30.352  31.524  1.00  0.00     0.167 HD
ATOM     48  C   UNL A   1      42.143  28.061  28.614  1.00  0.00     0.037 A 
ATOM     49  C   UNL A   1      39.410  31.561  34.008  1.00  0.00     0.037 A 
ATOM     50  C   UNL A   1      43.043  28.270  29.718  1.00  0.00     0.049 A 
ATOM     51  C   UNL A   1      40.821  31.044  34.034  1.00  0.00     0.074 A 
ATOM     52  C   UNL A   1      44.368  27.888  29.835  1.00  0.00     0.029 A 
ATOM     53  N   UNL A   1      42.709  28.923  30.894  1.00  0.00    -0.354 N 
ATOM     54  N   UNL A   1      41.482  30.397  33.105  1.00  0.00    -0.248 NA
ATOM     55  C   UNL A   1      41.594  31.287  35.261  1.00  0.00     0.031 C 
ATOM     56  C   UNL A   1      44.827  28.280  31.098  1.00  0.00     0.029 A 
ATOM     57  C   UNL A   1      43.799  28.941  31.749  1.00  0.00     0.049 A 
ATOM     58  H   UNL A   1      41.828  29.316  31.092  1.00  0.00     0.167 HD
ATOM     59  C   UNL A   1      42.753  30.182  33.622  1.00  0.00     0.074 A 
ATOM     60  C   UNL A   1      42.775  30.777  34.942  1.00  0.00     0.031 C 
ATOM     61  C   UNL A   1      43.808  29.546  33.056  1.00  0.00     0.037 A 
BRANCH  48  62
ATOM     62  C   UNL A   1      42.638  27.280  27.431  1.00  0.00     0.057 A 
ATOM     63  C   UNL A   1      42.471  25.891  27.342  1.00  0.00     0.134 A 
ATOM     64  C   UNL A   1      43.262  27.925  26.357  1.00  0.00     0.134 A 
ATOM     65  F   UNL A   1      41.893  25.210  28.343  1.00  0.00    -0.206 F 
ATOM     66  C   UNL A   1      42.931  25.170  26.240  1.00  0.00     0.040 A 
ATOM     67  C   UNL A   1      43.702  27.218  25.237  1.00  0.00     0.040 A 
ATOM     68  F   UNL A   1      43.447  29.254  26.374  1.00  0.00    -0.206 F 
ATOM     69  C   UNL A   1      43.543  25.835  25.180  1.00  0.00     0.006 A 
ENDBRANCH  48  62
BRANCH  49  70
ATOM     70  C   UNL A   1      38.850  32.288  35.175  1.00  0.00     0.057 A 
ATOM     71  C   UNL A   1      38.309  31.594  36.263  1.00  0.00     0.134 A 
ATOM     72  C   UNL A   1      38.835  33.687  35.229  1.00  0.00     0.134 A 
ATOM     73  F   UNL A   1      38.280  30.253  36.260  1.00  0.00    -0.206 F 
ATOM     74  C   UNL A   1      37.755  32.263  37.356  1.00  0.00     0.040 A 
ATOM     75  C   UNL A   1      38.305  34.369  36.325  1.00  0.00     0.040 A 
ATOM     76  F   UNL A   1      39.349  34.410  34.223  1.00  0.00    -0.206 F 
ATOM     77  C   UNL A   1      37.756  33.656  37.389  1.00  0.00     0.006 A 
ENDBRANCH  49  70
BRANCH  61  78
ATOM     78  C   UNL A   1      45.082  29.492  33.846  1.00  0.00     0.057 A 
ATOM     79  C   UNL A   1      45.357  28.445  34.734  1.00  0.00     0.134 A 
ATOM     80  C   UNL A   1      46.060  30.483  33.689  1.00  0.00     0.134 A 
ATOM     81  F   UNL A   1      44.454  27.473  34.938  1.00  0.00    -0.206 F 
ATOM     82  C   UNL A   1      46.551  28.396  35.454  1.00  0.00     0.040 A 
ATOM     83  C   UNL A   1      47.268  30.433  34.385  1.00  0.00     0.040 A 
ATOM     84  F   UNL A   1      45.861  31.509  32.847  1.00  0.00    -0.206 F 
ATOM     85  C   UNL A   1      47.513  29.389  35.275  1.00  0.00     0.006 A 
ENDBRANCH  61  78
ENDBRANCH  35  36
ENDBRANCH  27  30
ENDBRANCH  25  26
ENDBRANCH  24  25
ENDBRANCH   1  24
TORSDOF 14
ENDMDL
MODEL 2
REMARK VINA RESULT:     -12.1      3.678      8.739
REMARK SMILES COc1ccc(C(=O)N2CC[C@@H](C(=O)NCCCNC(=O)c3ccc(-c4c5nc(c(-c6c(F)cccc6F)c6ccc([nH]6)c(-c6c(F)cccc6F)c6nc(c(-c7c(F)cccc7F)c7ccc4[nH]7)C=C6)C=C5)cc3)[C@H]2C)cc1O
REMARK SMILES IDX 16 1 15 2 13 3 14 4 12 6 9 7 10 8 76 9 11 10 77 11 7 12 8 13
REMARK SMILES IDX 6 14 3 15 4 16 79 17 5 18 78 19 2 20 1 21 80 22 17 24 18 25
REMARK SMILES IDX 19 26 20 27 21 29 22 30 23 31 75 32 24 33 74 34 25 35 26 36
REMARK SMILES IDX 27 37 68 38 28 39 73 40 67 41 69 42 29 43 72 44 66 45 65 46
REMARK SMILES IDX 30 48 56 49 39 50 55 51 40 52 43 53 54 54 70 55 41 56 42 57
REMARK SMILES IDX 53 59 71 60 44 61 31 62 32 63 37 64 33 65 34 66 36 67 38 68
REMARK SMILES IDX 35 69 57 70 58 71 63 72 59 73 60 74 62 75 64 76 61 77 45 78
REMARK SMILES IDX 46 79 51 80 47 81 48 82 50 83 52 84 49 85
REMARK H PARENT 15 5 80 23 19 28 69 47 43 58
REMARK Flexibility Score: inf
ROOT
ATOM      1  C   UNL A   1      35.811  20.781  25.088  1.00  0.00     0.117 C 
ENDROOT
BRANCH   1   2
ATOM      2  N   UNL A   1      35.802  21.850  24.102  1.00  0.00    -0.356 N 
ATOM      3  C   UNL A   1      34.845  22.709  23.677  1.00  0.00     0.225 C 
ATOM      4  O   UNL A   1      35.171  23.480  22.768  1.00  0.00    -0.275 OA
ATOM      5  H   UNL A   1      36.668  21.974  23.652  1.00  0.00     0.163 HD
BRANCH   3   6
ATOM      6  C   UNL A   1      33.435  22.777  24.240  1.00  0.00     0.102 C 
ATOM      7  N   UNL A   1      31.825  24.496  24.638  1.00  0.00    -0.335 N 
ATOM      8  C   UNL A   1      31.185  23.484  23.819  1.00  0.00     0.121 C 
ATOM      9  C   UNL A   1      33.067  23.935  25.196  1.00  0.00     0.094 C 
ATOM     10  C   UNL A   1      32.325  22.716  23.187  1.00  0.00     0.037 C 
ATOM     11  C   UNL A   1      34.182  24.902  25.552  1.00  0.00     0.032 C 
BRANCH   7  12
ATOM     12  C   UNL A   1      30.973  25.359  25.330  1.00  0.00     0.254 C 
ATOM     13  O   UNL A   1      30.399  25.029  26.366  1.00  0.00    -0.269 OA
BRANCH  12  14
ATOM     14  C   UNL A   1      30.650  26.682  24.737  1.00  0.00     0.043 A 
ATOM     15  C   UNL A   1      30.039  29.157  23.544  1.00  0.00     0.160 A 
ATOM     16  C   UNL A   1      29.260  28.026  23.274  1.00  0.00     0.051 A 
ATOM     17  C   UNL A   1      31.119  29.032  24.422  1.00  0.00     0.158 A 
ATOM     18  C   UNL A   1      29.559  26.796  23.869  1.00  0.00     0.018 A 
ATOM     19  C   UNL A   1      31.463  27.795  24.965  1.00  0.00     0.064 A 
BRANCH  15  20
ATOM     20  O   UNL A   1      29.610  30.308  22.943  1.00  0.00    -0.493 OA
ATOM     21  C   UNL A   1      28.977  30.179  21.674  1.00  0.00     0.278 C 
ENDBRANCH  15  20
BRANCH  17  22
ATOM     22  O   UNL A   1      31.847  30.099  24.865  1.00  0.00    -0.504 OA
ATOM     23  H   UNL A   1      32.491  29.983  25.535  1.00  0.00     0.293 HD
ENDBRANCH  17  22
ENDBRANCH  12  14
ENDBRANCH   7  12
ENDBRANCH   3   6
ENDBRANCH   1   2
BRANCH   1  24
ATOM     24  C   UNL A   1      37.029  19.867  24.950  1.00  0.00     0.042 C 
BRANCH  24  25
ATOM     25  C   UNL A   1      38.363  20.505  25.317  1.00  0.00     0.118 C 
BRANCH  25  26
ATOM     26  N   UNL A   1      39.423  19.533  25.509  1.00  0.00    -0.352 N 
ATOM     27  C   UNL A   1      40.704  19.693  25.982  1.00  0.00     0.251 C 
ATOM     28  H   UNL A   1      39.186  18.609  25.263  1.00  0.00     0.163 HD
ATOM     29  O   UNL A   1      41.497  18.759  25.893  1.00  0.00    -0.269 OA
BRANCH  27  30
ATOM     30  C   UNL A   1      41.157  20.977  26.573  1.00  0.00     0.039 A 
ATOM     31  C   UNL A   1      41.699  21.949  25.725  1.00  0.00     0.014 A 
ATOM     32  C   UNL A   1      41.114  21.217  27.948  1.00  0.00     0.014 A 
ATOM     33  C   UNL A   1      42.139  23.171  26.246  1.00  0.00     0.010 A 
ATOM     34  C   UNL A   1      41.464  22.468  28.456  1.00  0.00     0.010 A 
ATOM     35  C   UNL A   1      41.997  23.454  27.613  1.00  0.00    -0.014 A 
BRANCH  35  36
ATOM     36  C   UNL A   1      42.432  24.759  28.182  1.00  0.00     0.031 A 
ATOM     37  C   UNL A   1      41.427  25.856  28.421  1.00  0.00     0.074 A 
ATOM     38  C   UNL A   1      43.736  24.980  28.439  1.00  0.00     0.049 A 
ATOM     39  N   UNL A   1      41.621  27.079  28.848  1.00  0.00    -0.248 NA
ATOM     40  C   UNL A   1      40.022  25.547  28.111  1.00  0.00     0.031 C 
ATOM     41  C   UNL A   1      44.820  24.021  28.215  1.00  0.00     0.029 A 
ATOM     42  N   UNL A   1      44.373  26.088  28.942  1.00  0.00    -0.354 N 
ATOM     43  C   UNL A   1      40.372  27.687  28.837  1.00  0.00     0.074 A 
ATOM     44  C   UNL A   1      39.435  26.718  28.312  1.00  0.00     0.031 C 
ATOM     45  C   UNL A   1      45.981  24.572  28.603  1.00  0.00     0.029 A 
ATOM     46  C   UNL A   1      45.733  25.932  29.070  1.00  0.00     0.049 A 
ATOM     47  H   UNL A   1      43.900  26.916  29.187  1.00  0.00     0.167 HD
ATOM     48  C   UNL A   1      40.028  28.931  29.249  1.00  0.00     0.037 A 
ATOM     49  C   UNL A   1      46.673  26.789  29.514  1.00  0.00     0.037 A 
ATOM     50  C   UNL A   1      40.948  29.884  29.811  1.00  0.00     0.049 A 
ATOM     51  C   UNL A   1      46.264  28.158  29.980  1.00  0.00     0.074 A 
ATOM     52  C   UNL A   1      40.684  31.145  30.316  1.00  0.00     0.029 A 
ATOM     53  N   UNL A   1      42.312  29.677  29.945  1.00  0.00    -0.354 N 
ATOM     54  N   UNL A   1      45.069  28.697  30.018  1.00  0.00    -0.248 NA
ATOM     55  C   UNL A   1      47.334  29.038  30.473  1.00  0.00     0.031 C 
ATOM     56  C   UNL A   1      41.894  31.716  30.725  1.00  0.00     0.029 A 
ATOM     57  C   UNL A   1      42.905  30.794  30.511  1.00  0.00     0.049 A 
ATOM     58  H   UNL A   1      42.789  28.859  29.678  1.00  0.00     0.167 HD
ATOM     59  C   UNL A   1      45.239  29.963  30.563  1.00  0.00     0.074 A 
ATOM     60  C   UNL A   1      46.651  30.109  30.852  1.00  0.00     0.031 C 
ATOM     61  C   UNL A   1      44.310  30.921  30.801  1.00  0.00     0.037 A 
BRANCH  48  62
ATOM     62  C   UNL A   1      38.586  29.329  29.117  1.00  0.00     0.057 A 
ATOM     63  C   UNL A   1      38.045  29.743  27.892  1.00  0.00     0.134 A 
ATOM     64  C   UNL A   1      37.722  29.269  30.216  1.00  0.00     0.134 A 
ATOM     65  F   UNL A   1      38.821  29.834  26.801  1.00  0.00    -0.206 F 
ATOM     66  C   UNL A   1      36.703  30.109  27.773  1.00  0.00     0.040 A 
ATOM     67  C   UNL A   1      36.372  29.607  30.104  1.00  0.00     0.040 A 
ATOM     68  F   UNL A   1      38.173  28.873  31.417  1.00  0.00    -0.206 F 
ATOM     69  C   UNL A   1      35.862  30.035  28.881  1.00  0.00     0.006 A 
ENDBRANCH  48  62
BRANCH  49  70
ATOM     70  C   UNL A   1      48.094  26.366  29.567  1.00  0.00     0.057 A 
ATOM     71  C   UNL A   1      48.946  26.564  28.473  1.00  0.00     0.134 A 
ATOM     72  C   UNL A   1      48.635  25.751  30.702  1.00  0.00     0.134 A 
ATOM     73  F   UNL A   1      48.480  27.133  27.351  1.00  0.00    -0.206 F 
ATOM     74  C   UNL A   1      50.277  26.149  28.498  1.00  0.00     0.040 A 
ATOM     75  C   UNL A   1      49.971  25.350  30.750  1.00  0.00     0.040 A 
ATOM     76  F   UNL A   1      47.874  25.544  31.787  1.00  0.00    -0.206 F 
ATOM     77  C   UNL A   1      50.794  25.542  29.642  1.00  0.00     0.006 A 
ENDBRANCH  49  70
BRANCH  61  78
ATOM     78  C   UNL A   1      44.784  32.195  31.435  1.00  0.00     0.057 A 
ATOM     79  C   UNL A   1      44.847  32.350  32.825  1.00  0.00     0.134 A 
ATOM     80  C   UNL A   1      45.215  33.267  30.643  1.00  0.00     0.134 A 
ATOM     81  F   UNL A   1      44.436  31.364  33.637  1.00  0.00    -0.206 F 
ATOM     82  C   UNL A   1      45.303  33.534  33.405  1.00  0.00     0.040 A 
ATOM     83  C   UNL A   1      45.695  34.448  31.211  1.00  0.00     0.040 A 
ATOM     84  F   UNL A   1      45.187  33.179  29.304  1.00  0.00    -0.206 F 
ATOM     85  C   UNL A   1      45.734  34.585  32.598  1.00  0.00     0.006 A 
ENDBRANCH  61  78
ENDBRANCH  35  36
ENDBRANCH  27  30
ENDBRANCH  25  26
ENDBRANCH  24  25
ENDBRANCH   1  24
TORSDOF 14
ENDMDL
MODEL 3
REMARK VINA RESULT:     -12.1      3.127      6.857
REMARK SMILES COc1ccc(C(=O)N2CC[C@@H](C(=O)NCCCNC(=O)c3ccc(-c4c5nc(c(-c6c(F)cccc6F)c6ccc([nH]6)c(-c6c(F)cccc6F)c6nc(c(-c7c(F)cccc7F)c7ccc4[nH]7)C=C6)C=C5)cc3)[C@H]2C)cc1O
REMARK SMILES IDX 16 1 15 2 13 3 14 4 12 6 9 7 10 8 76 9 11 10 77 11 7 12 8 13
REMARK SMILES IDX 6 14 3 15 4 16 79 17 5 18 78 19 2 20 1 21 80 22 17 24 18 25
REMARK SMILES IDX 19 26 20 27 21 29 22 30 23 31 75 32 24 33 74 34 25 35 26 36
REMARK SMILES IDX 27 37 68 38 28 39 73 40 67 41 69 42 29 43 72 44 66 45 65 46
REMARK SMILES IDX 30 48 56 49 39 50 55 51 40 52 43 53 54 54 70 55 41 56 42 57
REMARK SMILES IDX 53 59 71 60 44 61 31 62 32 63 37 64 33 65 34 66 36 67 38 68
REMARK SMILES IDX 35 69 57 70 58 71 63 72 59 73 60 74 62 75 64 76 61 77 45 78
REMARK SMILES IDX 46 79 51 80 47 81 48 82 50 83 52 84 49 85
REMARK H PARENT 15 5 80 23 19 28 69 47 43 58
REMARK Flexibility Score: inf
ROOT
ATOM      1  C   UNL A   1      31.752  28.251  25.624  1.00  0.00     0.117 C 
ENDROOT
BRANCH   1   2
ATOM      2  N   UNL A   1      30.964  27.179  26.211  1.00  0.00    -0.356 N 
ATOM      3  C   UNL A   1      30.740  25.891  25.853  1.00  0.00     0.225 C 
ATOM      4  O   UNL A   1      29.960  25.255  26.571  1.00  0.00    -0.275 OA
ATOM      5  H   UNL A   1      30.497  27.442  27.036  1.00  0.00     0.163 HD
BRANCH   3   6
ATOM      6  C   UNL A   1      31.377  25.205  24.656  1.00  0.00     0.102 C 
ATOM      7  N   UNL A   1      32.339  23.063  24.213  1.00  0.00    -0.335 N 
ATOM      8  C   UNL A   1      31.303  23.286  23.223  1.00  0.00     0.121 C 
ATOM      9  C   UNL A   1      32.643  24.345  24.874  1.00  0.00     0.094 C 
ATOM     10  C   UNL A   1      30.415  24.355  23.821  1.00  0.00     0.037 C 
ATOM     11  C   UNL A   1      33.196  24.297  26.287  1.00  0.00     0.032 C 
BRANCH   7  12
ATOM     12  C   UNL A   1      33.295  22.096  23.899  1.00  0.00     0.254 C 
ATOM     13  O   UNL A   1      34.351  22.371  23.332  1.00  0.00    -0.269 OA
BRANCH  12  14
ATOM     14  C   UNL A   1      32.982  20.665  24.149  1.00  0.00     0.043 A 
ATOM     15  C   UNL A   1      32.457  17.947  24.655  1.00  0.00     0.160 A 
ATOM     16  C   UNL A   1      32.843  18.801  25.693  1.00  0.00     0.051 A 
ATOM     17  C   UNL A   1      32.331  18.474  23.366  1.00  0.00     0.158 A 
ATOM     18  C   UNL A   1      33.101  20.154  25.445  1.00  0.00     0.018 A 
ATOM     19  C   UNL A   1      32.651  19.804  23.101  1.00  0.00     0.064 A 
BRANCH  15  20
ATOM     20  O   UNL A   1      32.182  16.663  25.037  1.00  0.00    -0.493 OA
ATOM     21  C   UNL A   1      33.295  15.828  25.346  1.00  0.00     0.278 C 
ENDBRANCH  15  20
BRANCH  17  22
ATOM     22  O   UNL A   1      31.819  17.764  22.317  1.00  0.00    -0.504 OA
ATOM     23  H   UNL A   1      32.126  17.924  21.448  1.00  0.00     0.293 HD
ENDBRANCH  17  22
ENDBRANCH  12  14
ENDBRANCH   7  12
ENDBRANCH   3   6
ENDBRANCH   1   2
BRANCH   1  24
ATOM     24  C   UNL A   1      33.253  28.057  25.837  1.00  0.00     0.042 C 
BRANCH  24  25
ATOM     25  C   UNL A   1      33.750  28.346  27.248  1.00  0.00     0.118 C 
BRANCH  25  26
ATOM     26  N   UNL A   1      33.685  29.754  27.594  1.00  0.00    -0.352 N 
ATOM     27  C   UNL A   1      34.618  30.569  28.192  1.00  0.00     0.251 C 
ATOM     28  H   UNL A   1      32.837  30.198  27.363  1.00  0.00     0.163 HD
ATOM     29  O   UNL A   1      34.285  31.693  28.557  1.00  0.00    -0.269 OA
BRANCH  27  30
ATOM     30  C   UNL A   1      36.010  30.110  28.428  1.00  0.00     0.039 A 
ATOM     31  C   UNL A   1      36.934  30.214  27.382  1.00  0.00     0.014 A 
ATOM     32  C   UNL A   1      36.405  29.529  29.634  1.00  0.00     0.014 A 
ATOM     33  C   UNL A   1      38.254  29.791  27.565  1.00  0.00     0.010 A 
ATOM     34  C   UNL A   1      37.743  29.194  29.849  1.00  0.00     0.010 A 
ATOM     35  C   UNL A   1      38.679  29.305  28.812  1.00  0.00    -0.014 A 
BRANCH  35  36
ATOM     36  C   UNL A   1      40.087  28.876  29.035  1.00  0.00     0.031 A 
ATOM     37  C   UNL A   1      41.071  29.813  29.689  1.00  0.00     0.074 A 
ATOM     38  C   UNL A   1      40.499  27.666  28.610  1.00  0.00     0.049 A 
ATOM     39  N   UNL A   1      42.351  29.647  29.911  1.00  0.00    -0.248 NA
ATOM     40  C   UNL A   1      40.554  31.121  30.122  1.00  0.00     0.031 C 
ATOM     41  C   UNL A   1      39.663  26.678  27.925  1.00  0.00     0.029 A 
ATOM     42  N   UNL A   1      41.730  27.062  28.686  1.00  0.00    -0.354 N 
ATOM     43  C   UNL A   1      42.792  30.831  30.488  1.00  0.00     0.074 A 
ATOM     44  C   UNL A   1      41.658  31.727  30.534  1.00  0.00     0.031 C 
ATOM     45  C   UNL A   1      40.397  25.583  27.669  1.00  0.00     0.029 A 
ATOM     46  C   UNL A   1      41.762  25.803  28.137  1.00  0.00     0.049 A 
ATOM     47  H   UNL A   1      42.516  27.492  29.095  1.00  0.00     0.167 HD
ATOM     48  C   UNL A   1      44.024  31.139  30.961  1.00  0.00     0.037 A 
ATOM     49  C   UNL A   1      42.776  24.924  28.024  1.00  0.00     0.037 A 
ATOM     50  C   UNL A   1      45.145  30.237  30.956  1.00  0.00     0.049 A 
ATOM     51  C   UNL A   1      44.130  25.283  28.570  1.00  0.00     0.074 A 
ATOM     52  C   UNL A   1      46.415  30.435  31.470  1.00  0.00     0.029 A 
ATOM     53  N   UNL A   1      45.128  28.962  30.413  1.00  0.00    -0.354 N 
ATOM     54  N   UNL A   1      44.515  26.386  29.166  1.00  0.00    -0.248 NA
ATOM     55  C   UNL A   1      45.189  24.272  28.435  1.00  0.00     0.031 C 
ATOM     56  C   UNL A   1      47.177  29.291  31.207  1.00  0.00     0.029 A 
ATOM     57  C   UNL A   1      46.370  28.367  30.565  1.00  0.00     0.049 A 
ATOM     58  H   UNL A   1      44.349  28.541  29.982  1.00  0.00     0.167 HD
ATOM     59  C   UNL A   1      45.849  26.191  29.501  1.00  0.00     0.074 A 
ATOM     60  C   UNL A   1      46.204  24.860  29.053  1.00  0.00     0.031 C 
ATOM     61  C   UNL A   1      46.705  27.039  30.122  1.00  0.00     0.037 A 
BRANCH  48  62
ATOM     62  C   UNL A   1      44.220  32.513  31.536  1.00  0.00     0.057 A 
ATOM     63  C   UNL A   1      44.637  33.591  30.744  1.00  0.00     0.134 A 
ATOM     64  C   UNL A   1      43.960  32.767  32.887  1.00  0.00     0.134 A 
ATOM     65  F   UNL A   1      44.915  33.412  29.443  1.00  0.00    -0.206 F 
ATOM     66  C   UNL A   1      44.815  34.867  31.282  1.00  0.00     0.040 A 
ATOM     67  C   UNL A   1      44.108  34.044  33.432  1.00  0.00     0.040 A 
ATOM     68  F   UNL A   1      43.550  31.782  33.701  1.00  0.00    -0.206 F 
ATOM     69  C   UNL A   1      44.544  35.096  32.629  1.00  0.00     0.006 A 
ENDBRANCH  48  62
BRANCH  49  70
ATOM     70  C   UNL A   1      42.544  23.602  27.391  1.00  0.00     0.057 A 
ATOM     71  C   UNL A   1      42.229  22.478  28.166  1.00  0.00     0.134 A 
ATOM     72  C   UNL A   1      42.637  23.424  26.006  1.00  0.00     0.134 A 
ATOM     73  F   UNL A   1      42.143  22.583  29.501  1.00  0.00    -0.206 F 
ATOM     74  C   UNL A   1      42.034  21.223  27.589  1.00  0.00     0.040 A 
ATOM     75  C   UNL A   1      42.423  22.179  25.413  1.00  0.00     0.040 A 
ATOM     76  F   UNL A   1      42.923  24.463  25.208  1.00  0.00    -0.206 F 
ATOM     77  C   UNL A   1      42.127  21.073  26.207  1.00  0.00     0.006 A 
ENDBRANCH  49  70
BRANCH  61  78
ATOM     78  C   UNL A   1      48.095  26.541  30.385  1.00  0.00     0.057 A 
ATOM     79  C   UNL A   1      49.143  26.767  29.484  1.00  0.00     0.134 A 
ATOM     80  C   UNL A   1      48.395  25.857  31.570  1.00  0.00     0.134 A 
ATOM     81  F   UNL A   1      48.916  27.404  28.325  1.00  0.00    -0.206 F 
ATOM     82  C   UNL A   1      50.437  26.312  29.743  1.00  0.00     0.040 A 
ATOM     83  C   UNL A   1      49.690  25.418  31.851  1.00  0.00     0.040 A 
ATOM     84  F   UNL A   1      47.437  25.615  32.478  1.00  0.00    -0.206 F 
ATOM     85  C   UNL A   1      50.714  25.641  30.933  1.00  0.00     0.006 A 
ENDBRANCH  61  78
ENDBRANCH  35  36
ENDBRANCH  27  30
ENDBRANCH  25  26
ENDBRANCH  24  25
ENDBRANCH   1  24
TORSDOF 14
ENDMDL
