MODEL 1
REMARK VINA RESULT:     -11.8      0.000      0.000
REMARK SMILES C[C@@H]1CCC[C@H](Oc2ccc(F)cc2C(=O)NCCCNC(=O)c2ccc(-c3c4nc(c(-c5c(F)cccc5F)c5ccc([nH]5)c(-c5c(F)cccc5F)c5nc(c(-c6c(F)cccc6F)c6ccc3[nH]6)C=C5)C=C4)cc2)C1
REMARK SMILES IDX 19 1 18 2 17 3 15 4 16 5 14 7 8 8 9 9 10 10 13 11 11 12
REMARK SMILES IDX 12 13 7 14 6 15 1 16 2 17 3 18 78 19 4 20 5 21 20 22 21 23
REMARK SMILES IDX 22 24 23 26 24 27 25 28 77 29 26 30 76 31 27 32 28 33 29 34
REMARK SMILES IDX 70 35 30 36 75 37 69 38 71 39 31 40 74 41 68 42 67 43 32 45
REMARK SMILES IDX 58 46 41 47 57 48 42 49 45 50 56 51 72 52 43 53 44 54 55 56
REMARK SMILES IDX 73 57 46 58 33 59 34 60 39 61 35 62 36 63 38 64 40 65 37 66
REMARK SMILES IDX 59 67 60 68 65 69 61 70 62 71 64 72 66 73 63 74 47 75 48 76
REMARK SMILES IDX 53 77 49 78 50 79 52 80 54 81 51 82
REMARK H PARENT 17 6 21 25 71 44 45 55
REMARK Flexibility Score: inf
ROOT
ATOM      1  C   UNL A   1      33.304  27.924  26.894  1.00  0.00     0.042 C 
ENDROOT
BRANCH   1   2
ATOM      2  C   UNL A   1      31.889  28.227  27.383  1.00  0.00     0.118 C 
BRANCH   2   3
ATOM      3  N   UNL A   1      31.030  27.082  27.174  1.00  0.00    -0.352 N 
ATOM      4  C   UNL A   1      30.626  26.291  26.141  1.00  0.00     0.255 C 
ATOM      5  O   UNL A   1      29.792  25.446  26.501  1.00  0.00    -0.269 OA
ATOM      6  H   UNL A   1      30.618  26.793  28.020  1.00  0.00     0.163 HD
BRANCH   4   7
ATOM      7  C   UNL A   1      31.066  26.264  24.702  1.00  0.00     0.084 A 
ATOM      8  C   UNL A   1      31.837  25.337  23.979  1.00  0.00     0.132 A 
ATOM      9  C   UNL A   1      31.903  25.432  22.574  1.00  0.00     0.050 A 
ATOM     10  C   UNL A   1      31.410  26.537  21.890  1.00  0.00     0.043 A 
ATOM     11  C   UNL A   1      30.585  27.387  23.977  1.00  0.00     0.057 A 
ATOM     12  C   UNL A   1      30.783  27.529  22.609  1.00  0.00     0.124 A 
ATOM     13  F   UNL A   1      30.338  28.625  21.982  1.00  0.00    -0.207 F 
BRANCH   8  14
ATOM     14  O   UNL A   1      32.437  24.251  24.523  1.00  0.00    -0.490 OA
BRANCH  14  15
ATOM     15  C   UNL A   1      33.455  24.394  25.540  1.00  0.00     0.173 C 
ATOM     16  C   UNL A   1      35.868  23.063  23.503  1.00  0.00     0.008 C 
ATOM     17  C   UNL A   1      35.903  23.723  24.880  1.00  0.00    -0.011 C 
ATOM     18  C   UNL A   1      35.884  22.701  26.019  1.00  0.00     0.003 C 
ATOM     19  C   UNL A   1      34.840  24.814  25.039  1.00  0.00     0.048 C 
ATOM     20  C   UNL A   1      34.493  22.210  26.403  1.00  0.00     0.004 C 
ATOM     21  C   UNL A   1      33.506  23.347  26.655  1.00  0.00     0.045 C 
ENDBRANCH  14  15
ENDBRANCH   8  14
ENDBRANCH   4   7
ENDBRANCH   2   3
ENDBRANCH   1   2
BRANCH   1  22
ATOM     22  C   UNL A   1      33.819  28.978  25.928  1.00  0.00     0.118 C 
BRANCH  22  23
ATOM     23  N   UNL A   1      33.772  30.316  26.507  1.00  0.00    -0.352 N 
ATOM     24  C   UNL A   1      34.489  30.908  27.513  1.00  0.00     0.251 C 
ATOM     25  H   UNL A   1      33.097  30.904  26.098  1.00  0.00     0.163 HD
ATOM     26  O   UNL A   1      34.060  31.963  27.996  1.00  0.00    -0.269 OA
BRANCH  24  27
ATOM     27  C   UNL A   1      35.737  30.323  28.052  1.00  0.00     0.039 A 
ATOM     28  C   UNL A   1      36.888  30.328  27.252  1.00  0.00     0.014 A 
ATOM     29  C   UNL A   1      35.785  29.701  29.297  1.00  0.00     0.014 A 
ATOM     30  C   UNL A   1      38.076  29.764  27.724  1.00  0.00     0.010 A 
ATOM     31  C   UNL A   1      36.998  29.264  29.822  1.00  0.00     0.010 A 
ATOM     32  C   UNL A   1      38.153  29.262  29.032  1.00  0.00    -0.014 A 
BRANCH  32  33
ATOM     33  C   UNL A   1      39.409  28.686  29.583  1.00  0.00     0.031 A 
ATOM     34  C   UNL A   1      40.044  29.288  30.811  1.00  0.00     0.074 A 
ATOM     35  C   UNL A   1      40.012  27.661  28.950  1.00  0.00     0.049 A 
ATOM     36  N   UNL A   1      41.183  28.993  31.384  1.00  0.00    -0.248 NA
ATOM     37  C   UNL A   1      39.320  30.393  31.461  1.00  0.00     0.031 C 
ATOM     38  C   UNL A   1      39.521  27.009  27.735  1.00  0.00     0.029 A 
ATOM     39  N   UNL A   1      41.169  26.984  29.244  1.00  0.00    -0.354 N 
ATOM     40  C   UNL A   1      41.315  29.883  32.443  1.00  0.00     0.074 A 
ATOM     41  C   UNL A   1      40.183  30.779  32.388  1.00  0.00     0.031 C 
ATOM     42  C   UNL A   1      40.340  25.995  27.418  1.00  0.00     0.029 A 
ATOM     43  C   UNL A   1      41.443  25.958  28.373  1.00  0.00     0.049 A 
ATOM     44  H   UNL A   1      41.748  27.213  30.006  1.00  0.00     0.167 HD
ATOM     45  C   UNL A   1      42.270  29.928  33.401  1.00  0.00     0.037 A 
ATOM     46  C   UNL A   1      42.465  25.082  28.347  1.00  0.00     0.037 A 
ATOM     47  C   UNL A   1      43.378  29.013  33.475  1.00  0.00     0.049 A 
ATOM     48  C   UNL A   1      43.533  25.167  29.401  1.00  0.00     0.074 A 
ATOM     49  C   UNL A   1      44.380  28.950  34.427  1.00  0.00     0.029 A 
ATOM     50  N   UNL A   1      43.624  27.998  32.564  1.00  0.00    -0.354 N 
ATOM     51  N   UNL A   1      43.627  25.995  30.414  1.00  0.00    -0.248 NA
ATOM     52  C   UNL A   1      44.636  24.201  29.309  1.00  0.00     0.031 C 
ATOM     53  C   UNL A   1      45.258  27.923  34.067  1.00  0.00     0.029 A 
ATOM     54  C   UNL A   1      44.773  27.312  32.921  1.00  0.00     0.049 A 
ATOM     55  H   UNL A   1      43.066  27.793  31.778  1.00  0.00     0.167 HD
ATOM     56  C   UNL A   1      44.784  25.634  31.093  1.00  0.00     0.074 A 
ATOM     57  C   UNL A   1      45.352  24.507  30.383  1.00  0.00     0.031 C 
ATOM     58  C   UNL A   1      45.323  26.188  32.206  1.00  0.00     0.037 A 
BRANCH  45  59
ATOM     59  C   UNL A   1      42.143  30.985  34.461  1.00  0.00     0.057 A 
ATOM     60  C   UNL A   1      42.774  32.227  34.320  1.00  0.00     0.134 A 
ATOM     61  C   UNL A   1      41.421  30.761  35.642  1.00  0.00     0.134 A 
ATOM     62  F   UNL A   1      43.487  32.508  33.219  1.00  0.00    -0.206 F 
ATOM     63  C   UNL A   1      42.695  33.205  35.313  1.00  0.00     0.040 A 
ATOM     64  C   UNL A   1      41.308  31.742  36.629  1.00  0.00     0.040 A 
ATOM     65  F   UNL A   1      40.781  29.598  35.837  1.00  0.00    -0.206 F 
ATOM     66  C   UNL A   1      41.953  32.965  36.469  1.00  0.00     0.006 A 
ENDBRANCH  45  59
BRANCH  46  67
ATOM     67  C   UNL A   1      42.488  24.016  27.315  1.00  0.00     0.057 A 
ATOM     68  C   UNL A   1      41.984  22.733  27.563  1.00  0.00     0.134 A 
ATOM     69  C   UNL A   1      43.070  24.248  26.063  1.00  0.00     0.134 A 
ATOM     70  F   UNL A   1      41.423  22.444  28.747  1.00  0.00    -0.206 F 
ATOM     71  C   UNL A   1      42.079  21.714  26.615  1.00  0.00     0.040 A 
ATOM     72  C   UNL A   1      43.152  23.245  25.097  1.00  0.00     0.040 A 
ATOM     73  F   UNL A   1      43.558  25.460  25.761  1.00  0.00    -0.206 F 
ATOM     74  C   UNL A   1      42.663  21.970  25.375  1.00  0.00     0.006 A 
ENDBRANCH  46  67
BRANCH  58  75
ATOM     75  C   UNL A   1      46.582  25.578  32.749  1.00  0.00     0.057 A 
ATOM     76  C   UNL A   1      46.528  24.640  33.788  1.00  0.00     0.134 A 
ATOM     77  C   UNL A   1      47.847  25.986  32.310  1.00  0.00     0.134 A 
ATOM     78  F   UNL A   1      45.345  24.216  34.263  1.00  0.00    -0.206 F 
ATOM     79  C   UNL A   1      47.687  24.144  34.386  1.00  0.00     0.040 A 
ATOM     80  C   UNL A   1      49.015  25.477  32.881  1.00  0.00     0.040 A 
ATOM     81  F   UNL A   1      47.967  26.874  31.312  1.00  0.00    -0.206 F 
ATOM     82  C   UNL A   1      48.935  24.562  33.931  1.00  0.00     0.006 A 
ENDBRANCH  58  75
ENDBRANCH  32  33
ENDBRANCH  24  27
ENDBRANCH  22  23
ENDBRANCH   1  22
TORSDOF 12
ENDMDL
MODEL 2
REMARK VINA RESULT:     -11.8      3.520      8.154
REMARK SMILES C[C@@H]1CCC[C@H](Oc2ccc(F)cc2C(=O)NCCCNC(=O)c2ccc(-c3c4nc(c(-c5c(F)cccc5F)c5ccc([nH]5)c(-c5c(F)cccc5F)c5nc(c(-c6c(F)cccc6F)c6ccc3[nH]6)C=C5)C=C4)cc2)C1
REMARK SMILES IDX 19 1 18 2 17 3 15 4 16 5 14 7 8 8 9 9 10 10 13 11 11 12
REMARK SMILES IDX 12 13 7 14 6 15 1 16 2 17 3 18 78 19 4 20 5 21 20 22 21 23
REMARK SMILES IDX 22 24 23 26 24 27 25 28 77 29 26 30 76 31 27 32 28 33 29 34
REMARK SMILES IDX 70 35 30 36 75 37 69 38 71 39 31 40 74 41 68 42 67 43 32 45
REMARK SMILES IDX 58 46 41 47 57 48 42 49 45 50 56 51 72 52 43 53 44 54 55 56
REMARK SMILES IDX 73 57 46 58 33 59 34 60 39 61 35 62 36 63 38 64 40 65 37 66
REMARK SMILES IDX 59 67 60 68 65 69 61 70 62 71 64 72 66 73 63 74 47 75 48 76
REMARK SMILES IDX 53 77 49 78 50 79 52 80 54 81 51 82
REMARK H PARENT 17 6 21 25 71 44 45 55
REMARK Flexibility Score: inf
ROOT
ATOM      1  C   UNL A   1      38.097  19.608  24.691  1.00  0.00     0.042 C 
ENDROOT
BRANCH   1   2
ATOM      2  C   UNL A   1      37.256  20.849  24.400  1.00  0.00     0.118 C 
BRANCH   2   3
ATOM      3  N   UNL A   1      36.247  21.022  25.421  1.00  0.00    -0.352 N 
ATOM      4  C   UNL A   1      34.924  20.749  25.599  1.00  0.00     0.255 C 
ATOM      5  O   UNL A   1      34.501  21.181  26.682  1.00  0.00    -0.269 OA
ATOM      6  H   UNL A   1      36.623  21.465  26.216  1.00  0.00     0.163 HD
BRANCH   4   7
ATOM      7  C   UNL A   1      33.959  19.988  24.730  1.00  0.00     0.084 A 
ATOM      8  C   UNL A   1      32.761  20.375  24.106  1.00  0.00     0.132 A 
ATOM      9  C   UNL A   1      32.169  19.527  23.148  1.00  0.00     0.050 A 
ATOM     10  C   UNL A   1      32.609  18.222  22.952  1.00  0.00     0.043 A 
ATOM     11  C   UNL A   1      34.376  18.646  24.520  1.00  0.00     0.057 A 
ATOM     12  C   UNL A   1      33.695  17.780  23.673  1.00  0.00     0.124 A 
ATOM     13  F   UNL A   1      34.112  16.515  23.537  1.00  0.00    -0.207 F 
BRANCH   8  14
ATOM     14  O   UNL A   1      32.175  21.587  24.258  1.00  0.00    -0.490 OA
BRANCH  14  15
ATOM     15  C   UNL A   1      32.152  22.544  23.174  1.00  0.00     0.173 C 
ATOM     16  C   UNL A   1      34.826  24.261  24.459  1.00  0.00     0.008 C 
ATOM     17  C   UNL A   1      34.043  24.362  23.151  1.00  0.00    -0.011 C 
ATOM     18  C   UNL A   1      32.952  25.435  23.204  1.00  0.00     0.003 C 
ATOM     19  C   UNL A   1      33.523  23.005  22.667  1.00  0.00     0.048 C 
ATOM     20  C   UNL A   1      31.643  24.972  23.833  1.00  0.00     0.004 C 
ATOM     21  C   UNL A   1      31.118  23.671  23.233  1.00  0.00     0.045 C 
ENDBRANCH  14  15
ENDBRANCH   8  14
ENDBRANCH   4   7
ENDBRANCH   2   3
ENDBRANCH   1   2
BRANCH   1  22
ATOM     22  C   UNL A   1      38.910  19.748  25.968  1.00  0.00     0.118 C 
BRANCH  22  23
ATOM     23  N   UNL A   1      40.212  19.101  25.859  1.00  0.00    -0.352 N 
ATOM     24  C   UNL A   1      41.490  19.584  25.962  1.00  0.00     0.251 C 
ATOM     25  H   UNL A   1      40.164  18.135  25.675  1.00  0.00     0.163 HD
ATOM     26  O   UNL A   1      42.418  18.878  25.550  1.00  0.00    -0.269 OA
BRANCH  24  27
ATOM     27  C   UNL A   1      41.794  20.918  26.526  1.00  0.00     0.039 A 
ATOM     28  C   UNL A   1      42.137  21.960  25.653  1.00  0.00     0.014 A 
ATOM     29  C   UNL A   1      41.825  21.151  27.899  1.00  0.00     0.014 A 
ATOM     30  C   UNL A   1      42.451  23.226  26.157  1.00  0.00     0.010 A 
ATOM     31  C   UNL A   1      42.001  22.441  28.392  1.00  0.00     0.010 A 
ATOM     32  C   UNL A   1      42.346  23.489  27.532  1.00  0.00    -0.014 A 
BRANCH  32  33
ATOM     33  C   UNL A   1      42.638  24.831  28.102  1.00  0.00     0.031 A 
ATOM     34  C   UNL A   1      44.047  25.197  28.496  1.00  0.00     0.074 A 
ATOM     35  C   UNL A   1      41.633  25.701  28.322  1.00  0.00     0.049 A 
ATOM     36  N   UNL A   1      44.486  26.274  29.096  1.00  0.00    -0.248 NA
ATOM     37  C   UNL A   1      45.097  24.205  28.210  1.00  0.00     0.031 C 
ATOM     38  C   UNL A   1      40.221  25.459  28.017  1.00  0.00     0.029 A 
ATOM     39  N   UNL A   1      41.645  26.968  28.849  1.00  0.00    -0.354 N 
ATOM     40  C   UNL A   1      45.851  26.078  29.271  1.00  0.00     0.074 A 
ATOM     41  C   UNL A   1      46.155  24.751  28.788  1.00  0.00     0.031 C 
ATOM     42  C   UNL A   1      39.513  26.558  28.314  1.00  0.00     0.029 A 
ATOM     43  C   UNL A   1      40.407  27.563  28.878  1.00  0.00     0.049 A 
ATOM     44  H   UNL A   1      42.462  27.407  29.176  1.00  0.00     0.167 HD
ATOM     45  C   UNL A   1      46.777  26.939  29.754  1.00  0.00     0.037 A 
ATOM     46  C   UNL A   1      40.034  28.783  29.309  1.00  0.00     0.037 A 
ATOM     47  C   UNL A   1      46.478  28.273  30.202  1.00  0.00     0.049 A 
ATOM     48  C   UNL A   1      41.072  29.714  29.870  1.00  0.00     0.074 A 
ATOM     49  C   UNL A   1      47.350  29.238  30.674  1.00  0.00     0.029 A 
ATOM     50  N   UNL A   1      45.209  28.830  30.228  1.00  0.00    -0.354 N 
ATOM     51  N   UNL A   1      42.363  29.526  30.001  1.00  0.00    -0.248 NA
ATOM     52  C   UNL A   1      40.603  31.023  30.346  1.00  0.00     0.031 C 
ATOM     53  C   UNL A   1      46.602  30.365  31.027  1.00  0.00     0.029 A 
ATOM     54  C   UNL A   1      45.272  30.122  30.724  1.00  0.00     0.049 A 
ATOM     55  H   UNL A   1      44.385  28.377  29.937  1.00  0.00     0.167 HD
ATOM     56  C   UNL A   1      42.864  30.700  30.549  1.00  0.00     0.074 A 
ATOM     57  C   UNL A   1      41.740  31.597  30.718  1.00  0.00     0.031 C 
ATOM     58  C   UNL A   1      44.143  31.005  30.880  1.00  0.00     0.037 A 
BRANCH  45  59
ATOM     59  C   UNL A   1      48.204  26.473  29.796  1.00  0.00     0.057 A 
ATOM     60  C   UNL A   1      48.715  25.816  30.922  1.00  0.00     0.134 A 
ATOM     61  C   UNL A   1      49.087  26.705  28.732  1.00  0.00     0.134 A 
ATOM     62  F   UNL A   1      47.929  25.565  31.981  1.00  0.00    -0.206 F 
ATOM     63  C   UNL A   1      50.049  25.410  30.990  1.00  0.00     0.040 A 
ATOM     64  C   UNL A   1      50.415  26.277  28.774  1.00  0.00     0.040 A 
ATOM     65  F   UNL A   1      48.661  27.318  27.617  1.00  0.00    -0.206 F 
ATOM     66  C   UNL A   1      50.901  25.634  29.909  1.00  0.00     0.006 A 
ENDBRANCH  45  59
BRANCH  46  67
ATOM     67  C   UNL A   1      38.618  29.206  29.168  1.00  0.00     0.057 A 
ATOM     68  C   UNL A   1      38.107  29.691  27.958  1.00  0.00     0.134 A 
ATOM     69  C   UNL A   1      37.755  29.184  30.270  1.00  0.00     0.134 A 
ATOM     70  F   UNL A   1      38.887  29.748  26.868  1.00  0.00    -0.206 F 
ATOM     71  C   UNL A   1      36.797  30.160  27.854  1.00  0.00     0.040 A 
ATOM     72  C   UNL A   1      36.436  29.628  30.175  1.00  0.00     0.040 A 
ATOM     73  F   UNL A   1      38.183  28.717  31.452  1.00  0.00    -0.206 F 
ATOM     74  C   UNL A   1      35.956  30.126  28.965  1.00  0.00     0.006 A 
ENDBRANCH  46  67
BRANCH  58  75
ATOM     75  C   UNL A   1      44.412  32.370  31.440  1.00  0.00     0.057 A 
ATOM     76  C   UNL A   1      44.329  32.604  32.819  1.00  0.00     0.134 A 
ATOM     77  C   UNL A   1      44.660  33.471  30.611  1.00  0.00     0.134 A 
ATOM     78  F   UNL A   1      44.082  31.593  33.668  1.00  0.00    -0.206 F 
ATOM     79  C   UNL A   1      44.464  33.886  33.352  1.00  0.00     0.040 A 
ATOM     80  C   UNL A   1      44.824  34.755  31.135  1.00  0.00     0.040 A 
ATOM     81  F   UNL A   1      44.761  33.313  29.283  1.00  0.00    -0.206 F 
ATOM     82  C   UNL A   1      44.713  34.966  32.509  1.00  0.00     0.006 A 
ENDBRANCH  58  75
ENDBRANCH  32  33
ENDBRANCH  24  27
ENDBRANCH  22  23
ENDBRANCH   1  22
TORSDOF 12
ENDMDL
MODEL 3
REMARK VINA RESULT:     -11.7      3.428      8.004
REMARK SMILES C[C@@H]1CCC[C@H](Oc2ccc(F)cc2C(=O)NCCCNC(=O)c2ccc(-c3c4nc(c(-c5c(F)cccc5F)c5ccc([nH]5)c(-c5c(F)cccc5F)c5nc(c(-c6c(F)cccc6F)c6ccc3[nH]6)C=C5)C=C4)cc2)C1
REMARK SMILES IDX 19 1 18 2 17 3 15 4 16 5 14 7 8 8 9 9 10 10 13 11 11 12
REMARK SMILES IDX 12 13 7 14 6 15 1 16 2 17 3 18 78 19 4 20 5 21 20 22 21 23
REMARK SMILES IDX 22 24 23 26 24 27 25 28 77 29 26 30 76 31 27 32 28 33 29 34
REMARK SMILES IDX 70 35 30 36 75 37 69 38 71 39 31 40 74 41 68 42 67 43 32 45
REMARK SMILES IDX 58 46 41 47 57 48 42 49 45 50 56 51 72 52 43 53 44 54 55 56
REMARK SMILES IDX 73 57 46 58 33 59 34 60 39 61 35 62 36 63 38 64 40 65 37 66
REMARK SMILES IDX 59 67 60 68 65 69 61 70 62 71 64 72 66 73 63 74 47 75 48 76
REMARK SMILES IDX 53 77 49 78 50 79 52 80 54 81 51 82
REMARK H PARENT 17 6 21 25 71 44 45 55
REMARK Flexibility Score: inf
ROOT
ATOM      1  C   UNL A   1      38.725  20.202  25.002  1.00  0.00     0.042 C 
ENDROOT
BRANCH   1   2
ATOM      2  C   UNL A   1      38.136  21.552  25.405  1.00  0.00     0.118 C 
BRANCH   2   3
ATOM      3  N   UNL A   1      37.582  22.222  24.250  1.00  0.00    -0.352 N 
ATOM      4  C   UNL A   1      36.417  22.829  23.889  1.00  0.00     0.255 C 
ATOM      5  O   UNL A   1      36.433  23.203  22.706  1.00  0.00    -0.269 OA
ATOM      6  H   UNL A   1      38.233  22.247  23.511  1.00  0.00     0.163 HD
BRANCH   4   7
ATOM      7  C   UNL A   1      35.187  23.141  24.699  1.00  0.00     0.084 A 
ATOM      8  C   UNL A   1      34.214  22.307  25.277  1.00  0.00     0.132 A 
ATOM      9  C   UNL A   1      33.288  22.848  26.192  1.00  0.00     0.050 A 
ATOM     10  C   UNL A   1      33.160  24.220  26.381  1.00  0.00     0.043 A 
ATOM     11  C   UNL A   1      35.023  24.538  24.901  1.00  0.00     0.057 A 
ATOM     12  C   UNL A   1      34.012  25.059  25.700  1.00  0.00     0.124 A 
ATOM     13  F   UNL A   1      33.883  26.385  25.829  1.00  0.00    -0.207 F 
BRANCH   8  14
ATOM     14  O   UNL A   1      34.169  20.962  25.124  1.00  0.00    -0.490 OA
BRANCH  14  15
ATOM     15  C   UNL A   1      32.911  20.277  24.927  1.00  0.00     0.173 C 
ATOM     16  C   UNL A   1      34.485  17.363  24.042  1.00  0.00     0.008 C 
ATOM     17  C   UNL A   1      33.026  17.730  24.307  1.00  0.00    -0.011 C 
ATOM     18  C   UNL A   1      32.261  18.053  23.021  1.00  0.00     0.003 C 
ATOM     19  C   UNL A   1      32.874  18.813  25.379  1.00  0.00     0.048 C 
ATOM     20  C   UNL A   1      32.427  19.488  22.532  1.00  0.00     0.004 C 
ATOM     21  C   UNL A   1      32.157  20.525  23.619  1.00  0.00     0.045 C 
ENDBRANCH  14  15
ENDBRANCH   8  14
ENDBRANCH   4   7
ENDBRANCH   2   3
ENDBRANCH   1   2
BRANCH   1  22
ATOM     22  C   UNL A   1      39.304  19.446  26.188  1.00  0.00     0.118 C 
BRANCH  22  23
ATOM     23  N   UNL A   1      40.642  18.938  25.909  1.00  0.00    -0.352 N 
ATOM     24  C   UNL A   1      41.867  19.549  25.872  1.00  0.00     0.251 C 
ATOM     25  H   UNL A   1      40.669  17.975  25.710  1.00  0.00     0.163 HD
ATOM     26  O   UNL A   1      42.806  18.947  25.336  1.00  0.00    -0.269 OA
BRANCH  24  27
ATOM     27  C   UNL A   1      42.101  20.901  26.428  1.00  0.00     0.039 A 
ATOM     28  C   UNL A   1      42.030  21.084  27.815  1.00  0.00     0.014 A 
ATOM     29  C   UNL A   1      42.313  22.009  25.611  1.00  0.00     0.014 A 
ATOM     30  C   UNL A   1      42.224  22.353  28.369  1.00  0.00     0.010 A 
ATOM     31  C   UNL A   1      42.642  23.242  26.167  1.00  0.00     0.010 A 
ATOM     32  C   UNL A   1      42.573  23.438  27.551  1.00  0.00    -0.014 A 
BRANCH  32  33
ATOM     33  C   UNL A   1      42.822  24.795  28.106  1.00  0.00     0.031 A 
ATOM     34  C   UNL A   1      44.215  25.203  28.514  1.00  0.00     0.074 A 
ATOM     35  C   UNL A   1      41.791  25.642  28.299  1.00  0.00     0.049 A 
ATOM     36  N   UNL A   1      44.617  26.300  29.105  1.00  0.00    -0.248 NA
ATOM     37  C   UNL A   1      45.294  24.235  28.257  1.00  0.00     0.031 C 
ATOM     38  C   UNL A   1      40.391  25.358  27.979  1.00  0.00     0.029 A 
ATOM     39  N   UNL A   1      41.763  26.916  28.809  1.00  0.00    -0.354 N 
ATOM     40  C   UNL A   1      45.984  26.143  29.302  1.00  0.00     0.074 A 
ATOM     41  C   UNL A   1      46.329  24.817  28.842  1.00  0.00     0.031 C 
ATOM     42  C   UNL A   1      39.650  26.443  28.250  1.00  0.00     0.029 A 
ATOM     43  C   UNL A   1      40.510  27.479  28.812  1.00  0.00     0.049 A 
ATOM     44  H   UNL A   1      42.564  27.381  29.141  1.00  0.00     0.167 HD
ATOM     45  C   UNL A   1      46.881  27.034  29.785  1.00  0.00     0.037 A 
ATOM     46  C   UNL A   1      40.099  28.695  29.220  1.00  0.00     0.037 A 
ATOM     47  C   UNL A   1      46.541  28.366  30.211  1.00  0.00     0.049 A 
ATOM     48  C   UNL A   1      41.104  29.660  29.782  1.00  0.00     0.074 A 
ATOM     49  C   UNL A   1      47.381  29.359  30.681  1.00  0.00     0.029 A 
ATOM     50  N   UNL A   1      45.257  28.890  30.210  1.00  0.00    -0.354 N 
ATOM     51  N   UNL A   1      42.398  29.508  29.933  1.00  0.00    -0.248 NA
ATOM     52  C   UNL A   1      40.595  30.963  30.233  1.00  0.00     0.031 C 
ATOM     53  C   UNL A   1      46.599  30.472  31.006  1.00  0.00     0.029 A 
ATOM     54  C   UNL A   1      45.279  30.190  30.688  1.00  0.00     0.049 A 
ATOM     55  H   UNL A   1      44.450  28.411  29.914  1.00  0.00     0.167 HD
ATOM     56  C   UNL A   1      42.861  30.702  30.472  1.00  0.00     0.074 A 
ATOM     57  C   UNL A   1      41.711  31.571  30.612  1.00  0.00     0.031 C 
ATOM     58  C   UNL A   1      44.126  31.045  30.817  1.00  0.00     0.037 A 
BRANCH  45  59
ATOM     59  C   UNL A   1      48.319  26.605  29.854  1.00  0.00     0.057 A 
ATOM     60  C   UNL A   1      49.201  26.869  28.799  1.00  0.00     0.134 A 
ATOM     61  C   UNL A   1      48.825  25.898  30.954  1.00  0.00     0.134 A 
ATOM     62  F   UNL A   1      48.785  27.535  27.712  1.00  0.00    -0.206 F 
ATOM     63  C   UNL A   1      50.530  26.443  28.834  1.00  0.00     0.040 A 
ATOM     64  C   UNL A   1      50.160  25.495  31.015  1.00  0.00     0.040 A 
ATOM     65  F   UNL A   1      48.037  25.623  32.006  1.00  0.00    -0.206 F 
ATOM     66  C   UNL A   1      51.014  25.760  29.949  1.00  0.00     0.006 A 
ENDBRANCH  45  59
BRANCH  46  67
ATOM     67  C   UNL A   1      38.675  29.079  29.053  1.00  0.00     0.057 A 
ATOM     68  C   UNL A   1      38.176  29.563  27.838  1.00  0.00     0.134 A 
ATOM     69  C   UNL A   1      37.790  29.018  30.136  1.00  0.00     0.134 A 
ATOM     70  F   UNL A   1      38.977  29.655  26.766  1.00  0.00    -0.206 F 
ATOM     71  C   UNL A   1      36.855  29.995  27.711  1.00  0.00     0.040 A 
ATOM     72  C   UNL A   1      36.460  29.425  30.017  1.00  0.00     0.040 A 
ATOM     73  F   UNL A   1      38.206  28.550  31.321  1.00  0.00    -0.206 F 
ATOM     74  C   UNL A   1      35.992  29.924  28.803  1.00  0.00     0.006 A 
ENDBRANCH  46  67
BRANCH  58  75
ATOM     75  C   UNL A   1      44.351  32.425  31.360  1.00  0.00     0.057 A 
ATOM     76  C   UNL A   1      44.242  32.675  32.735  1.00  0.00     0.134 A 
ATOM     77  C   UNL A   1      44.584  33.519  30.520  1.00  0.00     0.134 A 
ATOM     78  F   UNL A   1      44.009  31.670  33.594  1.00  0.00    -0.206 F 
ATOM     79  C   UNL A   1      44.336  33.967  33.251  1.00  0.00     0.040 A 
ATOM     80  C   UNL A   1      44.707  34.814  31.027  1.00  0.00     0.040 A 
ATOM     81  F   UNL A   1      44.708  33.345  29.195  1.00  0.00    -0.206 F 
ATOM     82  C   UNL A   1      44.570  35.041  32.396  1.00  0.00     0.006 A 
ENDBRANCH  58  75
ENDBRANCH  32  33
ENDBRANCH  24  27
ENDBRANCH  22  23
ENDBRANCH   1  22
TORSDOF 12
ENDMDL
