MODEL 1
REMARK VINA RESULT:     -12.6      0.000      0.000
REMARK SMILES Cc1[nH]c2c(C(=O)N3CC[C@H](O)C[C@@H]3C(=O)NCCCNC(=O)c3ccc(-c4c5nc(c(-c6c(F)cccc6F)c6ccc([nH]6)c(-c6c(F)cccc6F)c6nc(c(-c7c(F)cccc7F)c7ccc4[nH]7)C=C6)C=C5)cc3)cccc2c1C
REMARK SMILES IDX 19 1 18 2 17 3 15 4 16 5 14 7 8 8 9 9 10 10 13 11 11 12 6 13
REMARK SMILES IDX 7 14 5 15 1 16 2 17 3 18 82 19 4 20 81 22 83 23 80 24 78 25
REMARK SMILES IDX 79 26 12 27 20 29 21 30 22 31 23 33 24 34 25 35 77 36 26 37
REMARK SMILES IDX 76 38 27 39 28 40 29 41 70 42 30 43 75 44 69 45 71 46 31 47
REMARK SMILES IDX 74 48 68 49 67 50 32 52 58 53 41 54 57 55 42 56 45 57 56 58
REMARK SMILES IDX 72 59 43 60 44 61 55 63 73 64 46 65 33 66 34 67 39 68 35 69
REMARK SMILES IDX 36 70 38 71 40 72 37 73 59 74 60 75 65 76 61 77 62 78 64 79
REMARK SMILES IDX 66 80 63 81 47 82 48 83 53 84 49 85 50 86 52 87 54 88 51 89
REMARK H PARENT 17 6 3 21 12 28 21 32 71 51 45 62
REMARK Flexibility Score: inf
ROOT
ATOM      1  C   UNL A   1      32.234  28.036  27.251  1.00  0.00     0.042 C 
ENDROOT
BRANCH   1   2
ATOM      2  C   UNL A   1      32.072  26.851  26.316  1.00  0.00     0.117 C 
BRANCH   2   3
ATOM      3  N   UNL A   1      31.413  25.718  26.942  1.00  0.00    -0.354 N 
ATOM      4  C   UNL A   1      31.433  24.390  26.653  1.00  0.00     0.242 C 
ATOM      5  O   UNL A   1      30.501  23.731  27.136  1.00  0.00    -0.273 OA
ATOM      6  H   UNL A   1      30.849  25.956  27.714  1.00  0.00     0.163 HD
BRANCH   4   7
ATOM      7  C   UNL A   1      32.457  23.692  25.714  1.00  0.00     0.177 C 
ATOM      8  N   UNL A   1      31.979  22.617  24.839  1.00  0.00    -0.326 N 
ATOM      9  C   UNL A   1      32.272  21.220  25.163  1.00  0.00     0.123 C 
ATOM     10  C   UNL A   1      33.078  20.910  26.441  1.00  0.00     0.053 C 
ATOM     11  C   UNL A   1      33.771  23.352  26.403  1.00  0.00     0.067 C 
ATOM     12  C   UNL A   1      33.658  22.088  27.223  1.00  0.00     0.118 C 
BRANCH   8  13
ATOM     13  C   UNL A   1      31.890  22.928  23.473  1.00  0.00     0.256 C 
ATOM     14  O   UNL A   1      31.677  22.075  22.616  1.00  0.00    -0.269 OA
BRANCH  13  15
ATOM     15  C   UNL A   1      32.079  24.333  23.054  1.00  0.00     0.064 A 
ATOM     16  C   UNL A   1      27.733  26.582  24.050  1.00  0.00     0.064 C 
ATOM     17  C   UNL A   1      29.150  26.418  23.634  1.00  0.00     0.016 A 
ATOM     18  N   UNL A   1      29.792  25.206  23.690  1.00  0.00    -0.358 N 
ATOM     19  C   UNL A   1      30.061  27.351  23.173  1.00  0.00    -0.023 A 
ATOM     20  C   UNL A   1      31.072  25.302  23.202  1.00  0.00     0.059 A 
ATOM     21  H   UNL A   1      29.387  24.378  24.035  1.00  0.00     0.166 HD
ATOM     22  C   UNL A   1      31.288  26.653  22.925  1.00  0.00     0.003 A 
ATOM     23  C   UNL A   1      29.828  28.811  22.996  1.00  0.00     0.047 C 
ATOM     24  C   UNL A   1      32.573  27.060  22.510  1.00  0.00     0.010 A 
ATOM     25  C   UNL A   1      33.355  24.770  22.669  1.00  0.00     0.016 A 
ATOM     26  C   UNL A   1      33.598  26.115  22.397  1.00  0.00     0.002 A 
ENDBRANCH  13  15
ENDBRANCH   8  13
BRANCH  12  27
ATOM     27  O   UNL A   1      32.861  22.328  28.381  1.00  0.00    -0.393 OA
ATOM     28  H   UNL A   1      31.925  22.344  28.131  1.00  0.00     0.210 HD
ENDBRANCH  12  27
ENDBRANCH   4   7
ENDBRANCH   2   3
ENDBRANCH   1   2
BRANCH   1  29
ATOM     29  C   UNL A   1      33.645  28.597  27.254  1.00  0.00     0.118 C 
BRANCH  29  30
ATOM     30  N   UNL A   1      33.709  29.970  27.745  1.00  0.00    -0.352 N 
ATOM     31  C   UNL A   1      34.719  30.674  28.355  1.00  0.00     0.251 C 
ATOM     32  H   UNL A   1      32.880  30.486  27.615  1.00  0.00     0.163 HD
ATOM     33  O   UNL A   1      34.486  31.784  28.826  1.00  0.00    -0.269 OA
BRANCH  31  34
ATOM     34  C   UNL A   1      36.066  30.088  28.485  1.00  0.00     0.039 A 
ATOM     35  C   UNL A   1      36.965  30.195  27.420  1.00  0.00     0.014 A 
ATOM     36  C   UNL A   1      36.451  29.442  29.657  1.00  0.00     0.014 A 
ATOM     37  C   UNL A   1      38.276  29.737  27.573  1.00  0.00     0.010 A 
ATOM     38  C   UNL A   1      37.783  29.120  29.859  1.00  0.00     0.010 A 
ATOM     39  C   UNL A   1      38.708  29.242  28.813  1.00  0.00    -0.014 A 
BRANCH  39  40
ATOM     40  C   UNL A   1      40.102  28.790  29.047  1.00  0.00     0.031 A 
ATOM     41  C   UNL A   1      41.089  29.747  29.661  1.00  0.00     0.074 A 
ATOM     42  C   UNL A   1      40.504  27.579  28.617  1.00  0.00     0.049 A 
ATOM     43  N   UNL A   1      42.387  29.638  29.780  1.00  0.00    -0.248 NA
ATOM     44  C   UNL A   1      40.550  31.026  30.156  1.00  0.00     0.031 C 
ATOM     45  C   UNL A   1      39.656  26.586  27.953  1.00  0.00     0.029 A 
ATOM     46  N   UNL A   1      41.738  26.984  28.660  1.00  0.00    -0.354 N 
ATOM     47  C   UNL A   1      42.818  30.849  30.308  1.00  0.00     0.074 A 
ATOM     48  C   UNL A   1      41.655  31.699  30.430  1.00  0.00     0.031 C 
ATOM     49  C   UNL A   1      40.388  25.493  27.682  1.00  0.00     0.029 A 
ATOM     50  C   UNL A   1      41.763  25.725  28.110  1.00  0.00     0.049 A 
ATOM     51  H   UNL A   1      42.532  27.417  29.051  1.00  0.00     0.167 HD
ATOM     52  C   UNL A   1      44.065  31.210  30.689  1.00  0.00     0.037 A 
ATOM     53  C   UNL A   1      42.786  24.861  27.965  1.00  0.00     0.037 A 
ATOM     54  C   UNL A   1      45.200  30.331  30.639  1.00  0.00     0.049 A 
ATOM     55  C   UNL A   1      44.150  25.259  28.455  1.00  0.00     0.074 A 
ATOM     56  C   UNL A   1      46.493  30.563  31.073  1.00  0.00     0.029 A 
ATOM     57  N   UNL A   1      45.167  29.037  30.139  1.00  0.00    -0.354 N 
ATOM     58  N   UNL A   1      44.535  26.390  28.996  1.00  0.00    -0.248 NA
ATOM     59  C   UNL A   1      45.219  24.263  28.319  1.00  0.00     0.031 C 
ATOM     60  C   UNL A   1      47.248  29.414  30.817  1.00  0.00     0.029 A 
ATOM     61  C   UNL A   1      46.417  28.457  30.255  1.00  0.00     0.049 A 
ATOM     62  H   UNL A   1      44.373  28.597  29.761  1.00  0.00     0.167 HD
ATOM     63  C   UNL A   1      45.882  26.230  29.294  1.00  0.00     0.074 A 
ATOM     64  C   UNL A   1      46.244  24.889  28.881  1.00  0.00     0.031 C 
ATOM     65  C   UNL A   1      46.743  27.112  29.856  1.00  0.00     0.037 A 
BRANCH  52  66
ATOM     66  C   UNL A   1      44.251  32.606  31.209  1.00  0.00     0.057 A 
ATOM     67  C   UNL A   1      44.121  32.912  32.571  1.00  0.00     0.134 A 
ATOM     68  C   UNL A   1      44.565  33.658  30.340  1.00  0.00     0.134 A 
ATOM     69  F   UNL A   1      43.804  31.955  33.455  1.00  0.00    -0.206 F 
ATOM     70  C   UNL A   1      44.260  34.218  33.043  1.00  0.00     0.040 A 
ATOM     71  C   UNL A   1      44.737  34.963  30.805  1.00  0.00     0.040 A 
ATOM     72  F   UNL A   1      44.708  33.436  29.024  1.00  0.00    -0.206 F 
ATOM     73  C   UNL A   1      44.574  35.247  32.159  1.00  0.00     0.006 A 
ENDBRANCH  52  66
BRANCH  53  74
ATOM     74  C   UNL A   1      42.550  23.522  27.370  1.00  0.00     0.057 A 
ATOM     75  C   UNL A   1      42.188  22.434  28.174  1.00  0.00     0.134 A 
ATOM     76  C   UNL A   1      42.680  23.292  25.995  1.00  0.00     0.134 A 
ATOM     77  F   UNL A   1      42.062  22.589  29.500  1.00  0.00    -0.206 F 
ATOM     78  C   UNL A   1      41.982  21.163  27.637  1.00  0.00     0.040 A 
ATOM     79  C   UNL A   1      42.455  22.031  25.441  1.00  0.00     0.040 A 
ATOM     80  F   UNL A   1      43.014  24.295  25.170  1.00  0.00    -0.206 F 
ATOM     81  C   UNL A   1      42.112  20.960  26.264  1.00  0.00     0.006 A 
ENDBRANCH  53  74
BRANCH  65  82
ATOM     82  C   UNL A   1      48.143  26.640  30.101  1.00  0.00     0.057 A 
ATOM     83  C   UNL A   1      48.502  25.975  31.279  1.00  0.00     0.134 A 
ATOM     84  C   UNL A   1      49.129  26.805  29.120  1.00  0.00     0.134 A 
ATOM     85  F   UNL A   1      47.605  25.797  32.260  1.00  0.00    -0.206 F 
ATOM     86  C   UNL A   1      49.799  25.503  31.480  1.00  0.00     0.040 A 
ATOM     87  C   UNL A   1      50.423  26.318  29.300  1.00  0.00     0.040 A 
ATOM     88  F   UNL A   1      48.843  27.427  27.966  1.00  0.00    -0.206 F 
ATOM     89  C   UNL A   1      50.762  25.668  30.485  1.00  0.00     0.006 A 
ENDBRANCH  65  82
ENDBRANCH  39  40
ENDBRANCH  31  34
ENDBRANCH  29  30
ENDBRANCH   1  29
TORSDOF 13
ENDMDL
MODEL 2
REMARK VINA RESULT:     -12.6      2.292      7.022
REMARK SMILES Cc1[nH]c2c(C(=O)N3CC[C@H](O)C[C@@H]3C(=O)NCCCNC(=O)c3ccc(-c4c5nc(c(-c6c(F)cccc6F)c6ccc([nH]6)c(-c6c(F)cccc6F)c6nc(c(-c7c(F)cccc7F)c7ccc4[nH]7)C=C6)C=C5)cc3)cccc2c1C
REMARK SMILES IDX 19 1 18 2 17 3 15 4 16 5 14 7 8 8 9 9 10 10 13 11 11 12 6 13
REMARK SMILES IDX 7 14 5 15 1 16 2 17 3 18 82 19 4 20 81 22 83 23 80 24 78 25
REMARK SMILES IDX 79 26 12 27 20 29 21 30 22 31 23 33 24 34 25 35 77 36 26 37
REMARK SMILES IDX 76 38 27 39 28 40 29 41 70 42 30 43 75 44 69 45 71 46 31 47
REMARK SMILES IDX 74 48 68 49 67 50 32 52 58 53 41 54 57 55 42 56 45 57 56 58
REMARK SMILES IDX 72 59 43 60 44 61 55 63 73 64 46 65 33 66 34 67 39 68 35 69
REMARK SMILES IDX 36 70 38 71 40 72 37 73 59 74 60 75 65 76 61 77 62 78 64 79
REMARK SMILES IDX 66 80 63 81 47 82 48 83 53 84 49 85 50 86 52 87 54 88 51 89
REMARK H PARENT 17 6 3 21 12 28 21 32 71 51 45 62
REMARK Flexibility Score: inf
ROOT
ATOM      1  C   UNL A   1      38.175  19.974  24.803  1.00  0.00     0.042 C 
ENDROOT
BRANCH   1   2
ATOM      2  C   UNL A   1      37.110  21.057  24.782  1.00  0.00     0.117 C 
BRANCH   2   3
ATOM      3  N   UNL A   1      36.195  20.978  25.907  1.00  0.00    -0.354 N 
ATOM      4  C   UNL A   1      34.985  21.557  26.128  1.00  0.00     0.242 C 
ATOM      5  O   UNL A   1      34.622  21.583  27.312  1.00  0.00    -0.273 OA
ATOM      6  H   UNL A   1      36.508  20.401  26.641  1.00  0.00     0.163 HD
BRANCH   4   7
ATOM      7  C   UNL A   1      34.109  22.244  25.043  1.00  0.00     0.177 C 
ATOM      8  N   UNL A   1      33.318  23.418  25.429  1.00  0.00    -0.326 N 
ATOM      9  C   UNL A   1      31.872  23.298  25.625  1.00  0.00     0.123 C 
ATOM     10  C   UNL A   1      31.211  21.918  25.431  1.00  0.00     0.053 C 
ATOM     11  C   UNL A   1      33.325  21.259  24.188  1.00  0.00     0.067 C 
ATOM     12  C   UNL A   1      32.078  20.780  24.894  1.00  0.00     0.118 C 
BRANCH   8  13
ATOM     13  C   UNL A   1      33.774  24.654  24.947  1.00  0.00     0.256 C 
ATOM     14  O   UNL A   1      34.900  25.081  25.188  1.00  0.00    -0.269 OA
BRANCH  13  15
ATOM     15  C   UNL A   1      32.855  25.479  24.134  1.00  0.00     0.064 A 
ATOM     16  C   UNL A   1      31.848  29.469  26.963  1.00  0.00     0.064 C 
ATOM     17  C   UNL A   1      31.856  28.571  25.780  1.00  0.00     0.016 A 
ATOM     18  N   UNL A   1      32.554  27.390  25.765  1.00  0.00    -0.358 N 
ATOM     19  C   UNL A   1      31.254  28.715  24.542  1.00  0.00    -0.023 A 
ATOM     20  C   UNL A   1      32.360  26.716  24.585  1.00  0.00     0.059 A 
ATOM     21  H   UNL A   1      33.119  27.067  26.505  1.00  0.00     0.166 HD
ATOM     22  C   UNL A   1      31.595  27.555  23.773  1.00  0.00     0.003 A 
ATOM     23  C   UNL A   1      30.435  29.868  24.080  1.00  0.00     0.047 C 
ATOM     24  C   UNL A   1      31.336  27.157  22.445  1.00  0.00     0.010 A 
ATOM     25  C   UNL A   1      32.606  25.123  22.800  1.00  0.00     0.016 A 
ATOM     26  C   UNL A   1      31.854  25.949  21.968  1.00  0.00     0.002 A 
ENDBRANCH  13  15
ENDBRANCH   8  13
BRANCH  12  27
ATOM     27  O   UNL A   1      32.430  19.906  25.965  1.00  0.00    -0.393 OA
ATOM     28  H   UNL A   1      32.113  20.277  26.802  1.00  0.00     0.210 HD
ENDBRANCH  12  27
ENDBRANCH   4   7
ENDBRANCH   2   3
ENDBRANCH   1   2
BRANCH   1  29
ATOM     29  C   UNL A   1      39.083  20.063  26.016  1.00  0.00     0.118 C 
BRANCH  29  30
ATOM     30  N   UNL A   1      40.282  19.241  25.890  1.00  0.00    -0.352 N 
ATOM     31  C   UNL A   1      41.614  19.544  26.031  1.00  0.00     0.251 C 
ATOM     32  H   UNL A   1      40.105  18.299  25.664  1.00  0.00     0.163 HD
ATOM     33  O   UNL A   1      42.462  18.712  25.720  1.00  0.00    -0.269 OA
BRANCH  31  34
ATOM     34  C   UNL A   1      42.031  20.874  26.514  1.00  0.00     0.039 A 
ATOM     35  C   UNL A   1      42.371  21.864  25.587  1.00  0.00     0.014 A 
ATOM     36  C   UNL A   1      42.078  21.152  27.877  1.00  0.00     0.014 A 
ATOM     37  C   UNL A   1      42.664  23.155  26.031  1.00  0.00     0.010 A 
ATOM     38  C   UNL A   1      42.227  22.461  28.307  1.00  0.00     0.010 A 
ATOM     39  C   UNL A   1      42.544  23.475  27.392  1.00  0.00    -0.014 A 
BRANCH  39  40
ATOM     40  C   UNL A   1      42.793  24.842  27.913  1.00  0.00     0.031 A 
ATOM     41  C   UNL A   1      44.185  25.220  28.344  1.00  0.00     0.074 A 
ATOM     42  C   UNL A   1      41.767  25.695  28.099  1.00  0.00     0.049 A 
ATOM     43  N   UNL A   1      44.594  26.275  28.999  1.00  0.00    -0.248 NA
ATOM     44  C   UNL A   1      45.254  24.250  28.049  1.00  0.00     0.031 C 
ATOM     45  C   UNL A   1      40.364  25.424  27.778  1.00  0.00     0.029 A 
ATOM     46  N   UNL A   1      41.747  26.962  28.622  1.00  0.00    -0.354 N 
ATOM     47  C   UNL A   1      45.947  26.066  29.239  1.00  0.00     0.074 A 
ATOM     48  C   UNL A   1      46.277  24.761  28.715  1.00  0.00     0.031 C 
ATOM     49  C   UNL A   1      39.626  26.504  28.080  1.00  0.00     0.029 A 
ATOM     50  C   UNL A   1      40.494  27.525  28.657  1.00  0.00     0.049 A 
ATOM     51  H   UNL A   1      42.555  27.426  28.942  1.00  0.00     0.167 HD
ATOM     52  C   UNL A   1      46.843  26.901  29.814  1.00  0.00     0.037 A 
ATOM     53  C   UNL A   1      40.095  28.728  29.109  1.00  0.00     0.037 A 
ATOM     54  C   UNL A   1      46.524  28.229  30.260  1.00  0.00     0.049 A 
ATOM     55  C   UNL A   1      41.119  29.665  29.686  1.00  0.00     0.074 A 
ATOM     56  C   UNL A   1      47.368  29.192  30.783  1.00  0.00     0.029 A 
ATOM     57  N   UNL A   1      45.255  28.788  30.211  1.00  0.00    -0.354 N 
ATOM     58  N   UNL A   1      42.405  29.475  29.865  1.00  0.00    -0.248 NA
ATOM     59  C   UNL A   1      40.641  30.984  30.119  1.00  0.00     0.031 C 
ATOM     60  C   UNL A   1      46.604  30.328  31.071  1.00  0.00     0.029 A 
ATOM     61  C   UNL A   1      45.293  30.083  30.695  1.00  0.00     0.049 A 
ATOM     62  H   UNL A   1      44.448  28.331  29.881  1.00  0.00     0.167 HD
ATOM     63  C   UNL A   1      42.894  30.658  30.400  1.00  0.00     0.074 A 
ATOM     64  C   UNL A   1      41.768  31.564  30.510  1.00  0.00     0.031 C 
ATOM     65  C   UNL A   1      44.160  30.969  30.771  1.00  0.00     0.037 A 
BRANCH  52  66
ATOM     66  C   UNL A   1      48.251  26.403  29.971  1.00  0.00     0.057 A 
ATOM     67  C   UNL A   1      48.665  25.705  31.113  1.00  0.00     0.134 A 
ATOM     68  C   UNL A   1      49.203  26.622  28.968  1.00  0.00     0.134 A 
ATOM     69  F   UNL A   1      47.808  25.476  32.119  1.00  0.00    -0.206 F 
ATOM     70  C   UNL A   1      49.985  25.276  31.268  1.00  0.00     0.040 A 
ATOM     71  C   UNL A   1      50.518  26.170  29.099  1.00  0.00     0.040 A 
ATOM     72  F   UNL A   1      48.874  27.280  27.846  1.00  0.00    -0.206 F 
ATOM     73  C   UNL A   1      50.913  25.504  30.256  1.00  0.00     0.006 A 
ENDBRANCH  52  66
BRANCH  53  74
ATOM     74  C   UNL A   1      38.671  29.131  28.997  1.00  0.00     0.057 A 
ATOM     75  C   UNL A   1      37.816  29.058  30.104  1.00  0.00     0.134 A 
ATOM     76  C   UNL A   1      38.128  29.595  27.793  1.00  0.00     0.134 A 
ATOM     77  F   UNL A   1      38.276  28.607  31.281  1.00  0.00    -0.206 F 
ATOM     78  C   UNL A   1      36.470  29.412  30.015  1.00  0.00     0.040 A 
ATOM     79  C   UNL A   1      36.788  29.974  27.695  1.00  0.00     0.040 A 
ATOM     80  F   UNL A   1      38.896  29.699  26.700  1.00  0.00    -0.206 F 
ATOM     81  C   UNL A   1      35.953  29.876  28.807  1.00  0.00     0.006 A 
ENDBRANCH  53  74
BRANCH  65  82
ATOM     82  C   UNL A   1      44.402  32.357  31.282  1.00  0.00     0.057 A 
ATOM     83  C   UNL A   1      44.346  32.659  32.647  1.00  0.00     0.134 A 
ATOM     84  C   UNL A   1      44.750  33.387  30.400  1.00  0.00     0.134 A 
ATOM     85  F   UNL A   1      44.007  31.717  33.540  1.00  0.00    -0.206 F 
ATOM     86  C   UNL A   1      44.613  33.945  33.117  1.00  0.00     0.040 A 
ATOM     87  C   UNL A   1      45.041  34.670  30.859  1.00  0.00     0.040 A 
ATOM     88  F   UNL A   1      44.828  33.156  29.080  1.00  0.00    -0.206 F 
ATOM     89  C   UNL A   1      44.970  34.953  32.222  1.00  0.00     0.006 A 
ENDBRANCH  65  82
ENDBRANCH  39  40
ENDBRANCH  31  34
ENDBRANCH  29  30
ENDBRANCH   1  29
TORSDOF 13
ENDMDL
MODEL 3
REMARK VINA RESULT:     -12.5      3.144      6.730
REMARK SMILES Cc1[nH]c2c(C(=O)N3CC[C@H](O)C[C@@H]3C(=O)NCCCNC(=O)c3ccc(-c4c5nc(c(-c6c(F)cccc6F)c6ccc([nH]6)c(-c6c(F)cccc6F)c6nc(c(-c7c(F)cccc7F)c7ccc4[nH]7)C=C6)C=C5)cc3)cccc2c1C
REMARK SMILES IDX 19 1 18 2 17 3 15 4 16 5 14 7 8 8 9 9 10 10 13 11 11 12 6 13
REMARK SMILES IDX 7 14 5 15 1 16 2 17 3 18 82 19 4 20 81 22 83 23 80 24 78 25
REMARK SMILES IDX 79 26 12 27 20 29 21 30 22 31 23 33 24 34 25 35 77 36 26 37
REMARK SMILES IDX 76 38 27 39 28 40 29 41 70 42 30 43 75 44 69 45 71 46 31 47
REMARK SMILES IDX 74 48 68 49 67 50 32 52 58 53 41 54 57 55 42 56 45 57 56 58
REMARK SMILES IDX 72 59 43 60 44 61 55 63 73 64 46 65 33 66 34 67 39 68 35 69
REMARK SMILES IDX 36 70 38 71 40 72 37 73 59 74 60 75 65 76 61 77 62 78 64 79
REMARK SMILES IDX 66 80 63 81 47 82 48 83 53 84 49 85 50 86 52 87 54 88 51 89
REMARK H PARENT 17 6 3 21 12 28 21 32 71 51 45 62
REMARK Flexibility Score: inf
ROOT
ATOM      1  C   UNL A   1      31.829  28.168  26.242  1.00  0.00     0.042 C 
ENDROOT
BRANCH   1   2
ATOM      2  C   UNL A   1      32.561  26.847  26.402  1.00  0.00     0.117 C 
BRANCH   2   3
ATOM      3  N   UNL A   1      31.704  25.776  26.879  1.00  0.00    -0.354 N 
ATOM      4  C   UNL A   1      31.595  24.473  26.504  1.00  0.00     0.242 C 
ATOM      5  O   UNL A   1      30.543  23.913  26.844  1.00  0.00    -0.273 OA
ATOM      6  H   UNL A   1      31.092  26.041  27.604  1.00  0.00     0.163 HD
BRANCH   4   7
ATOM      7  C   UNL A   1      32.624  23.702  25.631  1.00  0.00     0.177 C 
ATOM      8  N   UNL A   1      32.123  22.689  24.696  1.00  0.00    -0.326 N 
ATOM      9  C   UNL A   1      32.265  21.266  25.008  1.00  0.00     0.123 C 
ATOM     10  C   UNL A   1      32.938  20.864  26.337  1.00  0.00     0.053 C 
ATOM     11  C   UNL A   1      33.845  23.234  26.410  1.00  0.00     0.067 C 
ATOM     12  C   UNL A   1      33.557  21.971  27.189  1.00  0.00     0.118 C 
BRANCH   8  13
ATOM     13  C   UNL A   1      32.169  23.030  23.336  1.00  0.00     0.256 C 
ATOM     14  O   UNL A   1      32.169  22.185  22.444  1.00  0.00    -0.269 OA
BRANCH  13  15
ATOM     15  C   UNL A   1      32.239  24.460  22.967  1.00  0.00     0.064 A 
ATOM     16  C   UNL A   1      27.776  26.336  24.188  1.00  0.00     0.064 C 
ATOM     17  C   UNL A   1      29.185  26.295  23.721  1.00  0.00     0.016 A 
ATOM     18  N   UNL A   1      29.916  25.134  23.709  1.00  0.00    -0.358 N 
ATOM     19  C   UNL A   1      30.008  27.311  23.269  1.00  0.00    -0.023 A 
ATOM     20  C   UNL A   1      31.168  25.344  23.185  1.00  0.00     0.059 A 
ATOM     21  H   UNL A   1      29.587  24.265  24.033  1.00  0.00     0.166 HD
ATOM     22  C   UNL A   1      31.274  26.717  22.955  1.00  0.00     0.003 A 
ATOM     23  C   UNL A   1      29.662  28.754  23.158  1.00  0.00     0.047 C 
ATOM     24  C   UNL A   1      32.511  27.234  22.516  1.00  0.00     0.010 A 
ATOM     25  C   UNL A   1      33.464  25.006  22.558  1.00  0.00     0.016 A 
ATOM     26  C   UNL A   1      33.598  26.374  22.332  1.00  0.00     0.002 A 
ENDBRANCH  13  15
ENDBRANCH   8  13
BRANCH  12  27
ATOM     27  O   UNL A   1      32.696  22.262  28.287  1.00  0.00    -0.393 OA
ATOM     28  H   UNL A   1      31.847  22.590  27.955  1.00  0.00     0.210 HD
ENDBRANCH  12  27
ENDBRANCH   4   7
ENDBRANCH   2   3
ENDBRANCH   1   2
BRANCH   1  29
ATOM     29  C   UNL A   1      32.706  29.262  25.660  1.00  0.00     0.118 C 
BRANCH  29  30
ATOM     30  N   UNL A   1      32.291  30.600  26.069  1.00  0.00    -0.352 N 
ATOM     31  C   UNL A   1      32.842  31.496  26.952  1.00  0.00     0.251 C 
ATOM     32  H   UNL A   1      31.467  30.919  25.633  1.00  0.00     0.163 HD
ATOM     33  O   UNL A   1      32.221  32.513  27.253  1.00  0.00    -0.269 OA
BRANCH  31  34
ATOM     34  C   UNL A   1      34.154  31.226  27.570  1.00  0.00     0.039 A 
ATOM     35  C   UNL A   1      35.054  32.278  27.756  1.00  0.00     0.014 A 
ATOM     36  C   UNL A   1      34.496  29.938  27.977  1.00  0.00     0.014 A 
ATOM     37  C   UNL A   1      36.253  32.051  28.436  1.00  0.00     0.010 A 
ATOM     38  C   UNL A   1      35.613  29.743  28.773  1.00  0.00     0.010 A 
ATOM     39  C   UNL A   1      36.517  30.791  28.994  1.00  0.00    -0.014 A 
BRANCH  39  40
ATOM     40  C   UNL A   1      37.750  30.507  29.769  1.00  0.00     0.031 A 
ATOM     41  C   UNL A   1      38.814  29.633  29.160  1.00  0.00     0.074 A 
ATOM     42  C   UNL A   1      37.865  30.935  31.041  1.00  0.00     0.049 A 
ATOM     43  N   UNL A   1      39.870  29.100  29.717  1.00  0.00    -0.248 NA
ATOM     44  C   UNL A   1      38.633  29.260  27.746  1.00  0.00     0.031 C 
ATOM     45  C   UNL A   1      36.876  31.737  31.764  1.00  0.00     0.029 A 
ATOM     46  N   UNL A   1      38.865  30.738  31.959  1.00  0.00    -0.354 N 
ATOM     47  C   UNL A   1      40.441  28.292  28.741  1.00  0.00     0.074 A 
ATOM     48  C   UNL A   1      39.583  28.356  27.579  1.00  0.00     0.031 C 
ATOM     49  C   UNL A   1      37.333  31.991  33.001  1.00  0.00     0.029 A 
ATOM     50  C   UNL A   1      38.624  31.334  33.174  1.00  0.00     0.049 A 
ATOM     51  H   UNL A   1      39.680  30.220  31.766  1.00  0.00     0.167 HD
ATOM     52  C   UNL A   1      41.594  27.587  28.795  1.00  0.00     0.037 A 
ATOM     53  C   UNL A   1      39.363  31.341  34.299  1.00  0.00     0.037 A 
ATOM     54  C   UNL A   1      42.481  27.593  29.925  1.00  0.00     0.049 A 
ATOM     55  C   UNL A   1      40.672  30.603  34.314  1.00  0.00     0.074 A 
ATOM     56  C   UNL A   1      43.714  26.981  30.060  1.00  0.00     0.029 A 
ATOM     57  N   UNL A   1      42.234  28.268  31.111  1.00  0.00    -0.354 N 
ATOM     58  N   UNL A   1      41.224  29.880  33.369  1.00  0.00    -0.248 NA
ATOM     59  C   UNL A   1      41.463  30.683  35.549  1.00  0.00     0.031 C 
ATOM     60  C   UNL A   1      44.203  27.270  31.338  1.00  0.00     0.029 A 
ATOM     61  C   UNL A   1      43.291  28.089  31.984  1.00  0.00     0.049 A 
ATOM     62  H   UNL A   1      41.426  28.798  31.302  1.00  0.00     0.167 HD
ATOM     63  C   UNL A   1      42.439  29.448  33.881  1.00  0.00     0.074 A 
ATOM     64  C   UNL A   1      42.548  29.995  35.218  1.00  0.00     0.031 C 
ATOM     65  C   UNL A   1      43.382  28.666  33.301  1.00  0.00     0.037 A 
BRANCH  52  66
ATOM     66  C   UNL A   1      41.962  26.771  27.589  1.00  0.00     0.057 A 
ATOM     67  C   UNL A   1      41.618  25.417  27.479  1.00  0.00     0.134 A 
ATOM     68  C   UNL A   1      42.668  27.345  26.525  1.00  0.00     0.134 A 
ATOM     69  F   UNL A   1      40.957  24.800  28.471  1.00  0.00    -0.206 F 
ATOM     70  C   UNL A   1      41.995  24.655  26.372  1.00  0.00     0.040 A 
ATOM     71  C   UNL A   1      43.023  26.601  25.398  1.00  0.00     0.040 A 
ATOM     72  F   UNL A   1      43.026  28.638  26.561  1.00  0.00    -0.206 F 
ATOM     73  C   UNL A   1      42.695  25.248  25.325  1.00  0.00     0.006 A 
ENDBRANCH  52  66
BRANCH  53  74
ATOM     74  C   UNL A   1      38.904  32.104  35.486  1.00  0.00     0.057 A 
ATOM     75  C   UNL A   1      39.149  33.479  35.592  1.00  0.00     0.134 A 
ATOM     76  C   UNL A   1      38.216  31.490  36.538  1.00  0.00     0.134 A 
ATOM     77  F   UNL A   1      39.818  34.121  34.623  1.00  0.00    -0.206 F 
ATOM     78  C   UNL A   1      38.745  34.211  36.709  1.00  0.00     0.040 A 
ATOM     79  C   UNL A   1      37.785  32.214  37.651  1.00  0.00     0.040 A 
ATOM     80  F   UNL A   1      37.940  30.178  36.492  1.00  0.00    -0.206 F 
ATOM     81  C   UNL A   1      38.056  33.578  37.742  1.00  0.00     0.006 A 
ENDBRANCH  53  74
BRANCH  65  82
ATOM     82  C   UNL A   1      44.628  28.397  34.087  1.00  0.00     0.057 A 
ATOM     83  C   UNL A   1      45.732  29.256  34.036  1.00  0.00     0.134 A 
ATOM     84  C   UNL A   1      44.699  27.294  34.948  1.00  0.00     0.134 A 
ATOM     85  F   UNL A   1      45.727  30.322  33.222  1.00  0.00    -0.206 F 
ATOM     86  C   UNL A   1      46.872  29.018  34.804  1.00  0.00     0.040 A 
ATOM     87  C   UNL A   1      45.824  27.059  35.737  1.00  0.00     0.040 A 
ATOM     88  F   UNL A   1      43.669  26.439  35.046  1.00  0.00    -0.206 F 
ATOM     89  C   UNL A   1      46.917  27.921  35.663  1.00  0.00     0.006 A 
ENDBRANCH  65  82
ENDBRANCH  39  40
ENDBRANCH  31  34
ENDBRANCH  29  30
ENDBRANCH   1  29
TORSDOF 13
ENDMDL
