MODEL 1
REMARK VINA RESULT:     -11.3      0.000      0.000
REMARK SMILES Cc1cc(F)c(CCCCCC(=O)NCCCNC(=O)c2ccc(-c3c4nc(c(-c5c(F)cccc5F)c5ccc([nH]5)c(-c5c(F)cccc5F)c5nc(c(-c6c(F)cccc6F)c6ccc3[nH]6)C=C5)C=C4)cc2)cc1F
REMARK SMILES IDX 12 1 13 2 14 3 11 5 10 6 9 7 8 8 7 9 6 10 1 11 2 12 3 13
REMARK SMILES IDX 76 14 4 15 75 16 77 17 5 18 15 19 16 20 17 21 18 22 19 23
REMARK SMILES IDX 20 25 21 26 22 27 74 28 23 29 73 30 24 31 25 32 26 33 67 34
REMARK SMILES IDX 27 35 72 36 66 37 68 38 28 39 71 40 65 41 64 42 29 44 55 45
REMARK SMILES IDX 38 46 54 47 39 48 42 49 53 50 69 51 40 52 41 53 52 55 70 56
REMARK SMILES IDX 43 57 30 58 31 59 36 60 32 61 33 62 35 63 37 64 34 65 56 66
REMARK SMILES IDX 57 67 62 68 58 69 59 70 61 71 63 72 60 73 44 74 45 75 50 76
REMARK SMILES IDX 46 77 47 78 49 79 51 80 48 81
REMARK H PARENT 14 4 18 24 68 43 42 54
REMARK Flexibility Score: inf
ROOT
ATOM      1  C   UNL A   1      33.132  29.035  27.109  1.00  0.00     0.219 C 
ATOM      2  O   UNL A   1      34.269  28.866  27.554  1.00  0.00    -0.275 OA
ATOM      3  N   UNL A   1      32.839  30.244  26.554  1.00  0.00    -0.356 N 
ATOM      4  H   UNL A   1      33.602  30.863  26.490  1.00  0.00     0.163 HD
ENDROOT
BRANCH   1   5
ATOM      5  C   UNL A   1      32.100  27.925  27.169  1.00  0.00     0.100 C 
BRANCH   5   6
ATOM      6  C   UNL A   1      32.432  26.737  26.264  1.00  0.00     0.010 C 
BRANCH   6   7
ATOM      7  C   UNL A   1      31.419  25.596  26.319  1.00  0.00     0.001 C 
BRANCH   7   8
ATOM      8  C   UNL A   1      30.052  25.905  25.690  1.00  0.00     0.005 C 
BRANCH   8   9
ATOM      9  C   UNL A   1      30.012  25.742  24.164  1.00  0.00     0.039 C 
BRANCH   9  10
ATOM     10  C   UNL A   1      29.428  26.964  23.501  1.00  0.00    -0.009 A 
ATOM     11  C   UNL A   1      27.886  30.777  22.198  1.00  0.00     0.047 C 
ATOM     12  C   UNL A   1      28.412  29.433  22.590  1.00  0.00    -0.012 A 
ATOM     13  C   UNL A   1      27.576  28.520  23.243  1.00  0.00     0.046 A 
ATOM     14  C   UNL A   1      29.738  29.068  22.346  1.00  0.00     0.126 A 
ATOM     15  C   UNL A   1      28.081  27.297  23.672  1.00  0.00     0.126 A 
ATOM     16  C   UNL A   1      30.251  27.854  22.798  1.00  0.00     0.046 A 
ATOM     17  F   UNL A   1      30.556  29.908  21.695  1.00  0.00    -0.207 F 
ATOM     18  F   UNL A   1      27.259  26.452  24.309  1.00  0.00    -0.207 F 
ENDBRANCH   9  10
ENDBRANCH   8   9
ENDBRANCH   7   8
ENDBRANCH   6   7
ENDBRANCH   5   6
ENDBRANCH   1   5
BRANCH   3  19
ATOM     19  C   UNL A   1      31.586  30.773  26.039  1.00  0.00     0.117 C 
BRANCH  19  20
ATOM     20  C   UNL A   1      31.345  32.201  26.525  1.00  0.00     0.042 C 
BRANCH  20  21
ATOM     21  C   UNL A   1      32.529  32.806  27.261  1.00  0.00     0.118 C 
BRANCH  21  22
ATOM     22  N   UNL A   1      32.321  34.203  27.604  1.00  0.00    -0.352 N 
ATOM     23  C   UNL A   1      32.935  34.992  28.553  1.00  0.00     0.251 C 
ATOM     24  H   UNL A   1      31.629  34.660  27.072  1.00  0.00     0.163 HD
ATOM     25  O   UNL A   1      32.481  36.103  28.797  1.00  0.00    -0.269 OA
BRANCH  23  26
ATOM     26  C   UNL A   1      34.114  34.498  29.308  1.00  0.00     0.039 A 
ATOM     27  C   UNL A   1      35.403  34.577  28.781  1.00  0.00     0.014 A 
ATOM     28  C   UNL A   1      33.925  33.953  30.582  1.00  0.00     0.014 A 
ATOM     29  C   UNL A   1      36.458  33.936  29.424  1.00  0.00     0.010 A 
ATOM     30  C   UNL A   1      35.010  33.410  31.282  1.00  0.00     0.010 A 
ATOM     31  C   UNL A   1      36.279  33.349  30.686  1.00  0.00    -0.014 A 
BRANCH  31  32
ATOM     32  C   UNL A   1      37.429  32.686  31.361  1.00  0.00     0.031 A 
ATOM     33  C   UNL A   1      38.143  31.528  30.713  1.00  0.00     0.074 A 
ATOM     34  C   UNL A   1      37.863  33.157  32.548  1.00  0.00     0.049 A 
ATOM     35  N   UNL A   1      39.142  30.812  31.169  1.00  0.00    -0.248 NA
ATOM     36  C   UNL A   1      37.674  31.113  29.381  1.00  0.00     0.031 C 
ATOM     37  C   UNL A   1      37.273  34.281  33.278  1.00  0.00     0.029 A 
ATOM     38  N   UNL A   1      38.913  32.766  33.340  1.00  0.00    -0.354 N 
ATOM     39  C   UNL A   1      39.398  29.850  30.200  1.00  0.00     0.074 A 
ATOM     40  C   UNL A   1      38.438  30.058  29.137  1.00  0.00     0.031 C 
ATOM     41  C   UNL A   1      37.999  34.523  34.379  1.00  0.00     0.029 A 
ATOM     42  C   UNL A   1      39.058  33.526  34.475  1.00  0.00     0.049 A 
ATOM     43  H   UNL A   1      39.507  32.012  33.117  1.00  0.00     0.167 HD
ATOM     44  C   UNL A   1      40.351  28.885  30.191  1.00  0.00     0.037 A 
ATOM     45  C   UNL A   1      39.927  33.420  35.497  1.00  0.00     0.037 A 
ATOM     46  C   UNL A   1      41.326  28.696  31.234  1.00  0.00     0.049 A 
ATOM     47  C   UNL A   1      40.940  32.311  35.484  1.00  0.00     0.074 A 
ATOM     48  C   UNL A   1      42.350  27.766  31.299  1.00  0.00     0.029 A 
ATOM     49  N   UNL A   1      41.400  29.451  32.394  1.00  0.00    -0.354 N 
ATOM     50  N   UNL A   1      41.166  31.411  34.560  1.00  0.00    -0.248 NA
ATOM     51  C   UNL A   1      41.803  32.194  36.666  1.00  0.00     0.031 C 
ATOM     52  C   UNL A   1      43.018  27.933  32.518  1.00  0.00     0.029 A 
ATOM     53  C   UNL A   1      42.436  28.994  33.193  1.00  0.00     0.049 A 
ATOM     54  H   UNL A   1      40.805  30.203  32.619  1.00  0.00     0.167 HD
ATOM     55  C   UNL A   1      42.205  30.627  35.043  1.00  0.00     0.074 A 
ATOM     56  C   UNL A   1      42.580  31.175  36.330  1.00  0.00     0.031 C 
ATOM     57  C   UNL A   1      42.792  29.546  34.474  1.00  0.00     0.037 A 
BRANCH  44  58
ATOM     58  C   UNL A   1      40.375  27.943  29.022  1.00  0.00     0.057 A 
ATOM     59  C   UNL A   1      39.649  26.746  29.060  1.00  0.00     0.134 A 
ATOM     60  C   UNL A   1      41.144  28.195  27.880  1.00  0.00     0.134 A 
ATOM     61  F   UNL A   1      38.899  26.438  30.129  1.00  0.00    -0.206 F 
ATOM     62  C   UNL A   1      39.687  25.833  28.005  1.00  0.00     0.040 A 
ATOM     63  C   UNL A   1      41.178  27.296  26.811  1.00  0.00     0.040 A 
ATOM     64  F   UNL A   1      41.852  29.329  27.771  1.00  0.00    -0.206 F 
ATOM     65  C   UNL A   1      40.450  26.110  26.873  1.00  0.00     0.006 A 
ENDBRANCH  44  58
BRANCH  45  66
ATOM     66  C   UNL A   1      39.861  34.371  36.634  1.00  0.00     0.057 A 
ATOM     67  C   UNL A   1      39.152  34.063  37.802  1.00  0.00     0.134 A 
ATOM     68  C   UNL A   1      40.517  35.605  36.584  1.00  0.00     0.134 A 
ATOM     69  F   UNL A   1      38.500  32.896  37.911  1.00  0.00    -0.206 F 
ATOM     70  C   UNL A   1      39.086  34.954  38.874  1.00  0.00     0.040 A 
ATOM     71  C   UNL A   1      40.484  36.494  37.660  1.00  0.00     0.040 A 
ATOM     72  F   UNL A   1      41.231  35.947  35.501  1.00  0.00    -0.206 F 
ATOM     73  C   UNL A   1      39.761  36.171  38.807  1.00  0.00     0.006 A 
ENDBRANCH  45  66
BRANCH  57  74
ATOM     74  C   UNL A   1      43.910  28.903  35.239  1.00  0.00     0.057 A 
ATOM     75  C   UNL A   1      43.647  27.905  36.186  1.00  0.00     0.134 A 
ATOM     76  C   UNL A   1      45.245  29.278  35.045  1.00  0.00     0.134 A 
ATOM     77  F   UNL A   1      42.390  27.504  36.423  1.00  0.00    -0.206 F 
ATOM     78  C   UNL A   1      44.676  27.301  36.911  1.00  0.00     0.040 A 
ATOM     79  C   UNL A   1      46.284  28.664  35.747  1.00  0.00     0.040 A 
ATOM     80  F   UNL A   1      45.564  30.216  34.139  1.00  0.00    -0.206 F 
ATOM     81  C   UNL A   1      45.999  27.675  36.687  1.00  0.00     0.006 A 
ENDBRANCH  57  74
ENDBRANCH  31  32
ENDBRANCH  23  26
ENDBRANCH  21  22
ENDBRANCH  20  21
ENDBRANCH  19  20
ENDBRANCH   3  19
TORSDOF 15
ENDMDL
MODEL 2
REMARK VINA RESULT:     -11.2      0.776      6.290
REMARK SMILES Cc1cc(F)c(CCCCCC(=O)NCCCNC(=O)c2ccc(-c3c4nc(c(-c5c(F)cccc5F)c5ccc([nH]5)c(-c5c(F)cccc5F)c5nc(c(-c6c(F)cccc6F)c6ccc3[nH]6)C=C5)C=C4)cc2)cc1F
REMARK SMILES IDX 12 1 13 2 14 3 11 5 10 6 9 7 8 8 7 9 6 10 1 11 2 12 3 13
REMARK SMILES IDX 76 14 4 15 75 16 77 17 5 18 15 19 16 20 17 21 18 22 19 23
REMARK SMILES IDX 20 25 21 26 22 27 74 28 23 29 73 30 24 31 25 32 26 33 67 34
REMARK SMILES IDX 27 35 72 36 66 37 68 38 28 39 71 40 65 41 64 42 29 44 55 45
REMARK SMILES IDX 38 46 54 47 39 48 42 49 53 50 69 51 40 52 41 53 52 55 70 56
REMARK SMILES IDX 43 57 30 58 31 59 36 60 32 61 33 62 35 63 37 64 34 65 56 66
REMARK SMILES IDX 57 67 62 68 58 69 59 70 61 71 63 72 60 73 44 74 45 75 50 76
REMARK SMILES IDX 46 77 47 78 49 79 51 80 48 81
REMARK H PARENT 14 4 18 24 68 43 42 54
REMARK Flexibility Score: inf
ROOT
ATOM      1  C   UNL A   1      33.151  28.973  26.417  1.00  0.00     0.219 C 
ATOM      2  O   UNL A   1      34.243  28.726  26.932  1.00  0.00    -0.275 OA
ATOM      3  N   UNL A   1      32.679  30.248  26.506  1.00  0.00    -0.356 N 
ATOM      4  H   UNL A   1      33.302  30.888  26.920  1.00  0.00     0.163 HD
ENDROOT
BRANCH   1   5
ATOM      5  C   UNL A   1      32.368  27.892  25.696  1.00  0.00     0.100 C 
BRANCH   5   6
ATOM      6  C   UNL A   1      31.361  27.171  26.595  1.00  0.00     0.010 C 
BRANCH   6   7
ATOM      7  C   UNL A   1      30.698  25.954  25.954  1.00  0.00     0.001 C 
BRANCH   7   8
ATOM      8  C   UNL A   1      30.332  26.113  24.472  1.00  0.00     0.005 C 
BRANCH   8   9
ATOM      9  C   UNL A   1      28.854  26.444  24.222  1.00  0.00     0.039 C 
BRANCH   9  10
ATOM     10  C   UNL A   1      28.708  27.700  23.400  1.00  0.00    -0.009 A 
ATOM     11  C   UNL A   1      28.414  31.626  21.636  1.00  0.00     0.047 C 
ATOM     12  C   UNL A   1      28.511  30.240  22.189  1.00  0.00    -0.012 A 
ATOM     13  C   UNL A   1      27.381  29.634  22.752  1.00  0.00     0.046 A 
ATOM     14  C   UNL A   1      29.716  29.535  22.185  1.00  0.00     0.126 A 
ATOM     15  C   UNL A   1      27.484  28.373  23.330  1.00  0.00     0.126 A 
ATOM     16  C   UNL A   1      29.825  28.283  22.787  1.00  0.00     0.046 A 
ATOM     17  F   UNL A   1      30.808  30.076  21.625  1.00  0.00    -0.207 F 
ATOM     18  F   UNL A   1      26.389  27.827  23.877  1.00  0.00    -0.207 F 
ENDBRANCH   9  10
ENDBRANCH   8   9
ENDBRANCH   7   8
ENDBRANCH   6   7
ENDBRANCH   5   6
ENDBRANCH   1   5
BRANCH   3  19
ATOM     19  C   UNL A   1      31.408  30.821  26.091  1.00  0.00     0.117 C 
BRANCH  19  20
ATOM     20  C   UNL A   1      31.300  32.288  26.503  1.00  0.00     0.042 C 
BRANCH  20  21
ATOM     21  C   UNL A   1      32.537  32.819  27.209  1.00  0.00     0.118 C 
BRANCH  21  22
ATOM     22  N   UNL A   1      32.392  34.204  27.626  1.00  0.00    -0.352 N 
ATOM     23  C   UNL A   1      33.056  34.918  28.600  1.00  0.00     0.251 C 
ATOM     24  H   UNL A   1      31.709  34.714  27.134  1.00  0.00     0.163 HD
ATOM     25  O   UNL A   1      32.652  36.032  28.910  1.00  0.00    -0.269 OA
BRANCH  23  26
ATOM     26  C   UNL A   1      34.230  34.340  29.303  1.00  0.00     0.039 A 
ATOM     27  C   UNL A   1      35.523  34.480  28.800  1.00  0.00     0.014 A 
ATOM     28  C   UNL A   1      34.031  33.650  30.503  1.00  0.00     0.014 A 
ATOM     29  C   UNL A   1      36.574  33.770  29.373  1.00  0.00     0.010 A 
ATOM     30  C   UNL A   1      35.110  33.030  31.144  1.00  0.00     0.010 A 
ATOM     31  C   UNL A   1      36.385  33.039  30.557  1.00  0.00    -0.014 A 
BRANCH  31  32
ATOM     32  C   UNL A   1      37.530  32.303  31.160  1.00  0.00     0.031 A 
ATOM     33  C   UNL A   1      38.001  32.616  32.557  1.00  0.00     0.074 A 
ATOM     34  C   UNL A   1      38.123  31.314  30.462  1.00  0.00     0.049 A 
ATOM     35  N   UNL A   1      39.000  32.097  33.228  1.00  0.00    -0.248 NA
ATOM     36  C   UNL A   1      37.260  33.649  33.297  1.00  0.00     0.031 C 
ATOM     37  C   UNL A   1      37.756  30.898  29.106  1.00  0.00     0.029 A 
ATOM     38  N   UNL A   1      39.145  30.463  30.801  1.00  0.00    -0.354 N 
ATOM     39  C   UNL A   1      39.025  32.758  34.450  1.00  0.00     0.074 A 
ATOM     40  C   UNL A   1      37.955  33.732  34.423  1.00  0.00     0.031 C 
ATOM     41  C   UNL A   1      38.501  29.841  28.751  1.00  0.00     0.029 A 
ATOM     42  C   UNL A   1      39.451  29.552  29.819  1.00  0.00     0.049 A 
ATOM     43  H   UNL A   1      39.616  30.502  31.665  1.00  0.00     0.167 HD
ATOM     44  C   UNL A   1      39.858  32.567  35.502  1.00  0.00     0.037 A 
ATOM     45  C   UNL A   1      40.405  28.605  29.767  1.00  0.00     0.037 A 
ATOM     46  C   UNL A   1      40.905  31.579  35.542  1.00  0.00     0.049 A 
ATOM     47  C   UNL A   1      41.346  28.451  30.928  1.00  0.00     0.074 A 
ATOM     48  C   UNL A   1      41.781  31.290  36.576  1.00  0.00     0.029 A 
ATOM     49  N   UNL A   1      41.218  30.715  34.503  1.00  0.00    -0.354 N 
ATOM     50  N   UNL A   1      41.355  29.085  32.073  1.00  0.00    -0.248 NA
ATOM     51  C   UNL A   1      42.420  27.460  30.776  1.00  0.00     0.031 C 
ATOM     52  C   UNL A   1      42.649  30.280  36.146  1.00  0.00     0.029 A 
ATOM     53  C   UNL A   1      42.288  29.911  34.860  1.00  0.00     0.049 A 
ATOM     54  H   UNL A   1      40.749  30.679  33.638  1.00  0.00     0.167 HD
ATOM     55  C   UNL A   1      42.427  28.564  32.785  1.00  0.00     0.074 A 
ATOM     56  C   UNL A   1      43.028  27.544  31.951  1.00  0.00     0.031 C 
ATOM     57  C   UNL A   1      42.878  28.905  34.017  1.00  0.00     0.037 A 
BRANCH  44  58
ATOM     58  C   UNL A   1      39.686  33.462  36.696  1.00  0.00     0.057 A 
ATOM     59  C   UNL A   1      38.822  33.100  37.737  1.00  0.00     0.134 A 
ATOM     60  C   UNL A   1      40.336  34.698  36.798  1.00  0.00     0.134 A 
ATOM     61  F   UNL A   1      38.159  31.934  37.697  1.00  0.00    -0.206 F 
ATOM     62  C   UNL A   1      38.612  33.933  38.837  1.00  0.00     0.040 A 
ATOM     63  C   UNL A   1      40.145  35.533  37.902  1.00  0.00     0.040 A 
ATOM     64  F   UNL A   1      41.189  35.101  35.844  1.00  0.00    -0.206 F 
ATOM     65  C   UNL A   1      39.279  35.152  38.924  1.00  0.00     0.006 A 
ENDBRANCH  44  58
BRANCH  45  66
ATOM     66  C   UNL A   1      40.541  27.748  28.563  1.00  0.00     0.057 A 
ATOM     67  C   UNL A   1      39.888  26.513  28.470  1.00  0.00     0.134 A 
ATOM     68  C   UNL A   1      41.316  28.153  27.471  1.00  0.00     0.134 A 
ATOM     69  F   UNL A   1      39.132  26.068  29.484  1.00  0.00    -0.206 F 
ATOM     70  C   UNL A   1      40.013  25.704  27.340  1.00  0.00     0.040 A 
ATOM     71  C   UNL A   1      41.427  27.367  26.323  1.00  0.00     0.040 A 
ATOM     72  F   UNL A   1      41.947  29.336  27.492  1.00  0.00    -0.206 F 
ATOM     73  C   UNL A   1      40.778  26.135  26.259  1.00  0.00     0.006 A 
ENDBRANCH  45  66
BRANCH  57  74
ATOM     74  C   UNL A   1      44.066  28.151  34.534  1.00  0.00     0.057 A 
ATOM     75  C   UNL A   1      43.902  26.949  35.234  1.00  0.00     0.134 A 
ATOM     76  C   UNL A   1      45.373  28.619  34.346  1.00  0.00     0.134 A 
ATOM     77  F   UNL A   1      42.677  26.449  35.452  1.00  0.00    -0.206 F 
ATOM     78  C   UNL A   1      44.997  26.239  35.727  1.00  0.00     0.040 A 
ATOM     79  C   UNL A   1      46.477  27.905  34.814  1.00  0.00     0.040 A 
ATOM     80  F   UNL A   1      45.598  29.755  33.668  1.00  0.00    -0.206 F 
ATOM     81  C   UNL A   1      46.289  26.713  35.511  1.00  0.00     0.006 A 
ENDBRANCH  57  74
ENDBRANCH  31  32
ENDBRANCH  23  26
ENDBRANCH  21  22
ENDBRANCH  20  21
ENDBRANCH  19  20
ENDBRANCH   3  19
TORSDOF 15
ENDMDL
MODEL 3
REMARK VINA RESULT:     -11.2      3.965      9.569
REMARK SMILES Cc1cc(F)c(CCCCCC(=O)NCCCNC(=O)c2ccc(-c3c4nc(c(-c5c(F)cccc5F)c5ccc([nH]5)c(-c5c(F)cccc5F)c5nc(c(-c6c(F)cccc6F)c6ccc3[nH]6)C=C5)C=C4)cc2)cc1F
REMARK SMILES IDX 12 1 13 2 14 3 11 5 10 6 9 7 8 8 7 9 6 10 1 11 2 12 3 13
REMARK SMILES IDX 76 14 4 15 75 16 77 17 5 18 15 19 16 20 17 21 18 22 19 23
REMARK SMILES IDX 20 25 21 26 22 27 74 28 23 29 73 30 24 31 25 32 26 33 67 34
REMARK SMILES IDX 27 35 72 36 66 37 68 38 28 39 71 40 65 41 64 42 29 44 55 45
REMARK SMILES IDX 38 46 54 47 39 48 42 49 53 50 69 51 40 52 41 53 52 55 70 56
REMARK SMILES IDX 43 57 30 58 31 59 36 60 32 61 33 62 35 63 37 64 34 65 56 66
REMARK SMILES IDX 57 67 62 68 58 69 59 70 61 71 63 72 60 73 44 74 45 75 50 76
REMARK SMILES IDX 46 77 47 78 49 79 51 80 48 81
REMARK H PARENT 14 4 18 24 68 43 42 54
REMARK Flexibility Score: inf
ROOT
ATOM      1  C   UNL A   1      33.042  36.046  30.680  1.00  0.00     0.219 C 
ATOM      2  O   UNL A   1      32.154  36.759  31.153  1.00  0.00    -0.275 OA
ATOM      3  N   UNL A   1      33.190  36.029  29.326  1.00  0.00    -0.356 N 
ATOM      4  H   UNL A   1      32.609  36.660  28.841  1.00  0.00     0.163 HD
ENDROOT
BRANCH   1   5
ATOM      5  C   UNL A   1      33.945  35.225  31.581  1.00  0.00     0.100 C 
BRANCH   5   6
ATOM      6  C   UNL A   1      34.126  35.832  32.974  1.00  0.00     0.010 C 
BRANCH   6   7
ATOM      7  C   UNL A   1      34.943  34.974  33.937  1.00  0.00     0.001 C 
BRANCH   7   8
ATOM      8  C   UNL A   1      34.811  33.458  33.736  1.00  0.00     0.005 C 
BRANCH   8   9
ATOM      9  C   UNL A   1      36.142  32.696  33.810  1.00  0.00     0.039 C 
BRANCH   9  10
ATOM     10  C   UNL A   1      37.030  33.036  32.640  1.00  0.00    -0.009 A 
ATOM     11  C   UNL A   1      39.202  34.581  29.247  1.00  0.00     0.047 C 
ATOM     12  C   UNL A   1      38.491  33.997  30.426  1.00  0.00    -0.012 A 
ATOM     13  C   UNL A   1      37.341  33.223  30.234  1.00  0.00     0.046 A 
ATOM     14  C   UNL A   1      38.931  34.228  31.732  1.00  0.00     0.126 A 
ATOM     15  C   UNL A   1      36.637  32.737  31.332  1.00  0.00     0.126 A 
ATOM     16  C   UNL A   1      38.213  33.763  32.831  1.00  0.00     0.046 A 
ATOM     17  F   UNL A   1      40.047  34.939  31.947  1.00  0.00    -0.207 F 
ATOM     18  F   UNL A   1      35.530  32.013  31.115  1.00  0.00    -0.207 F 
ENDBRANCH   9  10
ENDBRANCH   8   9
ENDBRANCH   7   8
ENDBRANCH   6   7
ENDBRANCH   5   6
ENDBRANCH   1   5
BRANCH   3  19
ATOM     19  C   UNL A   1      34.065  35.236  28.476  1.00  0.00     0.117 C 
BRANCH  19  20
ATOM     20  C   UNL A   1      33.405  33.917  28.077  1.00  0.00     0.042 C 
BRANCH  20  21
ATOM     21  C   UNL A   1      34.249  32.692  28.388  1.00  0.00     0.118 C 
BRANCH  21  22
ATOM     22  N   UNL A   1      33.772  31.497  27.711  1.00  0.00    -0.352 N 
ATOM     23  C   UNL A   1      34.408  30.303  27.452  1.00  0.00     0.251 C 
ATOM     24  H   UNL A   1      32.844  31.551  27.384  1.00  0.00     0.163 HD
ATOM     25  O   UNL A   1      33.878  29.489  26.706  1.00  0.00    -0.269 OA
BRANCH  23  26
ATOM     26  C   UNL A   1      35.742  30.007  28.034  1.00  0.00     0.039 A 
ATOM     27  C   UNL A   1      36.919  30.387  27.391  1.00  0.00     0.014 A 
ATOM     28  C   UNL A   1      35.813  29.342  29.262  1.00  0.00     0.014 A 
ATOM     29  C   UNL A   1      38.147  29.931  27.862  1.00  0.00     0.010 A 
ATOM     30  C   UNL A   1      37.058  28.983  29.795  1.00  0.00     0.010 A 
ATOM     31  C   UNL A   1      38.236  29.228  29.073  1.00  0.00    -0.014 A 
BRANCH  31  32
ATOM     32  C   UNL A   1      39.564  28.767  29.564  1.00  0.00     0.031 A 
ATOM     33  C   UNL A   1      40.219  29.420  30.754  1.00  0.00     0.074 A 
ATOM     34  C   UNL A   1      40.167  27.723  28.960  1.00  0.00     0.049 A 
ATOM     35  N   UNL A   1      41.384  29.169  31.297  1.00  0.00    -0.248 NA
ATOM     36  C   UNL A   1      39.472  30.499  31.419  1.00  0.00     0.031 C 
ATOM     37  C   UNL A   1      39.637  26.990  27.808  1.00  0.00     0.029 A 
ATOM     38  N   UNL A   1      41.347  27.081  29.241  1.00  0.00    -0.354 N 
ATOM     39  C   UNL A   1      41.523  30.074  32.342  1.00  0.00     0.074 A 
ATOM     40  C   UNL A   1      40.331  30.895  32.347  1.00  0.00     0.031 C 
ATOM     41  C   UNL A   1      40.457  25.970  27.516  1.00  0.00     0.029 A 
ATOM     42  C   UNL A   1      41.610  26.022  28.408  1.00  0.00     0.049 A 
ATOM     43  H   UNL A   1      41.950  27.355  29.972  1.00  0.00     0.167 HD
ATOM     44  C   UNL A   1      42.544  30.204  33.224  1.00  0.00     0.037 A 
ATOM     45  C   UNL A   1      42.670  25.196  28.346  1.00  0.00     0.037 A 
ATOM     46  C   UNL A   1      43.717  29.367  33.240  1.00  0.00     0.049 A 
ATOM     47  C   UNL A   1      43.810  25.396  29.303  1.00  0.00     0.074 A 
ATOM     48  C   UNL A   1      44.791  29.403  34.113  1.00  0.00     0.029 A 
ATOM     49  N   UNL A   1      43.969  28.342  32.340  1.00  0.00    -0.354 N 
ATOM     50  N   UNL A   1      43.923  26.257  30.284  1.00  0.00    -0.248 NA
ATOM     51  C   UNL A   1      44.976  24.520  29.129  1.00  0.00     0.031 C 
ATOM     52  C   UNL A   1      45.712  28.426  33.717  1.00  0.00     0.029 A 
ATOM     53  C   UNL A   1      45.192  27.755  32.622  1.00  0.00     0.049 A 
ATOM     54  H   UNL A   1      43.368  28.071  31.609  1.00  0.00     0.167 HD
ATOM     55  C   UNL A   1      45.167  26.020  30.852  1.00  0.00     0.074 A 
ATOM     56  C   UNL A   1      45.759  24.918  30.122  1.00  0.00     0.031 C 
ATOM     57  C   UNL A   1      45.769  26.663  31.882  1.00  0.00     0.037 A 
BRANCH  44  58
ATOM     58  C   UNL A   1      42.451  31.308  34.238  1.00  0.00     0.057 A 
ATOM     59  C   UNL A   1      42.916  32.593  33.933  1.00  0.00     0.134 A 
ATOM     60  C   UNL A   1      41.944  31.094  35.525  1.00  0.00     0.134 A 
ATOM     61  F   UNL A   1      43.423  32.864  32.721  1.00  0.00    -0.206 F 
ATOM     62  C   UNL A   1      42.879  33.626  34.871  1.00  0.00     0.040 A 
ATOM     63  C   UNL A   1      41.888  32.124  36.467  1.00  0.00     0.040 A 
ATOM     64  F   UNL A   1      41.468  29.890  35.879  1.00  0.00    -0.206 F 
ATOM     65  C   UNL A   1      42.359  33.393  36.142  1.00  0.00     0.006 A 
ENDBRANCH  44  58
BRANCH  45  66
ATOM     66  C   UNL A   1      42.721  24.123  27.322  1.00  0.00     0.057 A 
ATOM     67  C   UNL A   1      42.224  22.840  27.585  1.00  0.00     0.134 A 
ATOM     68  C   UNL A   1      43.255  24.359  26.051  1.00  0.00     0.134 A 
ATOM     69  F   UNL A   1      41.700  22.549  28.785  1.00  0.00    -0.206 F 
ATOM     70  C   UNL A   1      42.269  21.828  26.626  1.00  0.00     0.040 A 
ATOM     71  C   UNL A   1      43.281  23.365  25.073  1.00  0.00     0.040 A 
ATOM     72  F   UNL A   1      43.726  25.574  25.733  1.00  0.00    -0.206 F 
ATOM     73  C   UNL A   1      42.791  22.092  25.362  1.00  0.00     0.006 A 
ENDBRANCH  45  66
BRANCH  57  74
ATOM     74  C   UNL A   1      47.128  26.171  32.284  1.00  0.00     0.057 A 
ATOM     75  C   UNL A   1      48.281  26.669  31.664  1.00  0.00     0.134 A 
ATOM     76  C   UNL A   1      47.294  25.199  33.279  1.00  0.00     0.134 A 
ATOM     77  F   UNL A   1      48.190  27.598  30.702  1.00  0.00    -0.206 F 
ATOM     78  C   UNL A   1      49.552  26.218  32.022  1.00  0.00     0.040 A 
ATOM     79  C   UNL A   1      48.562  24.757  33.662  1.00  0.00     0.040 A 
ATOM     80  F   UNL A   1      46.230  24.696  33.922  1.00  0.00    -0.206 F 
ATOM     81  C   UNL A   1      49.695  25.265  33.028  1.00  0.00     0.006 A 
ENDBRANCH  57  74
ENDBRANCH  31  32
ENDBRANCH  23  26
ENDBRANCH  21  22
ENDBRANCH  20  21
ENDBRANCH  19  20
ENDBRANCH   3  19
TORSDOF 15
ENDMDL
