MODEL 1
REMARK VINA RESULT:     -13.5      0.000      0.000
REMARK SMILES O=C(NCCCNC(=O)[C@H](Cc1ccc(O)cc1)NC(=O)c1ccc(Cl)s1)c1ccc(-c2c3nc(c(-c4c(F)cccc4F)c4ccc([nH]4)c(-c4c(F)cccc4F)c4nc(c(-c5c(F)cccc5F)c5ccc2[nH]5)C=C4)C=C3)cc1
REMARK SMILES IDX 5 1 4 2 3 3 1 4 2 5 28 7 29 8 81 9 30 10 80 11 31 12 32 13
REMARK SMILES IDX 33 14 74 15 34 16 79 17 73 18 75 19 35 20 78 21 72 22 71 23
REMARK SMILES IDX 36 25 62 26 45 27 61 28 46 29 49 30 60 31 76 32 47 33 48 34
REMARK SMILES IDX 59 36 77 37 50 38 37 39 38 40 43 41 39 42 40 43 42 44 44 45
REMARK SMILES IDX 41 46 63 47 64 48 69 49 65 50 66 51 68 52 70 53 67 54 51 55
REMARK SMILES IDX 52 56 57 57 53 58 54 59 56 60 58 61 55 62 6 63 7 64 8 65
REMARK SMILES IDX 9 67 10 68 19 69 20 70 21 72 22 73 23 74 27 75 24 76 25 77
REMARK SMILES IDX 26 78 11 79 12 80 13 81 18 82 14 83 17 84 15 85 16 86
REMARK H PARENT 3 6 75 24 49 35 7 66 19 71 16 87
REMARK Flexibility Score: inf
ROOT
ATOM      1  C   UNL A   1      31.500  32.000  26.520  1.00  0.00     0.042 C 
ENDROOT
BRANCH   1   2
ATOM      2  C   UNL A   1      32.524  32.804  27.704  1.00  0.00     0.118 C 
BRANCH   2   3
ATOM      3  N   UNL A   1      32.533  34.275  27.818  1.00  0.00    -0.352 N 
ATOM      4  O   UNL A   1      32.643  36.224  28.969  1.00  0.00    -0.269 OA
ATOM      5  C   UNL A   1      33.070  35.094  28.766  1.00  0.00     0.251 C 
ATOM      6  H   UNL A   1      32.073  34.744  27.085  1.00  0.00     0.163 HD
BRANCH   5   7
ATOM      7  C   UNL A   1      34.281  34.635  29.435  1.00  0.00     0.039 A 
ATOM      8  C   UNL A   1      34.122  34.046  30.694  1.00  0.00     0.014 A 
ATOM      9  C   UNL A   1      35.517  34.686  28.793  1.00  0.00     0.014 A 
ATOM     10  C   UNL A   1      35.224  33.592  31.372  1.00  0.00     0.010 A 
ATOM     11  C   UNL A   1      36.618  34.145  29.441  1.00  0.00     0.010 A 
ATOM     12  C   UNL A   1      36.464  33.599  30.724  1.00  0.00    -0.014 A 
BRANCH  12  13
ATOM     13  C   UNL A   1      37.569  32.900  31.385  1.00  0.00     0.031 A 
ATOM     14  C   UNL A   1      38.211  31.735  30.720  1.00  0.00     0.074 A 
ATOM     15  C   UNL A   1      37.975  33.386  32.569  1.00  0.00     0.049 A 
ATOM     16  N   UNL A   1      39.178  30.979  31.158  1.00  0.00    -0.248 NA
ATOM     17  C   UNL A   1      37.694  31.362  29.395  1.00  0.00     0.031 C 
ATOM     18  C   UNL A   1      37.380  34.544  33.250  1.00  0.00     0.029 A 
ATOM     19  N   UNL A   1      38.979  32.991  33.403  1.00  0.00    -0.354 N 
ATOM     20  C   UNL A   1      39.369  30.019  30.177  1.00  0.00     0.074 A 
ATOM     21  C   UNL A   1      38.412  30.282  29.125  1.00  0.00     0.031 C 
ATOM     22  C   UNL A   1      38.047  34.776  34.386  1.00  0.00     0.029 A 
ATOM     23  C   UNL A   1      39.059  33.744  34.547  1.00  0.00     0.049 A 
ATOM     24  H   UNL A   1      39.585  32.240  33.204  1.00  0.00     0.167 HD
ATOM     25  C   UNL A   1      40.269  29.011  30.180  1.00  0.00     0.037 A 
ATOM     26  C   UNL A   1      39.843  33.584  35.626  1.00  0.00     0.037 A 
ATOM     27  C   UNL A   1      41.198  28.793  31.259  1.00  0.00     0.049 A 
ATOM     28  C   UNL A   1      40.814  32.447  35.613  1.00  0.00     0.074 A 
ATOM     29  C   UNL A   1      42.172  27.822  31.381  1.00  0.00     0.029 A 
ATOM     30  N   UNL A   1      41.253  29.569  32.414  1.00  0.00    -0.354 N 
ATOM     31  N   UNL A   1      41.008  31.546  34.677  1.00  0.00    -0.248 NA
ATOM     32  C   UNL A   1      41.669  32.291  36.792  1.00  0.00     0.031 C 
ATOM     33  C   UNL A   1      42.783  27.979  32.630  1.00  0.00     0.029 A 
ATOM     34  C   UNL A   1      42.227  29.081  33.265  1.00  0.00     0.049 A 
ATOM     35  H   UNL A   1      40.681  30.349  32.597  1.00  0.00     0.167 HD
ATOM     36  C   UNL A   1      42.015  30.719  35.144  1.00  0.00     0.074 A 
ATOM     37  C   UNL A   1      42.399  31.237  36.446  1.00  0.00     0.031 C 
ATOM     38  C   UNL A   1      42.573  29.633  34.555  1.00  0.00     0.037 A 
BRANCH  25  39
ATOM     39  C   UNL A   1      40.233  28.057  29.023  1.00  0.00     0.057 A 
ATOM     40  C   UNL A   1      39.492  26.868  29.056  1.00  0.00     0.134 A 
ATOM     41  C   UNL A   1      40.980  28.317  27.868  1.00  0.00     0.134 A 
ATOM     42  F   UNL A   1      38.773  26.542  30.141  1.00  0.00    -0.206 F 
ATOM     43  C   UNL A   1      39.521  25.957  27.995  1.00  0.00     0.040 A 
ATOM     44  C   UNL A   1      40.997  27.429  26.791  1.00  0.00     0.040 A 
ATOM     45  F   UNL A   1      41.716  29.434  27.770  1.00  0.00    -0.206 F 
ATOM     46  C   UNL A   1      40.273  26.240  26.857  1.00  0.00     0.006 A 
ENDBRANCH  25  39
BRANCH  26  47
ATOM     47  C   UNL A   1      39.690  34.511  36.771  1.00  0.00     0.057 A 
ATOM     48  C   UNL A   1      38.953  34.156  37.904  1.00  0.00     0.134 A 
ATOM     49  C   UNL A   1      40.371  35.736  36.802  1.00  0.00     0.134 A 
ATOM     50  F   UNL A   1      38.280  32.996  37.935  1.00  0.00    -0.206 F 
ATOM     51  C   UNL A   1      38.900  34.982  39.028  1.00  0.00     0.040 A 
ATOM     52  C   UNL A   1      40.348  36.560  37.927  1.00  0.00     0.040 A 
ATOM     53  F   UNL A   1      41.114  36.124  35.754  1.00  0.00    -0.206 F 
ATOM     54  C   UNL A   1      39.609  36.183  39.046  1.00  0.00     0.006 A 
ENDBRANCH  26  47
BRANCH  38  55
ATOM     55  C   UNL A   1      43.672  28.956  35.310  1.00  0.00     0.057 A 
ATOM     56  C   UNL A   1      45.014  29.310  35.131  1.00  0.00     0.134 A 
ATOM     57  C   UNL A   1      43.373  27.987  36.276  1.00  0.00     0.134 A 
ATOM     58  F   UNL A   1      45.360  30.221  34.209  1.00  0.00    -0.206 F 
ATOM     59  C   UNL A   1      46.025  28.716  35.884  1.00  0.00     0.040 A 
ATOM     60  C   UNL A   1      44.372  27.404  37.052  1.00  0.00     0.040 A 
ATOM     61  F   UNL A   1      42.103  27.613  36.494  1.00  0.00    -0.206 F 
ATOM     62  C   UNL A   1      45.704  27.768  36.855  1.00  0.00     0.006 A 
ENDBRANCH  38  55
ENDBRANCH  12  13
ENDBRANCH   5   7
ENDBRANCH   2   3
ENDBRANCH   1   2
BRANCH   1  63
ATOM     63  C   UNL A   1      31.692  30.194  25.289  1.00  0.00     0.117 C 
BRANCH  63  64
ATOM     64  N   UNL A   1      32.982  29.525  24.621  1.00  0.00    -0.354 N 
ATOM     65  C   UNL A   1      33.266  28.185  24.591  1.00  0.00     0.242 C 
ATOM     66  H   UNL A   1      33.630  30.130  24.193  1.00  0.00     0.163 HD
ATOM     67  O   UNL A   1      34.435  27.800  24.620  1.00  0.00    -0.273 OA
BRANCH  65  68
ATOM     68  C   UNL A   1      32.052  27.257  24.616  1.00  0.00     0.176 C 
BRANCH  68  69
ATOM     69  N   UNL A   1      31.977  26.598  23.319  1.00  0.00    -0.339 N 
ATOM     70  C   UNL A   1      31.158  26.980  22.263  1.00  0.00     0.262 C 
ATOM     71  H   UNL A   1      32.557  25.815  23.178  1.00  0.00     0.164 HD
ATOM     72  O   UNL A   1      31.135  26.261  21.266  1.00  0.00    -0.268 OA
BRANCH  70  73
ATOM     73  C   UNL A   1      30.371  28.205  22.372  1.00  0.00     0.093 A 
ATOM     74  C   UNL A   1      30.610  29.461  21.832  1.00  0.00     0.027 A 
ATOM     75  S   UNL A   1      28.873  28.179  23.206  1.00  0.00    -0.118 S 
ATOM     76  C   UNL A   1      29.646  30.430  22.237  1.00  0.00     0.033 A 
ATOM     77  C   UNL A   1      28.639  29.838  22.950  1.00  0.00     0.094 A 
ATOM     78  Cl  UNL A   1      27.234  30.614  23.559  1.00  0.00    -0.072 Cl
ENDBRANCH  70  73
ENDBRANCH  68  69
BRANCH  68  79
ATOM     79  C   UNL A   1      32.180  26.353  25.873  1.00  0.00     0.070 C 
BRANCH  79  80
ATOM     80  C   UNL A   1      32.551  24.936  25.399  1.00  0.00    -0.045 A 
ATOM     81  C   UNL A   1      31.211  23.731  25.255  1.00  0.00     0.007 A 
ATOM     82  C   UNL A   1      34.221  24.373  25.814  1.00  0.00     0.007 A 
ATOM     83  C   UNL A   1      31.491  22.008  25.686  1.00  0.00     0.046 A 
ATOM     84  C   UNL A   1      34.478  22.642  26.311  1.00  0.00     0.046 A 
ATOM     85  C   UNL A   1      33.135  21.453  26.157  1.00  0.00     0.115 A 
BRANCH  85  86
ATOM     86  O   UNL A   1      33.351  20.167  26.524  1.00  0.00    -0.508 OA
ATOM     87  H   UNL A   1      32.738  19.729  27.082  1.00  0.00     0.293 HD
ENDBRANCH  85  86
ENDBRANCH  79  80
ENDBRANCH  68  79
ENDBRANCH  65  68
ENDBRANCH  63  64
ENDBRANCH   1  63
TORSDOF 15
ENDMDL
MODEL 2
REMARK VINA RESULT:     -13.5      4.423      8.881
REMARK SMILES O=C(NCCCNC(=O)[C@H](Cc1ccc(O)cc1)NC(=O)c1ccc(Cl)s1)c1ccc(-c2c3nc(c(-c4c(F)cccc4F)c4ccc([nH]4)c(-c4c(F)cccc4F)c4nc(c(-c5c(F)cccc5F)c5ccc2[nH]5)C=C4)C=C3)cc1
REMARK SMILES IDX 5 1 4 2 3 3 1 4 2 5 28 7 29 8 81 9 30 10 80 11 31 12 32 13
REMARK SMILES IDX 33 14 74 15 34 16 79 17 73 18 75 19 35 20 78 21 72 22 71 23
REMARK SMILES IDX 36 25 62 26 45 27 61 28 46 29 49 30 60 31 76 32 47 33 48 34
REMARK SMILES IDX 59 36 77 37 50 38 37 39 38 40 43 41 39 42 40 43 42 44 44 45
REMARK SMILES IDX 41 46 63 47 64 48 69 49 65 50 66 51 68 52 70 53 67 54 51 55
REMARK SMILES IDX 52 56 57 57 53 58 54 59 56 60 58 61 55 62 6 63 7 64 8 65
REMARK SMILES IDX 9 67 10 68 19 69 20 70 21 72 22 73 23 74 27 75 24 76 25 77
REMARK SMILES IDX 26 78 11 79 12 80 13 81 18 82 14 83 17 84 15 85 16 86
REMARK H PARENT 3 6 75 24 49 35 7 66 19 71 16 87
REMARK Flexibility Score: inf
ROOT
ATOM      1  C   UNL A   1      33.042  27.577  26.620  1.00  0.00     0.042 C 
ENDROOT
BRANCH   1   2
ATOM      2  C   UNL A   1      34.215  28.818  26.195  1.00  0.00     0.118 C 
BRANCH   2   3
ATOM      3  N   UNL A   1      34.217  30.121  26.885  1.00  0.00    -0.352 N 
ATOM      4  O   UNL A   1      34.475  31.466  28.692  1.00  0.00    -0.269 OA
ATOM      5  C   UNL A   1      34.884  30.543  27.997  1.00  0.00     0.251 C 
ATOM      6  H   UNL A   1      33.637  30.802  26.472  1.00  0.00     0.163 HD
BRANCH   5   7
ATOM      7  C   UNL A   1      36.194  29.957  28.250  1.00  0.00     0.039 A 
ATOM      8  C   UNL A   1      37.161  30.115  27.251  1.00  0.00     0.014 A 
ATOM      9  C   UNL A   1      36.489  29.369  29.479  1.00  0.00     0.014 A 
ATOM     10  C   UNL A   1      38.414  29.588  27.433  1.00  0.00     0.010 A 
ATOM     11  C   UNL A   1      37.782  28.916  29.698  1.00  0.00     0.010 A 
ATOM     12  C   UNL A   1      38.736  29.032  28.675  1.00  0.00    -0.014 A 
BRANCH  12  13
ATOM     13  C   UNL A   1      40.141  28.690  28.911  1.00  0.00     0.031 A 
ATOM     14  C   UNL A   1      41.043  29.675  29.563  1.00  0.00     0.074 A 
ATOM     15  C   UNL A   1      40.537  27.458  28.548  1.00  0.00     0.049 A 
ATOM     16  N   UNL A   1      42.314  29.563  29.829  1.00  0.00    -0.248 NA
ATOM     17  C   UNL A   1      40.445  30.958  29.961  1.00  0.00     0.031 C 
ATOM     18  C   UNL A   1      39.674  26.451  27.918  1.00  0.00     0.029 A 
ATOM     19  N   UNL A   1      41.745  26.836  28.661  1.00  0.00    -0.354 N 
ATOM     20  C   UNL A   1      42.680  30.773  30.399  1.00  0.00     0.074 A 
ATOM     21  C   UNL A   1      41.499  31.608  30.431  1.00  0.00     0.031 C 
ATOM     22  C   UNL A   1      40.377  25.330  27.723  1.00  0.00     0.029 A 
ATOM     23  C   UNL A   1      41.750  25.566  28.142  1.00  0.00     0.049 A 
ATOM     24  H   UNL A   1      42.535  27.256  29.075  1.00  0.00     0.167 HD
ATOM     25  C   UNL A   1      43.904  31.134  30.843  1.00  0.00     0.037 A 
ATOM     26  C   UNL A   1      42.770  24.707  27.986  1.00  0.00     0.037 A 
ATOM     27  C   UNL A   1      45.048  30.262  30.782  1.00  0.00     0.049 A 
ATOM     28  C   UNL A   1      44.119  25.140  28.465  1.00  0.00     0.074 A 
ATOM     29  C   UNL A   1      46.340  30.495  31.211  1.00  0.00     0.029 A 
ATOM     30  N   UNL A   1      45.027  28.979  30.241  1.00  0.00    -0.354 N 
ATOM     31  N   UNL A   1      44.463  26.280  29.021  1.00  0.00    -0.248 NA
ATOM     32  C   UNL A   1      45.219  24.189  28.299  1.00  0.00     0.031 C 
ATOM     33  C   UNL A   1      47.111  29.373  30.887  1.00  0.00     0.029 A 
ATOM     34  C   UNL A   1      46.290  28.418  30.303  1.00  0.00     0.049 A 
ATOM     35  H   UNL A   1      44.231  28.536  29.870  1.00  0.00     0.167 HD
ATOM     36  C   UNL A   1      45.819  26.184  29.282  1.00  0.00     0.074 A 
ATOM     37  C   UNL A   1      46.230  24.864  28.833  1.00  0.00     0.031 C 
ATOM     38  C   UNL A   1      46.650  27.097  29.841  1.00  0.00     0.037 A 
BRANCH  25  39
ATOM     39  C   UNL A   1      44.060  32.533  31.361  1.00  0.00     0.057 A 
ATOM     40  C   UNL A   1      43.900  32.852  32.716  1.00  0.00     0.134 A 
ATOM     41  C   UNL A   1      44.344  33.585  30.482  1.00  0.00     0.134 A 
ATOM     42  F   UNL A   1      43.603  31.897  33.610  1.00  0.00    -0.206 F 
ATOM     43  C   UNL A   1      43.984  34.171  33.172  1.00  0.00     0.040 A 
ATOM     44  C   UNL A   1      44.456  34.903  30.928  1.00  0.00     0.040 A 
ATOM     45  F   UNL A   1      44.504  33.353  29.170  1.00  0.00    -0.206 F 
ATOM     46  C   UNL A   1      44.267  35.200  32.277  1.00  0.00     0.006 A 
ENDBRANCH  25  39
BRANCH  26  47
ATOM     47  C   UNL A   1      42.519  23.402  27.332  1.00  0.00     0.057 A 
ATOM     48  C   UNL A   1      42.762  23.210  25.970  1.00  0.00     0.134 A 
ATOM     49  C   UNL A   1      42.130  22.283  28.082  1.00  0.00     0.134 A 
ATOM     50  F   UNL A   1      43.137  24.243  25.199  1.00  0.00    -0.206 F 
ATOM     51  C   UNL A   1      42.633  21.953  25.375  1.00  0.00     0.040 A 
ATOM     52  C   UNL A   1      42.021  21.016  27.508  1.00  0.00     0.040 A 
ATOM     53  F   UNL A   1      41.904  22.396  29.400  1.00  0.00    -0.206 F 
ATOM     54  C   UNL A   1      42.273  20.850  26.148  1.00  0.00     0.006 A 
ENDBRANCH  26  47
BRANCH  38  55
ATOM     55  C   UNL A   1      48.077  26.682  30.017  1.00  0.00     0.057 A 
ATOM     56  C   UNL A   1      48.500  25.962  31.139  1.00  0.00     0.134 A 
ATOM     57  C   UNL A   1      49.017  26.951  29.015  1.00  0.00     0.134 A 
ATOM     58  F   UNL A   1      47.645  25.690  32.136  1.00  0.00    -0.206 F 
ATOM     59  C   UNL A   1      49.818  25.528  31.263  1.00  0.00     0.040 A 
ATOM     60  C   UNL A   1      50.332  26.500  29.117  1.00  0.00     0.040 A 
ATOM     61  F   UNL A   1      48.665  27.632  27.914  1.00  0.00    -0.206 F 
ATOM     62  C   UNL A   1      50.736  25.787  30.244  1.00  0.00     0.006 A 
ENDBRANCH  38  55
ENDBRANCH  12  13
ENDBRANCH   5   7
ENDBRANCH   2   3
ENDBRANCH   1   2
BRANCH   1  63
ATOM     63  C   UNL A   1      33.002  25.387  26.499  1.00  0.00     0.117 C 
BRANCH  63  64
ATOM     64  N   UNL A   1      31.878  24.342  26.950  1.00  0.00    -0.354 N 
ATOM     65  C   UNL A   1      31.042  23.651  26.113  1.00  0.00     0.242 C 
ATOM     66  H   UNL A   1      31.778  24.181  27.917  1.00  0.00     0.163 HD
ATOM     67  O   UNL A   1      29.902  23.364  26.477  1.00  0.00    -0.273 OA
BRANCH  65  68
ATOM     68  C   UNL A   1      31.598  23.371  24.717  1.00  0.00     0.176 C 
BRANCH  68  69
ATOM     69  N   UNL A   1      31.786  21.931  24.602  1.00  0.00    -0.339 N 
ATOM     70  C   UNL A   1      33.003  21.285  24.424  1.00  0.00     0.262 C 
ATOM     71  H   UNL A   1      30.980  21.366  24.654  1.00  0.00     0.164 HD
ATOM     72  O   UNL A   1      32.987  20.068  24.244  1.00  0.00    -0.268 OA
BRANCH  70  73
ATOM     73  C   UNL A   1      34.239  22.060  24.464  1.00  0.00     0.093 A 
ATOM     74  C   UNL A   1      34.858  22.791  23.458  1.00  0.00     0.027 A 
ATOM     75  S   UNL A   1      35.094  22.220  25.942  1.00  0.00    -0.118 S 
ATOM     76  C   UNL A   1      36.108  23.344  23.864  1.00  0.00     0.033 A 
ATOM     77  C   UNL A   1      36.316  23.131  25.200  1.00  0.00     0.094 A 
ATOM     78  Cl  UNL A   1      37.648  23.698  26.123  1.00  0.00    -0.072 Cl
ENDBRANCH  70  73
ENDBRANCH  68  69
BRANCH  68  79
ATOM     79  C   UNL A   1      30.653  24.056  23.691  1.00  0.00     0.070 C 
BRANCH  79  80
ATOM     80  C   UNL A   1      30.816  25.579  23.846  1.00  0.00    -0.045 A 
ATOM     81  C   UNL A   1      29.310  26.577  23.878  1.00  0.00     0.007 A 
ATOM     82  C   UNL A   1      32.344  26.284  23.175  1.00  0.00     0.007 A 
ATOM     83  C   UNL A   1      29.277  28.196  23.097  1.00  0.00     0.046 A 
ATOM     84  C   UNL A   1      32.283  27.895  22.330  1.00  0.00     0.046 A 
ATOM     85  C   UNL A   1      30.776  28.878  22.377  1.00  0.00     0.115 A 
BRANCH  85  86
ATOM     86  O   UNL A   1      30.756  30.079  21.749  1.00  0.00    -0.508 OA
ATOM     87  H   UNL A   1      30.219  30.773  22.079  1.00  0.00     0.293 HD
ENDBRANCH  85  86
ENDBRANCH  79  80
ENDBRANCH  68  79
ENDBRANCH  65  68
ENDBRANCH  63  64
ENDBRANCH   1  63
TORSDOF 15
ENDMDL
MODEL 3
REMARK VINA RESULT:     -13.5      0.541      6.388
REMARK SMILES O=C(NCCCNC(=O)[C@H](Cc1ccc(O)cc1)NC(=O)c1ccc(Cl)s1)c1ccc(-c2c3nc(c(-c4c(F)cccc4F)c4ccc([nH]4)c(-c4c(F)cccc4F)c4nc(c(-c5c(F)cccc5F)c5ccc2[nH]5)C=C4)C=C3)cc1
REMARK SMILES IDX 5 1 4 2 3 3 1 4 2 5 28 7 29 8 81 9 30 10 80 11 31 12 32 13
REMARK SMILES IDX 33 14 74 15 34 16 79 17 73 18 75 19 35 20 78 21 72 22 71 23
REMARK SMILES IDX 36 25 62 26 45 27 61 28 46 29 49 30 60 31 76 32 47 33 48 34
REMARK SMILES IDX 59 36 77 37 50 38 37 39 38 40 43 41 39 42 40 43 42 44 44 45
REMARK SMILES IDX 41 46 63 47 64 48 69 49 65 50 66 51 68 52 70 53 67 54 51 55
REMARK SMILES IDX 52 56 57 57 53 58 54 59 56 60 58 61 55 62 6 63 7 64 8 65
REMARK SMILES IDX 9 67 10 68 19 69 20 70 21 72 22 73 23 74 27 75 24 76 25 77
REMARK SMILES IDX 26 78 11 79 12 80 13 81 18 82 14 83 17 84 15 85 16 86
REMARK H PARENT 3 6 75 24 49 35 7 66 19 71 16 87
REMARK Flexibility Score: inf
ROOT
ATOM      1  C   UNL A   1      31.417  32.111  26.577  1.00  0.00     0.042 C 
ENDROOT
BRANCH   1   2
ATOM      2  C   UNL A   1      32.430  32.897  27.783  1.00  0.00     0.118 C 
BRANCH   2   3
ATOM      3  N   UNL A   1      32.530  34.368  27.840  1.00  0.00    -0.352 N 
ATOM      4  O   UNL A   1      32.782  36.348  28.914  1.00  0.00    -0.269 OA
ATOM      5  C   UNL A   1      33.136  35.187  28.746  1.00  0.00     0.251 C 
ATOM      6  H   UNL A   1      32.083  34.836  27.099  1.00  0.00     0.163 HD
BRANCH   5   7
ATOM      7  C   UNL A   1      34.331  34.681  29.408  1.00  0.00     0.039 A 
ATOM      8  C   UNL A   1      34.155  34.089  30.663  1.00  0.00     0.014 A 
ATOM      9  C   UNL A   1      35.566  34.692  28.761  1.00  0.00     0.014 A 
ATOM     10  C   UNL A   1      35.243  33.592  31.335  1.00  0.00     0.010 A 
ATOM     11  C   UNL A   1      36.649  34.107  29.402  1.00  0.00     0.010 A 
ATOM     12  C   UNL A   1      36.479  33.558  30.682  1.00  0.00    -0.014 A 
BRANCH  12  13
ATOM     13  C   UNL A   1      37.561  32.816  31.334  1.00  0.00     0.031 A 
ATOM     14  C   UNL A   1      38.043  33.236  32.676  1.00  0.00     0.074 A 
ATOM     15  C   UNL A   1      38.046  31.747  30.681  1.00  0.00     0.049 A 
ATOM     16  N   UNL A   1      39.002  32.723  33.394  1.00  0.00    -0.248 NA
ATOM     17  C   UNL A   1      37.369  34.390  33.290  1.00  0.00     0.031 C 
ATOM     18  C   UNL A   1      37.585  31.289  29.363  1.00  0.00     0.029 A 
ATOM     19  N   UNL A   1      39.010  30.847  31.027  1.00  0.00    -0.354 N 
ATOM     20  C   UNL A   1      39.070  33.508  34.535  1.00  0.00     0.074 A 
ATOM     21  C   UNL A   1      38.062  34.538  34.409  1.00  0.00     0.031 C 
ATOM     22  C   UNL A   1      38.254  30.180  29.025  1.00  0.00     0.029 A 
ATOM     23  C   UNL A   1      39.235  29.898  30.062  1.00  0.00     0.049 A 
ATOM     24  H   UNL A   1      39.497  30.876  31.883  1.00  0.00     0.167 HD
ATOM     25  C   UNL A   1      39.914  33.365  35.580  1.00  0.00     0.037 A 
ATOM     26  C   UNL A   1      40.165  28.931  30.010  1.00  0.00     0.037 A 
ATOM     27  C   UNL A   1      40.903  32.321  35.651  1.00  0.00     0.049 A 
ATOM     28  C   UNL A   1      41.102  28.809  31.169  1.00  0.00     0.074 A 
ATOM     29  C   UNL A   1      41.809  32.052  36.658  1.00  0.00     0.029 A 
ATOM     30  N   UNL A   1      41.116  31.374  34.653  1.00  0.00    -0.354 N 
ATOM     31  N   UNL A   1      41.156  29.542  32.258  1.00  0.00    -0.248 NA
ATOM     32  C   UNL A   1      42.104  27.743  31.104  1.00  0.00     0.031 C 
ATOM     33  C   UNL A   1      42.602  30.974  36.249  1.00  0.00     0.029 A 
ATOM     34  C   UNL A   1      42.156  30.535  35.009  1.00  0.00     0.049 A 
ATOM     35  H   UNL A   1      40.601  31.311  33.816  1.00  0.00     0.167 HD
ATOM     36  C   UNL A   1      42.191  29.023  33.017  1.00  0.00     0.074 A 
ATOM     37  C   UNL A   1      42.729  27.902  32.264  1.00  0.00     0.031 C 
ATOM     38  C   UNL A   1      42.656  29.431  34.223  1.00  0.00     0.037 A 
BRANCH  25  39
ATOM     39  C   UNL A   1      39.833  34.391  36.672  1.00  0.00     0.057 A 
ATOM     40  C   UNL A   1      40.534  35.603  36.613  1.00  0.00     0.134 A 
ATOM     41  C   UNL A   1      39.066  34.147  37.817  1.00  0.00     0.134 A 
ATOM     42  F   UNL A   1      41.309  35.891  35.556  1.00  0.00    -0.206 F 
ATOM     43  C   UNL A   1      40.501  36.520  37.668  1.00  0.00     0.040 A 
ATOM     44  C   UNL A   1      39.003  35.066  38.866  1.00  0.00     0.040 A 
ATOM     45  F   UNL A   1      38.373  33.004  37.942  1.00  0.00    -0.206 F 
ATOM     46  C   UNL A   1      39.730  36.253  38.797  1.00  0.00     0.006 A 
ENDBRANCH  25  39
BRANCH  26  47
ATOM     47  C   UNL A   1      40.236  28.063  28.812  1.00  0.00     0.057 A 
ATOM     48  C   UNL A   1      41.019  28.407  27.707  1.00  0.00     0.134 A 
ATOM     49  C   UNL A   1      39.602  26.812  28.790  1.00  0.00     0.134 A 
ATOM     50  F   UNL A   1      41.651  29.589  27.670  1.00  0.00    -0.206 F 
ATOM     51  C   UNL A   1      41.175  27.538  26.625  1.00  0.00     0.040 A 
ATOM     52  C   UNL A   1      39.769  25.924  27.727  1.00  0.00     0.040 A 
ATOM     53  F   UNL A   1      38.854  26.414  29.830  1.00  0.00    -0.206 F 
ATOM     54  C   UNL A   1      40.558  26.288  26.639  1.00  0.00     0.006 A 
ENDBRANCH  26  47
BRANCH  38  55
ATOM     55  C   UNL A   1      43.785  28.640  34.805  1.00  0.00     0.057 A 
ATOM     56  C   UNL A   1      43.559  27.541  35.641  1.00  0.00     0.134 A 
ATOM     57  C   UNL A   1      45.109  28.946  34.467  1.00  0.00     0.134 A 
ATOM     58  F   UNL A   1      42.312  27.212  36.010  1.00  0.00    -0.206 F 
ATOM     59  C   UNL A   1      44.616  26.774  36.128  1.00  0.00     0.040 A 
ATOM     60  C   UNL A   1      46.172  28.172  34.927  1.00  0.00     0.040 A 
ATOM     61  F   UNL A   1      45.383  29.986  33.664  1.00  0.00    -0.206 F 
ATOM     62  C   UNL A   1      45.926  27.083  35.762  1.00  0.00     0.006 A 
ENDBRANCH  38  55
ENDBRANCH  12  13
ENDBRANCH   5   7
ENDBRANCH   2   3
ENDBRANCH   1   2
BRANCH   1  63
ATOM     63  C   UNL A   1      31.643  30.353  25.284  1.00  0.00     0.117 C 
BRANCH  63  64
ATOM     64  N   UNL A   1      32.957  29.665  24.687  1.00  0.00    -0.354 N 
ATOM     65  C   UNL A   1      33.223  28.321  24.672  1.00  0.00     0.242 C 
ATOM     66  H   UNL A   1      33.636  30.261  24.295  1.00  0.00     0.163 HD
ATOM     67  O   UNL A   1      34.383  27.919  24.765  1.00  0.00    -0.273 OA
BRANCH  65  68
ATOM     68  C   UNL A   1      31.996  27.410  24.631  1.00  0.00     0.176 C 
BRANCH  68  69
ATOM     69  N   UNL A   1      31.975  26.763  23.327  1.00  0.00    -0.339 N 
ATOM     70  C   UNL A   1      31.010  26.951  22.345  1.00  0.00     0.262 C 
ATOM     71  H   UNL A   1      32.708  26.138  23.123  1.00  0.00     0.164 HD
ATOM     72  O   UNL A   1      31.076  26.254  21.333  1.00  0.00    -0.268 OA
BRANCH  70  73
ATOM     73  C   UNL A   1      29.970  27.956  22.543  1.00  0.00     0.093 A 
ATOM     74  C   UNL A   1      28.745  27.847  23.186  1.00  0.00     0.027 A 
ATOM     75  S   UNL A   1      30.233  29.565  22.010  1.00  0.00    -0.118 S 
ATOM     76  C   UNL A   1      27.965  29.037  23.096  1.00  0.00     0.033 A 
ATOM     77  C   UNL A   1      28.688  30.044  22.516  1.00  0.00     0.094 A 
ATOM     78  Cl  UNL A   1      28.170  31.664  22.286  1.00  0.00    -0.072 Cl
ENDBRANCH  70  73
ENDBRANCH  68  69
BRANCH  68  79
ATOM     79  C   UNL A   1      32.050  26.496  25.886  1.00  0.00     0.070 C 
BRANCH  79  80
ATOM     80  C   UNL A   1      32.439  25.080  25.420  1.00  0.00    -0.045 A 
ATOM     81  C   UNL A   1      31.118  23.854  25.298  1.00  0.00     0.007 A 
ATOM     82  C   UNL A   1      34.122  24.548  25.827  1.00  0.00     0.007 A 
ATOM     83  C   UNL A   1      31.428  22.139  25.741  1.00  0.00     0.046 A 
ATOM     84  C   UNL A   1      34.409  22.825  26.337  1.00  0.00     0.046 A 
ATOM     85  C   UNL A   1      33.083  21.614  26.204  1.00  0.00     0.115 A 
BRANCH  85  86
ATOM     86  O   UNL A   1      33.323  20.335  26.580  1.00  0.00    -0.508 OA
ATOM     87  H   UNL A   1      33.675  19.722  25.965  1.00  0.00     0.293 HD
ENDBRANCH  85  86
ENDBRANCH  79  80
ENDBRANCH  68  79
ENDBRANCH  65  68
ENDBRANCH  63  64
ENDBRANCH   1  63
TORSDOF 15
ENDMDL
