MODEL 1
REMARK VINA RESULT:     -11.7      0.000      0.000
REMARK SMILES CC[NH2+][C@@]1(C(=O)NCCCNC(=O)c2ccc(-c3c4nc(c(-c5c(F)cccc5F)c5ccc([nH]5)c(-c5c(F)cccc5F)c5nc(c(-c6c(F)cccc6F)c6ccc3[nH]6)C=C5)C=C4)cc2)CC[C@H](Oc2ccc3c(c2)OCO3)C1
REMARK SMILES IDX 9 1 8 2 7 3 5 4 6 5 4 7 68 8 81 9 69 10 70 11 3 12 2 15 1 16
REMARK SMILES IDX 71 17 72 18 73 19 77 20 74 21 76 22 75 23 78 24 80 25 79 26
REMARK SMILES IDX 10 27 11 28 12 29 13 31 14 32 15 33 67 34 16 35 66 36 17 37
REMARK SMILES IDX 18 38 19 39 60 40 20 41 65 42 59 43 61 44 21 45 64 46 58 47
REMARK SMILES IDX 57 48 22 50 48 51 31 52 47 53 32 54 35 55 46 56 62 57 33 58
REMARK SMILES IDX 34 59 45 61 63 62 36 63 23 64 24 65 29 66 25 67 26 68 28 69
REMARK SMILES IDX 30 70 27 71 49 72 50 73 55 74 51 75 52 76 54 77 56 78 53 79
REMARK SMILES IDX 37 80 38 81 43 82 39 83 40 84 42 85 44 86 41 87
REMARK H PARENT 7 6 3 13 3 14 11 30 61 49 35 60
REMARK Flexibility Score: inf
ROOT
ATOM      1  C   UNL A   1      34.017  28.374  25.803  1.00  0.00     0.042 C 
ENDROOT
BRANCH   1   2
ATOM      2  C   UNL A   1      33.280  29.314  24.861  1.00  0.00     0.118 C 
BRANCH   2   3
ATOM      3  N   UNL A   1      33.673  29.093  23.489  1.00  0.00    -0.351 N 
ATOM      4  C   UNL A   1      33.320  28.171  22.560  1.00  0.00     0.281 C 
ATOM      5  O   UNL A   1      34.134  28.087  21.626  1.00  0.00    -0.268 OA
ATOM      6  H   UNL A   1      34.332  29.747  23.161  1.00  0.00     0.163 HD
BRANCH   4   7
ATOM      7  C   UNL A   1      32.042  27.235  22.620  1.00  0.00     0.179 C 
ATOM      8  C   UNL A   1      31.568  26.703  23.986  1.00  0.00     0.083 C 
ATOM      9  C   UNL A   1      32.331  25.981  21.769  1.00  0.00     0.124 C 
ATOM     10  C   UNL A   1      31.917  25.218  24.058  1.00  0.00     0.052 C 
ATOM     11  C   UNL A   1      32.021  24.742  22.617  1.00  0.00     0.180 C 
BRANCH   7  12
ATOM     12  N   UNL A   1      30.909  27.996  22.001  1.00  0.00    -0.334 N 
ATOM     13  H   UNL A   1      31.275  28.880  21.647  1.00  0.00     0.347 HD
ATOM     14  H   UNL A   1      30.525  27.403  21.265  1.00  0.00     0.347 HD
BRANCH  12  15
ATOM     15  C   UNL A   1      29.805  28.290  22.922  1.00  0.00     0.257 C 
ATOM     16  C   UNL A   1      29.805  29.770  23.277  1.00  0.00     0.071 C 
ENDBRANCH  12  15
ENDBRANCH   7  12
BRANCH  11  17
ATOM     17  O   UNL A   1      32.907  23.683  22.235  1.00  0.00    -0.490 OA
BRANCH  17  18
ATOM     18  C   UNL A   1      33.631  22.968  23.139  1.00  0.00     0.123 A 
ATOM     19  C   UNL A   1      33.127  21.827  23.787  1.00  0.00     0.050 A 
ATOM     20  C   UNL A   1      34.987  23.300  23.257  1.00  0.00     0.097 A 
ATOM     21  C   UNL A   1      33.947  21.048  24.610  1.00  0.00     0.054 A 
ATOM     22  C   UNL A   1      35.783  22.492  24.042  1.00  0.00     0.169 A 
ATOM     23  C   UNL A   1      35.273  21.397  24.700  1.00  0.00     0.166 A 
ATOM     24  O   UNL A   1      37.121  22.630  24.246  1.00  0.00    -0.453 OA
ATOM     25  O   UNL A   1      36.225  20.703  25.376  1.00  0.00    -0.454 OA
ATOM     26  C   UNL A   1      37.403  21.380  24.910  1.00  0.00     0.468 C 
ENDBRANCH  17  18
ENDBRANCH  11  17
ENDBRANCH   4   7
ENDBRANCH   2   3
ENDBRANCH   1   2
BRANCH   1  27
ATOM     27  C   UNL A   1      33.632  28.562  27.265  1.00  0.00     0.118 C 
BRANCH  27  28
ATOM     28  N   UNL A   1      33.703  29.961  27.670  1.00  0.00    -0.352 N 
ATOM     29  C   UNL A   1      34.689  30.707  28.276  1.00  0.00     0.251 C 
ATOM     30  H   UNL A   1      32.886  30.474  27.471  1.00  0.00     0.163 HD
ATOM     31  O   UNL A   1      34.392  31.823  28.697  1.00  0.00    -0.269 OA
BRANCH  29  32
ATOM     32  C   UNL A   1      36.083  30.216  28.455  1.00  0.00     0.039 A 
ATOM     33  C   UNL A   1      36.465  29.716  29.711  1.00  0.00     0.014 A 
ATOM     34  C   UNL A   1      37.045  30.295  27.451  1.00  0.00     0.014 A 
ATOM     35  C   UNL A   1      37.762  29.223  29.924  1.00  0.00     0.010 A 
ATOM     36  C   UNL A   1      38.301  29.716  27.626  1.00  0.00     0.010 A 
ATOM     37  C   UNL A   1      38.678  29.183  28.867  1.00  0.00    -0.014 A 
BRANCH  37  38
ATOM     38  C   UNL A   1      40.078  28.715  29.036  1.00  0.00     0.031 A 
ATOM     39  C   UNL A   1      41.108  29.695  29.514  1.00  0.00     0.074 A 
ATOM     40  C   UNL A   1      40.455  27.474  28.672  1.00  0.00     0.049 A 
ATOM     41  N   UNL A   1      42.405  29.559  29.597  1.00  0.00    -0.248 NA
ATOM     42  C   UNL A   1      40.610  31.022  29.917  1.00  0.00     0.031 C 
ATOM     43  C   UNL A   1      39.561  26.442  28.161  1.00  0.00     0.029 A 
ATOM     44  N   UNL A   1      41.692  26.879  28.642  1.00  0.00    -0.354 N 
ATOM     45  C   UNL A   1      42.878  30.783  30.051  1.00  0.00     0.074 A 
ATOM     46  C   UNL A   1      41.739  31.669  30.157  1.00  0.00     0.031 C 
ATOM     47  C   UNL A   1      40.269  25.342  27.862  1.00  0.00     0.029 A 
ATOM     48  C   UNL A   1      41.679  25.604  28.125  1.00  0.00     0.049 A 
ATOM     49  H   UNL A   1      42.511  27.323  28.959  1.00  0.00     0.167 HD
ATOM     50  C   UNL A   1      44.145  31.130  30.377  1.00  0.00     0.037 A 
ATOM     51  C   UNL A   1      42.692  24.751  27.876  1.00  0.00     0.037 A 
ATOM     52  C   UNL A   1      45.273  30.245  30.276  1.00  0.00     0.049 A 
ATOM     53  C   UNL A   1      44.098  25.172  28.206  1.00  0.00     0.074 A 
ATOM     54  C   UNL A   1      46.589  30.484  30.626  1.00  0.00     0.029 A 
ATOM     55  N   UNL A   1      45.218  28.951  29.778  1.00  0.00    -0.354 N 
ATOM     56  N   UNL A   1      44.523  26.306  28.706  1.00  0.00    -0.248 NA
ATOM     57  C   UNL A   1      45.162  24.192  27.952  1.00  0.00     0.031 C 
ATOM     58  C   UNL A   1      47.339  29.351  30.299  1.00  0.00     0.029 A 
ATOM     59  C   UNL A   1      46.481  28.385  29.795  1.00  0.00     0.049 A 
ATOM     60  H   UNL A   1      44.401  28.502  29.461  1.00  0.00     0.167 HD
ATOM     61  C   UNL A   1      45.895  26.159  28.871  1.00  0.00     0.074 A 
ATOM     62  C   UNL A   1      46.230  24.825  28.416  1.00  0.00     0.031 C 
ATOM     63  C   UNL A   1      46.794  27.048  29.359  1.00  0.00     0.037 A 
BRANCH  50  64
ATOM     64  C   UNL A   1      44.356  32.528  30.875  1.00  0.00     0.057 A 
ATOM     65  C   UNL A   1      44.277  32.843  32.239  1.00  0.00     0.134 A 
ATOM     66  C   UNL A   1      44.630  33.572  29.985  1.00  0.00     0.134 A 
ATOM     67  F   UNL A   1      43.998  31.891  33.142  1.00  0.00    -0.206 F 
ATOM     68  C   UNL A   1      44.426  34.153  32.695  1.00  0.00     0.040 A 
ATOM     69  C   UNL A   1      44.811  34.882  30.432  1.00  0.00     0.040 A 
ATOM     70  F   UNL A   1      44.720  33.339  28.667  1.00  0.00    -0.206 F 
ATOM     71  C   UNL A   1      44.699  35.176  31.790  1.00  0.00     0.006 A 
ENDBRANCH  50  64
BRANCH  51  72
ATOM     72  C   UNL A   1      42.421  23.405  27.307  1.00  0.00     0.057 A 
ATOM     73  C   UNL A   1      42.085  22.327  28.137  1.00  0.00     0.134 A 
ATOM     74  C   UNL A   1      42.515  23.151  25.933  1.00  0.00     0.134 A 
ATOM     75  F   UNL A   1      41.997  22.501  29.463  1.00  0.00    -0.206 F 
ATOM     76  C   UNL A   1      41.878  21.045  27.626  1.00  0.00     0.040 A 
ATOM     77  C   UNL A   1      42.287  21.878  25.406  1.00  0.00     0.040 A 
ATOM     78  F   UNL A   1      42.828  24.140  25.083  1.00  0.00    -0.206 F 
ATOM     79  C   UNL A   1      41.976  20.818  26.255  1.00  0.00     0.006 A 
ENDBRANCH  51  72
BRANCH  63  80
ATOM     80  C   UNL A   1      48.216  26.588  29.490  1.00  0.00     0.057 A 
ATOM     81  C   UNL A   1      49.168  26.817  28.491  1.00  0.00     0.134 A 
ATOM     82  C   UNL A   1      48.647  25.952  30.662  1.00  0.00     0.134 A 
ATOM     83  F   UNL A   1      48.817  27.410  27.339  1.00  0.00    -0.206 F 
ATOM     84  C   UNL A   1      50.496  26.412  28.644  1.00  0.00     0.040 A 
ATOM     85  C   UNL A   1      49.976  25.568  30.839  1.00  0.00     0.040 A 
ATOM     86  F   UNL A   1      47.786  25.709  31.662  1.00  0.00    -0.206 F 
ATOM     87  C   UNL A   1      50.904  25.794  29.824  1.00  0.00     0.006 A 
ENDBRANCH  63  80
ENDBRANCH  37  38
ENDBRANCH  29  32
ENDBRANCH  27  28
ENDBRANCH   1  27
TORSDOF 14
ENDMDL
MODEL 2
REMARK VINA RESULT:     -11.6      4.298      9.070
REMARK SMILES CC[NH2+][C@@]1(C(=O)NCCCNC(=O)c2ccc(-c3c4nc(c(-c5c(F)cccc5F)c5ccc([nH]5)c(-c5c(F)cccc5F)c5nc(c(-c6c(F)cccc6F)c6ccc3[nH]6)C=C5)C=C4)cc2)CC[C@H](Oc2ccc3c(c2)OCO3)C1
REMARK SMILES IDX 9 1 8 2 7 3 5 4 6 5 4 7 68 8 81 9 69 10 70 11 3 12 2 15 1 16
REMARK SMILES IDX 71 17 72 18 73 19 77 20 74 21 76 22 75 23 78 24 80 25 79 26
REMARK SMILES IDX 10 27 11 28 12 29 13 31 14 32 15 33 67 34 16 35 66 36 17 37
REMARK SMILES IDX 18 38 19 39 60 40 20 41 65 42 59 43 61 44 21 45 64 46 58 47
REMARK SMILES IDX 57 48 22 50 48 51 31 52 47 53 32 54 35 55 46 56 62 57 33 58
REMARK SMILES IDX 34 59 45 61 63 62 36 63 23 64 24 65 29 66 25 67 26 68 28 69
REMARK SMILES IDX 30 70 27 71 49 72 50 73 55 74 51 75 52 76 54 77 56 78 53 79
REMARK SMILES IDX 37 80 38 81 43 82 39 83 40 84 42 85 44 86 41 87
REMARK H PARENT 7 6 3 13 3 14 11 30 61 49 35 60
REMARK Flexibility Score: inf
ROOT
ATOM      1  C   UNL A   1      31.300  32.121  26.507  1.00  0.00     0.042 C 
ENDROOT
BRANCH   1   2
ATOM      2  C   UNL A   1      31.436  30.766  25.828  1.00  0.00     0.118 C 
BRANCH   2   3
ATOM      3  N   UNL A   1      32.683  30.128  26.178  1.00  0.00    -0.351 N 
ATOM      4  C   UNL A   1      33.284  28.982  25.774  1.00  0.00     0.281 C 
ATOM      5  O   UNL A   1      34.161  28.590  26.560  1.00  0.00    -0.268 OA
ATOM      6  H   UNL A   1      33.204  30.628  26.847  1.00  0.00     0.163 HD
BRANCH   4   7
ATOM      7  C   UNL A   1      32.923  28.154  24.471  1.00  0.00     0.179 C 
ATOM      8  C   UNL A   1      33.129  28.806  23.089  1.00  0.00     0.083 C 
ATOM      9  C   UNL A   1      31.423  27.796  24.535  1.00  0.00     0.124 C 
ATOM     10  C   UNL A   1      31.753  29.152  22.524  1.00  0.00     0.052 C 
ATOM     11  C   UNL A   1      30.770  28.219  23.215  1.00  0.00     0.180 C 
BRANCH   7  12
ATOM     12  N   UNL A   1      33.730  26.892  24.512  1.00  0.00    -0.334 N 
ATOM     13  H   UNL A   1      34.210  26.791  23.617  1.00  0.00     0.347 HD
ATOM     14  H   UNL A   1      34.374  26.982  25.298  1.00  0.00     0.347 HD
BRANCH  12  15
ATOM     15  C   UNL A   1      32.941  25.679  24.750  1.00  0.00     0.257 C 
ATOM     16  C   UNL A   1      33.586  24.847  25.850  1.00  0.00     0.071 C 
ENDBRANCH  12  15
ENDBRANCH   7  12
BRANCH  11  17
ATOM     17  O   UNL A   1      29.415  28.607  23.470  1.00  0.00    -0.490 OA
BRANCH  17  18
ATOM     18  C   UNL A   1      28.904  29.802  23.066  1.00  0.00     0.123 A 
ATOM     19  C   UNL A   1      29.037  30.981  23.819  1.00  0.00     0.050 A 
ATOM     20  C   UNL A   1      28.403  29.858  21.758  1.00  0.00     0.097 A 
ATOM     21  C   UNL A   1      28.611  32.212  23.308  1.00  0.00     0.054 A 
ATOM     22  C   UNL A   1      28.028  31.090  21.263  1.00  0.00     0.169 A 
ATOM     23  C   UNL A   1      28.130  32.234  22.021  1.00  0.00     0.166 A 
ATOM     24  O   UNL A   1      27.559  31.350  20.013  1.00  0.00    -0.453 OA
ATOM     25  O   UNL A   1      27.761  33.348  21.338  1.00  0.00    -0.454 OA
ATOM     26  C   UNL A   1      27.602  32.793  20.024  1.00  0.00     0.468 C 
ENDBRANCH  17  18
ENDBRANCH  11  17
ENDBRANCH   4   7
ENDBRANCH   2   3
ENDBRANCH   1   2
BRANCH   1  27
ATOM     27  C   UNL A   1      32.584  32.589  27.178  1.00  0.00     0.118 C 
BRANCH  27  28
ATOM     28  N   UNL A   1      32.481  33.965  27.649  1.00  0.00    -0.352 N 
ATOM     29  C   UNL A   1      33.138  34.664  28.636  1.00  0.00     0.251 C 
ATOM     30  H   UNL A   1      31.809  34.500  27.166  1.00  0.00     0.163 HD
ATOM     31  O   UNL A   1      32.693  35.764  28.959  1.00  0.00    -0.269 OA
BRANCH  29  32
ATOM     32  C   UNL A   1      34.346  34.142  29.332  1.00  0.00     0.039 A 
ATOM     33  C   UNL A   1      35.612  34.444  28.803  1.00  0.00     0.014 A 
ATOM     34  C   UNL A   1      34.274  33.307  30.444  1.00  0.00     0.014 A 
ATOM     35  C   UNL A   1      36.782  33.991  29.433  1.00  0.00     0.010 A 
ATOM     36  C   UNL A   1      35.430  32.939  31.130  1.00  0.00     0.010 A 
ATOM     37  C   UNL A   1      36.697  33.267  30.628  1.00  0.00    -0.014 A 
BRANCH  37  38
ATOM     38  C   UNL A   1      37.893  32.722  31.320  1.00  0.00     0.031 A 
ATOM     39  C   UNL A   1      38.534  31.480  30.774  1.00  0.00     0.074 A 
ATOM     40  C   UNL A   1      38.341  33.252  32.475  1.00  0.00     0.049 A 
ATOM     41  N   UNL A   1      39.486  30.746  31.285  1.00  0.00    -0.248 NA
ATOM     42  C   UNL A   1      38.003  30.980  29.494  1.00  0.00     0.031 C 
ATOM     43  C   UNL A   1      37.786  34.431  33.128  1.00  0.00     0.029 A 
ATOM     44  N   UNL A   1      39.343  32.850  33.324  1.00  0.00    -0.354 N 
ATOM     45  C   UNL A   1      39.659  29.693  30.397  1.00  0.00     0.074 A 
ATOM     46  C   UNL A   1      38.669  29.845  29.354  1.00  0.00     0.031 C 
ATOM     47  C   UNL A   1      38.443  34.661  34.275  1.00  0.00     0.029 A 
ATOM     48  C   UNL A   1      39.446  33.620  34.459  1.00  0.00     0.049 A 
ATOM     49  H   UNL A   1      39.930  32.083  33.138  1.00  0.00     0.167 HD
ATOM     50  C   UNL A   1      40.581  28.703  30.432  1.00  0.00     0.037 A 
ATOM     51  C   UNL A   1      40.247  33.489  35.535  1.00  0.00     0.037 A 
ATOM     52  C   UNL A   1      41.568  28.557  31.467  1.00  0.00     0.049 A 
ATOM     53  C   UNL A   1      41.237  32.356  35.574  1.00  0.00     0.074 A 
ATOM     54  C   UNL A   1      42.576  27.617  31.570  1.00  0.00     0.029 A 
ATOM     55  N   UNL A   1      41.663  29.373  32.585  1.00  0.00    -0.354 N 
ATOM     56  N   UNL A   1      41.442  31.409  34.690  1.00  0.00    -0.248 NA
ATOM     57  C   UNL A   1      42.113  32.279  36.750  1.00  0.00     0.031 C 
ATOM     58  C   UNL A   1      43.254  27.836  32.773  1.00  0.00     0.029 A 
ATOM     59  C   UNL A   1      42.703  28.946  33.393  1.00  0.00     0.049 A 
ATOM     60  H   UNL A   1      41.079  30.142  32.775  1.00  0.00     0.167 HD
ATOM     61  C   UNL A   1      42.500  30.655  35.180  1.00  0.00     0.074 A 
ATOM     62  C   UNL A   1      42.894  31.254  36.439  1.00  0.00     0.031 C 
ATOM     63  C   UNL A   1      43.096  29.567  34.633  1.00  0.00     0.037 A 
BRANCH  50  64
ATOM     64  C   UNL A   1      40.551  27.710  29.308  1.00  0.00     0.057 A 
ATOM     65  C   UNL A   1      41.427  27.807  28.218  1.00  0.00     0.134 A 
ATOM     66  C   UNL A   1      39.631  26.655  29.309  1.00  0.00     0.134 A 
ATOM     67  F   UNL A   1      42.318  28.807  28.148  1.00  0.00    -0.206 F 
ATOM     68  C   UNL A   1      41.363  26.911  27.150  1.00  0.00     0.040 A 
ATOM     69  C   UNL A   1      39.579  25.735  28.261  1.00  0.00     0.040 A 
ATOM     70  F   UNL A   1      38.766  26.505  30.322  1.00  0.00    -0.206 F 
ATOM     71  C   UNL A   1      40.441  25.868  27.173  1.00  0.00     0.006 A 
ENDBRANCH  50  64
BRANCH  51  72
ATOM     72  C   UNL A   1      40.173  34.465  36.654  1.00  0.00     0.057 A 
ATOM     73  C   UNL A   1      39.278  34.276  37.715  1.00  0.00     0.134 A 
ATOM     74  C   UNL A   1      40.968  35.617  36.681  1.00  0.00     0.134 A 
ATOM     75  F   UNL A   1      38.476  33.202  37.736  1.00  0.00    -0.206 F 
ATOM     76  C   UNL A   1      39.158  35.209  38.747  1.00  0.00     0.040 A 
ATOM     77  C   UNL A   1      40.875  36.546  37.721  1.00  0.00     0.040 A 
ATOM     78  F   UNL A   1      41.849  35.855  35.699  1.00  0.00    -0.206 F 
ATOM     79  C   UNL A   1      39.961  36.347  38.753  1.00  0.00     0.006 A 
ENDBRANCH  51  72
BRANCH  63  80
ATOM     80  C   UNL A   1      44.278  28.991  35.356  1.00  0.00     0.057 A 
ATOM     81  C   UNL A   1      45.586  29.416  35.101  1.00  0.00     0.134 A 
ATOM     82  C   UNL A   1      44.091  28.033  36.360  1.00  0.00     0.134 A 
ATOM     83  F   UNL A   1      45.834  30.322  34.143  1.00  0.00    -0.206 F 
ATOM     84  C   UNL A   1      46.672  28.893  35.807  1.00  0.00     0.040 A 
ATOM     85  C   UNL A   1      45.164  27.524  37.092  1.00  0.00     0.040 A 
ATOM     86  F   UNL A   1      42.861  27.588  36.659  1.00  0.00    -0.206 F 
ATOM     87  C   UNL A   1      46.460  27.951  36.812  1.00  0.00     0.006 A 
ENDBRANCH  63  80
ENDBRANCH  37  38
ENDBRANCH  29  32
ENDBRANCH  27  28
ENDBRANCH   1  27
TORSDOF 14
ENDMDL
MODEL 3
REMARK VINA RESULT:     -11.6      2.068      3.117
REMARK SMILES CC[NH2+][C@@]1(C(=O)NCCCNC(=O)c2ccc(-c3c4nc(c(-c5c(F)cccc5F)c5ccc([nH]5)c(-c5c(F)cccc5F)c5nc(c(-c6c(F)cccc6F)c6ccc3[nH]6)C=C5)C=C4)cc2)CC[C@H](Oc2ccc3c(c2)OCO3)C1
REMARK SMILES IDX 9 1 8 2 7 3 5 4 6 5 4 7 68 8 81 9 69 10 70 11 3 12 2 15 1 16
REMARK SMILES IDX 71 17 72 18 73 19 77 20 74 21 76 22 75 23 78 24 80 25 79 26
REMARK SMILES IDX 10 27 11 28 12 29 13 31 14 32 15 33 67 34 16 35 66 36 17 37
REMARK SMILES IDX 18 38 19 39 60 40 20 41 65 42 59 43 61 44 21 45 64 46 58 47
REMARK SMILES IDX 57 48 22 50 48 51 31 52 47 53 32 54 35 55 46 56 62 57 33 58
REMARK SMILES IDX 34 59 45 61 63 62 36 63 23 64 24 65 29 66 25 67 26 68 28 69
REMARK SMILES IDX 30 70 27 71 49 72 50 73 55 74 51 75 52 76 54 77 56 78 53 79
REMARK SMILES IDX 37 80 38 81 43 82 39 83 40 84 42 85 44 86 41 87
REMARK H PARENT 7 6 3 13 3 14 11 30 61 49 35 60
REMARK Flexibility Score: inf
ROOT
ATOM      1  C   UNL A   1      32.150  28.039  27.162  1.00  0.00     0.042 C 
ENDROOT
BRANCH   1   2
ATOM      2  C   UNL A   1      31.967  26.875  26.201  1.00  0.00     0.118 C 
BRANCH   2   3
ATOM      3  N   UNL A   1      31.565  25.677  26.899  1.00  0.00    -0.351 N 
ATOM      4  C   UNL A   1      31.740  24.355  26.653  1.00  0.00     0.281 C 
ATOM      5  O   UNL A   1      30.944  23.635  27.276  1.00  0.00    -0.268 OA
ATOM      6  H   UNL A   1      31.058  25.858  27.725  1.00  0.00     0.163 HD
BRANCH   4   7
ATOM      7  C   UNL A   1      32.801  23.731  25.654  1.00  0.00     0.179 C 
ATOM      8  C   UNL A   1      32.523  23.785  24.139  1.00  0.00     0.083 C 
ATOM      9  C   UNL A   1      32.947  22.233  25.991  1.00  0.00     0.124 C 
ATOM     10  C   UNL A   1      32.154  22.376  23.679  1.00  0.00     0.052 C 
ATOM     11  C   UNL A   1      32.770  21.428  24.698  1.00  0.00     0.180 C 
BRANCH   7  12
ATOM     12  N   UNL A   1      34.107  24.421  25.909  1.00  0.00    -0.334 N 
ATOM     13  H   UNL A   1      33.959  25.426  25.816  1.00  0.00     0.347 HD
ATOM     14  H   UNL A   1      34.403  24.149  26.847  1.00  0.00     0.347 HD
BRANCH  12  15
ATOM     15  C   UNL A   1      35.186  24.028  24.997  1.00  0.00     0.257 C 
ATOM     16  C   UNL A   1      36.426  23.647  25.792  1.00  0.00     0.071 C 
ENDBRANCH  12  15
ENDBRANCH   7  12
BRANCH  11  17
ATOM     17  O   UNL A   1      32.170  20.167  25.013  1.00  0.00    -0.490 OA
BRANCH  17  18
ATOM     18  C   UNL A   1      32.809  18.981  24.821  1.00  0.00     0.123 A 
ATOM     19  C   UNL A   1      34.179  18.894  24.517  1.00  0.00     0.050 A 
ATOM     20  C   UNL A   1      32.086  17.822  25.137  1.00  0.00     0.097 A 
ATOM     21  C   UNL A   1      34.823  17.654  24.455  1.00  0.00     0.054 A 
ATOM     22  C   UNL A   1      32.756  16.616  25.109  1.00  0.00     0.169 A 
ATOM     23  C   UNL A   1      34.088  16.538  24.775  1.00  0.00     0.166 A 
ATOM     24  O   UNL A   1      32.238  15.397  25.420  1.00  0.00    -0.453 OA
ATOM     25  O   UNL A   1      34.574  15.273  24.856  1.00  0.00    -0.454 OA
ATOM     26  C   UNL A   1      33.448  14.612  25.456  1.00  0.00     0.468 C 
ENDBRANCH  17  18
ENDBRANCH  11  17
ENDBRANCH   4   7
ENDBRANCH   2   3
ENDBRANCH   1   2
BRANCH   1  27
ATOM     27  C   UNL A   1      33.579  28.561  27.212  1.00  0.00     0.118 C 
BRANCH  27  28
ATOM     28  N   UNL A   1      33.633  29.964  27.607  1.00  0.00    -0.352 N 
ATOM     29  C   UNL A   1      34.589  30.714  28.254  1.00  0.00     0.251 C 
ATOM     30  H   UNL A   1      32.828  30.476  27.362  1.00  0.00     0.163 HD
ATOM     31  O   UNL A   1      34.274  31.835  28.648  1.00  0.00    -0.269 OA
BRANCH  29  32
ATOM     32  C   UNL A   1      35.971  30.221  28.507  1.00  0.00     0.039 A 
ATOM     33  C   UNL A   1      36.897  30.240  27.450  1.00  0.00     0.014 A 
ATOM     34  C   UNL A   1      36.367  29.677  29.726  1.00  0.00     0.014 A 
ATOM     35  C   UNL A   1      38.218  29.805  27.643  1.00  0.00     0.010 A 
ATOM     36  C   UNL A   1      37.700  29.338  29.951  1.00  0.00     0.010 A 
ATOM     37  C   UNL A   1      38.639  29.388  28.911  1.00  0.00    -0.014 A 
BRANCH  37  38
ATOM     38  C   UNL A   1      40.008  28.874  29.172  1.00  0.00     0.031 A 
ATOM     39  C   UNL A   1      41.026  29.809  29.755  1.00  0.00     0.074 A 
ATOM     40  C   UNL A   1      40.376  27.633  28.801  1.00  0.00     0.049 A 
ATOM     41  N   UNL A   1      42.308  29.631  29.932  1.00  0.00    -0.248 NA
ATOM     42  C   UNL A   1      40.536  31.138  30.159  1.00  0.00     0.031 C 
ATOM     43  C   UNL A   1      39.496  26.643  28.193  1.00  0.00     0.029 A 
ATOM     44  N   UNL A   1      41.595  27.001  28.847  1.00  0.00    -0.354 N 
ATOM     45  C   UNL A   1      42.779  30.827  30.456  1.00  0.00     0.074 A 
ATOM     46  C   UNL A   1      41.661  31.744  30.502  1.00  0.00     0.031 C 
ATOM     47  C   UNL A   1      40.193  25.530  27.916  1.00  0.00     0.029 A 
ATOM     48  C   UNL A   1      41.585  25.742  28.293  1.00  0.00     0.049 A 
ATOM     49  H   UNL A   1      42.399  27.411  29.238  1.00  0.00     0.167 HD
ATOM     50  C   UNL A   1      44.027  31.126  30.888  1.00  0.00     0.037 A 
ATOM     51  C   UNL A   1      42.590  24.865  28.096  1.00  0.00     0.037 A 
ATOM     52  C   UNL A   1      45.134  30.211  30.846  1.00  0.00     0.049 A 
ATOM     53  C   UNL A   1      43.978  25.234  28.544  1.00  0.00     0.074 A 
ATOM     54  C   UNL A   1      46.425  30.400  31.302  1.00  0.00     0.029 A 
ATOM     55  N   UNL A   1      45.081  28.933  30.308  1.00  0.00    -0.354 N 
ATOM     56  N   UNL A   1      44.396  26.341  29.108  1.00  0.00    -0.248 NA
ATOM     57  C   UNL A   1      45.030  24.229  28.342  1.00  0.00     0.031 C 
ATOM     58  C   UNL A   1      47.166  29.253  30.999  1.00  0.00     0.029 A 
ATOM     59  C   UNL A   1      46.323  28.329  30.403  1.00  0.00     0.049 A 
ATOM     60  H   UNL A   1      44.278  28.518  29.916  1.00  0.00     0.167 HD
ATOM     61  C   UNL A   1      45.746  26.148  29.372  1.00  0.00     0.074 A 
ATOM     62  C   UNL A   1      46.076  24.817  28.905  1.00  0.00     0.031 C 
ATOM     63  C   UNL A   1      46.630  26.995  29.953  1.00  0.00     0.037 A 
BRANCH  50  64
ATOM     64  C   UNL A   1      44.239  32.503  31.442  1.00  0.00     0.057 A 
ATOM     65  C   UNL A   1      44.054  32.785  32.803  1.00  0.00     0.134 A 
ATOM     66  C   UNL A   1      44.620  33.560  30.607  1.00  0.00     0.134 A 
ATOM     67  F   UNL A   1      43.669  31.820  33.651  1.00  0.00    -0.206 F 
ATOM     68  C   UNL A   1      44.204  34.078  33.306  1.00  0.00     0.040 A 
ATOM     69  C   UNL A   1      44.804  34.851  31.106  1.00  0.00     0.040 A 
ATOM     70  F   UNL A   1      44.814  33.358  29.296  1.00  0.00    -0.206 F 
ATOM     71  C   UNL A   1      44.586  35.114  32.457  1.00  0.00     0.006 A 
ENDBRANCH  50  64
BRANCH  51  72
ATOM     72  C   UNL A   1      42.325  23.544  27.469  1.00  0.00     0.057 A 
ATOM     73  C   UNL A   1      42.062  22.414  28.254  1.00  0.00     0.134 A 
ATOM     74  C   UNL A   1      42.354  23.367  26.080  1.00  0.00     0.134 A 
ATOM     75  F   UNL A   1      42.039  22.514  29.591  1.00  0.00    -0.206 F 
ATOM     76  C   UNL A   1      41.863  21.155  27.685  1.00  0.00     0.040 A 
ATOM     77  C   UNL A   1      42.133  22.118  25.496  1.00  0.00     0.040 A 
ATOM     78  F   UNL A   1      42.596  24.408  25.271  1.00  0.00    -0.206 F 
ATOM     79  C   UNL A   1      41.895  21.006  26.301  1.00  0.00     0.006 A 
ENDBRANCH  51  72
BRANCH  63  80
ATOM     80  C   UNL A   1      48.024  26.489  30.178  1.00  0.00     0.057 A 
ATOM     81  C   UNL A   1      49.050  26.694  29.248  1.00  0.00     0.134 A 
ATOM     82  C   UNL A   1      48.352  25.831  31.371  1.00  0.00     0.134 A 
ATOM     83  F   UNL A   1      48.799  27.306  28.081  1.00  0.00    -0.206 F 
ATOM     84  C   UNL A   1      50.350  26.245  29.489  1.00  0.00     0.040 A 
ATOM     85  C   UNL A   1      49.653  25.403  31.635  1.00  0.00     0.040 A 
ATOM     86  F   UNL A   1      47.416  25.609  32.307  1.00  0.00    -0.206 F 
ATOM     87  C   UNL A   1      50.655  25.606  30.689  1.00  0.00     0.006 A 
ENDBRANCH  63  80
ENDBRANCH  37  38
ENDBRANCH  29  32
ENDBRANCH  27  28
ENDBRANCH   1  27
TORSDOF 14
ENDMDL
