MODEL 1
REMARK VINA RESULT:     -11.3      0.000      0.000
REMARK SMILES CN(CCS(C)(=O)=O)S(=O)(=O)c1cc(C(=O)NCCCNC(=O)c2ccc(-c3c4nc(c(-c5c(F)cccc5F)c5ccc([nH]5)c(-c5c(F)cccc5F)c5nc(c(-c6c(F)cccc6F)c6ccc3[nH]6)C=C5)C=C4)cc2)ccc1F
REMARK SMILES IDX 15 1 16 2 17 3 14 5 12 6 13 7 80 8 79 9 81 10 78 11 9 12
REMARK SMILES IDX 10 13 11 14 2 15 1 16 3 17 4 18 5 19 6 20 7 21 8 22 18 23
REMARK SMILES IDX 19 24 20 25 21 26 22 27 23 29 24 30 25 31 77 32 26 33 76 34
REMARK SMILES IDX 27 35 28 36 29 37 70 38 30 39 75 40 69 41 71 42 31 43 74 44
REMARK SMILES IDX 68 45 67 46 32 48 58 49 41 50 57 51 42 52 45 53 56 54 72 55
REMARK SMILES IDX 43 56 44 57 55 59 73 60 46 61 33 62 34 63 39 64 35 65 36 66
REMARK SMILES IDX 38 67 40 68 37 69 59 70 60 71 65 72 61 73 62 74 64 75 66 76
REMARK SMILES IDX 63 77 47 78 48 79 53 80 49 81 50 82 52 83 54 84 51 85
REMARK H PARENT 17 4 21 28 71 47 45 58
REMARK Flexibility Score: inf
ROOT
ATOM      1  C   UNL A   1      33.836  19.103  24.710  1.00  0.00     0.251 C 
ATOM      2  O   UNL A   1      33.300  17.993  24.699  1.00  0.00    -0.269 OA
ATOM      3  N   UNL A   1      35.180  19.118  24.967  1.00  0.00    -0.352 N 
ATOM      4  H   UNL A   1      35.530  18.230  25.208  1.00  0.00     0.163 HD
ENDROOT
BRANCH   1   5
ATOM      5  C   UNL A   1      32.982  20.302  24.443  1.00  0.00     0.041 A 
ATOM      6  C   UNL A   1      31.939  22.304  25.405  1.00  0.00     0.119 A 
ATOM      7  C   UNL A   1      32.683  21.123  25.553  1.00  0.00     0.038 A 
ATOM      8  C   UNL A   1      31.504  22.688  24.149  1.00  0.00     0.143 A 
ATOM      9  C   UNL A   1      31.763  21.880  23.048  1.00  0.00     0.041 A 
ATOM     10  F   UNL A   1      30.832  23.821  23.939  1.00  0.00    -0.206 F 
ATOM     11  C   UNL A   1      32.507  20.702  23.190  1.00  0.00     0.017 A 
BRANCH   6  12
ATOM     12  S   UNL A   1      31.605  23.300  26.823  1.00  0.00     0.245 S 
ATOM     13  O   UNL A   1      32.254  22.770  27.991  1.00  0.00    -0.207 OA
ATOM     14  O   UNL A   1      30.176  23.552  26.821  1.00  0.00    -0.207 OA
BRANCH  12  15
ATOM     15  N   UNL A   1      32.381  24.783  26.474  1.00  0.00    -0.200 NA
ATOM     16  C   UNL A   1      33.718  24.611  25.854  1.00  0.00     0.124 C 
BRANCH  15  17
ATOM     17  C   UNL A   1      31.592  25.930  25.940  1.00  0.00     0.118 C 
BRANCH  17  18
ATOM     18  C   UNL A   1      32.323  27.236  25.686  1.00  0.00     0.153 C 
BRANCH  18  19
ATOM     19  S   UNL A   1      32.338  28.438  27.013  1.00  0.00     0.148 S 
ATOM     20  C   UNL A   1      31.806  30.000  26.351  1.00  0.00     0.158 C 
ATOM     21  O   UNL A   1      31.310  28.031  27.956  1.00  0.00    -0.229 OA
ATOM     22  O   UNL A   1      33.697  28.615  27.469  1.00  0.00    -0.229 OA
ENDBRANCH  18  19
ENDBRANCH  17  18
ENDBRANCH  15  17
ENDBRANCH  12  15
ENDBRANCH   6  12
ENDBRANCH   1   5
BRANCH   3  23
ATOM     23  C   UNL A   1      36.207  20.141  24.965  1.00  0.00     0.118 C 
BRANCH  23  24
ATOM     24  C   UNL A   1      37.606  19.561  24.753  1.00  0.00     0.042 C 
BRANCH  24  25
ATOM     25  C   UNL A   1      38.666  20.140  25.693  1.00  0.00     0.118 C 
BRANCH  25  26
ATOM     26  N   UNL A   1      39.816  19.255  25.839  1.00  0.00    -0.352 N 
ATOM     27  C   UNL A   1      41.136  19.533  26.090  1.00  0.00     0.251 C 
ATOM     28  H   UNL A   1      39.610  18.298  25.742  1.00  0.00     0.163 HD
ATOM     29  O   UNL A   1      41.974  18.648  25.932  1.00  0.00    -0.269 OA
BRANCH  27  30
ATOM     30  C   UNL A   1      41.566  20.872  26.546  1.00  0.00     0.039 A 
ATOM     31  C   UNL A   1      41.937  21.822  25.589  1.00  0.00     0.014 A 
ATOM     32  C   UNL A   1      41.673  21.175  27.905  1.00  0.00     0.014 A 
ATOM     33  C   UNL A   1      42.359  23.091  25.993  1.00  0.00     0.010 A 
ATOM     34  C   UNL A   1      42.027  22.461  28.306  1.00  0.00     0.010 A 
ATOM     35  C   UNL A   1      42.376  23.431  27.355  1.00  0.00    -0.014 A 
BRANCH  35  36
ATOM     36  C   UNL A   1      42.753  24.793  27.807  1.00  0.00     0.031 A 
ATOM     37  C   UNL A   1      44.199  25.173  27.951  1.00  0.00     0.074 A 
ATOM     38  C   UNL A   1      41.788  25.669  28.146  1.00  0.00     0.049 A 
ATOM     39  N   UNL A   1      44.720  26.283  28.411  1.00  0.00    -0.248 NA
ATOM     40  C   UNL A   1      45.191  24.166  27.546  1.00  0.00     0.031 C 
ATOM     41  C   UNL A   1      40.349  25.410  28.072  1.00  0.00     0.029 A 
ATOM     42  N   UNL A   1      41.872  26.953  28.622  1.00  0.00    -0.354 N 
ATOM     43  C   UNL A   1      46.096  26.103  28.360  1.00  0.00     0.074 A 
ATOM     44  C   UNL A   1      46.329  24.759  27.877  1.00  0.00     0.031 C 
ATOM     45  C   UNL A   1      39.685  26.511  28.454  1.00  0.00     0.029 A 
ATOM     46  C   UNL A   1      40.649  27.538  28.840  1.00  0.00     0.049 A 
ATOM     47  H   UNL A   1      42.726  27.410  28.791  1.00  0.00     0.167 HD
ATOM     48  C   UNL A   1      47.077  26.987  28.661  1.00  0.00     0.037 A 
ATOM     49  C   UNL A   1      40.338  28.765  29.300  1.00  0.00     0.037 A 
ATOM     50  C   UNL A   1      46.841  28.328  29.127  1.00  0.00     0.049 A 
ATOM     51  C   UNL A   1      41.439  29.716  29.666  1.00  0.00     0.074 A 
ATOM     52  C   UNL A   1      47.768  29.309  29.433  1.00  0.00     0.029 A 
ATOM     53  N   UNL A   1      45.587  28.876  29.355  1.00  0.00    -0.354 N 
ATOM     54  N   UNL A   1      42.736  29.543  29.589  1.00  0.00    -0.248 NA
ATOM     55  C   UNL A   1      41.038  31.031  30.184  1.00  0.00     0.031 C 
ATOM     56  C   UNL A   1      47.076  30.439  29.881  1.00  0.00     0.029 A 
ATOM     57  C   UNL A   1      45.716  30.177  29.812  1.00  0.00     0.049 A 
ATOM     58  H   UNL A   1      44.733  28.409  29.212  1.00  0.00     0.167 HD
ATOM     59  C   UNL A   1      43.306  30.729  30.029  1.00  0.00     0.074 A 
ATOM     60  C   UNL A   1      42.213  31.620  30.363  1.00  0.00     0.031 C 
ATOM     61  C   UNL A   1      44.618  31.051  30.141  1.00  0.00     0.037 A 
BRANCH  48  62
ATOM     62  C   UNL A   1      48.496  26.530  28.483  1.00  0.00     0.057 A 
ATOM     63  C   UNL A   1      49.191  25.910  29.529  1.00  0.00     0.134 A 
ATOM     64  C   UNL A   1      49.186  26.727  27.279  1.00  0.00     0.134 A 
ATOM     65  F   UNL A   1      48.593  25.695  30.711  1.00  0.00    -0.206 F 
ATOM     66  C   UNL A   1      50.519  25.504  29.385  1.00  0.00     0.040 A 
ATOM     67  C   UNL A   1      50.505  26.302  27.114  1.00  0.00     0.040 A 
ATOM     68  F   UNL A   1      48.576  27.305  26.233  1.00  0.00    -0.206 F 
ATOM     69  C   UNL A   1      51.177  25.692  28.171  1.00  0.00     0.006 A 
ENDBRANCH  48  62
BRANCH  49  70
ATOM     70  C   UNL A   1      38.912  29.167  29.390  1.00  0.00     0.057 A 
ATOM     71  C   UNL A   1      38.189  29.062  30.583  1.00  0.00     0.134 A 
ATOM     72  C   UNL A   1      38.227  29.610  28.253  1.00  0.00     0.134 A 
ATOM     73  F   UNL A   1      38.787  28.632  31.703  1.00  0.00    -0.206 F 
ATOM     74  C   UNL A   1      36.826  29.362  30.638  1.00  0.00     0.040 A 
ATOM     75  C   UNL A   1      36.870  29.933  28.298  1.00  0.00     0.040 A 
ATOM     76  F   UNL A   1      38.873  29.743  27.085  1.00  0.00    -0.206 F 
ATOM     77  C   UNL A   1      36.164  29.799  29.492  1.00  0.00     0.006 A 
ENDBRANCH  49  70
BRANCH  61  78
ATOM     78  C   UNL A   1      44.955  32.428  30.631  1.00  0.00     0.057 A 
ATOM     79  C   UNL A   1      45.114  32.678  32.001  1.00  0.00     0.134 A 
ATOM     80  C   UNL A   1      45.041  33.518  29.759  1.00  0.00     0.134 A 
ATOM     81  F   UNL A   1      45.034  31.676  32.890  1.00  0.00    -0.206 F 
ATOM     82  C   UNL A   1      45.331  33.968  32.486  1.00  0.00     0.040 A 
ATOM     83  C   UNL A   1      45.281  34.811  30.230  1.00  0.00     0.040 A 
ATOM     84  F   UNL A   1      44.909  33.342  28.435  1.00  0.00    -0.206 F 
ATOM     85  C   UNL A   1      45.416  35.039  31.598  1.00  0.00     0.006 A 
ENDBRANCH  61  78
ENDBRANCH  35  36
ENDBRANCH  27  30
ENDBRANCH  25  26
ENDBRANCH  24  25
ENDBRANCH  23  24
ENDBRANCH   3  23
TORSDOF 15
ENDMDL
MODEL 2
REMARK VINA RESULT:     -11.2      3.966      9.153
REMARK SMILES CN(CCS(C)(=O)=O)S(=O)(=O)c1cc(C(=O)NCCCNC(=O)c2ccc(-c3c4nc(c(-c5c(F)cccc5F)c5ccc([nH]5)c(-c5c(F)cccc5F)c5nc(c(-c6c(F)cccc6F)c6ccc3[nH]6)C=C5)C=C4)cc2)ccc1F
REMARK SMILES IDX 15 1 16 2 17 3 14 5 12 6 13 7 80 8 79 9 81 10 78 11 9 12
REMARK SMILES IDX 10 13 11 14 2 15 1 16 3 17 4 18 5 19 6 20 7 21 8 22 18 23
REMARK SMILES IDX 19 24 20 25 21 26 22 27 23 29 24 30 25 31 77 32 26 33 76 34
REMARK SMILES IDX 27 35 28 36 29 37 70 38 30 39 75 40 69 41 71 42 31 43 74 44
REMARK SMILES IDX 68 45 67 46 32 48 58 49 41 50 57 51 42 52 45 53 56 54 72 55
REMARK SMILES IDX 43 56 44 57 55 59 73 60 46 61 33 62 34 63 39 64 35 65 36 66
REMARK SMILES IDX 38 67 40 68 37 69 59 70 60 71 65 72 61 73 62 74 64 75 66 76
REMARK SMILES IDX 63 77 47 78 48 79 53 80 49 81 50 82 52 83 54 84 51 85
REMARK H PARENT 17 4 21 28 71 47 45 58
REMARK Flexibility Score: inf
ROOT
ATOM      1  C   UNL A   1      31.985  28.329  27.167  1.00  0.00     0.251 C 
ATOM      2  O   UNL A   1      31.407  27.636  28.007  1.00  0.00    -0.269 OA
ATOM      3  N   UNL A   1      32.730  29.368  27.656  1.00  0.00    -0.352 N 
ATOM      4  H   UNL A   1      32.627  29.483  28.628  1.00  0.00     0.163 HD
ENDROOT
BRANCH   1   5
ATOM      5  C   UNL A   1      31.821  27.973  25.723  1.00  0.00     0.041 A 
ATOM      6  C   UNL A   1      32.581  26.530  23.890  1.00  0.00     0.119 A 
ATOM      7  C   UNL A   1      32.688  26.981  25.215  1.00  0.00     0.038 A 
ATOM      8  C   UNL A   1      31.598  27.049  23.066  1.00  0.00     0.143 A 
ATOM      9  C   UNL A   1      30.752  28.046  23.537  1.00  0.00     0.041 A 
ATOM     10  F   UNL A   1      31.418  26.630  21.812  1.00  0.00    -0.206 F 
ATOM     11  C   UNL A   1      30.854  28.497  24.859  1.00  0.00     0.017 A 
BRANCH   6  12
ATOM     12  S   UNL A   1      33.681  25.279  23.310  1.00  0.00     0.245 S 
ATOM     13  O   UNL A   1      34.699  24.993  24.285  1.00  0.00    -0.207 OA
ATOM     14  O   UNL A   1      34.040  25.643  21.951  1.00  0.00    -0.207 OA
BRANCH  12  15
ATOM     15  N   UNL A   1      32.700  23.882  23.216  1.00  0.00    -0.200 NA
ATOM     16  C   UNL A   1      33.121  22.944  22.145  1.00  0.00     0.124 C 
BRANCH  15  17
ATOM     17  C   UNL A   1      32.219  23.222  24.464  1.00  0.00     0.118 C 
BRANCH  17  18
ATOM     18  C   UNL A   1      30.769  23.430  24.863  1.00  0.00     0.153 C 
BRANCH  18  19
ATOM     19  S   UNL A   1      30.449  23.960  26.542  1.00  0.00     0.148 S 
ATOM     20  C   UNL A   1      29.385  22.758  27.308  1.00  0.00     0.158 C 
ATOM     21  O   UNL A   1      31.715  23.885  27.252  1.00  0.00    -0.229 OA
ATOM     22  O   UNL A   1      29.720  25.207  26.509  1.00  0.00    -0.229 OA
ENDBRANCH  18  19
ENDBRANCH  17  18
ENDBRANCH  15  17
ENDBRANCH  12  15
ENDBRANCH   6  12
ENDBRANCH   1   5
BRANCH   3  23
ATOM     23  C   UNL A   1      33.638  30.336  27.072  1.00  0.00     0.118 C 
BRANCH  23  24
ATOM     24  C   UNL A   1      32.900  31.489  26.393  1.00  0.00     0.042 C 
BRANCH  24  25
ATOM     25  C   UNL A   1      31.817  32.131  27.263  1.00  0.00     0.118 C 
BRANCH  25  26
ATOM     26  N   UNL A   1      32.009  33.568  27.415  1.00  0.00    -0.352 N 
ATOM     27  C   UNL A   1      32.954  34.279  28.111  1.00  0.00     0.251 C 
ATOM     28  H   UNL A   1      31.351  34.121  26.936  1.00  0.00     0.163 HD
ATOM     29  O   UNL A   1      32.781  35.481  28.297  1.00  0.00    -0.269 OA
BRANCH  27  30
ATOM     30  C   UNL A   1      34.171  33.627  28.640  1.00  0.00     0.039 A 
ATOM     31  C   UNL A   1      35.370  33.765  27.933  1.00  0.00     0.014 A 
ATOM     32  C   UNL A   1      34.125  32.826  29.783  1.00  0.00     0.014 A 
ATOM     33  C   UNL A   1      36.532  33.149  28.403  1.00  0.00     0.010 A 
ATOM     34  C   UNL A   1      35.297  32.268  30.290  1.00  0.00     0.010 A 
ATOM     35  C   UNL A   1      36.511  32.422  29.604  1.00  0.00    -0.014 A 
BRANCH  35  36
ATOM     36  C   UNL A   1      37.746  31.817  30.162  1.00  0.00     0.031 A 
ATOM     37  C   UNL A   1      38.449  32.459  31.325  1.00  0.00     0.074 A 
ATOM     38  C   UNL A   1      38.268  30.720  29.581  1.00  0.00     0.049 A 
ATOM     39  N   UNL A   1      39.580  32.126  31.893  1.00  0.00    -0.248 NA
ATOM     40  C   UNL A   1      37.806  33.644  31.912  1.00  0.00     0.031 C 
ATOM     41  C   UNL A   1      37.691  30.020  28.432  1.00  0.00     0.029 A 
ATOM     42  N   UNL A   1      39.401  30.005  29.874  1.00  0.00    -0.354 N 
ATOM     43  C   UNL A   1      39.789  33.064  32.895  1.00  0.00     0.074 A 
ATOM     44  C   UNL A   1      38.697  34.011  32.823  1.00  0.00     0.031 C 
ATOM     45  C   UNL A   1      38.454  28.955  28.140  1.00  0.00     0.029 A 
ATOM     46  C   UNL A   1      39.594  28.922  29.051  1.00  0.00     0.049 A 
ATOM     47  H   UNL A   1      40.016  30.244  30.604  1.00  0.00     0.167 HD
ATOM     48  C   UNL A   1      40.786  33.115  33.812  1.00  0.00     0.037 A 
ATOM     49  C   UNL A   1      40.581  28.006  29.032  1.00  0.00     0.037 A 
ATOM     50  C   UNL A   1      41.862  32.164  33.889  1.00  0.00     0.049 A 
ATOM     51  C   UNL A   1      41.697  28.103  30.031  1.00  0.00     0.074 A 
ATOM     52  C   UNL A   1      42.904  32.114  34.798  1.00  0.00     0.029 A 
ATOM     53  N   UNL A   1      42.034  31.092  33.024  1.00  0.00    -0.354 N 
ATOM     54  N   UNL A   1      41.870  28.980  30.989  1.00  0.00    -0.248 NA
ATOM     55  C   UNL A   1      42.756  27.089  29.945  1.00  0.00     0.031 C 
ATOM     56  C   UNL A   1      43.727  31.035  34.461  1.00  0.00     0.029 A 
ATOM     57  C   UNL A   1      43.174  30.385  33.368  1.00  0.00     0.049 A 
ATOM     58  H   UNL A   1      41.434  30.869  32.277  1.00  0.00     0.167 HD
ATOM     59  C   UNL A   1      43.043  28.614  31.634  1.00  0.00     0.074 A 
ATOM     60  C   UNL A   1      43.536  27.429  30.963  1.00  0.00     0.031 C 
ATOM     61  C   UNL A   1      43.653  29.207  32.690  1.00  0.00     0.037 A 
BRANCH  48  62
ATOM     62  C   UNL A   1      40.747  34.237  34.810  1.00  0.00     0.057 A 
ATOM     63  C   UNL A   1      41.377  35.459  34.545  1.00  0.00     0.134 A 
ATOM     64  C   UNL A   1      40.106  34.096  36.048  1.00  0.00     0.134 A 
ATOM     65  F   UNL A   1      42.014  35.660  33.382  1.00  0.00    -0.206 F 
ATOM     66  C   UNL A   1      41.371  36.500  35.476  1.00  0.00     0.040 A 
ATOM     67  C   UNL A   1      40.070  35.138  36.976  1.00  0.00     0.040 A 
ATOM     68  F   UNL A   1      39.475  32.954  36.361  1.00  0.00    -0.206 F 
ATOM     69  C   UNL A   1      40.709  36.343  36.692  1.00  0.00     0.006 A 
ENDBRANCH  48  62
BRANCH  49  70
ATOM     70  C   UNL A   1      40.517  26.891  28.056  1.00  0.00     0.057 A 
ATOM     71  C   UNL A   1      41.208  26.934  26.840  1.00  0.00     0.134 A 
ATOM     72  C   UNL A   1      39.705  25.778  28.300  1.00  0.00     0.134 A 
ATOM     73  F   UNL A   1      41.993  27.979  26.543  1.00  0.00    -0.206 F 
ATOM     74  C   UNL A   1      41.075  25.918  25.890  1.00  0.00     0.040 A 
ATOM     75  C   UNL A   1      39.579  24.747  27.369  1.00  0.00     0.040 A 
ATOM     76  F   UNL A   1      39.030  25.677  29.455  1.00  0.00    -0.206 F 
ATOM     77  C   UNL A   1      40.258  24.821  26.155  1.00  0.00     0.006 A 
ENDBRANCH  49  70
BRANCH  61  78
ATOM     78  C   UNL A   1      44.915  28.580  33.203  1.00  0.00     0.057 A 
ATOM     79  C   UNL A   1      46.159  28.949  32.674  1.00  0.00     0.134 A 
ATOM     80  C   UNL A   1      44.894  27.558  34.157  1.00  0.00     0.134 A 
ATOM     81  F   UNL A   1      46.247  29.918  31.749  1.00  0.00    -0.206 F 
ATOM     82  C   UNL A   1      47.337  28.311  33.067  1.00  0.00     0.040 A 
ATOM     83  C   UNL A   1      46.067  26.927  34.575  1.00  0.00     0.040 A 
ATOM     84  F   UNL A   1      43.735  27.167  34.709  1.00  0.00    -0.206 F 
ATOM     85  C   UNL A   1      47.291  27.297  34.021  1.00  0.00     0.006 A 
ENDBRANCH  61  78
ENDBRANCH  35  36
ENDBRANCH  27  30
ENDBRANCH  25  26
ENDBRANCH  24  25
ENDBRANCH  23  24
ENDBRANCH   3  23
TORSDOF 15
ENDMDL
MODEL 3
REMARK VINA RESULT:     -11.2      1.829      6.592
REMARK SMILES CN(CCS(C)(=O)=O)S(=O)(=O)c1cc(C(=O)NCCCNC(=O)c2ccc(-c3c4nc(c(-c5c(F)cccc5F)c5ccc([nH]5)c(-c5c(F)cccc5F)c5nc(c(-c6c(F)cccc6F)c6ccc3[nH]6)C=C5)C=C4)cc2)ccc1F
REMARK SMILES IDX 15 1 16 2 17 3 14 5 12 6 13 7 80 8 79 9 81 10 78 11 9 12
REMARK SMILES IDX 10 13 11 14 2 15 1 16 3 17 4 18 5 19 6 20 7 21 8 22 18 23
REMARK SMILES IDX 19 24 20 25 21 26 22 27 23 29 24 30 25 31 77 32 26 33 76 34
REMARK SMILES IDX 27 35 28 36 29 37 70 38 30 39 75 40 69 41 71 42 31 43 74 44
REMARK SMILES IDX 68 45 67 46 32 48 58 49 41 50 57 51 42 52 45 53 56 54 72 55
REMARK SMILES IDX 43 56 44 57 55 59 73 60 46 61 33 62 34 63 39 64 35 65 36 66
REMARK SMILES IDX 38 67 40 68 37 69 59 70 60 71 65 72 61 73 62 74 64 75 66 76
REMARK SMILES IDX 63 77 47 78 48 79 53 80 49 81 50 82 52 83 54 84 51 85
REMARK H PARENT 17 4 21 28 71 47 45 58
REMARK Flexibility Score: inf
ROOT
ATOM      1  C   UNL A   1      37.110  23.208  25.511  1.00  0.00     0.251 C 
ATOM      2  O   UNL A   1      37.893  24.086  25.881  1.00  0.00    -0.269 OA
ATOM      3  N   UNL A   1      37.680  22.070  25.007  1.00  0.00    -0.352 N 
ATOM      4  H   UNL A   1      38.657  22.143  24.917  1.00  0.00     0.163 HD
ENDROOT
BRANCH   1   5
ATOM      5  C   UNL A   1      35.643  23.466  25.648  1.00  0.00     0.041 A 
ATOM      6  C   UNL A   1      33.624  24.330  24.554  1.00  0.00     0.119 A 
ATOM      7  C   UNL A   1      35.008  24.095  24.554  1.00  0.00     0.038 A 
ATOM      8  C   UNL A   1      32.859  23.925  25.633  1.00  0.00     0.143 A 
ATOM      9  C   UNL A   1      33.468  23.330  26.731  1.00  0.00     0.041 A 
ATOM     10  F   UNL A   1      31.535  24.081  25.671  1.00  0.00    -0.206 F 
ATOM     11  C   UNL A   1      34.847  23.090  26.735  1.00  0.00     0.017 A 
BRANCH   6  12
ATOM     12  S   UNL A   1      32.879  25.107  23.156  1.00  0.00     0.245 S 
ATOM     13  O   UNL A   1      31.637  24.471  22.811  1.00  0.00    -0.207 OA
ATOM     14  O   UNL A   1      33.928  25.267  22.165  1.00  0.00    -0.207 OA
BRANCH  12  15
ATOM     15  N   UNL A   1      32.477  26.670  23.722  1.00  0.00    -0.200 NA
ATOM     16  C   UNL A   1      31.019  26.860  23.923  1.00  0.00     0.124 C 
BRANCH  15  17
ATOM     17  C   UNL A   1      33.336  27.339  24.740  1.00  0.00     0.118 C 
BRANCH  17  18
ATOM     18  C   UNL A   1      33.395  28.856  24.733  1.00  0.00     0.153 C 
BRANCH  18  19
ATOM     19  S   UNL A   1      32.487  29.717  26.013  1.00  0.00     0.148 S 
ATOM     20  C   UNL A   1      31.884  28.511  27.172  1.00  0.00     0.158 C 
ATOM     21  O   UNL A   1      33.454  30.524  26.739  1.00  0.00    -0.229 OA
ATOM     22  O   UNL A   1      31.330  30.349  25.422  1.00  0.00    -0.229 OA
ENDBRANCH  18  19
ENDBRANCH  17  18
ENDBRANCH  15  17
ENDBRANCH  12  15
ENDBRANCH   6  12
ENDBRANCH   1   5
BRANCH   3  23
ATOM     23  C   UNL A   1      37.174  20.781  24.576  1.00  0.00     0.118 C 
BRANCH  23  24
ATOM     24  C   UNL A   1      38.178  19.654  24.810  1.00  0.00     0.042 C 
BRANCH  24  25
ATOM     25  C   UNL A   1      39.101  19.884  26.009  1.00  0.00     0.118 C 
BRANCH  25  26
ATOM     26  N   UNL A   1      40.369  19.178  25.874  1.00  0.00    -0.352 N 
ATOM     27  C   UNL A   1      41.663  19.630  25.957  1.00  0.00     0.251 C 
ATOM     28  H   UNL A   1      40.284  18.214  25.693  1.00  0.00     0.163 HD
ATOM     29  O   UNL A   1      42.576  18.905  25.569  1.00  0.00    -0.269 OA
BRANCH  27  30
ATOM     30  C   UNL A   1      41.975  20.968  26.503  1.00  0.00     0.039 A 
ATOM     31  C   UNL A   1      41.956  21.151  27.889  1.00  0.00     0.014 A 
ATOM     32  C   UNL A   1      42.215  22.056  25.661  1.00  0.00     0.014 A 
ATOM     33  C   UNL A   1      42.235  22.407  28.432  1.00  0.00     0.010 A 
ATOM     34  C   UNL A   1      42.561  23.292  26.202  1.00  0.00     0.010 A 
ATOM     35  C   UNL A   1      42.572  23.481  27.592  1.00  0.00    -0.014 A 
BRANCH  35  36
ATOM     36  C   UNL A   1      42.940  24.808  28.145  1.00  0.00     0.031 A 
ATOM     37  C   UNL A   1      41.889  25.858  28.367  1.00  0.00     0.074 A 
ATOM     38  C   UNL A   1      44.235  25.088  28.390  1.00  0.00     0.049 A 
ATOM     39  N   UNL A   1      42.030  27.098  28.760  1.00  0.00    -0.248 NA
ATOM     40  C   UNL A   1      40.498  25.468  28.090  1.00  0.00     0.031 C 
ATOM     41  C   UNL A   1      45.350  24.160  28.192  1.00  0.00     0.029 A 
ATOM     42  N   UNL A   1      44.831  26.232  28.855  1.00  0.00    -0.354 N 
ATOM     43  C   UNL A   1      40.751  27.639  28.768  1.00  0.00     0.074 A 
ATOM     44  C   UNL A   1      39.854  26.610  28.288  1.00  0.00     0.031 C 
ATOM     45  C   UNL A   1      46.490  24.760  28.566  1.00  0.00     0.029 A 
ATOM     46  C   UNL A   1      46.194  26.125  28.990  1.00  0.00     0.049 A 
ATOM     47  H   UNL A   1      44.330  27.050  29.072  1.00  0.00     0.167 HD
ATOM     48  C   UNL A   1      40.355  28.872  29.166  1.00  0.00     0.037 A 
ATOM     49  C   UNL A   1      47.103  27.026  29.407  1.00  0.00     0.037 A 
ATOM     50  C   UNL A   1      41.249  29.888  29.657  1.00  0.00     0.049 A 
ATOM     51  C   UNL A   1      46.649  28.400  29.806  1.00  0.00     0.074 A 
ATOM     52  C   UNL A   1      40.942  31.159  30.110  1.00  0.00     0.029 A 
ATOM     53  N   UNL A   1      42.626  29.747  29.758  1.00  0.00    -0.354 N 
ATOM     54  N   UNL A   1      45.434  28.891  29.833  1.00  0.00    -0.248 NA
ATOM     55  C   UNL A   1      47.689  29.347  30.230  1.00  0.00     0.031 C 
ATOM     56  C   UNL A   1      42.137  31.801  30.451  1.00  0.00     0.029 A 
ATOM     57  C   UNL A   1      43.184  30.914  30.252  1.00  0.00     0.049 A 
ATOM     58  H   UNL A   1      43.129  28.938  29.515  1.00  0.00     0.167 HD
ATOM     59  C   UNL A   1      45.559  30.194  30.294  1.00  0.00     0.074 A 
ATOM     60  C   UNL A   1      46.968  30.415  30.544  1.00  0.00     0.031 C 
ATOM     61  C   UNL A   1      44.590  31.121  30.495  1.00  0.00     0.037 A 
BRANCH  48  62
ATOM     62  C   UNL A   1      38.888  29.182  29.095  1.00  0.00     0.057 A 
ATOM     63  C   UNL A   1      38.291  29.575  27.890  1.00  0.00     0.134 A 
ATOM     64  C   UNL A   1      38.067  29.117  30.230  1.00  0.00     0.134 A 
ATOM     65  F   UNL A   1      39.019  29.665  26.767  1.00  0.00    -0.206 F 
ATOM     66  C   UNL A   1      36.934  29.891  27.817  1.00  0.00     0.040 A 
ATOM     67  C   UNL A   1      36.703  29.404  30.163  1.00  0.00     0.040 A 
ATOM     68  F   UNL A   1      38.573  28.737  31.413  1.00  0.00    -0.206 F 
ATOM     69  C   UNL A   1      36.134  29.798  28.955  1.00  0.00     0.006 A 
ENDBRANCH  48  62
BRANCH  49  70
ATOM     70  C   UNL A   1      48.527  26.626  29.510  1.00  0.00     0.057 A 
ATOM     71  C   UNL A   1      49.056  26.069  30.680  1.00  0.00     0.134 A 
ATOM     72  C   UNL A   1      49.408  26.854  28.446  1.00  0.00     0.134 A 
ATOM     73  F   UNL A   1      48.265  25.837  31.738  1.00  0.00    -0.206 F 
ATOM     74  C   UNL A   1      50.416  25.774  30.797  1.00  0.00     0.040 A 
ATOM     75  C   UNL A   1      50.765  26.546  28.543  1.00  0.00     0.040 A 
ATOM     76  F   UNL A   1      48.954  27.373  27.295  1.00  0.00    -0.206 F 
ATOM     77  C   UNL A   1      51.274  26.013  29.726  1.00  0.00     0.006 A 
ENDBRANCH  49  70
BRANCH  61  78
ATOM     78  C   UNL A   1      45.010  32.459  31.026  1.00  0.00     0.057 A 
ATOM     79  C   UNL A   1      45.374  33.490  30.150  1.00  0.00     0.134 A 
ATOM     80  C   UNL A   1      45.132  32.701  32.398  1.00  0.00     0.134 A 
ATOM     81  F   UNL A   1      45.288  33.319  28.821  1.00  0.00    -0.206 F 
ATOM     82  C   UNL A   1      45.861  34.710  30.622  1.00  0.00     0.040 A 
ATOM     83  C   UNL A   1      45.596  33.925  32.883  1.00  0.00     0.040 A 
ATOM     84  F   UNL A   1      44.789  31.757  33.288  1.00  0.00    -0.206 F 
ATOM     85  C   UNL A   1      45.971  34.929  31.994  1.00  0.00     0.006 A 
ENDBRANCH  61  78
ENDBRANCH  35  36
ENDBRANCH  27  30
ENDBRANCH  25  26
ENDBRANCH  24  25
ENDBRANCH  23  24
ENDBRANCH   3  23
TORSDOF 15
ENDMDL
