MODEL 1
REMARK VINA RESULT:     -12.3      0.000      0.000
REMARK SMILES Cc1ccc2c(c1)O[C@@H](C(=O)NCCCNC(=O)c1ccc(-c3c4nc(c(-c5c(F)cccc5F)c5ccc([nH]5)c(-c5c(F)cccc5F)c5nc(c(-c6c(F)cccc6F)c6ccc3[nH]6)C=C5)C=C4)cc1)CC2=O
REMARK SMILES IDX 15 1 14 2 13 3 12 4 10 5 11 6 9 8 1 9 2 10 3 11 7 12 4 13
REMARK SMILES IDX 6 14 5 15 8 16 74 17 73 18 75 19 16 20 17 21 18 23 19 24
REMARK SMILES IDX 20 25 72 26 21 27 71 28 22 29 23 30 24 31 65 32 25 33 70 34
REMARK SMILES IDX 64 35 66 36 26 37 69 38 63 39 62 40 27 42 53 43 36 44 52 45
REMARK SMILES IDX 37 46 40 47 51 48 67 49 38 50 39 51 50 53 68 54 41 55 28 56
REMARK SMILES IDX 29 57 34 58 30 59 31 60 33 61 35 62 32 63 54 64 55 65 60 66
REMARK SMILES IDX 56 67 57 68 59 69 61 70 58 71 42 72 43 73 48 74 44 75 45 76
REMARK SMILES IDX 47 77 49 78 46 79
REMARK H PARENT 12 7 16 22 66 41 40 52
REMARK Flexibility Score: inf
ROOT
ATOM      1  C   UNL A   1      31.960  30.241  26.780  1.00  0.00     0.118 C 
ENDROOT
BRANCH   1   2
ATOM      2  C   UNL A   1      32.200  29.759  25.358  1.00  0.00     0.042 C 
BRANCH   2   3
ATOM      3  C   UNL A   1      33.605  29.210  25.144  1.00  0.00     0.118 C 
BRANCH   3   4
ATOM      4  N   UNL A   1      33.818  28.770  23.780  1.00  0.00    -0.353 N 
ATOM      5  C   UNL A   1      33.601  27.587  23.150  1.00  0.00     0.261 C 
ATOM      6  O   UNL A   1      33.858  27.569  21.939  1.00  0.00    -0.271 OA
ATOM      7  H   UNL A   1      34.195  29.467  23.195  1.00  0.00     0.163 HD
BRANCH   5   8
ATOM      8  C   UNL A   1      33.138  26.282  23.850  1.00  0.00     0.269 C 
ATOM      9  C   UNL A   1      38.013  23.474  26.093  1.00  0.00     0.044 C 
ATOM     10  C   UNL A   1      36.797  23.583  25.220  1.00  0.00    -0.047 A 
ATOM     11  C   UNL A   1      36.686  22.794  24.070  1.00  0.00     0.004 A 
ATOM     12  C   UNL A   1      35.785  24.505  25.517  1.00  0.00     0.050 A 
ATOM     13  C   UNL A   1      35.594  22.946  23.214  1.00  0.00     0.016 A 
ATOM     14  C   UNL A   1      34.725  24.703  24.629  1.00  0.00     0.131 A 
ATOM     15  C   UNL A   1      34.627  23.918  23.488  1.00  0.00     0.060 A 
ATOM     16  O   UNL A   1      33.913  25.758  24.915  1.00  0.00    -0.479 OA
ATOM     17  C   UNL A   1      33.561  24.197  22.515  1.00  0.00     0.170 C 
ATOM     18  C   UNL A   1      32.576  25.267  22.865  1.00  0.00     0.136 C 
ATOM     19  O   UNL A   1      33.481  23.552  21.475  1.00  0.00    -0.294 OA
ENDBRANCH   5   8
ENDBRANCH   3   4
ENDBRANCH   2   3
ENDBRANCH   1   2
BRANCH   1  20
ATOM     20  N   UNL A   1      31.925  31.699  26.876  1.00  0.00    -0.352 N 
ATOM     21  C   UNL A   1      32.813  32.585  27.441  1.00  0.00     0.251 C 
ATOM     22  H   UNL A   1      31.133  32.118  26.468  1.00  0.00     0.163 HD
ATOM     23  O   UNL A   1      32.492  33.767  27.557  1.00  0.00    -0.269 OA
BRANCH  21  24
ATOM     24  C   UNL A   1      34.132  32.132  27.938  1.00  0.00     0.039 A 
ATOM     25  C   UNL A   1      34.333  30.815  28.341  1.00  0.00     0.014 A 
ATOM     26  C   UNL A   1      35.197  33.040  28.000  1.00  0.00     0.014 A 
ATOM     27  C   UNL A   1      35.503  30.466  29.002  1.00  0.00     0.010 A 
ATOM     28  C   UNL A   1      36.425  32.648  28.547  1.00  0.00     0.010 A 
ATOM     29  C   UNL A   1      36.571  31.372  29.109  1.00  0.00    -0.014 A 
BRANCH  29  30
ATOM     30  C   UNL A   1      37.812  30.931  29.804  1.00  0.00     0.031 A 
ATOM     31  C   UNL A   1      38.056  31.263  31.253  1.00  0.00     0.074 A 
ATOM     32  C   UNL A   1      38.676  30.134  29.143  1.00  0.00     0.049 A 
ATOM     33  N   UNL A   1      39.036  30.872  32.034  1.00  0.00    -0.248 NA
ATOM     34  C   UNL A   1      37.091  32.154  31.912  1.00  0.00     0.031 C 
ATOM     35  C   UNL A   1      38.557  29.748  27.734  1.00  0.00     0.029 A 
ATOM     36  N   UNL A   1      39.791  29.462  29.576  1.00  0.00    -0.354 N 
ATOM     37  C   UNL A   1      38.814  31.485  33.261  1.00  0.00     0.074 A 
ATOM     38  C   UNL A   1      37.628  32.300  33.115  1.00  0.00     0.031 C 
ATOM     39  C   UNL A   1      39.497  28.837  27.447  1.00  0.00     0.029 A 
ATOM     40  C   UNL A   1      40.330  28.630  28.624  1.00  0.00     0.049 A 
ATOM     41  H   UNL A   1      40.167  29.565  30.480  1.00  0.00     0.167 HD
ATOM     42  C   UNL A   1      39.525  31.369  34.411  1.00  0.00     0.037 A 
ATOM     43  C   UNL A   1      41.381  27.792  28.688  1.00  0.00     0.037 A 
ATOM     44  C   UNL A   1      40.691  30.537  34.563  1.00  0.00     0.049 A 
ATOM     45  C   UNL A   1      42.153  27.689  29.970  1.00  0.00     0.074 A 
ATOM     46  C   UNL A   1      41.475  30.346  35.689  1.00  0.00     0.029 A 
ATOM     47  N   UNL A   1      41.237  29.750  33.561  1.00  0.00    -0.354 N 
ATOM     48  N   UNL A   1      41.926  28.275  31.120  1.00  0.00    -0.248 NA
ATOM     49  C   UNL A   1      43.333  26.815  29.958  1.00  0.00     0.031 C 
ATOM     50  C   UNL A   1      42.516  29.470  35.356  1.00  0.00     0.029 A 
ATOM     51  C   UNL A   1      42.354  29.081  34.037  1.00  0.00     0.049 A 
ATOM     52  H   UNL A   1      40.883  29.677  32.645  1.00  0.00     0.167 HD
ATOM     53  C   UNL A   1      42.926  27.830  31.973  1.00  0.00     0.074 A 
ATOM     54  C   UNL A   1      43.743  26.905  31.214  1.00  0.00     0.031 C 
ATOM     55  C   UNL A   1      43.155  28.164  33.267  1.00  0.00     0.037 A 
BRANCH  42  56
ATOM     56  C   UNL A   1      39.067  32.178  35.591  1.00  0.00     0.057 A 
ATOM     57  C   UNL A   1      39.476  33.508  35.747  1.00  0.00     0.134 A 
ATOM     58  C   UNL A   1      38.240  31.637  36.585  1.00  0.00     0.134 A 
ATOM     59  F   UNL A   1      40.273  34.087  34.837  1.00  0.00    -0.206 F 
ATOM     60  C   UNL A   1      39.079  34.272  36.847  1.00  0.00     0.040 A 
ATOM     61  C   UNL A   1      37.815  32.398  37.677  1.00  0.00     0.040 A 
ATOM     62  F   UNL A   1      37.801  30.373  36.492  1.00  0.00    -0.206 F 
ATOM     63  C   UNL A   1      38.240  33.719  37.812  1.00  0.00     0.006 A 
ENDBRANCH  42  56
BRANCH  43  64
ATOM     64  C   UNL A   1      41.763  26.984  27.502  1.00  0.00     0.057 A 
ATOM     65  C   UNL A   1      42.610  27.497  26.512  1.00  0.00     0.134 A 
ATOM     66  C   UNL A   1      41.298  25.675  27.337  1.00  0.00     0.134 A 
ATOM     67  F   UNL A   1      43.084  28.748  26.609  1.00  0.00    -0.206 F 
ATOM     68  C   UNL A   1      42.971  26.744  25.396  1.00  0.00     0.040 A 
ATOM     69  C   UNL A   1      41.675  24.898  26.240  1.00  0.00     0.040 A 
ATOM     70  F   UNL A   1      40.498  25.120  28.261  1.00  0.00    -0.206 F 
ATOM     71  C   UNL A   1      42.510  25.436  25.263  1.00  0.00     0.006 A 
ENDBRANCH  43  64
BRANCH  55  72
ATOM     72  C   UNL A   1      44.317  27.494  33.938  1.00  0.00     0.057 A 
ATOM     73  C   UNL A   1      45.581  28.097  33.940  1.00  0.00     0.134 A 
ATOM     74  C   UNL A   1      44.184  26.264  34.592  1.00  0.00     0.134 A 
ATOM     75  F   UNL A   1      45.777  29.274  33.326  1.00  0.00    -0.206 F 
ATOM     76  C   UNL A   1      46.670  27.502  34.579  1.00  0.00     0.040 A 
ATOM     77  C   UNL A   1      45.259  25.672  35.257  1.00  0.00     0.040 A 
ATOM     78  F   UNL A   1      42.995  25.644  34.640  1.00  0.00    -0.206 F 
ATOM     79  C   UNL A   1      46.508  26.291  35.249  1.00  0.00     0.006 A 
ENDBRANCH  55  72
ENDBRANCH  29  30
ENDBRANCH  21  24
ENDBRANCH   1  20
TORSDOF 10
ENDMDL
MODEL 2
REMARK VINA RESULT:     -12.2      2.852      7.651
REMARK SMILES Cc1ccc2c(c1)O[C@@H](C(=O)NCCCNC(=O)c1ccc(-c3c4nc(c(-c5c(F)cccc5F)c5ccc([nH]5)c(-c5c(F)cccc5F)c5nc(c(-c6c(F)cccc6F)c6ccc3[nH]6)C=C5)C=C4)cc1)CC2=O
REMARK SMILES IDX 15 1 14 2 13 3 12 4 10 5 11 6 9 8 1 9 2 10 3 11 7 12 4 13
REMARK SMILES IDX 6 14 5 15 8 16 74 17 73 18 75 19 16 20 17 21 18 23 19 24
REMARK SMILES IDX 20 25 72 26 21 27 71 28 22 29 23 30 24 31 65 32 25 33 70 34
REMARK SMILES IDX 64 35 66 36 26 37 69 38 63 39 62 40 27 42 53 43 36 44 52 45
REMARK SMILES IDX 37 46 40 47 51 48 67 49 38 50 39 51 50 53 68 54 41 55 28 56
REMARK SMILES IDX 29 57 34 58 30 59 31 60 33 61 35 62 32 63 54 64 55 65 60 66
REMARK SMILES IDX 56 67 57 68 59 69 61 70 58 71 42 72 43 73 48 74 44 75 45 76
REMARK SMILES IDX 47 77 49 78 46 79
REMARK H PARENT 12 7 16 22 66 41 40 52
REMARK Flexibility Score: inf
ROOT
ATOM      1  C   UNL A   1      37.854  23.974  26.151  1.00  0.00     0.118 C 
ENDROOT
BRANCH   1   2
ATOM      2  C   UNL A   1      37.078  23.309  25.025  1.00  0.00     0.042 C 
BRANCH   2   3
ATOM      3  C   UNL A   1      36.368  22.035  25.463  1.00  0.00     0.118 C 
BRANCH   3   4
ATOM      4  N   UNL A   1      35.490  22.260  26.594  1.00  0.00    -0.353 N 
ATOM      5  C   UNL A   1      34.321  22.938  26.733  1.00  0.00     0.261 C 
ATOM      6  O   UNL A   1      33.802  22.887  27.856  1.00  0.00    -0.271 OA
ATOM      7  H   UNL A   1      35.803  21.837  27.426  1.00  0.00     0.163 HD
BRANCH   5   8
ATOM      8  C   UNL A   1      33.664  23.804  25.626  1.00  0.00     0.269 C 
ATOM      9  C   UNL A   1      34.304  29.638  27.120  1.00  0.00     0.044 C 
ATOM     10  C   UNL A   1      33.515  28.404  26.796  1.00  0.00    -0.047 A 
ATOM     11  C   UNL A   1      32.192  28.281  27.238  1.00  0.00     0.004 A 
ATOM     12  C   UNL A   1      34.102  27.345  26.093  1.00  0.00     0.050 A 
ATOM     13  C   UNL A   1      31.479  27.104  27.005  1.00  0.00     0.016 A 
ATOM     14  C   UNL A   1      33.411  26.143  25.915  1.00  0.00     0.131 A 
ATOM     15  C   UNL A   1      32.102  26.030  26.362  1.00  0.00     0.060 A 
ATOM     16  O   UNL A   1      34.145  25.118  25.401  1.00  0.00    -0.479 OA
ATOM     17  C   UNL A   1      31.417  24.734  26.254  1.00  0.00     0.170 C 
ATOM     18  C   UNL A   1      32.153  23.624  25.575  1.00  0.00     0.136 C 
ATOM     19  O   UNL A   1      30.277  24.593  26.685  1.00  0.00    -0.294 OA
ENDBRANCH   5   8
ENDBRANCH   3   4
ENDBRANCH   2   3
ENDBRANCH   1   2
BRANCH   1  20
ATOM     20  N   UNL A   1      39.277  23.644  26.118  1.00  0.00    -0.352 N 
ATOM     21  C   UNL A   1      40.366  24.304  26.640  1.00  0.00     0.251 C 
ATOM     22  H   UNL A   1      39.494  22.809  25.643  1.00  0.00     0.163 HD
ATOM     23  O   UNL A   1      41.498  23.927  26.340  1.00  0.00    -0.269 OA
BRANCH  21  24
ATOM     24  C   UNL A   1      40.195  25.476  27.529  1.00  0.00     0.039 A 
ATOM     25  C   UNL A   1      40.837  26.681  27.258  1.00  0.00     0.014 A 
ATOM     26  C   UNL A   1      39.371  25.374  28.657  1.00  0.00     0.014 A 
ATOM     27  C   UNL A   1      40.838  27.692  28.209  1.00  0.00     0.010 A 
ATOM     28  C   UNL A   1      39.267  26.446  29.552  1.00  0.00     0.010 A 
ATOM     29  C   UNL A   1      40.048  27.597  29.367  1.00  0.00    -0.014 A 
BRANCH  29  30
ATOM     30  C   UNL A   1      40.069  28.725  30.338  1.00  0.00     0.031 A 
ATOM     31  C   UNL A   1      39.055  29.837  30.269  1.00  0.00     0.074 A 
ATOM     32  C   UNL A   1      40.954  28.687  31.355  1.00  0.00     0.049 A 
ATOM     33  N   UNL A   1      38.874  30.839  31.095  1.00  0.00    -0.248 NA
ATOM     34  C   UNL A   1      38.132  29.836  29.124  1.00  0.00     0.031 C 
ATOM     35  C   UNL A   1      41.995  27.669  31.528  1.00  0.00     0.029 A 
ATOM     36  N   UNL A   1      41.089  29.487  32.460  1.00  0.00    -0.354 N 
ATOM     37  C   UNL A   1      37.837  31.593  30.559  1.00  0.00     0.074 A 
ATOM     38  C   UNL A   1      37.450  30.954  29.321  1.00  0.00     0.031 C 
ATOM     39  C   UNL A   1      42.593  27.849  32.714  1.00  0.00     0.029 A 
ATOM     40  C   UNL A   1      42.035  29.035  33.350  1.00  0.00     0.049 A 
ATOM     41  H   UNL A   1      40.561  30.305  32.603  1.00  0.00     0.167 HD
ATOM     42  C   UNL A   1      37.250  32.709  31.061  1.00  0.00     0.037 A 
ATOM     43  C   UNL A   1      42.414  29.519  34.546  1.00  0.00     0.037 A 
ATOM     44  C   UNL A   1      37.618  33.330  32.307  1.00  0.00     0.049 A 
ATOM     45  C   UNL A   1      41.752  30.758  35.072  1.00  0.00     0.074 A 
ATOM     46  C   UNL A   1      37.078  34.457  32.904  1.00  0.00     0.029 A 
ATOM     47  N   UNL A   1      38.616  32.872  33.154  1.00  0.00    -0.354 N 
ATOM     48  N   UNL A   1      40.772  31.456  34.553  1.00  0.00    -0.248 NA
ATOM     49  C   UNL A   1      42.258  31.282  36.347  1.00  0.00     0.031 C 
ATOM     50  C   UNL A   1      37.774  34.700  34.095  1.00  0.00     0.029 A 
ATOM     51  C   UNL A   1      38.717  33.699  34.262  1.00  0.00     0.049 A 
ATOM     52  H   UNL A   1      39.172  32.075  32.992  1.00  0.00     0.167 HD
ATOM     53  C   UNL A   1      40.533  32.493  35.443  1.00  0.00     0.074 A 
ATOM     54  C   UNL A   1      41.453  32.314  36.548  1.00  0.00     0.031 C 
ATOM     55  C   UNL A   1      39.639  33.507  35.352  1.00  0.00     0.037 A 
BRANCH  42  56
ATOM     56  C   UNL A   1      36.155  33.339  30.246  1.00  0.00     0.057 A 
ATOM     57  C   UNL A   1      34.810  33.122  30.569  1.00  0.00     0.134 A 
ATOM     58  C   UNL A   1      36.429  34.141  29.130  1.00  0.00     0.134 A 
ATOM     59  F   UNL A   1      34.475  32.359  31.620  1.00  0.00    -0.206 F 
ATOM     60  C   UNL A   1      33.777  33.681  29.813  1.00  0.00     0.040 A 
ATOM     61  C   UNL A   1      35.406  34.726  28.381  1.00  0.00     0.040 A 
ATOM     62  F   UNL A   1      37.697  34.399  28.773  1.00  0.00    -0.206 F 
ATOM     63  C   UNL A   1      34.074  34.492  28.719  1.00  0.00     0.006 A 
ENDBRANCH  42  56
BRANCH  43  64
ATOM     64  C   UNL A   1      43.472  28.831  35.328  1.00  0.00     0.057 A 
ATOM     65  C   UNL A   1      43.154  27.893  36.318  1.00  0.00     0.134 A 
ATOM     66  C   UNL A   1      44.827  29.088  35.096  1.00  0.00     0.134 A 
ATOM     67  F   UNL A   1      41.872  27.608  36.592  1.00  0.00    -0.206 F 
ATOM     68  C   UNL A   1      44.143  27.245  37.056  1.00  0.00     0.040 A 
ATOM     69  C   UNL A   1      45.830  28.426  35.807  1.00  0.00     0.040 A 
ATOM     70  F   UNL A   1      45.197  29.963  34.148  1.00  0.00    -0.206 F 
ATOM     71  C   UNL A   1      45.487  27.504  36.795  1.00  0.00     0.006 A 
ENDBRANCH  43  64
BRANCH  55  72
ATOM     72  C   UNL A   1      39.602  34.475  36.496  1.00  0.00     0.057 A 
ATOM     73  C   UNL A   1      38.844  34.197  37.640  1.00  0.00     0.134 A 
ATOM     74  C   UNL A   1      40.326  35.674  36.475  1.00  0.00     0.134 A 
ATOM     75  F   UNL A   1      38.122  33.068  37.722  1.00  0.00    -0.206 F 
ATOM     76  C   UNL A   1      38.814  35.073  38.726  1.00  0.00     0.040 A 
ATOM     77  C   UNL A   1      40.326  36.545  37.565  1.00  0.00     0.040 A 
ATOM     78  F   UNL A   1      41.086  35.990  35.415  1.00  0.00    -0.206 F 
ATOM     79  C   UNL A   1      39.566  36.246  38.694  1.00  0.00     0.006 A 
ENDBRANCH  55  72
ENDBRANCH  29  30
ENDBRANCH  21  24
ENDBRANCH   1  20
TORSDOF 10
ENDMDL
MODEL 3
REMARK VINA RESULT:     -12.2      4.779      9.571
REMARK SMILES Cc1ccc2c(c1)O[C@@H](C(=O)NCCCNC(=O)c1ccc(-c3c4nc(c(-c5c(F)cccc5F)c5ccc([nH]5)c(-c5c(F)cccc5F)c5nc(c(-c6c(F)cccc6F)c6ccc3[nH]6)C=C5)C=C4)cc1)CC2=O
REMARK SMILES IDX 15 1 14 2 13 3 12 4 10 5 11 6 9 8 1 9 2 10 3 11 7 12 4 13
REMARK SMILES IDX 6 14 5 15 8 16 74 17 73 18 75 19 16 20 17 21 18 23 19 24
REMARK SMILES IDX 20 25 72 26 21 27 71 28 22 29 23 30 24 31 65 32 25 33 70 34
REMARK SMILES IDX 64 35 66 36 26 37 69 38 63 39 62 40 27 42 53 43 36 44 52 45
REMARK SMILES IDX 37 46 40 47 51 48 67 49 38 50 39 51 50 53 68 54 41 55 28 56
REMARK SMILES IDX 29 57 34 58 30 59 31 60 33 61 35 62 32 63 54 64 55 65 60 66
REMARK SMILES IDX 56 67 57 68 59 69 61 70 58 71 42 72 43 73 48 74 44 75 45 76
REMARK SMILES IDX 47 77 49 78 46 79
REMARK H PARENT 12 7 16 22 66 41 40 52
REMARK Flexibility Score: inf
ROOT
ATOM      1  C   UNL A   1      38.982  20.135  25.921  1.00  0.00     0.118 C 
ENDROOT
BRANCH   1   2
ATOM      2  C   UNL A   1      37.909  19.904  24.869  1.00  0.00     0.042 C 
BRANCH   2   3
ATOM      3  C   UNL A   1      37.165  21.177  24.488  1.00  0.00     0.118 C 
BRANCH   3   4
ATOM      4  N   UNL A   1      37.783  22.361  25.051  1.00  0.00    -0.353 N 
ATOM      5  C   UNL A   1      37.284  23.430  25.724  1.00  0.00     0.261 C 
ATOM      6  O   UNL A   1      38.119  24.257  26.111  1.00  0.00    -0.271 OA
ATOM      7  H   UNL A   1      38.758  22.396  24.920  1.00  0.00     0.163 HD
BRANCH   5   8
ATOM      8  C   UNL A   1      35.774  23.700  25.960  1.00  0.00     0.269 C 
ATOM      9  C   UNL A   1      32.801  18.437  25.584  1.00  0.00     0.044 C 
ATOM     10  C   UNL A   1      33.115  19.846  25.172  1.00  0.00    -0.047 A 
ATOM     11  C   UNL A   1      32.809  20.283  23.878  1.00  0.00     0.004 A 
ATOM     12  C   UNL A   1      33.758  20.721  26.056  1.00  0.00     0.050 A 
ATOM     13  C   UNL A   1      33.168  21.567  23.465  1.00  0.00     0.016 A 
ATOM     14  C   UNL A   1      34.174  21.984  25.624  1.00  0.00     0.131 A 
ATOM     15  C   UNL A   1      33.871  22.405  24.336  1.00  0.00     0.060 A 
ATOM     16  O   UNL A   1      34.964  22.668  26.496  1.00  0.00    -0.479 OA
ATOM     17  C   UNL A   1      34.393  23.694  23.862  1.00  0.00     0.170 C 
ATOM     18  C   UNL A   1      35.155  24.528  24.842  1.00  0.00     0.136 C 
ATOM     19  O   UNL A   1      34.181  24.070  22.713  1.00  0.00    -0.294 OA
ENDBRANCH   5   8
ENDBRANCH   3   4
ENDBRANCH   2   3
ENDBRANCH   1   2
BRANCH   1  20
ATOM     20  N   UNL A   1      40.035  19.122  25.876  1.00  0.00    -0.352 N 
ATOM     21  C   UNL A   1      41.398  19.235  26.020  1.00  0.00     0.251 C 
ATOM     22  H   UNL A   1      39.715  18.205  25.716  1.00  0.00     0.163 HD
ATOM     23  O   UNL A   1      42.112  18.264  25.771  1.00  0.00    -0.269 OA
BRANCH  21  24
ATOM     24  C   UNL A   1      42.020  20.513  26.437  1.00  0.00     0.039 A 
ATOM     25  C   UNL A   1      42.201  20.817  27.783  1.00  0.00     0.014 A 
ATOM     26  C   UNL A   1      42.437  21.429  25.463  1.00  0.00     0.014 A 
ATOM     27  C   UNL A   1      42.581  22.098  28.157  1.00  0.00     0.010 A 
ATOM     28  C   UNL A   1      42.948  22.676  25.843  1.00  0.00     0.010 A 
ATOM     29  C   UNL A   1      42.970  23.047  27.196  1.00  0.00    -0.014 A 
BRANCH  29  30
ATOM     30  C   UNL A   1      43.395  24.396  27.659  1.00  0.00     0.031 A 
ATOM     31  C   UNL A   1      44.827  24.849  27.541  1.00  0.00     0.074 A 
ATOM     32  C   UNL A   1      42.453  25.257  28.095  1.00  0.00     0.049 A 
ATOM     33  N   UNL A   1      45.343  26.026  27.805  1.00  0.00    -0.248 NA
ATOM     34  C   UNL A   1      45.811  23.858  27.081  1.00  0.00     0.031 C 
ATOM     35  C   UNL A   1      41.032  24.937  28.265  1.00  0.00     0.029 A 
ATOM     36  N   UNL A   1      42.532  26.587  28.423  1.00  0.00    -0.354 N 
ATOM     37  C   UNL A   1      46.707  25.908  27.564  1.00  0.00     0.074 A 
ATOM     38  C   UNL A   1      46.945  24.538  27.166  1.00  0.00     0.031 C 
ATOM     39  C   UNL A   1      40.362  26.056  28.569  1.00  0.00     0.029 A 
ATOM     40  C   UNL A   1      41.310  27.156  28.691  1.00  0.00     0.049 A 
ATOM     41  H   UNL A   1      43.380  27.084  28.462  1.00  0.00     0.167 HD
ATOM     42  C   UNL A   1      47.671  26.858  27.653  1.00  0.00     0.037 A 
ATOM     43  C   UNL A   1      40.984  28.424  29.002  1.00  0.00     0.037 A 
ATOM     44  C   UNL A   1      47.429  28.228  28.025  1.00  0.00     0.049 A 
ATOM     45  C   UNL A   1      42.072  29.452  29.099  1.00  0.00     0.074 A 
ATOM     46  C   UNL A   1      48.338  29.267  28.135  1.00  0.00     0.029 A 
ATOM     47  N   UNL A   1      46.186  28.754  28.340  1.00  0.00    -0.354 N 
ATOM     48  N   UNL A   1      43.355  29.321  28.866  1.00  0.00    -0.248 NA
ATOM     49  C   UNL A   1      41.667  30.800  29.514  1.00  0.00     0.031 C 
ATOM     50  C   UNL A   1      47.648  30.412  28.552  1.00  0.00     0.029 A 
ATOM     51  C   UNL A   1      46.304  30.099  28.657  1.00  0.00     0.049 A 
ATOM     52  H   UNL A   1      45.342  28.246  28.339  1.00  0.00     0.167 HD
ATOM     53  C   UNL A   1      43.909  30.574  29.091  1.00  0.00     0.074 A 
ATOM     54  C   UNL A   1      42.816  31.455  29.452  1.00  0.00     0.031 C 
ATOM     55  C   UNL A   1      45.206  30.959  29.015  1.00  0.00     0.037 A 
BRANCH  42  56
ATOM     56  C   UNL A   1      49.083  26.437  27.357  1.00  0.00     0.057 A 
ATOM     57  C   UNL A   1      49.931  26.007  28.386  1.00  0.00     0.134 A 
ATOM     58  C   UNL A   1      49.614  26.480  26.061  1.00  0.00     0.134 A 
ATOM     59  F   UNL A   1      49.490  25.948  29.652  1.00  0.00    -0.206 F 
ATOM     60  C   UNL A   1      51.253  25.632  28.137  1.00  0.00     0.040 A 
ATOM     61  C   UNL A   1      50.926  26.083  25.794  1.00  0.00     0.040 A 
ATOM     62  F   UNL A   1      48.853  26.871  25.027  1.00  0.00    -0.206 F 
ATOM     63  C   UNL A   1      51.751  25.662  26.836  1.00  0.00     0.006 A 
ENDBRANCH  42  56
BRANCH  43  64
ATOM     64  C   UNL A   1      39.566  28.792  29.242  1.00  0.00     0.057 A 
ATOM     65  C   UNL A   1      38.743  29.242  28.203  1.00  0.00     0.134 A 
ATOM     66  C   UNL A   1      38.998  28.692  30.517  1.00  0.00     0.134 A 
ATOM     67  F   UNL A   1      39.231  29.367  26.960  1.00  0.00    -0.206 F 
ATOM     68  C   UNL A   1      37.411  29.591  28.424  1.00  0.00     0.040 A 
ATOM     69  C   UNL A   1      37.658  29.009  30.747  1.00  0.00     0.040 A 
ATOM     70  F   UNL A   1      39.730  28.249  31.551  1.00  0.00    -0.206 F 
ATOM     71  C   UNL A   1      36.862  29.466  29.698  1.00  0.00     0.006 A 
ENDBRANCH  43  64
BRANCH  55  72
ATOM     72  C   UNL A   1      45.495  32.403  29.299  1.00  0.00     0.057 A 
ATOM     73  C   UNL A   1      45.444  33.355  28.274  1.00  0.00     0.134 A 
ATOM     74  C   UNL A   1      45.810  32.854  30.587  1.00  0.00     0.134 A 
ATOM     75  F   UNL A   1      45.153  32.987  27.016  1.00  0.00    -0.206 F 
ATOM     76  C   UNL A   1      45.686  34.707  28.521  1.00  0.00     0.040 A 
ATOM     77  C   UNL A   1      46.028  34.207  30.852  1.00  0.00     0.040 A 
ATOM     78  F   UNL A   1      45.858  31.995  31.616  1.00  0.00    -0.206 F 
ATOM     79  C   UNL A   1      45.969  35.137  29.816  1.00  0.00     0.006 A 
ENDBRANCH  55  72
ENDBRANCH  29  30
ENDBRANCH  21  24
ENDBRANCH   1  20
TORSDOF 10
ENDMDL
