MODEL 1
REMARK VINA RESULT:     -13.4      0.000      0.000
REMARK SMILES Cc1ccc(C(=O)NC2(CC(=O)NCCCNC(=O)c3ccc(-c4c5nc(c(-c6c(F)cccc6F)c6ccc([nH]6)c(-c6c(F)cccc6F)c6nc(c(-c7c(F)cccc7F)c7ccc4[nH]7)C=C6)C=C5)cc3)CCC2)cc1
REMARK SMILES IDX 14 1 13 2 11 3 12 4 10 6 9 7 74 8 76 9 75 10 8 11 6 12 7 13
REMARK SMILES IDX 5 15 1 16 2 17 3 18 78 19 4 20 77 21 15 22 16 23 17 24 18 25
REMARK SMILES IDX 19 27 20 28 21 29 73 30 22 31 72 32 23 33 24 34 25 35 66 36
REMARK SMILES IDX 26 37 71 38 65 39 67 40 27 41 70 42 64 43 63 44 28 46 54 47
REMARK SMILES IDX 37 48 53 49 38 50 41 51 52 52 68 53 39 54 40 55 51 57 69 58
REMARK SMILES IDX 42 59 29 60 30 61 35 62 31 63 32 64 34 65 36 66 33 67 55 68
REMARK SMILES IDX 56 69 61 70 57 71 58 72 60 73 62 74 59 75 43 76 44 77 49 78
REMARK SMILES IDX 45 79 46 80 48 81 50 82 47 83
REMARK H PARENT 13 5 8 14 17 26 67 45 41 56
REMARK Flexibility Score: inf
ROOT
ATOM      1  C   UNL A   1      31.420  30.297  25.808  1.00  0.00     0.117 C 
ENDROOT
BRANCH   1   2
ATOM      2  N   UNL A   1      30.653  30.382  24.313  1.00  0.00    -0.356 N 
ATOM      3  C   UNL A   1      30.059  29.129  22.903  1.00  0.00     0.222 C 
ATOM      4  O   UNL A   1      29.082  29.185  22.111  1.00  0.00    -0.275 OA
ATOM      5  H   UNL A   1      30.441  31.314  24.074  1.00  0.00     0.163 HD
BRANCH   3   6
ATOM      6  C   UNL A   1      31.018  27.565  22.432  1.00  0.00     0.128 C 
BRANCH   6   7
ATOM      7  C   UNL A   1      32.697  27.438  22.456  1.00  0.00     0.049 C 
ATOM      8  C   UNL A   1      33.374  27.168  23.846  1.00  0.00     0.029 C 
ATOM      9  C   UNL A   1      34.028  28.488  22.318  1.00  0.00     0.029 C 
ATOM     10  C   UNL A   1      34.024  28.586  23.823  1.00  0.00     0.005 C 
BRANCH   7  11
ATOM     11  N   UNL A   1      32.995  26.584  21.316  1.00  0.00    -0.346 N 
ATOM     12  C   UNL A   1      32.982  25.245  21.599  1.00  0.00     0.251 C 
ATOM     13  O   UNL A   1      33.044  24.375  20.744  1.00  0.00    -0.269 OA
ATOM     14  H   UNL A   1      33.189  26.939  20.419  1.00  0.00     0.164 HD
BRANCH  12  15
ATOM     15  C   UNL A   1      33.085  24.948  23.076  1.00  0.00     0.039 A 
ATOM     16  C   UNL A   1      32.529  22.580  27.446  1.00  0.00     0.044 C 
ATOM     17  C   UNL A   1      32.829  22.750  25.968  1.00  0.00    -0.051 A 
ATOM     18  C   UNL A   1      31.370  23.129  24.978  1.00  0.00     0.004 A 
ATOM     19  C   UNL A   1      34.469  23.357  25.516  1.00  0.00     0.004 A 
ATOM     20  C   UNL A   1      31.501  24.204  23.548  1.00  0.00     0.014 A 
ATOM     21  C   UNL A   1      34.622  24.543  24.104  1.00  0.00     0.014 A 
ENDBRANCH  12  15
ENDBRANCH   7  11
ENDBRANCH   6   7
ENDBRANCH   3   6
ENDBRANCH   1   2
BRANCH   1  22
ATOM     22  C   UNL A   1      31.538  31.638  26.501  1.00  0.00     0.042 C 
BRANCH  22  23
ATOM     23  C   UNL A   1      32.797  31.644  27.297  1.00  0.00     0.118 C 
BRANCH  23  24
ATOM     24  N   UNL A   1      33.537  30.403  27.114  1.00  0.00    -0.352 N 
ATOM     25  C   UNL A   1      34.795  30.042  27.528  1.00  0.00     0.251 C 
ATOM     26  H   UNL A   1      33.056  29.709  26.609  1.00  0.00     0.163 HD
ATOM     27  O   UNL A   1      35.301  29.033  27.044  1.00  0.00    -0.269 OA
BRANCH  25  28
ATOM     28  C   UNL A   1      35.391  30.692  28.732  1.00  0.00     0.039 A 
ATOM     29  C   UNL A   1      36.241  31.744  28.362  1.00  0.00     0.014 A 
ATOM     30  C   UNL A   1      35.750  29.875  29.790  1.00  0.00     0.014 A 
ATOM     31  C   UNL A   1      37.574  31.680  28.725  1.00  0.00     0.010 A 
ATOM     32  C   UNL A   1      37.085  29.625  29.924  1.00  0.00     0.010 A 
ATOM     33  C   UNL A   1      37.990  30.524  29.366  1.00  0.00    -0.014 A 
BRANCH  33  34
ATOM     34  C   UNL A   1      39.342  30.236  29.766  1.00  0.00     0.031 A 
ATOM     35  C   UNL A   1      39.875  29.020  29.123  1.00  0.00     0.074 A 
ATOM     36  C   UNL A   1      40.001  31.205  30.440  1.00  0.00     0.049 A 
ATOM     37  N   UNL A   1      40.727  28.223  29.645  1.00  0.00    -0.248 NA
ATOM     38  C   UNL A   1      39.381  28.523  27.825  1.00  0.00     0.031 C 
ATOM     39  C   UNL A   1      41.428  31.398  30.652  1.00  0.00     0.029 A 
ATOM     40  N   UNL A   1      39.415  32.210  31.229  1.00  0.00    -0.354 N 
ATOM     41  C   UNL A   1      41.207  27.451  28.604  1.00  0.00     0.074 A 
ATOM     42  C   UNL A   1      40.215  27.514  27.572  1.00  0.00     0.031 C 
ATOM     43  C   UNL A   1      41.605  32.187  31.732  1.00  0.00     0.029 A 
ATOM     44  C   UNL A   1      40.293  32.423  32.316  1.00  0.00     0.049 A 
ATOM     45  H   UNL A   1      38.563  32.673  31.059  1.00  0.00     0.167 HD
ATOM     46  C   UNL A   1      42.516  27.080  28.633  1.00  0.00     0.037 A 
ATOM     47  C   UNL A   1      39.913  32.033  33.574  1.00  0.00     0.037 A 
ATOM     48  C   UNL A   1      43.134  27.658  29.823  1.00  0.00     0.049 A 
ATOM     49  C   UNL A   1      40.719  30.845  34.051  1.00  0.00     0.074 A 
ATOM     50  C   UNL A   1      43.847  28.831  30.012  1.00  0.00     0.029 A 
ATOM     51  N   UNL A   1      42.657  27.282  31.069  1.00  0.00    -0.354 N 
ATOM     52  N   UNL A   1      41.268  29.973  33.249  1.00  0.00    -0.248 NA
ATOM     53  C   UNL A   1      41.005  30.578  35.457  1.00  0.00     0.031 C 
ATOM     54  C   UNL A   1      43.778  29.163  31.390  1.00  0.00     0.029 A 
ATOM     55  C   UNL A   1      43.015  28.202  32.031  1.00  0.00     0.049 A 
ATOM     56  H   UNL A   1      42.134  26.467  31.243  1.00  0.00     0.167 HD
ATOM     57  C   UNL A   1      41.955  29.045  33.989  1.00  0.00     0.074 A 
ATOM     58  C   UNL A   1      41.769  29.477  35.361  1.00  0.00     0.031 C 
ATOM     59  C   UNL A   1      42.618  27.996  33.414  1.00  0.00     0.037 A 
BRANCH  46  60
ATOM     60  C   UNL A   1      43.303  26.509  27.484  1.00  0.00     0.057 A 
ATOM     61  C   UNL A   1      43.549  25.122  27.417  1.00  0.00     0.134 A 
ATOM     62  C   UNL A   1      43.818  27.243  26.400  1.00  0.00     0.134 A 
ATOM     63  F   UNL A   1      43.081  24.276  28.344  1.00  0.00    -0.206 F 
ATOM     64  C   UNL A   1      44.282  24.521  26.389  1.00  0.00     0.040 A 
ATOM     65  C   UNL A   1      44.582  26.656  25.378  1.00  0.00     0.040 A 
ATOM     66  F   UNL A   1      43.565  28.548  26.246  1.00  0.00    -0.206 F 
ATOM     67  C   UNL A   1      44.814  25.288  25.370  1.00  0.00     0.006 A 
ENDBRANCH  46  60
BRANCH  47  68
ATOM     68  C   UNL A   1      38.441  32.212  33.777  1.00  0.00     0.057 A 
ATOM     69  C   UNL A   1      37.956  33.530  33.895  1.00  0.00     0.134 A 
ATOM     70  C   UNL A   1      37.535  31.245  33.329  1.00  0.00     0.134 A 
ATOM     71  F   UNL A   1      38.755  34.501  34.366  1.00  0.00    -0.206 F 
ATOM     72  C   UNL A   1      36.713  33.907  33.377  1.00  0.00     0.040 A 
ATOM     73  C   UNL A   1      36.278  31.610  32.834  1.00  0.00     0.040 A 
ATOM     74  F   UNL A   1      37.907  29.962  33.210  1.00  0.00    -0.206 F 
ATOM     75  C   UNL A   1      35.894  32.950  32.787  1.00  0.00     0.006 A 
ENDBRANCH  47  68
BRANCH  59  76
ATOM     76  C   UNL A   1      43.029  26.714  34.111  1.00  0.00     0.057 A 
ATOM     77  C   UNL A   1      44.357  26.305  34.288  1.00  0.00     0.134 A 
ATOM     78  C   UNL A   1      42.075  25.899  34.772  1.00  0.00     0.134 A 
ATOM     79  F   UNL A   1      45.391  27.049  33.879  1.00  0.00    -0.206 F 
ATOM     80  C   UNL A   1      44.701  25.124  34.959  1.00  0.00     0.040 A 
ATOM     81  C   UNL A   1      42.416  24.774  35.525  1.00  0.00     0.040 A 
ATOM     82  F   UNL A   1      40.761  26.161  34.751  1.00  0.00    -0.206 F 
ATOM     83  C   UNL A   1      43.731  24.359  35.588  1.00  0.00     0.006 A 
ENDBRANCH  59  76
ENDBRANCH  33  34
ENDBRANCH  25  28
ENDBRANCH  23  24
ENDBRANCH  22  23
ENDBRANCH   1  22
TORSDOF 13
ENDMDL
MODEL 2
REMARK VINA RESULT:     -13.3      3.394      7.062
REMARK SMILES Cc1ccc(C(=O)NC2(CC(=O)NCCCNC(=O)c3ccc(-c4c5nc(c(-c6c(F)cccc6F)c6ccc([nH]6)c(-c6c(F)cccc6F)c6nc(c(-c7c(F)cccc7F)c7ccc4[nH]7)C=C6)C=C5)cc3)CCC2)cc1
REMARK SMILES IDX 14 1 13 2 11 3 12 4 10 6 9 7 74 8 76 9 75 10 8 11 6 12 7 13
REMARK SMILES IDX 5 15 1 16 2 17 3 18 78 19 4 20 77 21 15 22 16 23 17 24 18 25
REMARK SMILES IDX 19 27 20 28 21 29 73 30 22 31 72 32 23 33 24 34 25 35 66 36
REMARK SMILES IDX 26 37 71 38 65 39 67 40 27 41 70 42 64 43 63 44 28 46 54 47
REMARK SMILES IDX 37 48 53 49 38 50 41 51 52 52 68 53 39 54 40 55 51 57 69 58
REMARK SMILES IDX 42 59 29 60 30 61 35 62 31 63 32 64 34 65 36 66 33 67 55 68
REMARK SMILES IDX 56 69 61 70 57 71 58 72 60 73 62 74 59 75 43 76 44 77 49 78
REMARK SMILES IDX 45 79 46 80 48 81 50 82 47 83
REMARK H PARENT 13 5 8 14 17 26 67 45 41 56
REMARK Flexibility Score: inf
ROOT
ATOM      1  C   UNL A   1      38.826  22.656  26.459  1.00  0.00     0.117 C 
ENDROOT
BRANCH   1   2
ATOM      2  N   UNL A   1      38.195  22.285  24.945  1.00  0.00    -0.356 N 
ATOM      3  C   UNL A   1      36.643  22.813  23.840  1.00  0.00     0.222 C 
ATOM      4  O   UNL A   1      36.515  22.905  22.590  1.00  0.00    -0.275 OA
ATOM      5  H   UNL A   1      38.754  21.619  24.480  1.00  0.00     0.163 HD
BRANCH   3   6
ATOM      6  C   UNL A   1      34.936  23.202  24.564  1.00  0.00     0.128 C 
BRANCH   6   7
ATOM      7  C   UNL A   1      33.485  22.625  23.935  1.00  0.00     0.049 C 
ATOM      8  C   UNL A   1      32.229  22.675  24.876  1.00  0.00     0.029 C 
ATOM      9  C   UNL A   1      32.804  21.112  23.559  1.00  0.00     0.029 C 
ATOM     10  C   UNL A   1      32.194  21.116  24.939  1.00  0.00     0.005 C 
BRANCH   7  11
ATOM     11  N   UNL A   1      33.429  23.208  22.604  1.00  0.00    -0.346 N 
ATOM     12  C   UNL A   1      33.229  24.563  22.592  1.00  0.00     0.251 C 
ATOM     13  O   UNL A   1      33.317  25.247  21.585  1.00  0.00    -0.269 OA
ATOM     14  H   UNL A   1      33.526  22.675  21.782  1.00  0.00     0.164 HD
BRANCH  12  15
ATOM     15  C   UNL A   1      32.693  25.096  23.899  1.00  0.00     0.039 A 
ATOM     16  C   UNL A   1      31.699  28.286  27.620  1.00  0.00     0.044 C 
ATOM     17  C   UNL A   1      31.830  27.790  26.192  1.00  0.00    -0.051 A 
ATOM     18  C   UNL A   1      33.540  27.548  25.671  1.00  0.00     0.004 A 
ATOM     19  C   UNL A   1      30.484  26.783  25.532  1.00  0.00     0.004 A 
ATOM     20  C   UNL A   1      33.960  26.226  24.533  1.00  0.00     0.014 A 
ATOM     21  C   UNL A   1      30.896  25.354  24.432  1.00  0.00     0.014 A 
ENDBRANCH  12  15
ENDBRANCH   7  11
ENDBRANCH   6   7
ENDBRANCH   3   6
ENDBRANCH   1   2
BRANCH   1  22
ATOM     22  C   UNL A   1      38.520  24.069  26.908  1.00  0.00     0.042 C 
BRANCH  22  23
ATOM     23  C   UNL A   1      39.656  24.945  26.504  1.00  0.00     0.118 C 
BRANCH  23  24
ATOM     24  N   UNL A   1      40.553  25.188  27.626  1.00  0.00    -0.352 N 
ATOM     25  C   UNL A   1      40.788  26.328  28.352  1.00  0.00     0.251 C 
ATOM     26  H   UNL A   1      41.077  24.405  27.910  1.00  0.00     0.163 HD
ATOM     27  O   UNL A   1      41.768  26.357  29.093  1.00  0.00    -0.269 OA
BRANCH  25  28
ATOM     28  C   UNL A   1      39.727  27.373  28.451  1.00  0.00     0.039 A 
ATOM     29  C   UNL A   1      40.060  28.498  27.683  1.00  0.00     0.014 A 
ATOM     30  C   UNL A   1      39.117  27.553  29.680  1.00  0.00     0.014 A 
ATOM     31  C   UNL A   1      40.200  29.719  28.319  1.00  0.00     0.010 A 
ATOM     32  C   UNL A   1      39.514  28.650  30.389  1.00  0.00     0.010 A 
ATOM     33  C   UNL A   1      40.078  29.720  29.699  1.00  0.00    -0.014 A 
BRANCH  33  34
ATOM     34  C   UNL A   1      40.251  30.869  30.548  1.00  0.00     0.031 A 
ATOM     35  C   UNL A   1      41.316  30.675  31.550  1.00  0.00     0.074 A 
ATOM     36  C   UNL A   1      39.629  32.008  30.171  1.00  0.00     0.049 A 
ATOM     37  N   UNL A   1      41.332  31.194  32.718  1.00  0.00    -0.248 NA
ATOM     38  C   UNL A   1      42.445  29.748  31.344  1.00  0.00     0.031 C 
ATOM     39  C   UNL A   1      39.880  33.389  30.559  1.00  0.00     0.029 A 
ATOM     40  N   UNL A   1      38.465  32.096  29.388  1.00  0.00    -0.354 N 
ATOM     41  C   UNL A   1      42.631  31.059  33.172  1.00  0.00     0.074 A 
ATOM     42  C   UNL A   1      43.209  29.992  32.409  1.00  0.00     0.031 C 
ATOM     43  C   UNL A   1      38.768  34.117  30.325  1.00  0.00     0.029 A 
ATOM     44  C   UNL A   1      37.729  33.193  29.892  1.00  0.00     0.049 A 
ATOM     45  H   UNL A   1      38.212  31.511  28.638  1.00  0.00     0.167 HD
ATOM     46  C   UNL A   1      43.146  32.054  33.944  1.00  0.00     0.037 A 
ATOM     47  C   UNL A   1      36.555  32.965  30.561  1.00  0.00     0.037 A 
ATOM     48  C   UNL A   1      42.138  33.102  34.081  1.00  0.00     0.049 A 
ATOM     49  C   UNL A   1      36.692  33.266  32.036  1.00  0.00     0.074 A 
ATOM     50  C   UNL A   1      41.924  34.271  33.369  1.00  0.00     0.029 A 
ATOM     51  N   UNL A   1      40.938  32.792  34.700  1.00  0.00    -0.354 N 
ATOM     52  N   UNL A   1      37.822  33.200  32.688  1.00  0.00    -0.248 NA
ATOM     53  C   UNL A   1      35.582  33.707  32.875  1.00  0.00     0.031 C 
ATOM     54  C   UNL A   1      40.570  34.652  33.558  1.00  0.00     0.029 A 
ATOM     55  C   UNL A   1      39.962  33.708  34.370  1.00  0.00     0.049 A 
ATOM     56  H   UNL A   1      40.800  32.021  35.296  1.00  0.00     0.167 HD
ATOM     57  C   UNL A   1      37.617  33.565  33.993  1.00  0.00     0.074 A 
ATOM     58  C   UNL A   1      36.203  33.885  34.054  1.00  0.00     0.031 C 
ATOM     59  C   UNL A   1      38.623  33.573  34.919  1.00  0.00     0.037 A 
BRANCH  46  60
ATOM     60  C   UNL A   1      44.599  32.250  34.287  1.00  0.00     0.057 A 
ATOM     61  C   UNL A   1      45.461  32.882  33.367  1.00  0.00     0.134 A 
ATOM     62  C   UNL A   1      45.211  31.880  35.498  1.00  0.00     0.134 A 
ATOM     63  F   UNL A   1      45.023  33.342  32.188  1.00  0.00    -0.206 F 
ATOM     64  C   UNL A   1      46.823  33.087  33.609  1.00  0.00     0.040 A 
ATOM     65  C   UNL A   1      46.584  32.053  35.740  1.00  0.00     0.040 A 
ATOM     66  F   UNL A   1      44.507  31.386  36.524  1.00  0.00    -0.206 F 
ATOM     67  C   UNL A   1      47.395  32.661  34.794  1.00  0.00     0.006 A 
ENDBRANCH  46  60
BRANCH  47  68
ATOM     68  C   UNL A   1      35.820  31.795  29.985  1.00  0.00     0.057 A 
ATOM     69  C   UNL A   1      35.124  31.994  28.777  1.00  0.00     0.134 A 
ATOM     70  C   UNL A   1      36.225  30.487  30.271  1.00  0.00     0.134 A 
ATOM     71  F   UNL A   1      34.661  33.215  28.461  1.00  0.00    -0.206 F 
ATOM     72  C   UNL A   1      35.038  30.995  27.802  1.00  0.00     0.040 A 
ATOM     73  C   UNL A   1      36.118  29.474  29.310  1.00  0.00     0.040 A 
ATOM     74  F   UNL A   1      36.873  30.205  31.410  1.00  0.00    -0.206 F 
ATOM     75  C   UNL A   1      35.594  29.745  28.047  1.00  0.00     0.006 A 
ENDBRANCH  47  68
BRANCH  59  76
ATOM     76  C   UNL A   1      38.449  33.534  36.424  1.00  0.00     0.057 A 
ATOM     77  C   UNL A   1      38.028  32.404  37.138  1.00  0.00     0.134 A 
ATOM     78  C   UNL A   1      38.851  34.622  37.239  1.00  0.00     0.134 A 
ATOM     79  F   UNL A   1      37.776  31.235  36.537  1.00  0.00    -0.206 F 
ATOM     80  C   UNL A   1      37.900  32.397  38.533  1.00  0.00     0.040 A 
ATOM     81  C   UNL A   1      38.820  34.590  38.634  1.00  0.00     0.040 A 
ATOM     82  F   UNL A   1      39.324  35.768  36.732  1.00  0.00    -0.206 F 
ATOM     83  C   UNL A   1      38.305  33.488  39.287  1.00  0.00     0.006 A 
ENDBRANCH  59  76
ENDBRANCH  33  34
ENDBRANCH  25  28
ENDBRANCH  23  24
ENDBRANCH  22  23
ENDBRANCH   1  22
TORSDOF 13
ENDMDL
MODEL 3
REMARK VINA RESULT:     -13.0      3.365      8.806
REMARK SMILES Cc1ccc(C(=O)NC2(CC(=O)NCCCNC(=O)c3ccc(-c4c5nc(c(-c6c(F)cccc6F)c6ccc([nH]6)c(-c6c(F)cccc6F)c6nc(c(-c7c(F)cccc7F)c7ccc4[nH]7)C=C6)C=C5)cc3)CCC2)cc1
REMARK SMILES IDX 14 1 13 2 11 3 12 4 10 6 9 7 74 8 76 9 75 10 8 11 6 12 7 13
REMARK SMILES IDX 5 15 1 16 2 17 3 18 78 19 4 20 77 21 15 22 16 23 17 24 18 25
REMARK SMILES IDX 19 27 20 28 21 29 73 30 22 31 72 32 23 33 24 34 25 35 66 36
REMARK SMILES IDX 26 37 71 38 65 39 67 40 27 41 70 42 64 43 63 44 28 46 54 47
REMARK SMILES IDX 37 48 53 49 38 50 41 51 52 52 68 53 39 54 40 55 51 57 69 58
REMARK SMILES IDX 42 59 29 60 30 61 35 62 31 63 32 64 34 65 36 66 33 67 55 68
REMARK SMILES IDX 56 69 61 70 57 71 58 72 60 73 62 74 59 75 43 76 44 77 49 78
REMARK SMILES IDX 45 79 46 80 48 81 50 82 47 83
REMARK H PARENT 13 5 8 14 17 26 67 45 41 56
REMARK Flexibility Score: inf
ROOT
ATOM      1  C   UNL A   1      36.465  20.768  24.932  1.00  0.00     0.117 C 
ENDROOT
BRANCH   1   2
ATOM      2  N   UNL A   1      35.157  19.712  24.959  1.00  0.00    -0.356 N 
ATOM      3  C   UNL A   1      33.197  19.809  24.712  1.00  0.00     0.222 C 
ATOM      4  O   UNL A   1      32.384  18.970  24.243  1.00  0.00    -0.275 OA
ATOM      5  H   UNL A   1      35.446  18.790  25.150  1.00  0.00     0.163 HD
BRANCH   3   6
ATOM      6  C   UNL A   1      32.149  21.278  25.286  1.00  0.00     0.128 C 
BRANCH   6   7
ATOM      7  C   UNL A   1      32.587  22.330  26.527  1.00  0.00     0.049 C 
ATOM      8  C   UNL A   1      33.697  23.392  26.204  1.00  0.00     0.029 C 
ATOM      9  C   UNL A   1      33.473  22.245  27.977  1.00  0.00     0.029 C 
ATOM     10  C   UNL A   1      34.681  22.686  27.188  1.00  0.00     0.005 C 
BRANCH   7  11
ATOM     11  N   UNL A   1      31.314  22.747  27.092  1.00  0.00    -0.346 N 
ATOM     12  C   UNL A   1      30.769  23.852  26.493  1.00  0.00     0.251 C 
ATOM     13  O   UNL A   1      29.636  24.249  26.718  1.00  0.00    -0.269 OA
ATOM     14  H   UNL A   1      30.882  22.277  27.840  1.00  0.00     0.164 HD
BRANCH  12  15
ATOM     15  C   UNL A   1      31.768  24.644  25.684  1.00  0.00     0.039 A 
ATOM     16  C   UNL A   1      33.627  27.630  22.129  1.00  0.00     0.044 C 
ATOM     17  C   UNL A   1      32.673  27.159  23.211  1.00  0.00    -0.051 A 
ATOM     18  C   UNL A   1      31.701  25.716  22.733  1.00  0.00     0.004 A 
ATOM     19  C   UNL A   1      33.145  27.459  24.928  1.00  0.00     0.004 A 
ATOM     20  C   UNL A   1      31.248  24.484  23.955  1.00  0.00     0.014 A 
ATOM     21  C   UNL A   1      32.776  26.162  26.194  1.00  0.00     0.014 A 
ENDBRANCH  12  15
ENDBRANCH   7  11
ENDBRANCH   6   7
ENDBRANCH   3   6
ENDBRANCH   1   2
BRANCH   1  22
ATOM     22  C   UNL A   1      37.805  20.068  25.008  1.00  0.00     0.042 C 
BRANCH  22  23
ATOM     23  C   UNL A   1      38.793  21.011  25.603  1.00  0.00     0.118 C 
BRANCH  23  24
ATOM     24  N   UNL A   1      38.166  22.282  25.940  1.00  0.00    -0.352 N 
ATOM     25  C   UNL A   1      38.677  23.396  26.555  1.00  0.00     0.251 C 
ATOM     26  H   UNL A   1      37.218  22.352  25.683  1.00  0.00     0.163 HD
ATOM     27  O   UNL A   1      37.893  24.254  26.953  1.00  0.00    -0.269 OA
BRANCH  25  28
ATOM     28  C   UNL A   1      40.140  23.679  26.476  1.00  0.00     0.039 A 
ATOM     29  C   UNL A   1      40.795  23.254  27.640  1.00  0.00     0.014 A 
ATOM     30  C   UNL A   1      40.534  24.861  25.874  1.00  0.00     0.014 A 
ATOM     31  C   UNL A   1      41.470  24.191  28.402  1.00  0.00     0.010 A 
ATOM     32  C   UNL A   1      40.931  25.856  26.719  1.00  0.00     0.010 A 
ATOM     33  C   UNL A   1      41.376  25.511  27.993  1.00  0.00    -0.014 A 
BRANCH  33  34
ATOM     34  C   UNL A   1      41.948  26.638  28.681  1.00  0.00     0.031 A 
ATOM     35  C   UNL A   1      40.928  27.606  29.125  1.00  0.00     0.074 A 
ATOM     36  C   UNL A   1      43.247  26.540  29.040  1.00  0.00     0.049 A 
ATOM     37  N   UNL A   1      41.103  28.869  29.223  1.00  0.00    -0.248 NA
ATOM     38  C   UNL A   1      39.530  27.223  29.398  1.00  0.00     0.031 C 
ATOM     39  C   UNL A   1      44.007  27.287  30.033  1.00  0.00     0.029 A 
ATOM     40  N   UNL A   1      44.224  25.750  28.409  1.00  0.00    -0.354 N 
ATOM     41  C   UNL A   1      40.055  29.336  29.992  1.00  0.00     0.074 A 
ATOM     42  C   UNL A   1      39.018  28.351  29.890  1.00  0.00     0.031 C 
ATOM     43  C   UNL A   1      45.320  27.195  29.737  1.00  0.00     0.029 A 
ATOM     44  C   UNL A   1      45.430  26.486  28.471  1.00  0.00     0.049 A 
ATOM     45  H   UNL A   1      44.094  24.862  28.005  1.00  0.00     0.167 HD
ATOM     46  C   UNL A   1      40.297  30.365  30.848  1.00  0.00     0.037 A 
ATOM     47  C   UNL A   1      45.956  27.013  27.320  1.00  0.00     0.037 A 
ATOM     48  C   UNL A   1      41.710  30.720  30.756  1.00  0.00     0.049 A 
ATOM     49  C   UNL A   1      45.844  28.520  27.301  1.00  0.00     0.074 A 
ATOM     50  C   UNL A   1      42.808  30.328  31.505  1.00  0.00     0.029 A 
ATOM     51  N   UNL A   1      42.203  31.177  29.544  1.00  0.00    -0.354 N 
ATOM     52  N   UNL A   1      44.927  29.187  27.949  1.00  0.00    -0.248 NA
ATOM     53  C   UNL A   1      46.779  29.388  26.593  1.00  0.00     0.031 C 
ATOM     54  C   UNL A   1      43.969  30.542  30.717  1.00  0.00     0.029 A 
ATOM     55  C   UNL A   1      43.574  31.049  29.490  1.00  0.00     0.049 A 
ATOM     56  H   UNL A   1      41.648  31.544  28.819  1.00  0.00     0.167 HD
ATOM     57  C   UNL A   1      45.121  30.531  27.756  1.00  0.00     0.074 A 
ATOM     58  C   UNL A   1      46.299  30.602  26.912  1.00  0.00     0.031 C 
ATOM     59  C   UNL A   1      44.297  31.475  28.303  1.00  0.00     0.037 A 
BRANCH  46  60
ATOM     60  C   UNL A   1      39.399  30.819  31.968  1.00  0.00     0.057 A 
ATOM     61  C   UNL A   1      38.683  32.028  31.852  1.00  0.00     0.134 A 
ATOM     62  C   UNL A   1      39.162  30.117  33.163  1.00  0.00     0.134 A 
ATOM     63  F   UNL A   1      38.756  32.791  30.754  1.00  0.00    -0.206 F 
ATOM     64  C   UNL A   1      37.841  32.521  32.854  1.00  0.00     0.040 A 
ATOM     65  C   UNL A   1      38.344  30.615  34.190  1.00  0.00     0.040 A 
ATOM     66  F   UNL A   1      39.664  28.894  33.376  1.00  0.00    -0.206 F 
ATOM     67  C   UNL A   1      37.678  31.822  34.036  1.00  0.00     0.006 A 
ENDBRANCH  46  60
BRANCH  47  68
ATOM     68  C   UNL A   1      45.705  26.115  26.147  1.00  0.00     0.057 A 
ATOM     69  C   UNL A   1      46.458  24.928  26.064  1.00  0.00     0.134 A 
ATOM     70  C   UNL A   1      44.469  26.125  25.492  1.00  0.00     0.134 A 
ATOM     71  F   UNL A   1      47.676  24.863  26.627  1.00  0.00    -0.206 F 
ATOM     72  C   UNL A   1      45.914  23.744  25.557  1.00  0.00     0.040 A 
ATOM     73  C   UNL A   1      43.928  24.950  24.957  1.00  0.00     0.040 A 
ATOM     74  F   UNL A   1      43.698  27.222  25.503  1.00  0.00    -0.206 F 
ATOM     75  C   UNL A   1      44.617  23.742  25.056  1.00  0.00     0.006 A 
ENDBRANCH  47  68
BRANCH  59  76
ATOM     76  C   UNL A   1      44.148  32.908  27.830  1.00  0.00     0.057 A 
ATOM     77  C   UNL A   1      43.865  33.274  26.508  1.00  0.00     0.134 A 
ATOM     78  C   UNL A   1      44.140  33.988  28.748  1.00  0.00     0.134 A 
ATOM     79  F   UNL A   1      43.665  32.366  25.545  1.00  0.00    -0.206 F 
ATOM     80  C   UNL A   1      43.711  34.608  26.110  1.00  0.00     0.040 A 
ATOM     81  C   UNL A   1      43.890  35.310  28.378  1.00  0.00     0.040 A 
ATOM     82  F   UNL A   1      44.347  33.822  30.062  1.00  0.00    -0.206 F 
ATOM     83  C   UNL A   1      43.713  35.631  27.047  1.00  0.00     0.006 A 
ENDBRANCH  59  76
ENDBRANCH  33  34
ENDBRANCH  25  28
ENDBRANCH  23  24
ENDBRANCH  22  23
ENDBRANCH   1  22
TORSDOF 13
ENDMDL
