MODEL 1
REMARK VINA RESULT:     -12.9      0.000      0.000
REMARK SMILES COc1ccccc1OC1CCN(c2cccc(C(=O)NCCCNC(=O)c3ccc(-c4c5nc(c(-c6c(F)cccc6F)c6ccc([nH]6)c(-c6c(F)cccc6F)c6nc(c(-c7c(F)cccc7F)c7ccc4[nH]7)C=C6)C=C5)cc3)n2)CC1
REMARK SMILES IDX 22 1 21 2 19 3 20 4 18 6 14 7 15 8 82 9 16 10 17 11 13 12
REMARK SMILES IDX 10 13 11 14 84 15 12 16 83 17 9 18 8 19 3 20 4 21 5 22 7 23
REMARK SMILES IDX 6 24 2 25 1 26 23 27 24 28 25 29 26 30 27 32 28 33 29 34
REMARK SMILES IDX 81 35 30 36 80 37 31 38 32 39 33 40 74 41 34 42 79 43 73 44
REMARK SMILES IDX 75 45 35 46 78 47 72 48 71 49 36 51 62 52 45 53 61 54 46 55
REMARK SMILES IDX 49 56 60 57 76 58 47 59 48 60 59 62 77 63 50 64 37 65 38 66
REMARK SMILES IDX 43 67 39 68 40 69 42 70 44 71 41 72 63 73 64 74 69 75 65 76
REMARK SMILES IDX 66 77 68 78 70 79 67 80 51 81 52 82 57 83 53 84 54 85 56 86
REMARK SMILES IDX 58 87 55 88
REMARK H PARENT 21 5 25 31 75 50 49 61
REMARK Flexibility Score: inf
ROOT
ATOM      1  C   UNL A   1      31.468  30.837  26.250  1.00  0.00     0.118 C 
ENDROOT
BRANCH   1   2
ATOM      2  N   UNL A   1      32.693  30.293  26.779  1.00  0.00    -0.351 N 
ATOM      3  C   UNL A   1      33.553  29.337  26.302  1.00  0.00     0.269 C 
ATOM      4  O   UNL A   1      34.486  29.044  27.055  1.00  0.00    -0.268 OA
ATOM      5  H   UNL A   1      32.962  30.677  27.645  1.00  0.00     0.163 HD
BRANCH   3   6
ATOM      6  C   UNL A   1      33.450  28.708  24.936  1.00  0.00     0.130 A 
ATOM      7  C   UNL A   1      33.182  26.637  23.904  1.00  0.00     0.129 A 
ATOM      8  C   UNL A   1      33.462  27.175  22.662  1.00  0.00     0.047 A 
ATOM      9  N   UNL A   1      33.180  27.388  25.013  1.00  0.00    -0.226 NA
ATOM     10  C   UNL A   1      33.658  28.546  22.558  1.00  0.00     0.006 A 
ATOM     11  C   UNL A   1      33.632  29.329  23.710  1.00  0.00     0.034 A 
BRANCH   7  12
ATOM     12  N   UNL A   1      32.907  25.306  24.071  1.00  0.00    -0.356 N 
ATOM     13  C   UNL A   1      32.345  21.685  23.104  1.00  0.00     0.177 C 
ATOM     14  C   UNL A   1      34.145  22.388  23.312  1.00  0.00     0.066 C 
ATOM     15  C   UNL A   1      30.871  22.957  23.126  1.00  0.00     0.066 C 
ATOM     16  C   UNL A   1      34.373  24.186  24.008  1.00  0.00     0.122 C 
ATOM     17  C   UNL A   1      31.175  24.738  23.842  1.00  0.00     0.122 C 
BRANCH  13  18
ATOM     18  O   UNL A   1      32.128  20.808  24.247  1.00  0.00    -0.486 OA
BRANCH  18  19
ATOM     19  C   UNL A   1      32.751  19.602  23.995  1.00  0.00     0.161 A 
ATOM     20  C   UNL A   1      33.836  19.200  24.792  1.00  0.00     0.160 A 
ATOM     21  C   UNL A   1      34.456  17.980  24.539  1.00  0.00     0.050 A 
ATOM     22  C   UNL A   1      33.984  17.166  23.507  1.00  0.00     0.004 A 
ATOM     23  C   UNL A   1      32.282  18.802  22.962  1.00  0.00     0.050 A 
ATOM     24  C   UNL A   1      32.901  17.575  22.722  1.00  0.00     0.004 A 
BRANCH  20  25
ATOM     25  O   UNL A   1      34.110  20.135  25.769  1.00  0.00    -0.493 OA
ATOM     26  C   UNL A   1      34.399  21.456  27.036  1.00  0.00     0.278 C 
ENDBRANCH  20  25
ENDBRANCH  18  19
ENDBRANCH  13  18
ENDBRANCH   7  12
ENDBRANCH   3   6
ENDBRANCH   1   2
BRANCH   1  27
ATOM     27  C   UNL A   1      31.398  32.334  26.539  1.00  0.00     0.042 C 
BRANCH  27  28
ATOM     28  C   UNL A   1      32.691  32.855  27.154  1.00  0.00     0.118 C 
BRANCH  28  29
ATOM     29  N   UNL A   1      32.524  34.220  27.634  1.00  0.00    -0.352 N 
ATOM     30  C   UNL A   1      33.044  34.831  28.741  1.00  0.00     0.251 C 
ATOM     31  H   UNL A   1      31.948  34.791  27.075  1.00  0.00     0.163 HD
ATOM     32  O   UNL A   1      32.532  35.864  29.159  1.00  0.00    -0.269 OA
BRANCH  30  33
ATOM     33  C   UNL A   1      34.228  34.267  29.416  1.00  0.00     0.039 A 
ATOM     34  C   UNL A   1      35.495  34.532  28.890  1.00  0.00     0.014 A 
ATOM     35  C   UNL A   1      34.088  33.412  30.513  1.00  0.00     0.014 A 
ATOM     36  C   UNL A   1      36.617  33.941  29.466  1.00  0.00     0.010 A 
ATOM     37  C   UNL A   1      35.214  32.911  31.151  1.00  0.00     0.010 A 
ATOM     38  C   UNL A   1      36.483  33.132  30.605  1.00  0.00    -0.014 A 
BRANCH  38  39
ATOM     39  C   UNL A   1      37.656  32.447  31.194  1.00  0.00     0.031 A 
ATOM     40  C   UNL A   1      38.246  32.947  32.485  1.00  0.00     0.074 A 
ATOM     41  C   UNL A   1      38.210  31.405  30.547  1.00  0.00     0.049 A 
ATOM     42  N   UNL A   1      39.279  32.500  33.153  1.00  0.00    -0.248 NA
ATOM     43  C   UNL A   1      37.614  34.132  33.088  1.00  0.00     0.031 C 
ATOM     44  C   UNL A   1      37.759  30.875  29.259  1.00  0.00     0.029 A 
ATOM     45  N   UNL A   1      39.273  30.610  30.885  1.00  0.00    -0.354 N 
ATOM     46  C   UNL A   1      39.429  33.359  34.235  1.00  0.00     0.074 A 
ATOM     47  C   UNL A   1      38.431  34.395  34.094  1.00  0.00     0.031 C 
ATOM     48  C   UNL A   1      38.521  29.820  28.932  1.00  0.00     0.029 A 
ATOM     49  C   UNL A   1      39.531  29.623  29.967  1.00  0.00     0.049 A 
ATOM     50  H   UNL A   1      39.800  30.734  31.707  1.00  0.00     0.167 HD
ATOM     51  C   UNL A   1      40.301  33.275  35.267  1.00  0.00     0.037 A 
ATOM     52  C   UNL A   1      40.476  28.666  29.965  1.00  0.00     0.037 A 
ATOM     53  C   UNL A   1      41.275  32.226  35.405  1.00  0.00     0.049 A 
ATOM     54  C   UNL A   1      41.418  28.575  31.133  1.00  0.00     0.074 A 
ATOM     55  C   UNL A   1      42.166  32.003  36.439  1.00  0.00     0.029 A 
ATOM     56  N   UNL A   1      41.487  31.222  34.470  1.00  0.00    -0.354 N 
ATOM     57  N   UNL A   1      41.502  29.346  32.191  1.00  0.00    -0.248 NA
ATOM     58  C   UNL A   1      42.382  27.469  31.115  1.00  0.00     0.031 C 
ATOM     59  C   UNL A   1      42.957  30.898  36.102  1.00  0.00     0.029 A 
ATOM     60  C   UNL A   1      42.511  30.390  34.891  1.00  0.00     0.049 A 
ATOM     61  H   UNL A   1      40.985  31.117  33.630  1.00  0.00     0.167 HD
ATOM     62  C   UNL A   1      42.504  28.799  32.982  1.00  0.00     0.074 A 
ATOM     63  C   UNL A   1      42.987  27.625  32.283  1.00  0.00     0.031 C 
ATOM     64  C   UNL A   1      42.978  29.225  34.181  1.00  0.00     0.037 A 
BRANCH  51  65
ATOM     65  C   UNL A   1      40.237  34.357  36.310  1.00  0.00     0.057 A 
ATOM     66  C   UNL A   1      41.071  35.485  36.271  1.00  0.00     0.134 A 
ATOM     67  C   UNL A   1      39.336  34.266  37.379  1.00  0.00     0.134 A 
ATOM     68  F   UNL A   1      41.968  35.633  35.284  1.00  0.00    -0.206 F 
ATOM     69  C   UNL A   1      41.046  36.452  37.277  1.00  0.00     0.040 A 
ATOM     70  C   UNL A   1      39.275  35.246  38.372  1.00  0.00     0.040 A 
ATOM     71  F   UNL A   1      38.503  33.221  37.481  1.00  0.00    -0.206 F 
ATOM     72  C   UNL A   1      40.141  36.337  38.329  1.00  0.00     0.006 A 
ENDBRANCH  51  65
BRANCH  52  73
ATOM     73  C   UNL A   1      40.538  27.699  28.842  1.00  0.00     0.057 A 
ATOM     74  C   UNL A   1      39.729  26.558  28.823  1.00  0.00     0.134 A 
ATOM     75  C   UNL A   1      41.386  27.907  27.747  1.00  0.00     0.134 A 
ATOM     76  F   UNL A   1      38.904  26.298  29.848  1.00  0.00    -0.206 F 
ATOM     77  C   UNL A   1      39.770  25.648  27.764  1.00  0.00     0.040 A 
ATOM     78  C   UNL A   1      41.419  27.021  26.669  1.00  0.00     0.040 A 
ATOM     79  F   UNL A   1      42.175  28.990  27.698  1.00  0.00    -0.206 F 
ATOM     80  C   UNL A   1      40.614  25.883  26.680  1.00  0.00     0.006 A 
ENDBRANCH  52  73
BRANCH  64  81
ATOM     81  C   UNL A   1      44.041  28.386  34.832  1.00  0.00     0.057 A 
ATOM     82  C   UNL A   1      45.406  28.585  34.587  1.00  0.00     0.134 A 
ATOM     83  C   UNL A   1      43.688  27.374  35.734  1.00  0.00     0.134 A 
ATOM     84  F   UNL A   1      45.812  29.530  33.726  1.00  0.00    -0.206 F 
ATOM     85  C   UNL A   1      46.378  27.781  35.185  1.00  0.00     0.040 A 
ATOM     86  C   UNL A   1      44.651  26.589  36.365  1.00  0.00     0.040 A 
ATOM     87  F   UNL A   1      42.399  27.139  36.024  1.00  0.00    -0.206 F 
ATOM     88  C   UNL A   1      46.001  26.784  36.082  1.00  0.00     0.006 A 
ENDBRANCH  64  81
ENDBRANCH  38  39
ENDBRANCH  30  33
ENDBRANCH  28  29
ENDBRANCH  27  28
ENDBRANCH   1  27
TORSDOF 14
ENDMDL
MODEL 2
REMARK VINA RESULT:     -12.9      0.544      6.151
REMARK SMILES COc1ccccc1OC1CCN(c2cccc(C(=O)NCCCNC(=O)c3ccc(-c4c5nc(c(-c6c(F)cccc6F)c6ccc([nH]6)c(-c6c(F)cccc6F)c6nc(c(-c7c(F)cccc7F)c7ccc4[nH]7)C=C6)C=C5)cc3)n2)CC1
REMARK SMILES IDX 22 1 21 2 19 3 20 4 18 6 14 7 15 8 82 9 16 10 17 11 13 12
REMARK SMILES IDX 10 13 11 14 84 15 12 16 83 17 9 18 8 19 3 20 4 21 5 22 7 23
REMARK SMILES IDX 6 24 2 25 1 26 23 27 24 28 25 29 26 30 27 32 28 33 29 34
REMARK SMILES IDX 81 35 30 36 80 37 31 38 32 39 33 40 74 41 34 42 79 43 73 44
REMARK SMILES IDX 75 45 35 46 78 47 72 48 71 49 36 51 62 52 45 53 61 54 46 55
REMARK SMILES IDX 49 56 60 57 76 58 47 59 48 60 59 62 77 63 50 64 37 65 38 66
REMARK SMILES IDX 43 67 39 68 40 69 42 70 44 71 41 72 63 73 64 74 69 75 65 76
REMARK SMILES IDX 66 77 68 78 70 79 67 80 51 81 52 82 57 83 53 84 54 85 56 86
REMARK SMILES IDX 58 87 55 88
REMARK H PARENT 21 5 25 31 75 50 49 61
REMARK Flexibility Score: inf
ROOT
ATOM      1  C   UNL A   1      31.563  30.890  26.232  1.00  0.00     0.118 C 
ENDROOT
BRANCH   1   2
ATOM      2  N   UNL A   1      32.781  30.323  26.753  1.00  0.00    -0.351 N 
ATOM      3  C   UNL A   1      33.623  29.356  26.266  1.00  0.00     0.269 C 
ATOM      4  O   UNL A   1      34.556  29.045  27.013  1.00  0.00    -0.268 OA
ATOM      5  H   UNL A   1      33.061  30.699  27.619  1.00  0.00     0.163 HD
BRANCH   3   6
ATOM      6  C   UNL A   1      33.502  28.734  24.898  1.00  0.00     0.130 A 
ATOM      7  C   UNL A   1      33.207  26.671  23.859  1.00  0.00     0.129 A 
ATOM      8  C   UNL A   1      33.481  27.213  22.616  1.00  0.00     0.047 A 
ATOM      9  N   UNL A   1      33.222  27.417  24.971  1.00  0.00    -0.226 NA
ATOM     10  C   UNL A   1      33.689  28.583  22.518  1.00  0.00     0.006 A 
ATOM     11  C   UNL A   1      33.680  29.360  23.674  1.00  0.00     0.034 A 
BRANCH   7  12
ATOM     12  N   UNL A   1      32.921  25.342  24.021  1.00  0.00    -0.356 N 
ATOM     13  C   UNL A   1      32.329  21.729  23.043  1.00  0.00     0.177 C 
ATOM     14  C   UNL A   1      34.135  22.417  23.250  1.00  0.00     0.066 C 
ATOM     15  C   UNL A   1      30.865  23.013  23.072  1.00  0.00     0.066 C 
ATOM     16  C   UNL A   1      34.378  24.210  23.952  1.00  0.00     0.122 C 
ATOM     17  C   UNL A   1      31.185  24.789  23.793  1.00  0.00     0.122 C 
BRANCH  13  18
ATOM     18  O   UNL A   1      32.106  20.850  24.183  1.00  0.00    -0.486 OA
BRANCH  18  19
ATOM     19  C   UNL A   1      32.719  19.640  23.926  1.00  0.00     0.161 A 
ATOM     20  C   UNL A   1      33.800  19.225  24.722  1.00  0.00     0.160 A 
ATOM     21  C   UNL A   1      34.411  18.002  24.464  1.00  0.00     0.050 A 
ATOM     22  C   UNL A   1      33.933  17.196  23.428  1.00  0.00     0.004 A 
ATOM     23  C   UNL A   1      32.245  18.849  22.888  1.00  0.00     0.050 A 
ATOM     24  C   UNL A   1      32.854  17.617  22.643  1.00  0.00     0.004 A 
BRANCH  20  25
ATOM     25  O   UNL A   1      34.081  20.153  25.703  1.00  0.00    -0.493 OA
ATOM     26  C   UNL A   1      34.394  21.473  26.966  1.00  0.00     0.278 C 
ENDBRANCH  20  25
ENDBRANCH  18  19
ENDBRANCH  13  18
ENDBRANCH   7  12
ENDBRANCH   3   6
ENDBRANCH   1   2
BRANCH   1  27
ATOM     27  C   UNL A   1      31.410  32.327  26.719  1.00  0.00     0.042 C 
BRANCH  27  28
ATOM     28  C   UNL A   1      32.727  32.897  27.231  1.00  0.00     0.118 C 
BRANCH  28  29
ATOM     29  N   UNL A   1      32.579  34.299  27.595  1.00  0.00    -0.352 N 
ATOM     30  C   UNL A   1      33.072  34.984  28.672  1.00  0.00     0.251 C 
ATOM     31  H   UNL A   1      32.041  34.838  26.970  1.00  0.00     0.163 HD
ATOM     32  O   UNL A   1      32.572  36.060  28.985  1.00  0.00    -0.269 OA
BRANCH  30  33
ATOM     33  C   UNL A   1      34.213  34.447  29.436  1.00  0.00     0.039 A 
ATOM     34  C   UNL A   1      35.500  34.575  28.908  1.00  0.00     0.014 A 
ATOM     35  C   UNL A   1      34.010  33.747  30.628  1.00  0.00     0.014 A 
ATOM     36  C   UNL A   1      36.579  34.002  29.577  1.00  0.00     0.010 A 
ATOM     37  C   UNL A   1      35.097  33.270  31.348  1.00  0.00     0.010 A 
ATOM     38  C   UNL A   1      36.384  33.352  30.806  1.00  0.00    -0.014 A 
BRANCH  38  39
ATOM     39  C   UNL A   1      37.509  32.685  31.501  1.00  0.00     0.031 A 
ATOM     40  C   UNL A   1      38.201  31.515  30.854  1.00  0.00     0.074 A 
ATOM     41  C   UNL A   1      37.876  33.106  32.724  1.00  0.00     0.049 A 
ATOM     42  N   UNL A   1      39.190  30.786  31.304  1.00  0.00    -0.248 NA
ATOM     43  C   UNL A   1      37.689  31.083  29.543  1.00  0.00     0.031 C 
ATOM     44  C   UNL A   1      37.235  34.189  33.472  1.00  0.00     0.029 A 
ATOM     45  N   UNL A   1      38.875  32.670  33.553  1.00  0.00    -0.354 N 
ATOM     46  C   UNL A   1      39.399  29.802  30.344  1.00  0.00     0.074 A 
ATOM     47  C   UNL A   1      38.389  29.982  29.326  1.00  0.00     0.031 C 
ATOM     48  C   UNL A   1      37.880  34.355  34.637  1.00  0.00     0.029 A 
ATOM     49  C   UNL A   1      38.952  33.370  34.731  1.00  0.00     0.049 A 
ATOM     50  H   UNL A   1      39.479  31.927  33.326  1.00  0.00     0.167 HD
ATOM     51  C   UNL A   1      40.365  28.854  30.300  1.00  0.00     0.037 A 
ATOM     52  C   UNL A   1      39.798  33.232  35.768  1.00  0.00     0.037 A 
ATOM     53  C   UNL A   1      41.377  28.700  31.311  1.00  0.00     0.049 A 
ATOM     54  C   UNL A   1      40.878  32.190  35.689  1.00  0.00     0.074 A 
ATOM     55  C   UNL A   1      42.442  27.818  31.341  1.00  0.00     0.029 A 
ATOM     56  N   UNL A   1      41.444  29.450  32.477  1.00  0.00    -0.354 N 
ATOM     57  N   UNL A   1      41.117  31.315  34.741  1.00  0.00    -0.248 NA
ATOM     58  C   UNL A   1      41.817  32.130  36.815  1.00  0.00     0.031 C 
ATOM     59  C   UNL A   1      43.119  27.995  32.553  1.00  0.00     0.029 A 
ATOM     60  C   UNL A   1      42.519  29.036  33.246  1.00  0.00     0.049 A 
ATOM     61  H   UNL A   1      40.820  30.170  32.723  1.00  0.00     0.167 HD
ATOM     62  C   UNL A   1      42.254  30.624  35.139  1.00  0.00     0.074 A 
ATOM     63  C   UNL A   1      42.660  31.192  36.409  1.00  0.00     0.031 C 
ATOM     64  C   UNL A   1      42.907  29.614  34.509  1.00  0.00     0.037 A 
BRANCH  51  65
ATOM     65  C   UNL A   1      40.351  27.912  29.128  1.00  0.00     0.057 A 
ATOM     66  C   UNL A   1      41.089  28.159  27.960  1.00  0.00     0.134 A 
ATOM     67  C   UNL A   1      39.580  26.743  29.161  1.00  0.00     0.134 A 
ATOM     68  F   UNL A   1      41.840  29.266  27.852  1.00  0.00    -0.206 F 
ATOM     69  C   UNL A   1      41.021  27.309  26.855  1.00  0.00     0.040 A 
ATOM     70  C   UNL A   1      39.532  25.865  28.076  1.00  0.00     0.040 A 
ATOM     71  F   UNL A   1      38.853  26.435  30.245  1.00  0.00    -0.206 F 
ATOM     72  C   UNL A   1      40.245  26.154  26.914  1.00  0.00     0.006 A 
ENDBRANCH  51  65
BRANCH  52  73
ATOM     73  C   UNL A   1      39.677  34.136  36.938  1.00  0.00     0.057 A 
ATOM     74  C   UNL A   1      40.261  35.407  36.935  1.00  0.00     0.134 A 
ATOM     75  C   UNL A   1      38.950  33.762  38.075  1.00  0.00     0.134 A 
ATOM     76  F   UNL A   1      40.978  35.819  35.880  1.00  0.00    -0.206 F 
ATOM     77  C   UNL A   1      40.141  36.271  38.026  1.00  0.00     0.040 A 
ATOM     78  C   UNL A   1      38.800  34.625  39.163  1.00  0.00     0.040 A 
ATOM     79  F   UNL A   1      38.353  32.564  38.134  1.00  0.00    -0.206 F 
ATOM     80  C   UNL A   1      39.403  35.881  39.142  1.00  0.00     0.006 A 
ENDBRANCH  52  73
BRANCH  64  81
ATOM     81  C   UNL A   1      44.157  29.097  35.163  1.00  0.00     0.057 A 
ATOM     82  C   UNL A   1      44.136  28.044  36.088  1.00  0.00     0.134 A 
ATOM     83  C   UNL A   1      45.403  29.651  34.844  1.00  0.00     0.134 A 
ATOM     84  F   UNL A   1      42.975  27.476  36.446  1.00  0.00    -0.206 F 
ATOM     85  C   UNL A   1      45.305  27.591  36.702  1.00  0.00     0.040 A 
ATOM     86  C   UNL A   1      46.582  29.182  35.423  1.00  0.00     0.040 A 
ATOM     87  F   UNL A   1      45.496  30.653  33.956  1.00  0.00    -0.206 F 
ATOM     88  C   UNL A   1      46.533  28.157  36.364  1.00  0.00     0.006 A 
ENDBRANCH  64  81
ENDBRANCH  38  39
ENDBRANCH  30  33
ENDBRANCH  28  29
ENDBRANCH  27  28
ENDBRANCH   1  27
TORSDOF 14
ENDMDL
MODEL 3
REMARK VINA RESULT:     -12.9      0.987      1.671
REMARK SMILES COc1ccccc1OC1CCN(c2cccc(C(=O)NCCCNC(=O)c3ccc(-c4c5nc(c(-c6c(F)cccc6F)c6ccc([nH]6)c(-c6c(F)cccc6F)c6nc(c(-c7c(F)cccc7F)c7ccc4[nH]7)C=C6)C=C5)cc3)n2)CC1
REMARK SMILES IDX 22 1 21 2 19 3 20 4 18 6 14 7 15 8 82 9 16 10 17 11 13 12
REMARK SMILES IDX 10 13 11 14 84 15 12 16 83 17 9 18 8 19 3 20 4 21 5 22 7 23
REMARK SMILES IDX 6 24 2 25 1 26 23 27 24 28 25 29 26 30 27 32 28 33 29 34
REMARK SMILES IDX 81 35 30 36 80 37 31 38 32 39 33 40 74 41 34 42 79 43 73 44
REMARK SMILES IDX 75 45 35 46 78 47 72 48 71 49 36 51 62 52 45 53 61 54 46 55
REMARK SMILES IDX 49 56 60 57 76 58 47 59 48 60 59 62 77 63 50 64 37 65 38 66
REMARK SMILES IDX 43 67 39 68 40 69 42 70 44 71 41 72 63 73 64 74 69 75 65 76
REMARK SMILES IDX 66 77 68 78 70 79 67 80 51 81 52 82 57 83 53 84 54 85 56 86
REMARK SMILES IDX 58 87 55 88
REMARK H PARENT 21 5 25 31 75 50 49 61
REMARK Flexibility Score: inf
ROOT
ATOM      1  C   UNL A   1      31.602  30.645  26.768  1.00  0.00     0.118 C 
ENDROOT
BRANCH   1   2
ATOM      2  N   UNL A   1      32.917  30.224  27.179  1.00  0.00    -0.351 N 
ATOM      3  C   UNL A   1      33.784  29.293  26.666  1.00  0.00     0.269 C 
ATOM      4  O   UNL A   1      34.819  29.122  27.316  1.00  0.00    -0.268 OA
ATOM      5  H   UNL A   1      33.258  30.692  27.976  1.00  0.00     0.163 HD
BRANCH   3   6
ATOM      6  C   UNL A   1      33.567  28.554  25.370  1.00  0.00     0.130 A 
ATOM      7  C   UNL A   1      33.591  26.402  24.479  1.00  0.00     0.129 A 
ATOM      8  C   UNL A   1      33.493  26.892  23.190  1.00  0.00     0.047 A 
ATOM      9  N   UNL A   1      33.630  27.217  25.542  1.00  0.00    -0.226 NA
ATOM     10  C   UNL A   1      33.343  28.260  23.007  1.00  0.00     0.006 A 
ATOM     11  C   UNL A   1      33.360  29.104  24.115  1.00  0.00     0.034 A 
BRANCH   7  12
ATOM     12  N   UNL A   1      33.668  25.060  24.739  1.00  0.00    -0.356 N 
ATOM     13  C   UNL A   1      33.616  21.336  24.041  1.00  0.00     0.177 C 
ATOM     14  C   UNL A   1      35.201  22.394  23.659  1.00  0.00     0.066 C 
ATOM     15  C   UNL A   1      31.986  22.290  24.516  1.00  0.00     0.066 C 
ATOM     16  C   UNL A   1      35.246  24.250  24.226  1.00  0.00     0.122 C 
ATOM     17  C   UNL A   1      32.112  24.146  25.078  1.00  0.00     0.122 C 
BRANCH  13  18
ATOM     18  O   UNL A   1      33.952  20.524  25.203  1.00  0.00    -0.486 OA
BRANCH  18  19
ATOM     19  C   UNL A   1      33.757  19.197  24.878  1.00  0.00     0.161 A 
ATOM     20  C   UNL A   1      34.864  18.385  24.580  1.00  0.00     0.160 A 
ATOM     21  C   UNL A   1      34.664  17.045  24.259  1.00  0.00     0.050 A 
ATOM     22  C   UNL A   1      33.369  16.522  24.253  1.00  0.00     0.004 A 
ATOM     23  C   UNL A   1      32.467  18.686  24.864  1.00  0.00     0.050 A 
ATOM     24  C   UNL A   1      32.275  17.339  24.554  1.00  0.00     0.004 A 
BRANCH  20  25
ATOM     25  O   UNL A   1      36.044  19.093  24.680  1.00  0.00    -0.493 OA
ATOM     26  C   UNL A   1      37.621  20.034  24.928  1.00  0.00     0.278 C 
ENDBRANCH  20  25
ENDBRANCH  18  19
ENDBRANCH  13  18
ENDBRANCH   7  12
ENDBRANCH   3   6
ENDBRANCH   1   2
BRANCH   1  27
ATOM     27  C   UNL A   1      31.489  32.163  26.861  1.00  0.00     0.042 C 
BRANCH  27  28
ATOM     28  C   UNL A   1      32.843  32.820  27.097  1.00  0.00     0.118 C 
BRANCH  28  29
ATOM     29  N   UNL A   1      32.684  34.142  27.687  1.00  0.00    -0.352 N 
ATOM     30  C   UNL A   1      33.204  34.657  28.842  1.00  0.00     0.251 C 
ATOM     31  H   UNL A   1      32.113  34.760  27.175  1.00  0.00     0.163 HD
ATOM     32  O   UNL A   1      32.696  35.656  29.342  1.00  0.00    -0.269 OA
BRANCH  30  33
ATOM     33  C   UNL A   1      34.382  34.032  29.471  1.00  0.00     0.039 A 
ATOM     34  C   UNL A   1      35.656  34.393  29.026  1.00  0.00     0.014 A 
ATOM     35  C   UNL A   1      34.233  33.034  30.438  1.00  0.00     0.014 A 
ATOM     36  C   UNL A   1      36.776  33.753  29.552  1.00  0.00     0.010 A 
ATOM     37  C   UNL A   1      35.352  32.474  31.038  1.00  0.00     0.010 A 
ATOM     38  C   UNL A   1      36.631  32.794  30.567  1.00  0.00    -0.014 A 
BRANCH  38  39
ATOM     39  C   UNL A   1      37.804  32.060  31.094  1.00  0.00     0.031 A 
ATOM     40  C   UNL A   1      38.320  32.367  32.474  1.00  0.00     0.074 A 
ATOM     41  C   UNL A   1      38.422  31.152  30.318  1.00  0.00     0.049 A 
ATOM     42  N   UNL A   1      39.341  31.851  33.110  1.00  0.00    -0.248 NA
ATOM     43  C   UNL A   1      37.620  33.422  33.226  1.00  0.00     0.031 C 
ATOM     44  C   UNL A   1      38.045  30.820  28.943  1.00  0.00     0.029 A 
ATOM     45  N   UNL A   1      39.499  30.347  30.576  1.00  0.00    -0.354 N 
ATOM     46  C   UNL A   1      39.414  32.532  34.320  1.00  0.00     0.074 A 
ATOM     47  C   UNL A   1      38.385  33.546  34.298  1.00  0.00     0.031 C 
ATOM     48  C   UNL A   1      38.859  29.854  28.490  1.00  0.00     0.029 A 
ATOM     49  C   UNL A   1      39.832  29.527  29.527  1.00  0.00     0.049 A 
ATOM     50  H   UNL A   1      39.987  30.355  31.431  1.00  0.00     0.167 HD
ATOM     51  C   UNL A   1      40.246  32.312  35.366  1.00  0.00     0.037 A 
ATOM     52  C   UNL A   1      40.811  28.612  29.419  1.00  0.00     0.037 A 
ATOM     53  C   UNL A   1      41.252  31.285  35.382  1.00  0.00     0.049 A 
ATOM     54  C   UNL A   1      41.708  28.365  30.600  1.00  0.00     0.074 A 
ATOM     55  C   UNL A   1      42.108  30.928  36.408  1.00  0.00     0.029 A 
ATOM     56  N   UNL A   1      41.540  30.449  34.311  1.00  0.00    -0.354 N 
ATOM     57  N   UNL A   1      41.719  28.960  31.769  1.00  0.00    -0.248 NA
ATOM     58  C   UNL A   1      42.713  27.306  30.453  1.00  0.00     0.031 C 
ATOM     59  C   UNL A   1      42.953  29.916  35.939  1.00  0.00     0.029 A 
ATOM     60  C   UNL A   1      42.576  29.593  34.643  1.00  0.00     0.049 A 
ATOM     61  H   UNL A   1      41.077  30.464  33.442  1.00  0.00     0.167 HD
ATOM     62  C   UNL A   1      42.708  28.326  32.510  1.00  0.00     0.074 A 
ATOM     63  C   UNL A   1      43.263  27.293  31.658  1.00  0.00     0.031 C 
ATOM     64  C   UNL A   1      43.116  28.570  33.781  1.00  0.00     0.037 A 
BRANCH  51  65
ATOM     65  C   UNL A   1      40.099  33.213  36.562  1.00  0.00     0.057 A 
ATOM     66  C   UNL A   1      39.136  32.985  37.556  1.00  0.00     0.134 A 
ATOM     67  C   UNL A   1      40.927  34.332  36.718  1.00  0.00     0.134 A 
ATOM     68  F   UNL A   1      38.299  31.939  37.466  1.00  0.00    -0.206 F 
ATOM     69  C   UNL A   1      38.968  33.861  38.630  1.00  0.00     0.040 A 
ATOM     70  C   UNL A   1      40.793  35.195  37.807  1.00  0.00     0.040 A 
ATOM     71  F   UNL A   1      41.875  34.611  35.812  1.00  0.00    -0.206 F 
ATOM     72  C   UNL A   1      39.803  34.968  38.761  1.00  0.00     0.006 A 
ENDBRANCH  51  65
BRANCH  52  73
ATOM     73  C   UNL A   1      40.956  27.837  28.161  1.00  0.00     0.057 A 
ATOM     74  C   UNL A   1      40.318  26.603  27.993  1.00  0.00     0.134 A 
ATOM     75  C   UNL A   1      41.710  28.325  27.088  1.00  0.00     0.134 A 
ATOM     76  F   UNL A   1      39.590  26.077  28.989  1.00  0.00    -0.206 F 
ATOM     77  C   UNL A   1      40.437  25.873  26.809  1.00  0.00     0.040 A 
ATOM     78  C   UNL A   1      41.816  27.620  25.888  1.00  0.00     0.040 A 
ATOM     79  F   UNL A   1      42.333  29.509  27.180  1.00  0.00    -0.206 F 
ATOM     80  C   UNL A   1      41.184  26.386  25.750  1.00  0.00     0.006 A 
ENDBRANCH  52  73
BRANCH  64  81
ATOM     81  C   UNL A   1      44.182  27.672  34.341  1.00  0.00     0.057 A 
ATOM     82  C   UNL A   1      43.882  26.447  34.953  1.00  0.00     0.134 A 
ATOM     83  C   UNL A   1      45.532  28.033  34.247  1.00  0.00     0.134 A 
ATOM     84  F   UNL A   1      42.609  26.045  35.085  1.00  0.00    -0.206 F 
ATOM     85  C   UNL A   1      44.885  25.635  35.486  1.00  0.00     0.040 A 
ATOM     86  C   UNL A   1      46.544  27.213  34.744  1.00  0.00     0.040 A 
ATOM     87  F   UNL A   1      45.890  29.186  33.662  1.00  0.00    -0.206 F 
ATOM     88  C   UNL A   1      46.220  26.016  35.376  1.00  0.00     0.006 A 
ENDBRANCH  64  81
ENDBRANCH  38  39
ENDBRANCH  30  33
ENDBRANCH  28  29
ENDBRANCH  27  28
ENDBRANCH   1  27
TORSDOF 14
ENDMDL
