MODEL 1
REMARK VINA RESULT:     -13.0      0.000      0.000
REMARK SMILES Cc1nn(CC(=O)NCCCNC(=O)c2ccc(-c3c4nc(c(-c5c(F)cccc5F)c5ccc([nH]5)c(-c5c(F)cccc5F)c5nc(c(-c6c(F)cccc6F)c6ccc3[nH]6)C=C5)C=C4)cc2)c(C)c1NS(=O)(=O)c1cccc2cccnc12
REMARK SMILES IDX 9 1 8 2 6 3 7 4 5 6 4 7 1 8 2 9 3 10 71 11 69 12 70 13 72 14
REMARK SMILES IDX 73 16 74 17 75 18 76 19 77 20 85 21 78 22 80 23 84 24 79 25
REMARK SMILES IDX 81 26 83 27 82 28 10 29 11 30 12 31 13 32 14 34 15 35 16 36
REMARK SMILES IDX 68 37 17 38 67 39 18 40 19 41 20 42 61 43 21 44 66 45 60 46
REMARK SMILES IDX 62 47 22 48 65 49 59 50 58 51 23 53 49 54 32 55 48 56 33 57
REMARK SMILES IDX 36 58 47 59 63 60 34 61 35 62 46 64 64 65 37 66 24 67 25 68
REMARK SMILES IDX 30 69 26 70 27 71 29 72 31 73 28 74 50 75 51 76 56 77 52 78
REMARK SMILES IDX 53 79 55 80 57 81 54 82 38 83 39 84 44 85 40 86 41 87 43 88
REMARK SMILES IDX 45 89 42 90
REMARK H PARENT 8 5 72 15 12 33 62 52 36 63
REMARK Flexibility Score: inf
ROOT
ATOM      1  C   UNL A   1      33.171  29.565  25.745  1.00  0.00     0.117 C 
ENDROOT
BRANCH   1   2
ATOM      2  N   UNL A   1      33.798  28.958  24.599  1.00  0.00    -0.354 N 
ATOM      3  C   UNL A   1      33.327  28.823  23.333  1.00  0.00     0.241 C 
ATOM      4  O   UNL A   1      34.178  28.525  22.483  1.00  0.00    -0.273 OA
ATOM      5  H   UNL A   1      34.696  28.587  24.756  1.00  0.00     0.163 HD
BRANCH   3   6
ATOM      6  C   UNL A   1      31.927  29.162  22.881  1.00  0.00     0.244 C 
BRANCH   6   7
ATOM      7  N   UNL A   1      30.982  28.131  22.434  1.00  0.00    -0.258 N 
ATOM      8  C   UNL A   1      27.635  28.008  23.514  1.00  0.00     0.071 C 
ATOM      9  C   UNL A   1      29.073  27.771  23.249  1.00  0.00     0.084 A 
ATOM     10  N   UNL A   1      29.694  28.545  22.342  1.00  0.00    -0.175 NA
ATOM     11  C   UNL A   1      29.940  26.742  23.745  1.00  0.00     0.093 A 
ATOM     12  C   UNL A   1      30.974  26.791  22.840  1.00  0.00     0.060 A 
ATOM     13  C   UNL A   1      31.721  25.671  22.230  1.00  0.00     0.069 C 
BRANCH  11  14
ATOM     14  N   UNL A   1      29.695  25.841  24.776  1.00  0.00    -0.276 N 
ATOM     15  H   UNL A   1      28.789  25.456  24.780  1.00  0.00     0.180 HD
BRANCH  14  16
ATOM     16  S   UNL A   1      30.685  25.308  26.010  1.00  0.00     0.264 S 
ATOM     17  O   UNL A   1      31.046  26.522  26.721  1.00  0.00    -0.201 OA
ATOM     18  O   UNL A   1      29.942  24.285  26.728  1.00  0.00    -0.201 OA
BRANCH  16  19
ATOM     19  C   UNL A   1      32.245  24.546  25.569  1.00  0.00     0.114 A 
ATOM     20  C   UNL A   1      33.306  25.482  25.601  1.00  0.00     0.024 A 
ATOM     21  C   UNL A   1      32.518  23.172  25.475  1.00  0.00     0.091 A 
ATOM     22  C   UNL A   1      34.625  25.074  25.713  1.00  0.00     0.002 A 
ATOM     23  C   UNL A   1      33.863  22.789  25.757  1.00  0.00     0.002 A 
ATOM     24  N   UNL A   1      31.635  22.205  25.128  1.00  0.00    -0.255 NA
ATOM     25  C   UNL A   1      34.892  23.728  25.879  1.00  0.00     0.010 A 
ATOM     26  C   UNL A   1      34.196  21.437  25.901  1.00  0.00     0.012 A 
ATOM     27  C   UNL A   1      32.063  20.913  25.085  1.00  0.00     0.112 A 
ATOM     28  C   UNL A   1      33.278  20.470  25.556  1.00  0.00     0.021 A 
ENDBRANCH  16  19
ENDBRANCH  14  16
ENDBRANCH  11  14
ENDBRANCH   6   7
ENDBRANCH   3   6
ENDBRANCH   1   2
BRANCH   1  29
ATOM     29  C   UNL A   1      33.612  28.948  27.072  1.00  0.00     0.042 C 
BRANCH  29  30
ATOM     30  C   UNL A   1      35.082  29.028  27.336  1.00  0.00     0.118 C 
BRANCH  30  31
ATOM     31  N   UNL A   1      35.362  29.816  28.534  1.00  0.00    -0.352 N 
ATOM     32  C   UNL A   1      36.479  29.717  29.349  1.00  0.00     0.251 C 
ATOM     33  H   UNL A   1      34.687  30.486  28.790  1.00  0.00     0.163 HD
ATOM     34  O   UNL A   1      36.493  30.125  30.479  1.00  0.00    -0.269 OA
BRANCH  32  35
ATOM     35  C   UNL A   1      37.642  29.044  28.742  1.00  0.00     0.039 A 
ATOM     36  C   UNL A   1      38.263  29.596  27.626  1.00  0.00     0.014 A 
ATOM     37  C   UNL A   1      38.234  28.032  29.490  1.00  0.00     0.014 A 
ATOM     38  C   UNL A   1      39.562  29.194  27.335  1.00  0.00     0.010 A 
ATOM     39  C   UNL A   1      39.578  27.809  29.323  1.00  0.00     0.010 A 
ATOM     40  C   UNL A   1      40.242  28.338  28.223  1.00  0.00    -0.014 A 
BRANCH  40  41
ATOM     41  C   UNL A   1      41.662  28.054  28.035  1.00  0.00     0.031 A 
ATOM     42  C   UNL A   1      41.993  26.808  27.288  1.00  0.00     0.074 A 
ATOM     43  C   UNL A   1      42.656  28.886  28.413  1.00  0.00     0.049 A 
ATOM     44  N   UNL A   1      42.414  25.694  27.790  1.00  0.00    -0.248 NA
ATOM     45  C   UNL A   1      41.725  26.745  25.845  1.00  0.00     0.031 C 
ATOM     46  C   UNL A   1      42.591  30.270  28.898  1.00  0.00     0.029 A 
ATOM     47  N   UNL A   1      43.996  28.644  28.386  1.00  0.00    -0.354 N 
ATOM     48  C   UNL A   1      42.650  24.840  26.715  1.00  0.00     0.074 A 
ATOM     49  C   UNL A   1      42.069  25.484  25.566  1.00  0.00     0.031 C 
ATOM     50  C   UNL A   1      43.828  30.810  28.911  1.00  0.00     0.029 A 
ATOM     51  C   UNL A   1      44.782  29.754  28.647  1.00  0.00     0.049 A 
ATOM     52  H   UNL A   1      44.374  27.755  28.197  1.00  0.00     0.167 HD
ATOM     53  C   UNL A   1      43.485  23.769  26.842  1.00  0.00     0.037 A 
ATOM     54  C   UNL A   1      46.133  29.806  28.682  1.00  0.00     0.037 A 
ATOM     55  C   UNL A   1      43.750  23.483  28.232  1.00  0.00     0.049 A 
ATOM     56  C   UNL A   1      46.619  28.428  28.923  1.00  0.00     0.074 A 
ATOM     57  C   UNL A   1      42.976  23.143  29.324  1.00  0.00     0.029 A 
ATOM     58  N   UNL A   1      44.951  23.904  28.750  1.00  0.00    -0.354 N 
ATOM     59  N   UNL A   1      46.455  27.787  30.046  1.00  0.00    -0.248 NA
ATOM     60  C   UNL A   1      46.911  27.597  27.766  1.00  0.00     0.031 C 
ATOM     61  C   UNL A   1      43.559  23.844  30.421  1.00  0.00     0.029 A 
ATOM     62  C   UNL A   1      44.688  24.516  29.948  1.00  0.00     0.049 A 
ATOM     63  H   UNL A   1      45.838  23.789  28.336  1.00  0.00     0.167 HD
ATOM     64  C   UNL A   1      46.188  26.479  29.669  1.00  0.00     0.074 A 
ATOM     65  C   UNL A   1      46.593  26.401  28.267  1.00  0.00     0.031 C 
ATOM     66  C   UNL A   1      45.413  25.664  30.443  1.00  0.00     0.037 A 
BRANCH  53  67
ATOM     67  C   UNL A   1      44.351  23.197  25.743  1.00  0.00     0.057 A 
ATOM     68  C   UNL A   1      44.362  21.802  25.533  1.00  0.00     0.134 A 
ATOM     69  C   UNL A   1      45.384  23.901  25.094  1.00  0.00     0.134 A 
ATOM     70  F   UNL A   1      43.434  21.012  26.094  1.00  0.00    -0.206 F 
ATOM     71  C   UNL A   1      45.376  21.154  24.815  1.00  0.00     0.040 A 
ATOM     72  C   UNL A   1      46.372  23.268  24.333  1.00  0.00     0.040 A 
ATOM     73  F   UNL A   1      45.555  25.220  25.239  1.00  0.00    -0.206 F 
ATOM     74  C   UNL A   1      46.394  21.887  24.222  1.00  0.00     0.006 A 
ENDBRANCH  53  67
BRANCH  54  75
ATOM     75  C   UNL A   1      47.020  30.919  28.299  1.00  0.00     0.057 A 
ATOM     76  C   UNL A   1      47.031  31.416  26.990  1.00  0.00     0.134 A 
ATOM     77  C   UNL A   1      47.661  31.707  29.272  1.00  0.00     0.134 A 
ATOM     78  F   UNL A   1      46.422  30.745  26.002  1.00  0.00    -0.206 F 
ATOM     79  C   UNL A   1      47.610  32.650  26.672  1.00  0.00     0.040 A 
ATOM     80  C   UNL A   1      48.247  32.938  28.966  1.00  0.00     0.040 A 
ATOM     81  F   UNL A   1      47.659  31.348  30.564  1.00  0.00    -0.206 F 
ATOM     82  C   UNL A   1      48.204  33.423  27.665  1.00  0.00     0.006 A 
ENDBRANCH  54  75
BRANCH  66  83
ATOM     83  C   UNL A   1      45.087  26.118  31.841  1.00  0.00     0.057 A 
ATOM     84  C   UNL A   1      43.940  26.846  32.191  1.00  0.00     0.134 A 
ATOM     85  C   UNL A   1      45.895  25.671  32.894  1.00  0.00     0.134 A 
ATOM     86  F   UNL A   1      43.053  27.234  31.267  1.00  0.00    -0.206 F 
ATOM     87  C   UNL A   1      43.636  27.150  33.522  1.00  0.00     0.040 A 
ATOM     88  C   UNL A   1      45.585  25.939  34.229  1.00  0.00     0.040 A 
ATOM     89  F   UNL A   1      46.981  24.923  32.642  1.00  0.00    -0.206 F 
ATOM     90  C   UNL A   1      44.457  26.690  34.547  1.00  0.00     0.006 A 
ENDBRANCH  66  83
ENDBRANCH  40  41
ENDBRANCH  32  35
ENDBRANCH  30  31
ENDBRANCH  29  30
ENDBRANCH   1  29
TORSDOF 14
ENDMDL
MODEL 2
REMARK VINA RESULT:     -12.8      3.008      7.605
REMARK SMILES Cc1nn(CC(=O)NCCCNC(=O)c2ccc(-c3c4nc(c(-c5c(F)cccc5F)c5ccc([nH]5)c(-c5c(F)cccc5F)c5nc(c(-c6c(F)cccc6F)c6ccc3[nH]6)C=C5)C=C4)cc2)c(C)c1NS(=O)(=O)c1cccc2cccnc12
REMARK SMILES IDX 9 1 8 2 6 3 7 4 5 6 4 7 1 8 2 9 3 10 71 11 69 12 70 13 72 14
REMARK SMILES IDX 73 16 74 17 75 18 76 19 77 20 85 21 78 22 80 23 84 24 79 25
REMARK SMILES IDX 81 26 83 27 82 28 10 29 11 30 12 31 13 32 14 34 15 35 16 36
REMARK SMILES IDX 68 37 17 38 67 39 18 40 19 41 20 42 61 43 21 44 66 45 60 46
REMARK SMILES IDX 62 47 22 48 65 49 59 50 58 51 23 53 49 54 32 55 48 56 33 57
REMARK SMILES IDX 36 58 47 59 63 60 34 61 35 62 46 64 64 65 37 66 24 67 25 68
REMARK SMILES IDX 30 69 26 70 27 71 29 72 31 73 28 74 50 75 51 76 56 77 52 78
REMARK SMILES IDX 53 79 55 80 57 81 54 82 38 83 39 84 44 85 40 86 41 87 43 88
REMARK SMILES IDX 45 89 42 90
REMARK H PARENT 8 5 72 15 12 33 62 52 36 63
REMARK Flexibility Score: inf
ROOT
ATOM      1  C   UNL A   1      40.312  19.684  26.123  1.00  0.00     0.117 C 
ENDROOT
BRANCH   1   2
ATOM      2  N   UNL A   1      40.090  21.097  26.292  1.00  0.00    -0.354 N 
ATOM      3  C   UNL A   1      38.990  21.835  25.992  1.00  0.00     0.241 C 
ATOM      4  O   UNL A   1      38.959  22.965  26.502  1.00  0.00    -0.273 OA
ATOM      5  H   UNL A   1      40.842  21.600  26.679  1.00  0.00     0.163 HD
BRANCH   3   6
ATOM      6  C   UNL A   1      37.776  21.332  25.248  1.00  0.00     0.244 C 
BRANCH   6   7
ATOM      7  N   UNL A   1      36.425  21.828  25.539  1.00  0.00    -0.258 N 
ATOM      8  C   UNL A   1      33.511  20.211  24.406  1.00  0.00     0.071 C 
ATOM      9  C   UNL A   1      34.642  21.136  24.657  1.00  0.00     0.084 A 
ATOM     10  N   UNL A   1      35.483  20.860  25.669  1.00  0.00    -0.175 NA
ATOM     11  C   UNL A   1      34.953  22.392  24.040  1.00  0.00     0.093 A 
ATOM     12  C   UNL A   1      35.815  22.946  24.957  1.00  0.00     0.060 A 
ATOM     13  C   UNL A   1      35.894  24.347  25.421  1.00  0.00     0.069 C 
BRANCH  11  14
ATOM     14  N   UNL A   1      34.391  22.944  22.893  1.00  0.00    -0.276 N 
ATOM     15  H   UNL A   1      34.980  22.946  22.105  1.00  0.00     0.180 HD
BRANCH  14  16
ATOM     16  S   UNL A   1      32.879  23.603  22.635  1.00  0.00     0.264 S 
ATOM     17  O   UNL A   1      33.064  24.465  21.481  1.00  0.00    -0.201 OA
ATOM     18  O   UNL A   1      31.952  22.488  22.521  1.00  0.00    -0.201 OA
BRANCH  16  19
ATOM     19  C   UNL A   1      32.195  24.666  23.905  1.00  0.00     0.114 A 
ATOM     20  C   UNL A   1      31.167  24.014  24.626  1.00  0.00     0.024 A 
ATOM     21  C   UNL A   1      32.734  25.873  24.377  1.00  0.00     0.091 A 
ATOM     22  C   UNL A   1      30.785  24.445  25.886  1.00  0.00     0.002 A 
ATOM     23  C   UNL A   1      32.439  26.191  25.736  1.00  0.00     0.002 A 
ATOM     24  N   UNL A   1      33.477  26.749  23.659  1.00  0.00    -0.255 NA
ATOM     25  C   UNL A   1      31.486  25.482  26.474  1.00  0.00     0.010 A 
ATOM     26  C   UNL A   1      33.094  27.253  26.370  1.00  0.00     0.012 A 
ATOM     27  C   UNL A   1      33.927  27.880  24.271  1.00  0.00     0.112 A 
ATOM     28  C   UNL A   1      33.857  28.124  25.624  1.00  0.00     0.021 A 
ENDBRANCH  16  19
ENDBRANCH  14  16
ENDBRANCH  11  14
ENDBRANCH   6   7
ENDBRANCH   3   6
ENDBRANCH   1   2
BRANCH   1  29
ATOM     29  C   UNL A   1      41.740  19.254  26.457  1.00  0.00     0.042 C 
BRANCH  29  30
ATOM     30  C   UNL A   1      42.789  20.268  26.125  1.00  0.00     0.118 C 
BRANCH  30  31
ATOM     31  N   UNL A   1      43.934  19.648  25.464  1.00  0.00    -0.352 N 
ATOM     32  C   UNL A   1      44.909  20.291  24.718  1.00  0.00     0.251 C 
ATOM     33  H   UNL A   1      44.023  18.671  25.557  1.00  0.00     0.163 HD
ATOM     34  O   UNL A   1      45.606  19.712  23.928  1.00  0.00    -0.269 OA
BRANCH  32  35
ATOM     35  C   UNL A   1      45.010  21.746  24.937  1.00  0.00     0.039 A 
ATOM     36  C   UNL A   1      44.207  22.618  24.208  1.00  0.00     0.014 A 
ATOM     37  C   UNL A   1      45.708  22.157  26.068  1.00  0.00     0.014 A 
ATOM     38  C   UNL A   1      44.018  23.902  24.707  1.00  0.00     0.010 A 
ATOM     39  C   UNL A   1      45.341  23.341  26.657  1.00  0.00     0.010 A 
ATOM     40  C   UNL A   1      44.542  24.245  25.967  1.00  0.00    -0.014 A 
BRANCH  40  41
ATOM     41  C   UNL A   1      44.197  25.520  26.590  1.00  0.00     0.031 A 
ATOM     42  C   UNL A   1      45.152  26.642  26.368  1.00  0.00     0.074 A 
ATOM     43  C   UNL A   1      43.047  25.749  27.259  1.00  0.00     0.049 A 
ATOM     44  N   UNL A   1      46.012  27.105  27.214  1.00  0.00    -0.248 NA
ATOM     45  C   UNL A   1      45.248  27.248  25.033  1.00  0.00     0.031 C 
ATOM     46  C   UNL A   1      41.843  24.917  27.371  1.00  0.00     0.029 A 
ATOM     47  N   UNL A   1      42.706  26.861  27.967  1.00  0.00    -0.354 N 
ATOM     48  C   UNL A   1      46.634  28.187  26.595  1.00  0.00     0.074 A 
ATOM     49  C   UNL A   1      46.234  28.132  25.213  1.00  0.00     0.031 C 
ATOM     50  C   UNL A   1      40.838  25.636  27.913  1.00  0.00     0.029 A 
ATOM     51  C   UNL A   1      41.384  26.893  28.379  1.00  0.00     0.049 A 
ATOM     52  H   UNL A   1      43.345  27.582  28.170  1.00  0.00     0.167 HD
ATOM     53  C   UNL A   1      47.264  29.147  27.330  1.00  0.00     0.037 A 
ATOM     54  C   UNL A   1      40.775  27.869  29.089  1.00  0.00     0.037 A 
ATOM     55  C   UNL A   1      47.483  28.699  28.685  1.00  0.00     0.049 A 
ATOM     56  C   UNL A   1      41.834  28.621  29.799  1.00  0.00     0.074 A 
ATOM     57  C   UNL A   1      48.171  27.653  29.268  1.00  0.00     0.029 A 
ATOM     58  N   UNL A   1      46.626  29.161  29.654  1.00  0.00    -0.354 N 
ATOM     59  N   UNL A   1      42.542  28.129  30.778  1.00  0.00    -0.248 NA
ATOM     60  C   UNL A   1      42.408  29.780  29.136  1.00  0.00     0.031 C 
ATOM     61  C   UNL A   1      47.347  27.232  30.355  1.00  0.00     0.029 A 
ATOM     62  C   UNL A   1      46.242  28.084  30.408  1.00  0.00     0.049 A 
ATOM     63  H   UNL A   1      46.341  30.096  29.783  1.00  0.00     0.167 HD
ATOM     64  C   UNL A   1      43.820  28.625  30.572  1.00  0.00     0.074 A 
ATOM     65  C   UNL A   1      43.651  29.719  29.618  1.00  0.00     0.031 C 
ATOM     66  C   UNL A   1      44.923  27.928  30.978  1.00  0.00     0.037 A 
BRANCH  53  67
ATOM     67  C   UNL A   1      47.366  30.609  26.960  1.00  0.00     0.057 A 
ATOM     68  C   UNL A   1      48.609  31.264  27.086  1.00  0.00     0.134 A 
ATOM     69  C   UNL A   1      46.262  31.465  26.779  1.00  0.00     0.134 A 
ATOM     70  F   UNL A   1      49.742  30.568  27.262  1.00  0.00    -0.206 F 
ATOM     71  C   UNL A   1      48.727  32.660  27.125  1.00  0.00     0.040 A 
ATOM     72  C   UNL A   1      46.376  32.859  26.766  1.00  0.00     0.040 A 
ATOM     73  F   UNL A   1      45.006  31.010  26.705  1.00  0.00    -0.206 F 
ATOM     74  C   UNL A   1      47.605  33.463  26.978  1.00  0.00     0.006 A 
ENDBRANCH  53  67
BRANCH  54  75
ATOM     75  C   UNL A   1      39.375  28.324  29.013  1.00  0.00     0.057 A 
ATOM     76  C   UNL A   1      38.538  28.275  30.133  1.00  0.00     0.134 A 
ATOM     77  C   UNL A   1      38.916  29.085  27.923  1.00  0.00     0.134 A 
ATOM     78  F   UNL A   1      38.906  27.595  31.229  1.00  0.00    -0.206 F 
ATOM     79  C   UNL A   1      37.329  28.978  30.185  1.00  0.00     0.040 A 
ATOM     80  C   UNL A   1      37.708  29.788  27.960  1.00  0.00     0.040 A 
ATOM     81  F   UNL A   1      39.667  29.242  26.823  1.00  0.00    -0.206 F 
ATOM     82  C   UNL A   1      36.919  29.752  29.103  1.00  0.00     0.006 A 
ENDBRANCH  54  75
BRANCH  66  83
ATOM     83  C   UNL A   1      44.718  26.754  31.898  1.00  0.00     0.057 A 
ATOM     84  C   UNL A   1      44.550  25.430  31.467  1.00  0.00     0.134 A 
ATOM     85  C   UNL A   1      44.844  26.956  33.277  1.00  0.00     0.134 A 
ATOM     86  F   UNL A   1      44.516  25.120  30.166  1.00  0.00    -0.206 F 
ATOM     87  C   UNL A   1      44.468  24.364  32.370  1.00  0.00     0.040 A 
ATOM     88  C   UNL A   1      44.798  25.898  34.188  1.00  0.00     0.040 A 
ATOM     89  F   UNL A   1      45.061  28.189  33.763  1.00  0.00    -0.206 F 
ATOM     90  C   UNL A   1      44.599  24.596  33.735  1.00  0.00     0.006 A 
ENDBRANCH  66  83
ENDBRANCH  40  41
ENDBRANCH  32  35
ENDBRANCH  30  31
ENDBRANCH  29  30
ENDBRANCH   1  29
TORSDOF 14
ENDMDL
MODEL 3
REMARK VINA RESULT:     -12.6      0.825      1.590
REMARK SMILES Cc1nn(CC(=O)NCCCNC(=O)c2ccc(-c3c4nc(c(-c5c(F)cccc5F)c5ccc([nH]5)c(-c5c(F)cccc5F)c5nc(c(-c6c(F)cccc6F)c6ccc3[nH]6)C=C5)C=C4)cc2)c(C)c1NS(=O)(=O)c1cccc2cccnc12
REMARK SMILES IDX 9 1 8 2 6 3 7 4 5 6 4 7 1 8 2 9 3 10 71 11 69 12 70 13 72 14
REMARK SMILES IDX 73 16 74 17 75 18 76 19 77 20 85 21 78 22 80 23 84 24 79 25
REMARK SMILES IDX 81 26 83 27 82 28 10 29 11 30 12 31 13 32 14 34 15 35 16 36
REMARK SMILES IDX 68 37 17 38 67 39 18 40 19 41 20 42 61 43 21 44 66 45 60 46
REMARK SMILES IDX 62 47 22 48 65 49 59 50 58 51 23 53 49 54 32 55 48 56 33 57
REMARK SMILES IDX 36 58 47 59 63 60 34 61 35 62 46 64 64 65 37 66 24 67 25 68
REMARK SMILES IDX 30 69 26 70 27 71 29 72 31 73 28 74 50 75 51 76 56 77 52 78
REMARK SMILES IDX 53 79 55 80 57 81 54 82 38 83 39 84 44 85 40 86 41 87 43 88
REMARK SMILES IDX 45 89 42 90
REMARK H PARENT 8 5 72 15 12 33 62 52 36 63
REMARK Flexibility Score: inf
ROOT
ATOM      1  C   UNL A   1      33.119  29.292  25.817  1.00  0.00     0.117 C 
ENDROOT
BRANCH   1   2
ATOM      2  N   UNL A   1      33.905  28.870  24.686  1.00  0.00    -0.354 N 
ATOM      3  C   UNL A   1      33.547  28.778  23.379  1.00  0.00     0.241 C 
ATOM      4  O   UNL A   1      34.491  28.666  22.582  1.00  0.00    -0.273 OA
ATOM      5  H   UNL A   1      34.831  28.609  24.889  1.00  0.00     0.163 HD
BRANCH   3   6
ATOM      6  C   UNL A   1      32.150  28.965  22.840  1.00  0.00     0.244 C 
BRANCH   6   7
ATOM      7  N   UNL A   1      31.348  27.837  22.349  1.00  0.00    -0.258 N 
ATOM      8  C   UNL A   1      28.349  26.815  23.882  1.00  0.00     0.071 C 
ATOM      9  C   UNL A   1      29.730  26.943  23.360  1.00  0.00     0.084 A 
ATOM     10  N   UNL A   1      30.011  27.969  22.537  1.00  0.00    -0.175 NA
ATOM     11  C   UNL A   1      30.851  26.063  23.507  1.00  0.00     0.093 A 
ATOM     12  C   UNL A   1      31.668  26.480  22.482  1.00  0.00     0.060 A 
ATOM     13  C   UNL A   1      32.482  25.663  21.558  1.00  0.00     0.069 C 
BRANCH  11  14
ATOM     14  N   UNL A   1      30.979  24.977  24.368  1.00  0.00    -0.276 N 
ATOM     15  H   UNL A   1      30.326  24.256  24.221  1.00  0.00     0.180 HD
BRANCH  14  16
ATOM     16  S   UNL A   1      32.059  24.698  25.611  1.00  0.00     0.264 S 
ATOM     17  O   UNL A   1      33.084  25.709  25.419  1.00  0.00    -0.201 OA
ATOM     18  O   UNL A   1      31.289  24.723  26.844  1.00  0.00    -0.201 OA
BRANCH  16  19
ATOM     19  C   UNL A   1      32.940  23.139  25.627  1.00  0.00     0.114 A 
ATOM     20  C   UNL A   1      32.059  22.045  25.449  1.00  0.00     0.024 A 
ATOM     21  C   UNL A   1      34.327  22.951  25.532  1.00  0.00     0.091 A 
ATOM     22  C   UNL A   1      32.518  20.813  25.013  1.00  0.00     0.002 A 
ATOM     23  C   UNL A   1      34.745  21.727  24.928  1.00  0.00     0.002 A 
ATOM     24  N   UNL A   1      35.280  23.806  25.974  1.00  0.00    -0.255 NA
ATOM     25  C   UNL A   1      33.851  20.685  24.670  1.00  0.00     0.010 A 
ATOM     26  C   UNL A   1      36.089  21.531  24.591  1.00  0.00     0.012 A 
ATOM     27  C   UNL A   1      36.590  23.472  25.804  1.00  0.00     0.112 A 
ATOM     28  C   UNL A   1      37.041  22.420  25.038  1.00  0.00     0.021 A 
ENDBRANCH  16  19
ENDBRANCH  14  16
ENDBRANCH  11  14
ENDBRANCH   6   7
ENDBRANCH   3   6
ENDBRANCH   1   2
BRANCH   1  29
ATOM     29  C   UNL A   1      33.738  28.903  27.160  1.00  0.00     0.042 C 
BRANCH  29  30
ATOM     30  C   UNL A   1      35.183  29.261  27.305  1.00  0.00     0.118 C 
BRANCH  30  31
ATOM     31  N   UNL A   1      35.450  29.864  28.609  1.00  0.00    -0.352 N 
ATOM     32  C   UNL A   1      36.530  29.603  29.437  1.00  0.00     0.251 C 
ATOM     33  H   UNL A   1      34.794  30.524  28.934  1.00  0.00     0.163 HD
ATOM     34  O   UNL A   1      36.518  29.852  30.613  1.00  0.00    -0.269 OA
BRANCH  32  35
ATOM     35  C   UNL A   1      37.686  28.966  28.781  1.00  0.00     0.039 A 
ATOM     36  C   UNL A   1      38.338  29.613  27.735  1.00  0.00     0.014 A 
ATOM     37  C   UNL A   1      38.242  27.869  29.430  1.00  0.00     0.014 A 
ATOM     38  C   UNL A   1      39.631  29.209  27.422  1.00  0.00     0.010 A 
ATOM     39  C   UNL A   1      39.583  27.630  29.259  1.00  0.00     0.010 A 
ATOM     40  C   UNL A   1      40.276  28.251  28.227  1.00  0.00    -0.014 A 
BRANCH  40  41
ATOM     41  C   UNL A   1      41.692  27.952  28.030  1.00  0.00     0.031 A 
ATOM     42  C   UNL A   1      42.004  26.707  27.272  1.00  0.00     0.074 A 
ATOM     43  C   UNL A   1      42.698  28.768  28.410  1.00  0.00     0.049 A 
ATOM     44  N   UNL A   1      42.415  25.585  27.763  1.00  0.00    -0.248 NA
ATOM     45  C   UNL A   1      41.729  26.659  25.830  1.00  0.00     0.031 C 
ATOM     46  C   UNL A   1      42.651  30.149  28.906  1.00  0.00     0.029 A 
ATOM     47  N   UNL A   1      44.034  28.511  28.375  1.00  0.00    -0.354 N 
ATOM     48  C   UNL A   1      42.636  24.736  26.681  1.00  0.00     0.074 A 
ATOM     49  C   UNL A   1      42.057  25.396  25.539  1.00  0.00     0.031 C 
ATOM     50  C   UNL A   1      43.895  30.674  28.918  1.00  0.00     0.029 A 
ATOM     51  C   UNL A   1      44.835  29.610  28.641  1.00  0.00     0.049 A 
ATOM     52  H   UNL A   1      44.401  27.619  28.177  1.00  0.00     0.167 HD
ATOM     53  C   UNL A   1      43.459  23.655  26.795  1.00  0.00     0.037 A 
ATOM     54  C   UNL A   1      46.186  29.645  28.670  1.00  0.00     0.037 A 
ATOM     55  C   UNL A   1      43.727  23.355  28.182  1.00  0.00     0.049 A 
ATOM     56  C   UNL A   1      46.657  28.260  28.897  1.00  0.00     0.074 A 
ATOM     57  C   UNL A   1      42.953  23.015  29.274  1.00  0.00     0.029 A 
ATOM     58  N   UNL A   1      44.935  23.758  28.697  1.00  0.00    -0.354 N 
ATOM     59  N   UNL A   1      46.491  27.611  30.016  1.00  0.00    -0.248 NA
ATOM     60  C   UNL A   1      46.934  27.435  27.733  1.00  0.00     0.031 C 
ATOM     61  C   UNL A   1      43.550  23.700  30.375  1.00  0.00     0.029 A 
ATOM     62  C   UNL A   1      44.684  24.362  29.901  1.00  0.00     0.049 A 
ATOM     63  H   UNL A   1      45.818  23.634  28.278  1.00  0.00     0.167 HD
ATOM     64  C   UNL A   1      46.207  26.310  29.630  1.00  0.00     0.074 A 
ATOM     65  C   UNL A   1      46.604  26.238  28.226  1.00  0.00     0.031 C 
ATOM     66  C   UNL A   1      45.425  25.499  30.401  1.00  0.00     0.037 A 
BRANCH  53  67
ATOM     67  C   UNL A   1      44.313  23.081  25.688  1.00  0.00     0.057 A 
ATOM     68  C   UNL A   1      44.300  21.689  25.462  1.00  0.00     0.134 A 
ATOM     69  C   UNL A   1      45.356  23.775  25.044  1.00  0.00     0.134 A 
ATOM     70  F   UNL A   1      43.360  20.908  26.015  1.00  0.00    -0.206 F 
ATOM     71  C   UNL A   1      45.301  21.032  24.734  1.00  0.00     0.040 A 
ATOM     72  C   UNL A   1      46.331  23.135  24.273  1.00  0.00     0.040 A 
ATOM     73  F   UNL A   1      45.549  25.089  25.204  1.00  0.00    -0.206 F 
ATOM     74  C   UNL A   1      46.330  21.755  24.146  1.00  0.00     0.006 A 
ENDBRANCH  53  67
BRANCH  54  75
ATOM     75  C   UNL A   1      47.085  30.751  28.292  1.00  0.00     0.057 A 
ATOM     76  C   UNL A   1      47.060  31.292  27.001  1.00  0.00     0.134 A 
ATOM     77  C   UNL A   1      47.779  31.490  29.265  1.00  0.00     0.134 A 
ATOM     78  F   UNL A   1      46.399  30.668  26.014  1.00  0.00    -0.206 F 
ATOM     79  C   UNL A   1      47.655  32.523  26.703  1.00  0.00     0.040 A 
ATOM     80  C   UNL A   1      48.382  32.718  28.980  1.00  0.00     0.040 A 
ATOM     81  F   UNL A   1      47.816  31.087  30.544  1.00  0.00    -0.206 F 
ATOM     82  C   UNL A   1      48.304  33.248  27.698  1.00  0.00     0.006 A 
ENDBRANCH  54  75
BRANCH  66  83
ATOM     83  C   UNL A   1      45.111  25.945  31.805  1.00  0.00     0.057 A 
ATOM     84  C   UNL A   1      45.957  25.750  32.906  1.00  0.00     0.134 A 
ATOM     85  C   UNL A   1      43.973  26.732  32.017  1.00  0.00     0.134 A 
ATOM     86  F   UNL A   1      47.118  25.094  32.786  1.00  0.00    -0.206 F 
ATOM     87  C   UNL A   1      45.661  26.278  34.167  1.00  0.00     0.040 A 
ATOM     88  C   UNL A   1      43.683  27.293  33.262  1.00  0.00     0.040 A 
ATOM     89  F   UNL A   1      43.143  27.008  30.998  1.00  0.00    -0.206 F 
ATOM     90  C   UNL A   1      44.524  27.058  34.347  1.00  0.00     0.006 A 
ENDBRANCH  66  83
ENDBRANCH  40  41
ENDBRANCH  32  35
ENDBRANCH  30  31
ENDBRANCH  29  30
ENDBRANCH   1  29
TORSDOF 14
ENDMDL
