MODEL 1
REMARK VINA RESULT:     -13.1      0.000      0.000
REMARK SMILES O=C(Cn1c(-c2nc(-c3ccc(C(F)(F)F)cc3)no2)cc2ccccc21)NCCCNC(=O)c1ccc(-c2c3nc(c(-c4c(F)cccc4F)c4ccc([nH]4)c(-c4c(F)cccc4F)c4nc(c(-c5c(F)cccc5F)c5ccc2[nH]5)C=C4)C=C3)cc1
REMARK SMILES IDX 29 1 28 2 1 3 2 4 3 6 4 7 5 8 27 9 21 10 22 11 26 12 23 13
REMARK SMILES IDX 25 14 24 15 6 16 7 17 20 18 8 19 19 20 9 21 10 22 18 23
REMARK SMILES IDX 11 24 17 25 12 26 13 27 14 28 15 29 16 30 30 31 31 32 32 33
REMARK SMILES IDX 33 34 34 36 35 37 36 38 88 39 37 40 87 41 38 42 39 43 40 44
REMARK SMILES IDX 81 45 41 46 86 47 80 48 82 49 42 50 85 51 79 52 78 53 43 55
REMARK SMILES IDX 69 56 52 57 68 58 53 59 56 60 67 61 83 62 54 63 55 64 66 66
REMARK SMILES IDX 84 67 57 68 44 69 45 70 50 71 46 72 47 73 49 74 51 75 48 76
REMARK SMILES IDX 70 77 71 78 76 79 72 80 73 81 75 82 77 83 74 84 58 85 59 86
REMARK SMILES IDX 64 87 60 88 61 89 63 90 65 91 62 92
REMARK H PARENT 28 5 32 35 82 54 56 65
REMARK Flexibility Score: inf
ROOT
ATOM      1  C   UNL A   1      36.065  23.473  25.788  1.00  0.00     0.117 C 
ENDROOT
BRANCH   1   2
ATOM      2  N   UNL A   1      34.756  22.927  25.484  1.00  0.00    -0.354 N 
ATOM      3  O   UNL A   1      34.585  21.646  27.383  1.00  0.00    -0.273 OA
ATOM      4  C   UNL A   1      34.074  22.126  26.385  1.00  0.00     0.239 C 
ATOM      5  H   UNL A   1      34.342  23.131  24.616  1.00  0.00     0.163 HD
BRANCH   4   6
ATOM      6  C   UNL A   1      32.650  21.813  25.987  1.00  0.00     0.222 C 
BRANCH   6   7
ATOM      7  N   UNL A   1      32.414  21.264  24.646  1.00  0.00    -0.327 N 
ATOM      8  C   UNL A   1      32.093  21.903  23.464  1.00  0.00     0.109 A 
ATOM      9  C   UNL A   1      32.567  19.894  24.398  1.00  0.00     0.049 A 
ATOM     10  C   UNL A   1      31.998  20.935  22.480  1.00  0.00     0.042 A 
ATOM     11  C   UNL A   1      32.322  19.682  23.040  1.00  0.00     0.000 A 
ATOM     12  C   UNL A   1      32.919  18.825  25.245  1.00  0.00     0.027 A 
ATOM     13  C   UNL A   1      32.456  18.390  22.498  1.00  0.00     0.010 A 
ATOM     14  C   UNL A   1      33.048  17.548  24.685  1.00  0.00     0.002 A 
ATOM     15  C   UNL A   1      32.824  17.330  23.330  1.00  0.00     0.001 A 
BRANCH   8  16
ATOM     16  C   UNL A   1      32.063  23.306  23.180  1.00  0.00     0.274 A 
ATOM     17  N   UNL A   1      31.133  24.186  23.494  1.00  0.00    -0.185 NA
ATOM     18  O   UNL A   1      33.067  23.853  22.430  1.00  0.00    -0.332 OA
ATOM     19  C   UNL A   1      31.597  25.345  22.889  1.00  0.00     0.202 A 
ATOM     20  N   UNL A   1      32.765  25.182  22.246  1.00  0.00    -0.057 NA
BRANCH  19  21
ATOM     21  C   UNL A   1      30.938  26.653  22.920  1.00  0.00     0.023 A 
ATOM     22  C   UNL A   1      29.599  26.730  23.349  1.00  0.00     0.013 A 
ATOM     23  C   UNL A   1      31.577  27.837  22.536  1.00  0.00     0.013 A 
ATOM     24  C   UNL A   1      28.911  27.943  23.387  1.00  0.00     0.014 A 
ATOM     25  C   UNL A   1      30.886  29.063  22.577  1.00  0.00     0.014 A 
ATOM     26  C   UNL A   1      29.547  29.127  22.998  1.00  0.00     0.056 A 
BRANCH  26  27
ATOM     27  C   UNL A   1      28.765  30.419  23.030  1.00  0.00     0.416 C 
ATOM     28  F   UNL A   1      27.421  30.208  23.085  1.00  0.00    -0.166 F 
ATOM     29  F   UNL A   1      29.064  31.182  24.119  1.00  0.00    -0.166 F 
ATOM     30  F   UNL A   1      28.975  31.216  21.947  1.00  0.00    -0.166 F 
ENDBRANCH  26  27
ENDBRANCH  19  21
ENDBRANCH   8  16
ENDBRANCH   6   7
ENDBRANCH   4   6
ENDBRANCH   1   2
BRANCH   1  31
ATOM     31  C   UNL A   1      37.199  22.818  25.008  1.00  0.00     0.042 C 
BRANCH  31  32
ATOM     32  C   UNL A   1      37.986  21.767  25.791  1.00  0.00     0.118 C 
BRANCH  32  33
ATOM     33  N   UNL A   1      39.412  21.752  25.536  1.00  0.00    -0.352 N 
ATOM     34  C   UNL A   1      40.491  22.361  26.110  1.00  0.00     0.251 C 
ATOM     35  H   UNL A   1      39.658  21.173  24.779  1.00  0.00     0.163 HD
ATOM     36  O   UNL A   1      41.593  21.883  25.833  1.00  0.00    -0.269 OA
BRANCH  34  37
ATOM     37  C   UNL A   1      40.434  23.593  26.938  1.00  0.00     0.039 A 
ATOM     38  C   UNL A   1      39.635  24.707  26.683  1.00  0.00     0.014 A 
ATOM     39  C   UNL A   1      41.370  23.654  27.988  1.00  0.00     0.014 A 
ATOM     40  C   UNL A   1      39.862  25.899  27.361  1.00  0.00     0.010 A 
ATOM     41  C   UNL A   1      41.591  24.833  28.678  1.00  0.00     0.010 A 
ATOM     42  C   UNL A   1      40.882  25.970  28.311  1.00  0.00    -0.014 A 
BRANCH  42  43
ATOM     43  C   UNL A   1      41.127  27.246  28.968  1.00  0.00     0.031 A 
ATOM     44  C   UNL A   1      42.370  27.936  28.521  1.00  0.00     0.074 A 
ATOM     45  C   UNL A   1      40.224  27.802  29.803  1.00  0.00     0.049 A 
ATOM     46  N   UNL A   1      43.396  28.284  29.227  1.00  0.00    -0.248 NA
ATOM     47  C   UNL A   1      42.546  28.143  27.073  1.00  0.00     0.031 C 
ATOM     48  C   UNL A   1      38.866  27.335  30.096  1.00  0.00     0.029 A 
ATOM     49  N   UNL A   1      40.294  28.974  30.493  1.00  0.00    -0.354 N 
ATOM     50  C   UNL A   1      44.262  28.937  28.346  1.00  0.00     0.074 A 
ATOM     51  C   UNL A   1      43.771  28.664  27.023  1.00  0.00     0.031 C 
ATOM     52  C   UNL A   1      38.171  28.326  30.700  1.00  0.00     0.029 A 
ATOM     53  C   UNL A   1      39.067  29.441  30.951  1.00  0.00     0.049 A 
ATOM     54  H   UNL A   1      41.141  29.449  30.653  1.00  0.00     0.167 HD
ATOM     55  C   UNL A   1      45.161  29.858  28.793  1.00  0.00     0.037 A 
ATOM     56  C   UNL A   1      38.803  30.682  31.432  1.00  0.00     0.037 A 
ATOM     57  C   UNL A   1      45.423  29.681  30.200  1.00  0.00     0.049 A 
ATOM     58  C   UNL A   1      40.100  31.308  31.794  1.00  0.00     0.074 A 
ATOM     59  C   UNL A   1      45.934  28.665  30.983  1.00  0.00     0.029 A 
ATOM     60  N   UNL A   1      44.822  30.552  31.076  1.00  0.00    -0.354 N 
ATOM     61  N   UNL A   1      40.837  30.918  32.796  1.00  0.00    -0.248 NA
ATOM     62  C   UNL A   1      40.797  32.057  30.759  1.00  0.00     0.031 C 
ATOM     63  C   UNL A   1      45.196  28.730  32.202  1.00  0.00     0.029 A 
ATOM     64  C   UNL A   1      44.322  29.814  32.112  1.00  0.00     0.049 A 
ATOM     65  H   UNL A   1      44.764  31.530  30.975  1.00  0.00     0.167 HD
ATOM     66  C   UNL A   1      42.138  30.979  32.319  1.00  0.00     0.074 A 
ATOM     67  C   UNL A   1      42.058  31.763  31.087  1.00  0.00     0.031 C 
ATOM     68  C   UNL A   1      43.106  30.149  32.808  1.00  0.00     0.037 A 
BRANCH  55  69
ATOM     69  C   UNL A   1      45.439  31.175  28.089  1.00  0.00     0.057 A 
ATOM     70  C   UNL A   1      44.500  32.214  27.926  1.00  0.00     0.134 A 
ATOM     71  C   UNL A   1      46.781  31.557  27.890  1.00  0.00     0.134 A 
ATOM     72  F   UNL A   1      43.182  32.035  28.056  1.00  0.00    -0.206 F 
ATOM     73  C   UNL A   1      44.872  33.543  27.702  1.00  0.00     0.040 A 
ATOM     74  C   UNL A   1      47.165  32.892  27.710  1.00  0.00     0.040 A 
ATOM     75  F   UNL A   1      47.774  30.659  27.972  1.00  0.00    -0.206 F 
ATOM     76  C   UNL A   1      46.209  33.895  27.644  1.00  0.00     0.006 A 
ENDBRANCH  55  69
BRANCH  56  77
ATOM     77  C   UNL A   1      37.556  31.472  31.306  1.00  0.00     0.057 A 
ATOM     78  C   UNL A   1      36.735  31.727  32.419  1.00  0.00     0.134 A 
ATOM     79  C   UNL A   1      37.001  31.773  30.054  1.00  0.00     0.134 A 
ATOM     80  F   UNL A   1      37.126  31.398  33.658  1.00  0.00    -0.206 F 
ATOM     81  C   UNL A   1      35.441  32.244  32.296  1.00  0.00     0.040 A 
ATOM     82  C   UNL A   1      35.703  32.285  29.916  1.00  0.00     0.040 A 
ATOM     83  F   UNL A   1      37.685  31.520  28.928  1.00  0.00    -0.206 F 
ATOM     84  C   UNL A   1      34.915  32.514  31.040  1.00  0.00     0.006 A 
ENDBRANCH  56  77
BRANCH  68  85
ATOM     85  C   UNL A   1      42.778  29.342  34.031  1.00  0.00     0.057 A 
ATOM     86  C   UNL A   1      43.248  29.781  35.273  1.00  0.00     0.134 A 
ATOM     87  C   UNL A   1      42.145  28.091  33.997  1.00  0.00     0.134 A 
ATOM     88  F   UNL A   1      43.917  30.941  35.370  1.00  0.00    -0.206 F 
ATOM     89  C   UNL A   1      43.083  29.021  36.432  1.00  0.00     0.040 A 
ATOM     90  C   UNL A   1      41.943  27.334  35.156  1.00  0.00     0.040 A 
ATOM     91  F   UNL A   1      41.757  27.542  32.839  1.00  0.00    -0.206 F 
ATOM     92  C   UNL A   1      42.419  27.799  36.379  1.00  0.00     0.006 A 
ENDBRANCH  68  85
ENDBRANCH  42  43
ENDBRANCH  34  37
ENDBRANCH  32  33
ENDBRANCH  31  32
ENDBRANCH   1  31
TORSDOF 14
ENDMDL
MODEL 2
REMARK VINA RESULT:     -13.1      3.484      7.996
REMARK SMILES O=C(Cn1c(-c2nc(-c3ccc(C(F)(F)F)cc3)no2)cc2ccccc21)NCCCNC(=O)c1ccc(-c2c3nc(c(-c4c(F)cccc4F)c4ccc([nH]4)c(-c4c(F)cccc4F)c4nc(c(-c5c(F)cccc5F)c5ccc2[nH]5)C=C4)C=C3)cc1
REMARK SMILES IDX 29 1 28 2 1 3 2 4 3 6 4 7 5 8 27 9 21 10 22 11 26 12 23 13
REMARK SMILES IDX 25 14 24 15 6 16 7 17 20 18 8 19 19 20 9 21 10 22 18 23
REMARK SMILES IDX 11 24 17 25 12 26 13 27 14 28 15 29 16 30 30 31 31 32 32 33
REMARK SMILES IDX 33 34 34 36 35 37 36 38 88 39 37 40 87 41 38 42 39 43 40 44
REMARK SMILES IDX 81 45 41 46 86 47 80 48 82 49 42 50 85 51 79 52 78 53 43 55
REMARK SMILES IDX 69 56 52 57 68 58 53 59 56 60 67 61 83 62 54 63 55 64 66 66
REMARK SMILES IDX 84 67 57 68 44 69 45 70 50 71 46 72 47 73 49 74 51 75 48 76
REMARK SMILES IDX 70 77 71 78 76 79 72 80 73 81 75 82 77 83 74 84 58 85 59 86
REMARK SMILES IDX 64 87 60 88 61 89 63 90 65 91 62 92
REMARK H PARENT 28 5 32 35 82 54 56 65
REMARK Flexibility Score: inf
ROOT
ATOM      1  C   UNL A   1      35.556  23.520  24.081  1.00  0.00     0.117 C 
ENDROOT
BRANCH   1   2
ATOM      2  N   UNL A   1      34.769  24.678  24.464  1.00  0.00    -0.354 N 
ATOM      3  O   UNL A   1      34.120  25.239  22.334  1.00  0.00    -0.273 OA
ATOM      4  C   UNL A   1      34.017  25.385  23.541  1.00  0.00     0.239 C 
ATOM      5  H   UNL A   1      34.770  24.968  25.404  1.00  0.00     0.163 HD
BRANCH   4   6
ATOM      6  C   UNL A   1      33.110  26.432  24.146  1.00  0.00     0.222 C 
BRANCH   6   7
ATOM      7  N   UNL A   1      31.665  26.300  23.931  1.00  0.00    -0.327 N 
ATOM      8  C   UNL A   1      30.846  25.191  24.027  1.00  0.00     0.109 A 
ATOM      9  C   UNL A   1      30.882  27.422  23.631  1.00  0.00     0.049 A 
ATOM     10  C   UNL A   1      29.555  25.601  23.745  1.00  0.00     0.042 A 
ATOM     11  C   UNL A   1      29.557  26.995  23.527  1.00  0.00     0.000 A 
ATOM     12  C   UNL A   1      31.220  28.778  23.462  1.00  0.00     0.027 A 
ATOM     13  C   UNL A   1      28.537  27.933  23.279  1.00  0.00     0.010 A 
ATOM     14  C   UNL A   1      30.189  29.695  23.217  1.00  0.00     0.002 A 
ATOM     15  C   UNL A   1      28.865  29.282  23.131  1.00  0.00     0.001 A 
BRANCH   8  16
ATOM     16  C   UNL A   1      31.155  23.887  24.530  1.00  0.00     0.274 A 
ATOM     17  N   UNL A   1      31.815  22.915  23.933  1.00  0.00    -0.185 NA
ATOM     18  O   UNL A   1      30.672  23.515  25.754  1.00  0.00    -0.332 OA
ATOM     19  C   UNL A   1      31.722  21.878  24.853  1.00  0.00     0.202 A 
ATOM     20  N   UNL A   1      31.048  22.210  25.965  1.00  0.00    -0.057 NA
BRANCH  19  21
ATOM     21  C   UNL A   1      32.293  20.538  24.696  1.00  0.00     0.023 A 
ATOM     22  C   UNL A   1      32.247  19.923  23.429  1.00  0.00     0.013 A 
ATOM     23  C   UNL A   1      32.879  19.832  25.751  1.00  0.00     0.013 A 
ATOM     24  C   UNL A   1      32.759  18.643  23.219  1.00  0.00     0.014 A 
ATOM     25  C   UNL A   1      33.400  18.541  25.540  1.00  0.00     0.014 A 
ATOM     26  C   UNL A   1      33.341  17.933  24.274  1.00  0.00     0.056 A 
BRANCH  26  27
ATOM     27  C   UNL A   1      33.864  16.540  24.017  1.00  0.00     0.416 C 
ATOM     28  F   UNL A   1      34.949  16.246  24.787  1.00  0.00    -0.166 F 
ATOM     29  F   UNL A   1      32.942  15.577  24.296  1.00  0.00    -0.166 F 
ATOM     30  F   UNL A   1      34.250  16.326  22.729  1.00  0.00    -0.166 F 
ENDBRANCH  26  27
ENDBRANCH  19  21
ENDBRANCH   8  16
ENDBRANCH   6   7
ENDBRANCH   4   6
ENDBRANCH   1   2
BRANCH   1  31
ATOM     31  C   UNL A   1      36.500  23.032  25.174  1.00  0.00     0.042 C 
BRANCH  31  32
ATOM     32  C   UNL A   1      37.232  24.144  25.925  1.00  0.00     0.118 C 
BRANCH  32  33
ATOM     33  N   UNL A   1      38.678  24.058  25.890  1.00  0.00    -0.352 N 
ATOM     34  C   UNL A   1      39.686  24.630  26.613  1.00  0.00     0.251 C 
ATOM     35  H   UNL A   1      39.007  23.452  25.188  1.00  0.00     0.163 HD
ATOM     36  O   UNL A   1      40.793  24.096  26.515  1.00  0.00    -0.269 OA
BRANCH  34  37
ATOM     37  C   UNL A   1      39.564  25.881  27.404  1.00  0.00     0.039 A 
ATOM     38  C   UNL A   1      39.893  27.161  26.957  1.00  0.00     0.014 A 
ATOM     39  C   UNL A   1      39.200  25.706  28.753  1.00  0.00     0.014 A 
ATOM     40  C   UNL A   1      39.998  28.211  27.861  1.00  0.00     0.010 A 
ATOM     41  C   UNL A   1      39.288  26.751  29.656  1.00  0.00     0.010 A 
ATOM     42  C   UNL A   1      39.756  27.983  29.215  1.00  0.00    -0.014 A 
BRANCH  42  43
ATOM     43  C   UNL A   1      39.922  29.092  30.145  1.00  0.00     0.031 A 
ATOM     44  C   UNL A   1      38.706  29.936  30.316  1.00  0.00     0.074 A 
ATOM     45  C   UNL A   1      41.044  29.242  30.880  1.00  0.00     0.049 A 
ATOM     46  N   UNL A   1      38.563  31.199  30.083  1.00  0.00    -0.248 NA
ATOM     47  C   UNL A   1      37.451  29.249  30.667  1.00  0.00     0.031 C 
ATOM     48  C   UNL A   1      42.181  28.321  30.981  1.00  0.00     0.029 A 
ATOM     49  N   UNL A   1      41.361  30.210  31.784  1.00  0.00    -0.354 N 
ATOM     50  C   UNL A   1      37.252  31.509  30.450  1.00  0.00     0.074 A 
ATOM     51  C   UNL A   1      36.576  30.254  30.630  1.00  0.00     0.031 C 
ATOM     52  C   UNL A   1      42.931  28.652  32.056  1.00  0.00     0.029 A 
ATOM     53  C   UNL A   1      42.406  29.875  32.637  1.00  0.00     0.049 A 
ATOM     54  H   UNL A   1      40.889  31.073  31.829  1.00  0.00     0.167 HD
ATOM     55  C   UNL A   1      36.903  32.772  30.823  1.00  0.00     0.037 A 
ATOM     56  C   UNL A   1      42.758  30.522  33.777  1.00  0.00     0.037 A 
ATOM     57  C   UNL A   1      37.851  33.737  30.324  1.00  0.00     0.049 A 
ATOM     58  C   UNL A   1      42.141  31.872  33.736  1.00  0.00     0.074 A 
ATOM     59  C   UNL A   1      38.287  34.128  29.073  1.00  0.00     0.029 A 
ATOM     60  N   UNL A   1      38.770  34.247  31.208  1.00  0.00    -0.354 N 
ATOM     61  N   UNL A   1      42.513  32.812  32.914  1.00  0.00    -0.248 NA
ATOM     62  C   UNL A   1      40.801  32.015  34.285  1.00  0.00     0.031 C 
ATOM     63  C   UNL A   1      39.674  34.415  29.237  1.00  0.00     0.029 A 
ATOM     64  C   UNL A   1      39.988  34.239  30.585  1.00  0.00     0.049 A 
ATOM     65  H   UNL A   1      38.586  34.560  32.122  1.00  0.00     0.167 HD
ATOM     66  C   UNL A   1      41.330  33.410  32.504  1.00  0.00     0.074 A 
ATOM     67  C   UNL A   1      40.315  32.930  33.442  1.00  0.00     0.031 C 
ATOM     68  C   UNL A   1      41.229  34.001  31.278  1.00  0.00     0.037 A 
BRANCH  55  69
ATOM     69  C   UNL A   1      35.995  33.083  32.001  1.00  0.00     0.057 A 
ATOM     70  C   UNL A   1      36.292  32.788  33.347  1.00  0.00     0.134 A 
ATOM     71  C   UNL A   1      34.962  34.024  31.819  1.00  0.00     0.134 A 
ATOM     72  F   UNL A   1      37.228  31.906  33.712  1.00  0.00    -0.206 F 
ATOM     73  C   UNL A   1      35.698  33.458  34.419  1.00  0.00     0.040 A 
ATOM     74  C   UNL A   1      34.392  34.733  32.885  1.00  0.00     0.040 A 
ATOM     75  F   UNL A   1      34.547  34.365  30.590  1.00  0.00    -0.206 F 
ATOM     76  C   UNL A   1      34.781  34.470  34.190  1.00  0.00     0.006 A 
ENDBRANCH  55  69
BRANCH  56  77
ATOM     77  C   UNL A   1      43.318  29.951  35.024  1.00  0.00     0.057 A 
ATOM     78  C   UNL A   1      44.666  30.141  35.377  1.00  0.00     0.134 A 
ATOM     79  C   UNL A   1      42.620  28.988  35.768  1.00  0.00     0.134 A 
ATOM     80  F   UNL A   1      45.453  30.972  34.679  1.00  0.00    -0.206 F 
ATOM     81  C   UNL A   1      45.286  29.417  36.400  1.00  0.00     0.040 A 
ATOM     82  C   UNL A   1      43.231  28.250  36.793  1.00  0.00     0.040 A 
ATOM     83  F   UNL A   1      41.344  28.697  35.478  1.00  0.00    -0.206 F 
ATOM     84  C   UNL A   1      44.571  28.458  37.106  1.00  0.00     0.006 A 
ENDBRANCH  56  77
BRANCH  68  85
ATOM     85  C   UNL A   1      42.493  34.194  30.491  1.00  0.00     0.057 A 
ATOM     86  C   UNL A   1      42.919  33.170  29.640  1.00  0.00     0.134 A 
ATOM     87  C   UNL A   1      43.360  35.284  30.658  1.00  0.00     0.134 A 
ATOM     88  F   UNL A   1      42.170  32.068  29.481  1.00  0.00    -0.206 F 
ATOM     89  C   UNL A   1      44.143  33.231  28.971  1.00  0.00     0.040 A 
ATOM     90  C   UNL A   1      44.573  35.375  29.967  1.00  0.00     0.040 A 
ATOM     91  F   UNL A   1      43.085  36.261  31.531  1.00  0.00    -0.206 F 
ATOM     92  C   UNL A   1      44.969  34.341  29.124  1.00  0.00     0.006 A 
ENDBRANCH  68  85
ENDBRANCH  42  43
ENDBRANCH  34  37
ENDBRANCH  32  33
ENDBRANCH  31  32
ENDBRANCH   1  31
TORSDOF 14
ENDMDL
MODEL 3
REMARK VINA RESULT:     -13.1      3.807      8.551
REMARK SMILES O=C(Cn1c(-c2nc(-c3ccc(C(F)(F)F)cc3)no2)cc2ccccc21)NCCCNC(=O)c1ccc(-c2c3nc(c(-c4c(F)cccc4F)c4ccc([nH]4)c(-c4c(F)cccc4F)c4nc(c(-c5c(F)cccc5F)c5ccc2[nH]5)C=C4)C=C3)cc1
REMARK SMILES IDX 29 1 28 2 1 3 2 4 3 6 4 7 5 8 27 9 21 10 22 11 26 12 23 13
REMARK SMILES IDX 25 14 24 15 6 16 7 17 20 18 8 19 19 20 9 21 10 22 18 23
REMARK SMILES IDX 11 24 17 25 12 26 13 27 14 28 15 29 16 30 30 31 31 32 32 33
REMARK SMILES IDX 33 34 34 36 35 37 36 38 88 39 37 40 87 41 38 42 39 43 40 44
REMARK SMILES IDX 81 45 41 46 86 47 80 48 82 49 42 50 85 51 79 52 78 53 43 55
REMARK SMILES IDX 69 56 52 57 68 58 53 59 56 60 67 61 83 62 54 63 55 64 66 66
REMARK SMILES IDX 84 67 57 68 44 69 45 70 50 71 46 72 47 73 49 74 51 75 48 76
REMARK SMILES IDX 70 77 71 78 76 79 72 80 73 81 75 82 77 83 74 84 58 85 59 86
REMARK SMILES IDX 64 87 60 88 61 89 63 90 65 91 62 92
REMARK H PARENT 28 5 32 35 82 54 56 65
REMARK Flexibility Score: inf
ROOT
ATOM      1  C   UNL A   1      34.707  28.953  27.045  1.00  0.00     0.117 C 
ENDROOT
BRANCH   1   2
ATOM      2  N   UNL A   1      33.375  29.476  26.804  1.00  0.00    -0.354 N 
ATOM      3  O   UNL A   1      33.554  29.540  24.516  1.00  0.00    -0.273 OA
ATOM      4  C   UNL A   1      32.871  29.624  25.523  1.00  0.00     0.239 C 
ATOM      5  H   UNL A   1      32.815  29.732  27.572  1.00  0.00     0.163 HD
BRANCH   4   6
ATOM      6  C   UNL A   1      31.406  29.992  25.467  1.00  0.00     0.222 C 
BRANCH   6   7
ATOM      7  N   UNL A   1      30.603  29.459  24.360  1.00  0.00    -0.327 N 
ATOM      8  C   UNL A   1      30.535  28.181  23.842  1.00  0.00     0.109 A 
ATOM      9  C   UNL A   1      29.684  30.275  23.688  1.00  0.00     0.049 A 
ATOM     10  C   UNL A   1      29.608  28.197  22.814  1.00  0.00     0.042 A 
ATOM     11  C   UNL A   1      29.047  29.488  22.728  1.00  0.00     0.000 A 
ATOM     12  C   UNL A   1      29.343  31.631  23.854  1.00  0.00     0.027 A 
ATOM     13  C   UNL A   1      28.028  30.044  21.931  1.00  0.00     0.010 A 
ATOM     14  C   UNL A   1      28.326  32.165  23.052  1.00  0.00     0.002 A 
ATOM     15  C   UNL A   1      27.672  31.383  22.106  1.00  0.00     0.001 A 
BRANCH   8  16
ATOM     16  C   UNL A   1      31.109  26.973  24.350  1.00  0.00     0.274 A 
ATOM     17  N   UNL A   1      32.322  26.496  24.153  1.00  0.00    -0.185 NA
ATOM     18  O   UNL A   1      30.329  26.125  25.088  1.00  0.00    -0.332 OA
ATOM     19  C   UNL A   1      32.276  25.272  24.808  1.00  0.00     0.202 A 
ATOM     20  N   UNL A   1      31.092  25.022  25.389  1.00  0.00    -0.057 NA
BRANCH  19  21
ATOM     21  C   UNL A   1      33.376  24.309  24.906  1.00  0.00     0.023 A 
ATOM     22  C   UNL A   1      33.792  23.631  23.744  1.00  0.00     0.013 A 
ATOM     23  C   UNL A   1      34.033  24.025  26.107  1.00  0.00     0.013 A 
ATOM     24  C   UNL A   1      34.823  22.692  23.775  1.00  0.00     0.014 A 
ATOM     25  C   UNL A   1      35.075  23.079  26.140  1.00  0.00     0.014 A 
ATOM     26  C   UNL A   1      35.477  22.402  24.976  1.00  0.00     0.056 A 
BRANCH  26  27
ATOM     27  C   UNL A   1      36.573  21.362  24.978  1.00  0.00     0.416 C 
ATOM     28  F   UNL A   1      37.375  21.460  26.076  1.00  0.00    -0.166 F 
ATOM     29  F   UNL A   1      36.085  20.090  24.990  1.00  0.00    -0.166 F 
ATOM     30  F   UNL A   1      37.403  21.434  23.902  1.00  0.00    -0.166 F 
ENDBRANCH  26  27
ENDBRANCH  19  21
ENDBRANCH   8  16
ENDBRANCH   6   7
ENDBRANCH   4   6
ENDBRANCH   1   2
BRANCH   1  31
ATOM     31  C   UNL A   1      35.672  29.979  27.627  1.00  0.00     0.042 C 
BRANCH  31  32
ATOM     32  C   UNL A   1      35.064  31.361  27.867  1.00  0.00     0.118 C 
BRANCH  32  33
ATOM     33  N   UNL A   1      34.762  31.666  29.250  1.00  0.00    -0.352 N 
ATOM     34  C   UNL A   1      35.500  31.730  30.397  1.00  0.00     0.251 C 
ATOM     35  H   UNL A   1      33.810  31.874  29.396  1.00  0.00     0.163 HD
ATOM     36  O   UNL A   1      34.979  32.321  31.345  1.00  0.00    -0.269 OA
BRANCH  34  37
ATOM     37  C   UNL A   1      36.810  31.061  30.606  1.00  0.00     0.039 A 
ATOM     38  C   UNL A   1      38.060  31.625  30.354  1.00  0.00     0.014 A 
ATOM     39  C   UNL A   1      36.739  29.703  30.972  1.00  0.00     0.014 A 
ATOM     40  C   UNL A   1      39.195  30.824  30.325  1.00  0.00     0.010 A 
ATOM     41  C   UNL A   1      37.867  28.902  30.960  1.00  0.00     0.010 A 
ATOM     42  C   UNL A   1      39.081  29.455  30.567  1.00  0.00    -0.014 A 
BRANCH  42  43
ATOM     43  C   UNL A   1      40.280  28.634  30.480  1.00  0.00     0.031 A 
ATOM     44  C   UNL A   1      41.010  28.477  31.770  1.00  0.00     0.074 A 
ATOM     45  C   UNL A   1      40.608  27.969  29.352  1.00  0.00     0.049 A 
ATOM     46  N   UNL A   1      42.226  28.812  32.053  1.00  0.00    -0.248 NA
ATOM     47  C   UNL A   1      40.235  28.009  32.933  1.00  0.00     0.031 C 
ATOM     48  C   UNL A   1      39.819  27.843  28.123  1.00  0.00     0.029 A 
ATOM     49  N   UNL A   1      41.680  27.168  29.103  1.00  0.00    -0.354 N 
ATOM     50  C   UNL A   1      42.435  28.410  33.374  1.00  0.00     0.074 A 
ATOM     51  C   UNL A   1      41.140  28.091  33.908  1.00  0.00     0.031 C 
ATOM     52  C   UNL A   1      40.319  26.838  27.370  1.00  0.00     0.029 A 
ATOM     53  C   UNL A   1      41.531  26.340  27.997  1.00  0.00     0.049 A 
ATOM     54  H   UNL A   1      42.492  27.175  29.660  1.00  0.00     0.167 HD
ATOM     55  C   UNL A   1      43.685  28.131  33.838  1.00  0.00     0.037 A 
ATOM     56  C   UNL A   1      42.310  25.278  27.670  1.00  0.00     0.037 A 
ATOM     57  C   UNL A   1      44.691  28.756  33.016  1.00  0.00     0.049 A 
ATOM     58  C   UNL A   1      43.582  25.406  28.425  1.00  0.00     0.074 A 
ATOM     59  C   UNL A   1      45.008  30.056  32.671  1.00  0.00     0.029 A 
ATOM     60  N   UNL A   1      45.368  27.964  32.121  1.00  0.00    -0.354 N 
ATOM     61  N   UNL A   1      44.477  26.323  28.185  1.00  0.00    -0.248 NA
ATOM     62  C   UNL A   1      43.639  24.808  29.751  1.00  0.00     0.031 C 
ATOM     63  C   UNL A   1      45.447  29.984  31.316  1.00  0.00     0.029 A 
ATOM     64  C   UNL A   1      45.426  28.642  30.934  1.00  0.00     0.049 A 
ATOM     65  H   UNL A   1      45.744  27.073  32.301  1.00  0.00     0.167 HD
ATOM     66  C   UNL A   1      44.913  26.725  29.439  1.00  0.00     0.074 A 
ATOM     67  C   UNL A   1      44.421  25.703  30.362  1.00  0.00     0.031 C 
ATOM     68  C   UNL A   1      45.378  27.992  29.649  1.00  0.00     0.037 A 
BRANCH  55  69
ATOM     69  C   UNL A   1      44.009  26.942  34.727  1.00  0.00     0.057 A 
ATOM     70  C   UNL A   1      44.010  25.597  34.304  1.00  0.00     0.134 A 
ATOM     71  C   UNL A   1      44.686  27.179  35.940  1.00  0.00     0.134 A 
ATOM     72  F   UNL A   1      43.402  25.181  33.189  1.00  0.00    -0.206 F 
ATOM     73  C   UNL A   1      44.724  24.595  34.967  1.00  0.00     0.040 A 
ATOM     74  C   UNL A   1      45.441  26.191  36.586  1.00  0.00     0.040 A 
ATOM     75  F   UNL A   1      44.727  28.406  36.480  1.00  0.00    -0.206 F 
ATOM     76  C   UNL A   1      45.484  24.899  36.082  1.00  0.00     0.006 A 
ENDBRANCH  55  69
BRANCH  56  77
ATOM     77  C   UNL A   1      41.913  24.015  27.006  1.00  0.00     0.057 A 
ATOM     78  C   UNL A   1      40.800  23.275  27.443  1.00  0.00     0.134 A 
ATOM     79  C   UNL A   1      42.763  23.365  26.099  1.00  0.00     0.134 A 
ATOM     80  F   UNL A   1      39.968  23.762  28.375  1.00  0.00    -0.206 F 
ATOM     81  C   UNL A   1      40.548  21.969  27.012  1.00  0.00     0.040 A 
ATOM     82  C   UNL A   1      42.525  22.053  25.662  1.00  0.00     0.040 A 
ATOM     83  F   UNL A   1      43.878  23.966  25.660  1.00  0.00    -0.206 F 
ATOM     84  C   UNL A   1      41.419  21.348  26.126  1.00  0.00     0.006 A 
ENDBRANCH  56  77
BRANCH  68  85
ATOM     85  C   UNL A   1      45.624  28.852  28.443  1.00  0.00     0.057 A 
ATOM     86  C   UNL A   1      46.922  28.934  27.929  1.00  0.00     0.134 A 
ATOM     87  C   UNL A   1      44.660  29.698  27.874  1.00  0.00     0.134 A 
ATOM     88  F   UNL A   1      47.908  28.200  28.465  1.00  0.00    -0.206 F 
ATOM     89  C   UNL A   1      47.246  29.804  26.886  1.00  0.00     0.040 A 
ATOM     90  C   UNL A   1      44.963  30.549  26.807  1.00  0.00     0.040 A 
ATOM     91  F   UNL A   1      43.418  29.764  28.370  1.00  0.00    -0.206 F 
ATOM     92  C   UNL A   1      46.263  30.607  26.314  1.00  0.00     0.006 A 
ENDBRANCH  68  85
ENDBRANCH  42  43
ENDBRANCH  34  37
ENDBRANCH  32  33
ENDBRANCH  31  32
ENDBRANCH   1  31
TORSDOF 14
ENDMDL
