MODEL 1
REMARK VINA RESULT:     -11.2      0.000      0.000
REMARK SMILES O=CN[C@@H](Cc1cc(Cl)ccc1[N+](=O)[O-])C(=O)NCCCNC(=O)c1ccc(-c2c3nc(c(-c4c(F)cccc4F)c4ccc([nH]4)c(-c4c(F)cccc4F)c4nc(c(-c5c(F)cccc5F)c5ccc2[nH]5)C=C4)C=C3)cc1
REMARK SMILES IDX 19 1 18 2 16 3 17 4 4 6 3 7 1 8 2 9 5 11 6 12 7 13 12 14
REMARK SMILES IDX 8 15 11 16 9 17 10 18 13 19 14 20 15 21 20 22 21 23 22 24
REMARK SMILES IDX 23 25 24 27 25 28 26 29 78 30 27 31 77 32 28 33 29 34 30 35
REMARK SMILES IDX 71 36 31 37 76 38 70 39 72 40 32 41 75 42 69 43 68 44 33 46
REMARK SMILES IDX 59 47 42 48 58 49 43 50 46 51 57 52 73 53 44 54 45 55 56 57
REMARK SMILES IDX 74 58 47 59 34 60 35 61 40 62 36 63 37 64 39 65 41 66 38 67
REMARK SMILES IDX 60 68 61 69 66 70 62 71 63 72 65 73 67 74 64 75 48 76 49 77
REMARK SMILES IDX 54 78 50 79 51 80 53 81 55 82 52 83
REMARK H PARENT 18 5 3 10 22 26 72 45 46 56
REMARK Flexibility Score: inf
ROOT
ATOM      1  C   UNL A   1      37.006  21.933  24.998  1.00  0.00     0.117 C 
ENDROOT
BRANCH   1   2
ATOM      2  N   UNL A   1      36.092  22.030  26.120  1.00  0.00    -0.354 N 
ATOM      3  C   UNL A   1      34.877  21.450  26.329  1.00  0.00     0.242 C 
ATOM      4  O   UNL A   1      34.433  21.479  27.480  1.00  0.00    -0.273 OA
ATOM      5  H   UNL A   1      36.401  22.610  26.854  1.00  0.00     0.163 HD
BRANCH   3   6
ATOM      6  C   UNL A   1      34.121  20.669  25.237  1.00  0.00     0.175 C 
BRANCH   6   7
ATOM      7  N   UNL A   1      33.400  19.516  25.754  1.00  0.00    -0.347 N 
ATOM      8  O   UNL A   1      32.153  17.657  25.378  1.00  0.00    -0.279 OA
ATOM      9  C   UNL A   1      32.682  18.674  24.952  1.00  0.00     0.337 C 
ATOM     10  H   UNL A   1      33.430  19.335  26.721  1.00  0.00     0.164 HD
ENDBRANCH   6   7
BRANCH   6  11
ATOM     11  C   UNL A   1      33.293  21.560  24.284  1.00  0.00     0.078 C 
BRANCH  11  12
ATOM     12  C   UNL A   1      32.481  22.700  24.870  1.00  0.00     0.034 A 
ATOM     13  C   UNL A   1      31.339  22.386  25.636  1.00  0.00     0.031 A 
ATOM     14  C   UNL A   1      32.804  24.071  24.734  1.00  0.00     0.272 A 
ATOM     15  C   UNL A   1      30.591  23.388  26.268  1.00  0.00     0.041 A 
ATOM     16  C   UNL A   1      32.047  25.077  25.362  1.00  0.00     0.087 A 
ATOM     17  Cl  UNL A   1      29.248  22.953  27.251  1.00  0.00    -0.084 Cl
ATOM     18  C   UNL A   1      30.943  24.729  26.139  1.00  0.00     0.027 A 
BRANCH  14  19
ATOM     19  N   UNL A   1      33.999  24.516  24.026  1.00  0.00     0.062 N 
ATOM     20  O   UNL A   1      35.009  24.711  24.717  1.00  0.00    -0.258 OA
ATOM     21  O   UNL A   1      33.907  24.689  22.806  1.00  0.00    -0.258 OA
ENDBRANCH  14  19
ENDBRANCH  11  12
ENDBRANCH   6  11
ENDBRANCH   3   6
ENDBRANCH   1   2
BRANCH   1  22
ATOM     22  C   UNL A   1      37.863  20.685  25.001  1.00  0.00     0.042 C 
BRANCH  22  23
ATOM     23  C   UNL A   1      38.969  20.716  26.047  1.00  0.00     0.118 C 
BRANCH  23  24
ATOM     24  N   UNL A   1      39.872  19.567  25.979  1.00  0.00    -0.352 N 
ATOM     25  C   UNL A   1      41.247  19.499  26.039  1.00  0.00     0.251 C 
ATOM     26  H   UNL A   1      39.422  18.697  25.874  1.00  0.00     0.163 HD
ATOM     27  O   UNL A   1      41.821  18.450  25.776  1.00  0.00    -0.269 OA
BRANCH  25  28
ATOM     28  C   UNL A   1      42.024  20.709  26.387  1.00  0.00     0.039 A 
ATOM     29  C   UNL A   1      42.460  21.568  25.376  1.00  0.00     0.014 A 
ATOM     30  C   UNL A   1      42.286  21.016  27.721  1.00  0.00     0.014 A 
ATOM     31  C   UNL A   1      43.044  22.793  25.716  1.00  0.00     0.010 A 
ATOM     32  C   UNL A   1      42.744  22.281  28.058  1.00  0.00     0.010 A 
ATOM     33  C   UNL A   1      43.125  23.189  27.061  1.00  0.00    -0.014 A 
BRANCH  33  34
ATOM     34  C   UNL A   1      43.604  24.537  27.471  1.00  0.00     0.031 A 
ATOM     35  C   UNL A   1      42.610  25.573  27.925  1.00  0.00     0.074 A 
ATOM     36  C   UNL A   1      44.904  24.865  27.330  1.00  0.00     0.049 A 
ATOM     37  N   UNL A   1      42.786  26.852  28.142  1.00  0.00    -0.248 NA
ATOM     38  C   UNL A   1      41.222  25.120  28.114  1.00  0.00     0.031 C 
ATOM     39  C   UNL A   1      45.963  23.973  26.849  1.00  0.00     0.029 A 
ATOM     40  N   UNL A   1      45.555  26.051  27.561  1.00  0.00    -0.354 N 
ATOM     41  C   UNL A   1      41.531  27.356  28.459  1.00  0.00     0.074 A 
ATOM     42  C   UNL A   1      40.592  26.261  28.344  1.00  0.00     0.031 C 
ATOM     43  C   UNL A   1      47.132  24.634  26.852  1.00  0.00     0.029 A 
ATOM     44  C   UNL A   1      46.902  26.007  27.287  1.00  0.00     0.049 A 
ATOM     45  H   UNL A   1      45.100  26.858  27.894  1.00  0.00     0.167 HD
ATOM     46  C   UNL A   1      41.191  28.608  28.845  1.00  0.00     0.037 A 
ATOM     47  C   UNL A   1      47.840  26.969  27.368  1.00  0.00     0.037 A 
ATOM     48  C   UNL A   1      42.132  29.683  29.010  1.00  0.00     0.049 A 
ATOM     49  C   UNL A   1      47.440  28.348  27.814  1.00  0.00     0.074 A 
ATOM     50  C   UNL A   1      41.896  30.977  29.439  1.00  0.00     0.029 A 
ATOM     51  N   UNL A   1      43.493  29.579  28.771  1.00  0.00    -0.354 N 
ATOM     52  N   UNL A   1      46.254  28.798  28.146  1.00  0.00    -0.248 NA
ATOM     53  C   UNL A   1      48.509  29.353  27.897  1.00  0.00     0.031 C 
ATOM     54  C   UNL A   1      43.115  31.663  29.442  1.00  0.00     0.029 A 
ATOM     55  C   UNL A   1      44.112  30.787  29.046  1.00  0.00     0.049 A 
ATOM     56  H   UNL A   1      43.951  28.768  28.453  1.00  0.00     0.167 HD
ATOM     57  C   UNL A   1      46.441  30.125  28.512  1.00  0.00     0.074 A 
ATOM     58  C   UNL A   1      47.855  30.404  28.369  1.00  0.00     0.031 C 
ATOM     59  C   UNL A   1      45.525  31.032  28.928  1.00  0.00     0.037 A 
BRANCH  46  60
ATOM     60  C   UNL A   1      39.744  28.869  29.143  1.00  0.00     0.057 A 
ATOM     61  C   UNL A   1      38.847  29.257  28.139  1.00  0.00     0.134 A 
ATOM     62  C   UNL A   1      39.234  28.708  30.437  1.00  0.00     0.134 A 
ATOM     63  F   UNL A   1      39.276  29.445  26.881  1.00  0.00    -0.206 F 
ATOM     64  C   UNL A   1      37.502  29.503  28.415  1.00  0.00     0.040 A 
ATOM     65  C   UNL A   1      37.884  28.923  30.720  1.00  0.00     0.040 A 
ATOM     66  F   UNL A   1      40.037  28.333  31.445  1.00  0.00    -0.206 F 
ATOM     67  C   UNL A   1      37.016  29.328  29.709  1.00  0.00     0.006 A 
ENDBRANCH  46  60
BRANCH  47  68
ATOM     68  C   UNL A   1      49.259  26.666  27.052  1.00  0.00     0.057 A 
ATOM     69  C   UNL A   1      49.732  26.752  25.737  1.00  0.00     0.134 A 
ATOM     70  C   UNL A   1      50.165  26.256  28.037  1.00  0.00     0.134 A 
ATOM     71  F   UNL A   1      48.906  27.121  24.746  1.00  0.00    -0.206 F 
ATOM     72  C   UNL A   1      51.045  26.413  25.407  1.00  0.00     0.040 A 
ATOM     73  C   UNL A   1      51.488  25.938  27.725  1.00  0.00     0.040 A 
ATOM     74  F   UNL A   1      49.776  26.161  29.317  1.00  0.00    -0.206 F 
ATOM     75  C   UNL A   1      51.928  26.007  26.404  1.00  0.00     0.006 A 
ENDBRANCH  47  68
BRANCH  59  76
ATOM     76  C   UNL A   1      46.030  32.389  29.314  1.00  0.00     0.057 A 
ATOM     77  C   UNL A   1      46.461  32.676  30.615  1.00  0.00     0.134 A 
ATOM     78  C   UNL A   1      46.124  33.407  28.357  1.00  0.00     0.134 A 
ATOM     79  F   UNL A   1      46.383  31.746  31.577  1.00  0.00    -0.206 F 
ATOM     80  C   UNL A   1      46.953  33.937  30.955  1.00  0.00     0.040 A 
ATOM     81  C   UNL A   1      46.636  34.664  28.680  1.00  0.00     0.040 A 
ATOM     82  F   UNL A   1      45.733  33.193  27.092  1.00  0.00    -0.206 F 
ATOM     83  C   UNL A   1      47.047  34.933  29.983  1.00  0.00     0.006 A 
ENDBRANCH  59  76
ENDBRANCH  33  34
ENDBRANCH  25  28
ENDBRANCH  23  24
ENDBRANCH  22  23
ENDBRANCH   1  22
TORSDOF 14
ENDMDL
MODEL 2
REMARK VINA RESULT:     -11.2      5.165      9.466
REMARK SMILES O=CN[C@@H](Cc1cc(Cl)ccc1[N+](=O)[O-])C(=O)NCCCNC(=O)c1ccc(-c2c3nc(c(-c4c(F)cccc4F)c4ccc([nH]4)c(-c4c(F)cccc4F)c4nc(c(-c5c(F)cccc5F)c5ccc2[nH]5)C=C4)C=C3)cc1
REMARK SMILES IDX 19 1 18 2 16 3 17 4 4 6 3 7 1 8 2 9 5 11 6 12 7 13 12 14
REMARK SMILES IDX 8 15 11 16 9 17 10 18 13 19 14 20 15 21 20 22 21 23 22 24
REMARK SMILES IDX 23 25 24 27 25 28 26 29 78 30 27 31 77 32 28 33 29 34 30 35
REMARK SMILES IDX 71 36 31 37 76 38 70 39 72 40 32 41 75 42 69 43 68 44 33 46
REMARK SMILES IDX 59 47 42 48 58 49 43 50 46 51 57 52 73 53 44 54 45 55 56 57
REMARK SMILES IDX 74 58 47 59 34 60 35 61 40 62 36 63 37 64 39 65 41 66 38 67
REMARK SMILES IDX 60 68 61 69 66 70 62 71 63 72 65 73 67 74 64 75 48 76 49 77
REMARK SMILES IDX 54 78 50 79 51 80 53 81 55 82 52 83
REMARK H PARENT 18 5 3 10 22 26 72 45 46 56
REMARK Flexibility Score: inf
ROOT
ATOM      1  C   UNL A   1      31.772  30.587  26.273  1.00  0.00     0.117 C 
ENDROOT
BRANCH   1   2
ATOM      2  N   UNL A   1      31.425  30.225  24.911  1.00  0.00    -0.354 N 
ATOM      3  C   UNL A   1      31.452  29.019  24.278  1.00  0.00     0.242 C 
ATOM      4  O   UNL A   1      30.850  28.938  23.204  1.00  0.00    -0.273 OA
ATOM      5  H   UNL A   1      31.119  30.976  24.352  1.00  0.00     0.163 HD
BRANCH   3   6
ATOM      6  C   UNL A   1      32.081  27.758  24.901  1.00  0.00     0.175 C 
BRANCH   6   7
ATOM      7  N   UNL A   1      31.146  26.648  25.008  1.00  0.00    -0.347 N 
ATOM      8  O   UNL A   1      29.948  25.217  26.299  1.00  0.00    -0.279 OA
ATOM      9  C   UNL A   1      30.800  26.088  26.206  1.00  0.00     0.337 C 
ATOM     10  H   UNL A   1      30.747  26.285  24.185  1.00  0.00     0.164 HD
ENDBRANCH   6   7
BRANCH   6  11
ATOM     11  C   UNL A   1      33.453  27.377  24.302  1.00  0.00     0.078 C 
BRANCH  11  12
ATOM     12  C   UNL A   1      33.784  25.909  24.107  1.00  0.00     0.034 A 
ATOM     13  C   UNL A   1      34.443  25.226  25.151  1.00  0.00     0.031 A 
ATOM     14  C   UNL A   1      33.448  25.153  22.959  1.00  0.00     0.272 A 
ATOM     15  C   UNL A   1      34.708  23.852  25.065  1.00  0.00     0.041 A 
ATOM     16  C   UNL A   1      33.722  23.776  22.871  1.00  0.00     0.087 A 
ATOM     17  Cl  UNL A   1      35.449  23.046  26.392  1.00  0.00    -0.084 Cl
ATOM     18  C   UNL A   1      34.346  23.126  23.934  1.00  0.00     0.027 A 
BRANCH  14  19
ATOM     19  N   UNL A   1      32.703  25.731  21.846  1.00  0.00     0.062 N 
ATOM     20  O   UNL A   1      33.369  26.088  20.864  1.00  0.00    -0.258 OA
ATOM     21  O   UNL A   1      31.479  25.843  21.977  1.00  0.00    -0.258 OA
ENDBRANCH  14  19
ENDBRANCH  11  12
ENDBRANCH   6  11
ENDBRANCH   3   6
ENDBRANCH   1   2
BRANCH   1  22
ATOM     22  C   UNL A   1      31.530  32.042  26.609  1.00  0.00     0.042 C 
BRANCH  22  23
ATOM     23  C   UNL A   1      32.706  32.702  27.317  1.00  0.00     0.118 C 
BRANCH  23  24
ATOM     24  N   UNL A   1      32.463  34.097  27.683  1.00  0.00    -0.352 N 
ATOM     25  C   UNL A   1      33.067  34.897  28.628  1.00  0.00     0.251 C 
ATOM     26  H   UNL A   1      31.749  34.538  27.168  1.00  0.00     0.163 HD
ATOM     27  O   UNL A   1      32.588  35.989  28.904  1.00  0.00    -0.269 OA
BRANCH  25  28
ATOM     28  C   UNL A   1      34.277  34.413  29.330  1.00  0.00     0.039 A 
ATOM     29  C   UNL A   1      34.154  33.787  30.573  1.00  0.00     0.014 A 
ATOM     30  C   UNL A   1      35.532  34.542  28.738  1.00  0.00     0.014 A 
ATOM     31  C   UNL A   1      35.273  33.181  31.154  1.00  0.00     0.010 A 
ATOM     32  C   UNL A   1      36.608  33.831  29.249  1.00  0.00     0.010 A 
ATOM     33  C   UNL A   1      36.494  33.138  30.461  1.00  0.00    -0.014 A 
BRANCH  33  34
ATOM     34  C   UNL A   1      37.674  32.386  30.965  1.00  0.00     0.031 A 
ATOM     35  C   UNL A   1      38.436  32.907  32.155  1.00  0.00     0.074 A 
ATOM     36  C   UNL A   1      38.127  31.309  30.293  1.00  0.00     0.049 A 
ATOM     37  N   UNL A   1      39.589  32.519  32.637  1.00  0.00    -0.248 NA
ATOM     38  C   UNL A   1      37.842  34.049  32.871  1.00  0.00     0.031 C 
ATOM     39  C   UNL A   1      37.517  30.731  29.092  1.00  0.00     0.029 A 
ATOM     40  N   UNL A   1      39.225  30.515  30.516  1.00  0.00    -0.354 N 
ATOM     41  C   UNL A   1      39.870  33.387  33.685  1.00  0.00     0.074 A 
ATOM     42  C   UNL A   1      38.800  34.359  33.730  1.00  0.00     0.031 C 
ATOM     43  C   UNL A   1      38.230  29.660  28.707  1.00  0.00     0.029 A 
ATOM     44  C   UNL A   1      39.372  29.502  29.599  1.00  0.00     0.049 A 
ATOM     45  H   UNL A   1      39.849  30.658  31.265  1.00  0.00     0.167 HD
ATOM     46  C   UNL A   1      40.906  33.359  34.556  1.00  0.00     0.037 A 
ATOM     47  C   UNL A   1      40.327  28.559  29.486  1.00  0.00     0.037 A 
ATOM     48  C   UNL A   1      41.942  32.361  34.544  1.00  0.00     0.049 A 
ATOM     49  C   UNL A   1      41.460  28.540  30.475  1.00  0.00     0.074 A 
ATOM     50  C   UNL A   1      43.012  32.218  35.409  1.00  0.00     0.029 A 
ATOM     51  N   UNL A   1      42.022  31.323  33.629  1.00  0.00    -0.354 N 
ATOM     52  N   UNL A   1      41.690  29.346  31.482  1.00  0.00    -0.248 NA
ATOM     53  C   UNL A   1      42.464  27.480  30.310  1.00  0.00     0.031 C 
ATOM     54  C   UNL A   1      43.751  31.102  35.006  1.00  0.00     0.029 A 
ATOM     55  C   UNL A   1      43.123  30.533  33.910  1.00  0.00     0.049 A 
ATOM     56  H   UNL A   1      41.390  31.171  32.889  1.00  0.00     0.167 HD
ATOM     57  C   UNL A   1      42.843  28.868  32.093  1.00  0.00     0.074 A 
ATOM     58  C   UNL A   1      43.259  27.699  31.348  1.00  0.00     0.031 C 
ATOM     59  C   UNL A   1      43.500  29.355  33.174  1.00  0.00     0.037 A 
BRANCH  46  60
ATOM     60  C   UNL A   1      40.950  34.425  35.610  1.00  0.00     0.057 A 
ATOM     61  C   UNL A   1      41.633  35.631  35.407  1.00  0.00     0.134 A 
ATOM     62  C   UNL A   1      40.283  34.259  36.831  1.00  0.00     0.134 A 
ATOM     63  F   UNL A   1      42.305  35.846  34.265  1.00  0.00    -0.206 F 
ATOM     64  C   UNL A   1      41.675  36.622  36.387  1.00  0.00     0.040 A 
ATOM     65  C   UNL A   1      40.295  35.254  37.809  1.00  0.00     0.040 A 
ATOM     66  F   UNL A   1      39.605  33.130  37.090  1.00  0.00    -0.206 F 
ATOM     67  C   UNL A   1      40.998  36.437  37.591  1.00  0.00     0.006 A 
ENDBRANCH  46  60
BRANCH  47  68
ATOM     68  C   UNL A   1      40.248  27.531  28.417  1.00  0.00     0.057 A 
ATOM     69  C   UNL A   1      39.570  26.325  28.634  1.00  0.00     0.134 A 
ATOM     70  C   UNL A   1      40.867  27.707  27.174  1.00  0.00     0.134 A 
ATOM     71  F   UNL A   1      38.973  26.090  29.812  1.00  0.00    -0.206 F 
ATOM     72  C   UNL A   1      39.536  25.319  27.667  1.00  0.00     0.040 A 
ATOM     73  C   UNL A   1      40.819  26.720  26.188  1.00  0.00     0.040 A 
ATOM     74  F   UNL A   1      41.525  28.843  26.901  1.00  0.00    -0.206 F 
ATOM     75  C   UNL A   1      40.159  25.518  26.438  1.00  0.00     0.006 A 
ENDBRANCH  47  68
BRANCH  59  76
ATOM     76  C   UNL A   1      44.699  28.592  33.649  1.00  0.00     0.057 A 
ATOM     77  C   UNL A   1      45.993  28.898  33.209  1.00  0.00     0.134 A 
ATOM     78  C   UNL A   1      44.556  27.565  34.590  1.00  0.00     0.134 A 
ATOM     79  F   UNL A   1      46.191  29.862  32.298  1.00  0.00    -0.206 F 
ATOM     80  C   UNL A   1      47.104  28.196  33.679  1.00  0.00     0.040 A 
ATOM     81  C   UNL A   1      45.662  26.872  35.084  1.00  0.00     0.040 A 
ATOM     82  F   UNL A   1      43.344  27.229  35.055  1.00  0.00    -0.206 F 
ATOM     83  C   UNL A   1      46.940  27.184  34.624  1.00  0.00     0.006 A 
ENDBRANCH  59  76
ENDBRANCH  33  34
ENDBRANCH  25  28
ENDBRANCH  23  24
ENDBRANCH  22  23
ENDBRANCH   1  22
TORSDOF 14
ENDMDL
MODEL 3
REMARK VINA RESULT:     -11.2      2.109      6.593
REMARK SMILES O=CN[C@@H](Cc1cc(Cl)ccc1[N+](=O)[O-])C(=O)NCCCNC(=O)c1ccc(-c2c3nc(c(-c4c(F)cccc4F)c4ccc([nH]4)c(-c4c(F)cccc4F)c4nc(c(-c5c(F)cccc5F)c5ccc2[nH]5)C=C4)C=C3)cc1
REMARK SMILES IDX 19 1 18 2 16 3 17 4 4 6 3 7 1 8 2 9 5 11 6 12 7 13 12 14
REMARK SMILES IDX 8 15 11 16 9 17 10 18 13 19 14 20 15 21 20 22 21 23 22 24
REMARK SMILES IDX 23 25 24 27 25 28 26 29 78 30 27 31 77 32 28 33 29 34 30 35
REMARK SMILES IDX 71 36 31 37 76 38 70 39 72 40 32 41 75 42 69 43 68 44 33 46
REMARK SMILES IDX 59 47 42 48 58 49 43 50 46 51 57 52 73 53 44 54 45 55 56 57
REMARK SMILES IDX 74 58 47 59 34 60 35 61 40 62 36 63 37 64 39 65 41 66 38 67
REMARK SMILES IDX 60 68 61 69 66 70 62 71 63 72 65 73 67 74 64 75 48 76 49 77
REMARK SMILES IDX 54 78 50 79 51 80 53 81 55 82 52 83
REMARK H PARENT 18 5 3 10 22 26 72 45 46 56
REMARK Flexibility Score: inf
ROOT
ATOM      1  C   UNL A   1      36.555  21.043  25.111  1.00  0.00     0.117 C 
ENDROOT
BRANCH   1   2
ATOM      2  N   UNL A   1      36.377  21.923  23.972  1.00  0.00    -0.354 N 
ATOM      3  C   UNL A   1      35.334  22.727  23.625  1.00  0.00     0.242 C 
ATOM      4  O   UNL A   1      35.547  23.576  22.755  1.00  0.00    -0.273 OA
ATOM      5  H   UNL A   1      37.137  21.944  23.346  1.00  0.00     0.163 HD
BRANCH   3   6
ATOM      6  C   UNL A   1      33.975  22.698  24.351  1.00  0.00     0.175 C 
BRANCH   6   7
ATOM      7  N   UNL A   1      33.336  21.391  24.316  1.00  0.00    -0.347 N 
ATOM      8  O   UNL A   1      32.447  19.618  25.419  1.00  0.00    -0.279 OA
ATOM      9  C   UNL A   1      33.064  20.673  25.447  1.00  0.00     0.337 C 
ATOM     10  H   UNL A   1      33.090  21.008  23.443  1.00  0.00     0.164 HD
ENDBRANCH   6   7
BRANCH   6  11
ATOM     11  C   UNL A   1      33.993  23.359  25.747  1.00  0.00     0.078 C 
BRANCH  11  12
ATOM     12  C   UNL A   1      33.230  24.654  25.955  1.00  0.00     0.034 A 
ATOM     13  C   UNL A   1      33.923  25.872  25.800  1.00  0.00     0.031 A 
ATOM     14  C   UNL A   1      31.851  24.735  26.261  1.00  0.00     0.272 A 
ATOM     15  C   UNL A   1      33.259  27.103  25.901  1.00  0.00     0.041 A 
ATOM     16  C   UNL A   1      31.187  25.971  26.371  1.00  0.00     0.087 A 
ATOM     17  Cl  UNL A   1      34.130  28.562  25.635  1.00  0.00    -0.084 Cl
ATOM     18  C   UNL A   1      31.896  27.156  26.181  1.00  0.00     0.027 A 
BRANCH  14  19
ATOM     19  N   UNL A   1      31.013  23.546  26.375  1.00  0.00     0.062 N 
ATOM     20  O   UNL A   1      30.636  23.033  25.312  1.00  0.00    -0.258 OA
ATOM     21  O   UNL A   1      30.725  23.160  27.513  1.00  0.00    -0.258 OA
ENDBRANCH  14  19
ENDBRANCH  11  12
ENDBRANCH   6  11
ENDBRANCH   3   6
ENDBRANCH   1   2
BRANCH   1  22
ATOM     22  C   UNL A   1      37.709  20.074  24.972  1.00  0.00     0.042 C 
BRANCH  22  23
ATOM     23  C   UNL A   1      38.948  20.494  25.752  1.00  0.00     0.118 C 
BRANCH  23  24
ATOM     24  N   UNL A   1      39.979  19.459  25.819  1.00  0.00    -0.352 N 
ATOM     25  C   UNL A   1      41.326  19.547  26.094  1.00  0.00     0.251 C 
ATOM     26  H   UNL A   1      39.656  18.546  25.637  1.00  0.00     0.163 HD
ATOM     27  O   UNL A   1      42.053  18.578  25.918  1.00  0.00    -0.269 OA
BRANCH  25  28
ATOM     28  C   UNL A   1      41.893  20.829  26.570  1.00  0.00     0.039 A 
ATOM     29  C   UNL A   1      42.339  21.775  25.644  1.00  0.00     0.014 A 
ATOM     30  C   UNL A   1      41.943  21.112  27.933  1.00  0.00     0.014 A 
ATOM     31  C   UNL A   1      42.714  23.049  26.086  1.00  0.00     0.010 A 
ATOM     32  C   UNL A   1      42.190  22.410  28.356  1.00  0.00     0.010 A 
ATOM     33  C   UNL A   1      42.574  23.397  27.440  1.00  0.00    -0.014 A 
BRANCH  33  34
ATOM     34  C   UNL A   1      42.822  24.776  27.941  1.00  0.00     0.031 A 
ATOM     35  C   UNL A   1      44.208  25.173  28.373  1.00  0.00     0.074 A 
ATOM     36  C   UNL A   1      41.791  25.628  28.114  1.00  0.00     0.049 A 
ATOM     37  N   UNL A   1      44.604  26.246  29.010  1.00  0.00    -0.248 NA
ATOM     38  C   UNL A   1      45.289  24.212  28.093  1.00  0.00     0.031 C 
ATOM     39  C   UNL A   1      40.389  25.351  27.789  1.00  0.00     0.029 A 
ATOM     40  N   UNL A   1      41.762  26.900  28.628  1.00  0.00    -0.354 N 
ATOM     41  C   UNL A   1      45.964  26.072  29.233  1.00  0.00     0.074 A 
ATOM     42  C   UNL A   1      46.314  24.765  28.722  1.00  0.00     0.031 C 
ATOM     43  C   UNL A   1      39.647  26.431  28.081  1.00  0.00     0.029 A 
ATOM     44  C   UNL A   1      40.506  27.458  28.658  1.00  0.00     0.049 A 
ATOM     45  H   UNL A   1      42.567  27.371  28.945  1.00  0.00     0.167 HD
ATOM     46  C   UNL A   1      46.851  26.934  29.783  1.00  0.00     0.037 A 
ATOM     47  C   UNL A   1      40.095  28.658  29.109  1.00  0.00     0.037 A 
ATOM     48  C   UNL A   1      46.513  28.253  30.243  1.00  0.00     0.049 A 
ATOM     49  C   UNL A   1      41.103  29.604  29.702  1.00  0.00     0.074 A 
ATOM     50  C   UNL A   1      47.346  29.221  30.775  1.00  0.00     0.029 A 
ATOM     51  N   UNL A   1      45.238  28.796  30.206  1.00  0.00    -0.354 N 
ATOM     52  N   UNL A   1      42.392  29.437  29.871  1.00  0.00    -0.248 NA
ATOM     53  C   UNL A   1      40.598  30.904  30.165  1.00  0.00     0.031 C 
ATOM     54  C   UNL A   1      46.571  30.345  31.078  1.00  0.00     0.029 A 
ATOM     55  C   UNL A   1      45.262  30.087  30.704  1.00  0.00     0.049 A 
ATOM     56  H   UNL A   1      44.436  28.332  29.875  1.00  0.00     0.167 HD
ATOM     57  C   UNL A   1      42.857  30.624  30.424  1.00  0.00     0.074 A 
ATOM     58  C   UNL A   1      41.715  31.503  30.555  1.00  0.00     0.031 C 
ATOM     59  C   UNL A   1      44.118  30.955  30.794  1.00  0.00     0.037 A 
BRANCH  46  60
ATOM     60  C   UNL A   1      48.278  26.482  29.885  1.00  0.00     0.057 A 
ATOM     61  C   UNL A   1      49.212  26.769  28.881  1.00  0.00     0.134 A 
ATOM     62  C   UNL A   1      48.733  25.778  31.007  1.00  0.00     0.134 A 
ATOM     63  F   UNL A   1      48.837  27.426  27.773  1.00  0.00    -0.206 F 
ATOM     64  C   UNL A   1      50.539  26.348  28.974  1.00  0.00     0.040 A 
ATOM     65  C   UNL A   1      50.064  25.375  31.125  1.00  0.00     0.040 A 
ATOM     66  F   UNL A   1      47.893  25.474  32.009  1.00  0.00    -0.206 F 
ATOM     67  C   UNL A   1      50.969  25.655  30.103  1.00  0.00     0.006 A 
ENDBRANCH  46  60
BRANCH  47  68
ATOM     68  C   UNL A   1      38.669  29.057  28.997  1.00  0.00     0.057 A 
ATOM     69  C   UNL A   1      38.161  29.564  27.794  1.00  0.00     0.134 A 
ATOM     70  C   UNL A   1      37.790  28.975  30.083  1.00  0.00     0.134 A 
ATOM     71  F   UNL A   1      38.959  29.684  26.723  1.00  0.00    -0.206 F 
ATOM     72  C   UNL A   1      36.841  30.002  27.684  1.00  0.00     0.040 A 
ATOM     73  C   UNL A   1      36.460  29.387  29.980  1.00  0.00     0.040 A 
ATOM     74  F   UNL A   1      38.213  28.491  31.261  1.00  0.00    -0.206 F 
ATOM     75  C   UNL A   1      35.985  29.911  28.779  1.00  0.00     0.006 A 
ENDBRANCH  47  68
BRANCH  59  76
ATOM     76  C   UNL A   1      44.337  32.343  31.317  1.00  0.00     0.057 A 
ATOM     77  C   UNL A   1      44.264  32.639  32.683  1.00  0.00     0.134 A 
ATOM     78  C   UNL A   1      44.667  33.384  30.441  1.00  0.00     0.134 A 
ATOM     79  F   UNL A   1      43.939  31.686  33.568  1.00  0.00    -0.206 F 
ATOM     80  C   UNL A   1      44.495  33.930  33.159  1.00  0.00     0.040 A 
ATOM     81  C   UNL A   1      44.923  34.674  30.907  1.00  0.00     0.040 A 
ATOM     82  F   UNL A   1      44.759  33.163  29.121  1.00  0.00    -0.206 F 
ATOM     83  C   UNL A   1      44.831  34.950  32.270  1.00  0.00     0.006 A 
ENDBRANCH  59  76
ENDBRANCH  33  34
ENDBRANCH  25  28
ENDBRANCH  23  24
ENDBRANCH  22  23
ENDBRANCH   1  22
TORSDOF 14
ENDMDL
