MODEL 1
REMARK VINA RESULT:     -10.7      0.000      0.000
REMARK SMILES O=C(C[C@@H]1CN(C(=O)N2CCC[C@H]2CO)CCO1)NCCCNC(=O)c1ccc(-c2c3nc(c(-c4c(F)cccc4F)c4ccc([nH]4)c(-c4c(F)cccc4F)c4nc(c(-c5c(F)cccc5F)c5ccc2[nH]5)C=C4)C=C3)cc1
REMARK SMILES IDX 1 1 2 2 19 3 3 5 4 6 5 7 18 8 6 9 17 10 16 11 7 12 8 13 9 14
REMARK SMILES IDX 10 15 13 16 11 17 12 18 14 19 15 20 20 22 21 23 22 24 23 25
REMARK SMILES IDX 24 26 25 28 26 29 27 30 79 31 28 32 78 33 29 34 30 35 31 36
REMARK SMILES IDX 72 37 32 38 77 39 71 40 73 41 33 42 76 43 70 44 69 45 34 47
REMARK SMILES IDX 60 48 43 49 59 50 44 51 47 52 58 53 74 54 45 55 46 56 57 58
REMARK SMILES IDX 75 59 48 60 35 61 36 62 41 63 37 64 38 65 40 66 42 67 39 68
REMARK SMILES IDX 61 69 62 70 67 71 63 72 64 73 66 74 68 75 65 76 49 77 50 78
REMARK SMILES IDX 55 79 51 80 52 81 54 82 56 83 53 84
REMARK H PARENT 19 4 15 21 23 27 73 46 47 57
REMARK Flexibility Score: inf
ROOT
ATOM      1  O   UNL A   1      35.669  22.962  22.734  1.00  0.00    -0.275 OA
ATOM      2  C   UNL A   1      35.244  22.362  23.718  1.00  0.00     0.222 C 
ATOM      3  N   UNL A   1      36.042  21.751  24.651  1.00  0.00    -0.356 N 
ATOM      4  H   UNL A   1      35.600  21.267  25.386  1.00  0.00     0.163 HD
ENDROOT
BRANCH   2   5
ATOM      5  C   UNL A   1      33.772  22.324  24.067  1.00  0.00     0.133 C 
BRANCH   5   6
ATOM      6  C   UNL A   1      33.191  23.702  24.378  1.00  0.00     0.147 C 
ATOM      7  C   UNL A   1      32.789  24.405  23.073  1.00  0.00     0.154 C 
ATOM      8  O   UNL A   1      34.182  24.526  25.042  1.00  0.00    -0.374 OA
ATOM      9  N   UNL A   1      32.227  25.727  23.360  1.00  0.00    -0.320 N 
ATOM     10  C   UNL A   1      33.609  25.799  25.406  1.00  0.00     0.182 C 
ATOM     11  C   UNL A   1      33.110  26.562  24.176  1.00  0.00     0.150 C 
BRANCH   9  12
ATOM     12  C   UNL A   1      31.339  26.352  22.510  1.00  0.00     0.320 C 
ATOM     13  O   UNL A   1      31.540  26.387  21.295  1.00  0.00    -0.248 OA
BRANCH  12  14
ATOM     14  N   UNL A   1      30.215  26.906  23.061  1.00  0.00    -0.319 N 
ATOM     15  C   UNL A   1      29.453  26.458  24.213  1.00  0.00     0.122 C 
ATOM     16  C   UNL A   1      29.661  28.164  22.561  1.00  0.00     0.112 C 
ATOM     17  C   UNL A   1      28.043  26.871  23.840  1.00  0.00     0.024 C 
ATOM     18  C   UNL A   1      28.260  28.243  23.204  1.00  0.00     0.029 C 
BRANCH  16  19
ATOM     19  C   UNL A   1      30.518  29.400  22.893  1.00  0.00     0.181 C 
BRANCH  19  20
ATOM     20  O   UNL A   1      30.961  30.057  21.706  1.00  0.00    -0.394 OA
ATOM     21  H   UNL A   1      30.198  30.430  21.240  1.00  0.00     0.210 HD
ENDBRANCH  19  20
ENDBRANCH  16  19
ENDBRANCH  12  14
ENDBRANCH   9  12
ENDBRANCH   5   6
ENDBRANCH   2   5
BRANCH   3  22
ATOM     22  C   UNL A   1      37.486  21.769  24.631  1.00  0.00     0.117 C 
BRANCH  22  23
ATOM     23  C   UNL A   1      38.076  20.371  24.798  1.00  0.00     0.042 C 
BRANCH  23  24
ATOM     24  C   UNL A   1      38.904  20.168  26.066  1.00  0.00     0.118 C 
BRANCH  24  25
ATOM     25  N   UNL A   1      40.056  19.299  25.875  1.00  0.00    -0.352 N 
ATOM     26  C   UNL A   1      41.396  19.546  26.034  1.00  0.00     0.251 C 
ATOM     27  H   UNL A   1      39.838  18.384  25.585  1.00  0.00     0.163 HD
ATOM     28  O   UNL A   1      42.212  18.683  25.703  1.00  0.00    -0.269 OA
BRANCH  26  29
ATOM     29  C   UNL A   1      41.885  20.839  26.566  1.00  0.00     0.039 A 
ATOM     30  C   UNL A   1      42.279  21.827  25.657  1.00  0.00     0.014 A 
ATOM     31  C   UNL A   1      41.997  21.077  27.938  1.00  0.00     0.014 A 
ATOM     32  C   UNL A   1      42.717  23.072  26.120  1.00  0.00     0.010 A 
ATOM     33  C   UNL A   1      42.372  22.341  28.399  1.00  0.00     0.010 A 
ATOM     34  C   UNL A   1      42.730  23.353  27.495  1.00  0.00    -0.014 A 
BRANCH  34  35
ATOM     35  C   UNL A   1      43.101  24.703  27.999  1.00  0.00     0.031 A 
ATOM     36  C   UNL A   1      42.043  25.739  28.266  1.00  0.00     0.074 A 
ATOM     37  C   UNL A   1      44.400  25.020  28.161  1.00  0.00     0.049 A 
ATOM     38  N   UNL A   1      42.183  26.986  28.642  1.00  0.00    -0.248 NA
ATOM     39  C   UNL A   1      40.646  25.327  28.062  1.00  0.00     0.031 C 
ATOM     40  C   UNL A   1      45.529  24.125  27.898  1.00  0.00     0.029 A 
ATOM     41  N   UNL A   1      44.993  26.187  28.576  1.00  0.00    -0.354 N 
ATOM     42  C   UNL A   1      40.897  27.510  28.704  1.00  0.00     0.074 A 
ATOM     43  C   UNL A   1      39.994  26.459  28.284  1.00  0.00     0.031 C 
ATOM     44  C   UNL A   1      46.674  24.768  28.176  1.00  0.00     0.029 A 
ATOM     45  C   UNL A   1      46.365  26.130  28.601  1.00  0.00     0.049 A 
ATOM     46  H   UNL A   1      44.482  26.989  28.831  1.00  0.00     0.167 HD
ATOM     47  C   UNL A   1      40.502  28.746  29.094  1.00  0.00     0.037 A 
ATOM     48  C   UNL A   1      47.274  27.069  28.923  1.00  0.00     0.037 A 
ATOM     49  C   UNL A   1      41.395  29.785  29.535  1.00  0.00     0.049 A 
ATOM     50  C   UNL A   1      46.811  28.433  29.351  1.00  0.00     0.074 A 
ATOM     51  C   UNL A   1      41.082  31.051  30.003  1.00  0.00     0.029 A 
ATOM     52  N   UNL A   1      42.778  29.681  29.566  1.00  0.00    -0.354 N 
ATOM     53  N   UNL A   1      45.590  28.894  29.462  1.00  0.00    -0.248 NA
ATOM     54  C   UNL A   1      47.854  29.405  29.706  1.00  0.00     0.031 C 
ATOM     55  C   UNL A   1      42.276  31.725  30.281  1.00  0.00     0.029 A 
ATOM     56  C   UNL A   1      43.332  30.864  30.027  1.00  0.00     0.049 A 
ATOM     57  H   UNL A   1      43.290  28.884  29.299  1.00  0.00     0.167 HD
ATOM     58  C   UNL A   1      45.715  30.197  29.924  1.00  0.00     0.074 A 
ATOM     59  C   UNL A   1      47.132  30.450  30.086  1.00  0.00     0.031 C 
ATOM     60  C   UNL A   1      44.743  31.103  30.191  1.00  0.00     0.037 A 
BRANCH  47  61
ATOM     61  C   UNL A   1      39.031  29.044  29.061  1.00  0.00     0.057 A 
ATOM     62  C   UNL A   1      38.228  28.914  30.202  1.00  0.00     0.134 A 
ATOM     63  C   UNL A   1      38.418  29.501  27.889  1.00  0.00     0.134 A 
ATOM     64  F   UNL A   1      38.752  28.470  31.355  1.00  0.00    -0.206 F 
ATOM     65  C   UNL A   1      36.863  29.204  30.171  1.00  0.00     0.040 A 
ATOM     66  C   UNL A   1      37.060  29.819  27.851  1.00  0.00     0.040 A 
ATOM     67  F   UNL A   1      39.131  29.655  26.762  1.00  0.00    -0.206 F 
ATOM     68  C   UNL A   1      36.277  29.665  28.993  1.00  0.00     0.006 A 
ENDBRANCH  47  61
BRANCH  48  69
ATOM     69  C   UNL A   1      48.723  26.747  28.874  1.00  0.00     0.057 A 
ATOM     70  C   UNL A   1      49.479  27.004  27.724  1.00  0.00     0.134 A 
ATOM     71  C   UNL A   1      49.381  26.168  29.965  1.00  0.00     0.134 A 
ATOM     72  F   UNL A   1      48.897  27.537  26.641  1.00  0.00    -0.206 F 
ATOM     73  C   UNL A   1      50.834  26.681  27.654  1.00  0.00     0.040 A 
ATOM     74  C   UNL A   1      50.742  25.861  29.917  1.00  0.00     0.040 A 
ATOM     75  F   UNL A   1      48.712  25.903  31.097  1.00  0.00    -0.206 F 
ATOM     76  C   UNL A   1      51.471  26.111  28.756  1.00  0.00     0.006 A 
ENDBRANCH  48  69
BRANCH  60  77
ATOM     77  C   UNL A   1      45.176  32.438  30.721  1.00  0.00     0.057 A 
ATOM     78  C   UNL A   1      45.339  32.672  32.092  1.00  0.00     0.134 A 
ATOM     79  C   UNL A   1      45.460  33.494  29.846  1.00  0.00     0.134 A 
ATOM     80  F   UNL A   1      45.071  31.706  32.984  1.00  0.00    -0.206 F 
ATOM     81  C   UNL A   1      45.748  33.917  32.576  1.00  0.00     0.040 A 
ATOM     82  C   UNL A   1      45.892  34.735  30.315  1.00  0.00     0.040 A 
ATOM     83  F   UNL A   1      45.330  33.334  28.520  1.00  0.00    -0.206 F 
ATOM     84  C   UNL A   1      46.031  34.951  31.685  1.00  0.00     0.006 A 
ENDBRANCH  60  77
ENDBRANCH  34  35
ENDBRANCH  26  29
ENDBRANCH  24  25
ENDBRANCH  23  24
ENDBRANCH  22  23
ENDBRANCH   3  22
TORSDOF 15
ENDMDL
MODEL 2
REMARK VINA RESULT:     -10.7      1.805      2.142
REMARK SMILES O=C(C[C@@H]1CN(C(=O)N2CCC[C@H]2CO)CCO1)NCCCNC(=O)c1ccc(-c2c3nc(c(-c4c(F)cccc4F)c4ccc([nH]4)c(-c4c(F)cccc4F)c4nc(c(-c5c(F)cccc5F)c5ccc2[nH]5)C=C4)C=C3)cc1
REMARK SMILES IDX 1 1 2 2 19 3 3 5 4 6 5 7 18 8 6 9 17 10 16 11 7 12 8 13 9 14
REMARK SMILES IDX 10 15 13 16 11 17 12 18 14 19 15 20 20 22 21 23 22 24 23 25
REMARK SMILES IDX 24 26 25 28 26 29 27 30 79 31 28 32 78 33 29 34 30 35 31 36
REMARK SMILES IDX 72 37 32 38 77 39 71 40 73 41 33 42 76 43 70 44 69 45 34 47
REMARK SMILES IDX 60 48 43 49 59 50 44 51 47 52 58 53 74 54 45 55 46 56 57 58
REMARK SMILES IDX 75 59 48 60 35 61 36 62 41 63 37 64 38 65 40 66 42 67 39 68
REMARK SMILES IDX 61 69 62 70 67 71 63 72 64 73 66 74 68 75 65 76 49 77 50 78
REMARK SMILES IDX 55 79 51 80 52 81 54 82 56 83 53 84
REMARK H PARENT 19 4 15 21 23 27 73 46 47 57
REMARK Flexibility Score: inf
ROOT
ATOM      1  O   UNL A   1      34.184  20.217  24.585  1.00  0.00    -0.275 OA
ATOM      2  C   UNL A   1      34.670  20.871  25.504  1.00  0.00     0.222 C 
ATOM      3  N   UNL A   1      35.991  21.233  25.576  1.00  0.00    -0.356 N 
ATOM      4  H   UNL A   1      36.287  21.729  26.374  1.00  0.00     0.163 HD
ENDROOT
BRANCH   2   5
ATOM      5  C   UNL A   1      33.825  21.445  26.621  1.00  0.00     0.133 C 
BRANCH   5   6
ATOM      6  C   UNL A   1      32.900  22.569  26.158  1.00  0.00     0.147 C 
ATOM      7  C   UNL A   1      33.601  23.924  26.329  1.00  0.00     0.154 C 
ATOM      8  O   UNL A   1      31.691  22.586  26.959  1.00  0.00    -0.374 OA
ATOM      9  N   UNL A   1      32.723  25.011  25.886  1.00  0.00    -0.320 N 
ATOM     10  C   UNL A   1      30.785  23.596  26.471  1.00  0.00     0.182 C 
ATOM     11  C   UNL A   1      31.412  24.992  26.535  1.00  0.00     0.150 C 
BRANCH   9  12
ATOM     12  C   UNL A   1      33.214  26.220  25.439  1.00  0.00     0.320 C 
ATOM     13  O   UNL A   1      33.748  27.014  26.213  1.00  0.00    -0.248 OA
BRANCH  12  14
ATOM     14  N   UNL A   1      33.110  26.492  24.101  1.00  0.00    -0.319 N 
ATOM     15  C   UNL A   1      32.412  25.740  23.073  1.00  0.00     0.122 C 
ATOM     16  C   UNL A   1      33.664  27.717  23.527  1.00  0.00     0.112 C 
ATOM     17  C   UNL A   1      33.279  25.990  21.854  1.00  0.00     0.024 C 
ATOM     18  C   UNL A   1      33.635  27.469  22.003  1.00  0.00     0.029 C 
BRANCH  16  19
ATOM     19  C   UNL A   1      32.895  28.993  23.917  1.00  0.00     0.181 C 
BRANCH  19  20
ATOM     20  O   UNL A   1      33.562  29.702  24.960  1.00  0.00    -0.394 OA
ATOM     21  H   UNL A   1      33.889  30.548  24.619  1.00  0.00     0.210 HD
ENDBRANCH  19  20
ENDBRANCH  16  19
ENDBRANCH  12  14
ENDBRANCH   9  12
ENDBRANCH   5   6
ENDBRANCH   2   5
BRANCH   3  22
ATOM     22  C   UNL A   1      36.977  20.937  24.564  1.00  0.00     0.117 C 
BRANCH  22  23
ATOM     23  C   UNL A   1      37.839  19.736  24.941  1.00  0.00     0.042 C 
BRANCH  23  24
ATOM     24  C   UNL A   1      38.978  20.039  25.913  1.00  0.00     0.118 C 
BRANCH  24  25
ATOM     25  N   UNL A   1      40.068  19.076  25.851  1.00  0.00    -0.352 N 
ATOM     26  C   UNL A   1      41.420  19.248  26.007  1.00  0.00     0.251 C 
ATOM     27  H   UNL A   1      39.789  18.150  25.668  1.00  0.00     0.163 HD
ATOM     28  O   UNL A   1      42.176  18.296  25.797  1.00  0.00    -0.269 OA
BRANCH  26  29
ATOM     29  C   UNL A   1      41.994  20.558  26.391  1.00  0.00     0.039 A 
ATOM     30  C   UNL A   1      42.364  21.446  25.375  1.00  0.00     0.014 A 
ATOM     31  C   UNL A   1      42.206  20.907  27.726  1.00  0.00     0.014 A 
ATOM     32  C   UNL A   1      42.879  22.705  25.698  1.00  0.00     0.010 A 
ATOM     33  C   UNL A   1      42.659  22.188  28.049  1.00  0.00     0.010 A 
ATOM     34  C   UNL A   1      42.996  23.102  27.039  1.00  0.00    -0.014 A 
BRANCH  34  35
ATOM     35  C   UNL A   1      43.451  24.472  27.398  1.00  0.00     0.031 A 
ATOM     36  C   UNL A   1      42.463  25.519  27.836  1.00  0.00     0.074 A 
ATOM     37  C   UNL A   1      44.753  24.796  27.271  1.00  0.00     0.049 A 
ATOM     38  N   UNL A   1      42.667  26.781  28.122  1.00  0.00    -0.248 NA
ATOM     39  C   UNL A   1      41.058  25.098  27.945  1.00  0.00     0.031 C 
ATOM     40  C   UNL A   1      45.809  23.890  26.815  1.00  0.00     0.029 A 
ATOM     41  N   UNL A   1      45.409  25.980  27.504  1.00  0.00    -0.354 N 
ATOM     42  C   UNL A   1      41.418  27.307  28.429  1.00  0.00     0.074 A 
ATOM     43  C   UNL A   1      40.457  26.239  28.251  1.00  0.00     0.031 C 
ATOM     44  C   UNL A   1      46.981  24.545  26.821  1.00  0.00     0.029 A 
ATOM     45  C   UNL A   1      46.756  25.924  27.244  1.00  0.00     0.049 A 
ATOM     46  H   UNL A   1      44.955  26.792  27.826  1.00  0.00     0.167 HD
ATOM     47  C   UNL A   1      41.102  28.558  28.840  1.00  0.00     0.037 A 
ATOM     48  C   UNL A   1      47.704  26.876  27.329  1.00  0.00     0.037 A 
ATOM     49  C   UNL A   1      42.058  29.616  29.042  1.00  0.00     0.049 A 
ATOM     50  C   UNL A   1      47.328  28.257  27.787  1.00  0.00     0.074 A 
ATOM     51  C   UNL A   1      41.838  30.901  29.512  1.00  0.00     0.029 A 
ATOM     52  N   UNL A   1      43.418  29.513  28.788  1.00  0.00    -0.354 N 
ATOM     53  N   UNL A   1      46.153  28.722  28.131  1.00  0.00    -0.248 NA
ATOM     54  C   UNL A   1      48.414  29.244  27.875  1.00  0.00     0.031 C 
ATOM     55  C   UNL A   1      43.058  31.586  29.505  1.00  0.00     0.029 A 
ATOM     56  C   UNL A   1      44.045  30.715  29.072  1.00  0.00     0.049 A 
ATOM     57  H   UNL A   1      43.870  28.706  28.452  1.00  0.00     0.167 HD
ATOM     58  C   UNL A   1      46.361  30.044  28.502  1.00  0.00     0.074 A 
ATOM     59  C   UNL A   1      47.777  30.304  28.354  1.00  0.00     0.031 C 
ATOM     60  C   UNL A   1      45.457  30.961  28.928  1.00  0.00     0.037 A 
BRANCH  47  61
ATOM     61  C   UNL A   1      39.654  28.855  29.104  1.00  0.00     0.057 A 
ATOM     62  C   UNL A   1      39.094  28.714  30.381  1.00  0.00     0.134 A 
ATOM     63  C   UNL A   1      38.821  29.322  28.080  1.00  0.00     0.134 A 
ATOM     64  F   UNL A   1      39.836  28.260  31.402  1.00  0.00    -0.206 F 
ATOM     65  C   UNL A   1      37.750  29.002  30.623  1.00  0.00     0.040 A 
ATOM     66  C   UNL A   1      37.482  29.639  28.316  1.00  0.00     0.040 A 
ATOM     67  F   UNL A   1      39.296  29.487  26.836  1.00  0.00    -0.206 F 
ATOM     68  C   UNL A   1      36.942  29.473  29.590  1.00  0.00     0.006 A 
ENDBRANCH  47  61
BRANCH  48  69
ATOM     69  C   UNL A   1      49.113  26.552  26.992  1.00  0.00     0.057 A 
ATOM     70  C   UNL A   1      49.577  26.641  25.674  1.00  0.00     0.134 A 
ATOM     71  C   UNL A   1      50.023  26.137  27.971  1.00  0.00     0.134 A 
ATOM     72  F   UNL A   1      48.745  27.012  24.691  1.00  0.00    -0.206 F 
ATOM     73  C   UNL A   1      50.891  26.313  25.338  1.00  0.00     0.040 A 
ATOM     74  C   UNL A   1      51.347  25.829  27.653  1.00  0.00     0.040 A 
ATOM     75  F   UNL A   1      49.641  26.038  29.252  1.00  0.00    -0.206 F 
ATOM     76  C   UNL A   1      51.782  25.909  26.332  1.00  0.00     0.006 A 
ENDBRANCH  48  69
BRANCH  60  77
ATOM     77  C   UNL A   1      45.980  32.317  29.300  1.00  0.00     0.057 A 
ATOM     78  C   UNL A   1      46.413  32.613  30.598  1.00  0.00     0.134 A 
ATOM     79  C   UNL A   1      46.075  33.332  28.339  1.00  0.00     0.134 A 
ATOM     80  F   UNL A   1      46.336  31.689  31.568  1.00  0.00    -0.206 F 
ATOM     81  C   UNL A   1      46.903  33.877  30.933  1.00  0.00     0.040 A 
ATOM     82  C   UNL A   1      46.584  34.592  28.655  1.00  0.00     0.040 A 
ATOM     83  F   UNL A   1      45.682  33.112  27.075  1.00  0.00    -0.206 F 
ATOM     84  C   UNL A   1      46.994  34.868  29.958  1.00  0.00     0.006 A 
ENDBRANCH  60  77
ENDBRANCH  34  35
ENDBRANCH  26  29
ENDBRANCH  24  25
ENDBRANCH  23  24
ENDBRANCH  22  23
ENDBRANCH   3  22
TORSDOF 15
ENDMDL
MODEL 3
REMARK VINA RESULT:     -10.6      0.941      6.371
REMARK SMILES O=C(C[C@@H]1CN(C(=O)N2CCC[C@H]2CO)CCO1)NCCCNC(=O)c1ccc(-c2c3nc(c(-c4c(F)cccc4F)c4ccc([nH]4)c(-c4c(F)cccc4F)c4nc(c(-c5c(F)cccc5F)c5ccc2[nH]5)C=C4)C=C3)cc1
REMARK SMILES IDX 1 1 2 2 19 3 3 5 4 6 5 7 18 8 6 9 17 10 16 11 7 12 8 13 9 14
REMARK SMILES IDX 10 15 13 16 11 17 12 18 14 19 15 20 20 22 21 23 22 24 23 25
REMARK SMILES IDX 24 26 25 28 26 29 27 30 79 31 28 32 78 33 29 34 30 35 31 36
REMARK SMILES IDX 72 37 32 38 77 39 71 40 73 41 33 42 76 43 70 44 69 45 34 47
REMARK SMILES IDX 60 48 43 49 59 50 44 51 47 52 58 53 74 54 45 55 46 56 57 58
REMARK SMILES IDX 75 59 48 60 35 61 36 62 41 63 37 64 38 65 40 66 42 67 39 68
REMARK SMILES IDX 61 69 62 70 67 71 63 72 64 73 66 74 68 75 65 76 49 77 50 78
REMARK SMILES IDX 55 79 51 80 52 81 54 82 56 83 53 84
REMARK H PARENT 19 4 15 21 23 27 73 46 47 57
REMARK Flexibility Score: inf
ROOT
ATOM      1  O   UNL A   1      35.848  24.132  24.819  1.00  0.00    -0.275 OA
ATOM      2  C   UNL A   1      35.576  23.102  24.208  1.00  0.00     0.222 C 
ATOM      3  N   UNL A   1      36.365  21.980  24.202  1.00  0.00    -0.356 N 
ATOM      4  H   UNL A   1      36.073  21.217  23.652  1.00  0.00     0.163 HD
ENDROOT
BRANCH   2   5
ATOM      5  C   UNL A   1      34.268  22.923  23.470  1.00  0.00     0.133 C 
BRANCH   5   6
ATOM      6  C   UNL A   1      33.679  24.237  22.961  1.00  0.00     0.147 C 
ATOM      7  C   UNL A   1      32.362  24.536  23.692  1.00  0.00     0.154 C 
ATOM      8  O   UNL A   1      33.392  24.143  21.543  1.00  0.00    -0.374 OA
ATOM      9  N   UNL A   1      31.789  25.797  23.214  1.00  0.00    -0.320 N 
ATOM     10  C   UNL A   1      32.910  25.409  21.047  1.00  0.00     0.182 C 
ATOM     11  C   UNL A   1      31.625  25.839  21.760  1.00  0.00     0.150 C 
BRANCH   9  12
ATOM     12  C   UNL A   1      30.946  26.565  23.989  1.00  0.00     0.320 C 
ATOM     13  O   UNL A   1      29.918  26.091  24.472  1.00  0.00    -0.248 OA
BRANCH  12  14
ATOM     14  N   UNL A   1      31.309  27.865  24.224  1.00  0.00    -0.319 N 
ATOM     15  C   UNL A   1      32.593  28.385  24.657  1.00  0.00     0.122 C 
ATOM     16  C   UNL A   1      30.391  28.972  23.959  1.00  0.00     0.112 C 
ATOM     17  C   UNL A   1      32.184  29.587  25.486  1.00  0.00     0.024 C 
ATOM     18  C   UNL A   1      31.044  30.182  24.662  1.00  0.00     0.029 C 
BRANCH  16  19
ATOM     19  C   UNL A   1      30.147  29.238  22.463  1.00  0.00     0.181 C 
BRANCH  19  20
ATOM     20  O   UNL A   1      31.238  29.947  21.878  1.00  0.00    -0.394 OA
ATOM     21  H   UNL A   1      31.175  29.898  20.912  1.00  0.00     0.210 HD
ENDBRANCH  19  20
ENDBRANCH  16  19
ENDBRANCH  12  14
ENDBRANCH   9  12
ENDBRANCH   5   6
ENDBRANCH   2   5
BRANCH   3  22
ATOM     22  C   UNL A   1      37.594  21.839  24.948  1.00  0.00     0.117 C 
BRANCH  22  23
ATOM     23  C   UNL A   1      38.129  20.411  24.902  1.00  0.00     0.042 C 
BRANCH  23  24
ATOM     24  C   UNL A   1      38.932  19.982  26.129  1.00  0.00     0.118 C 
BRANCH  24  25
ATOM     25  N   UNL A   1      40.137  19.234  25.804  1.00  0.00    -0.352 N 
ATOM     26  C   UNL A   1      41.457  19.602  25.856  1.00  0.00     0.251 C 
ATOM     27  H   UNL A   1      39.978  18.311  25.498  1.00  0.00     0.163 HD
ATOM     28  O   UNL A   1      42.315  18.831  25.420  1.00  0.00    -0.269 OA
BRANCH  26  29
ATOM     29  C   UNL A   1      41.872  20.917  26.395  1.00  0.00     0.039 A 
ATOM     30  C   UNL A   1      42.268  21.911  25.494  1.00  0.00     0.014 A 
ATOM     31  C   UNL A   1      41.912  21.172  27.768  1.00  0.00     0.014 A 
ATOM     32  C   UNL A   1      42.636  23.176  25.963  1.00  0.00     0.010 A 
ATOM     33  C   UNL A   1      42.217  22.454  28.231  1.00  0.00     0.010 A 
ATOM     34  C   UNL A   1      42.577  23.471  27.334  1.00  0.00    -0.014 A 
BRANCH  34  35
ATOM     35  C   UNL A   1      42.872  24.838  27.839  1.00  0.00     0.031 A 
ATOM     36  C   UNL A   1      44.284  25.252  28.154  1.00  0.00     0.074 A 
ATOM     37  C   UNL A   1      41.859  25.695  28.074  1.00  0.00     0.049 A 
ATOM     38  N   UNL A   1      44.722  26.376  28.664  1.00  0.00    -0.248 NA
ATOM     39  C   UNL A   1      45.339  24.265  27.880  1.00  0.00     0.031 C 
ATOM     40  C   UNL A   1      40.440  25.407  27.853  1.00  0.00     0.029 A 
ATOM     41  N   UNL A   1      41.865  26.979  28.560  1.00  0.00    -0.354 N 
ATOM     42  C   UNL A   1      46.098  26.226  28.787  1.00  0.00     0.074 A 
ATOM     43  C   UNL A   1      46.416  24.886  28.339  1.00  0.00     0.031 C 
ATOM     44  C   UNL A   1      39.717  26.489  28.184  1.00  0.00     0.029 A 
ATOM     45  C   UNL A   1      40.613  27.532  28.673  1.00  0.00     0.049 A 
ATOM     46  H   UNL A   1      42.690  27.458  28.803  1.00  0.00     0.167 HD
ATOM     47  C   UNL A   1      47.016  27.126  29.214  1.00  0.00     0.037 A 
ATOM     48  C   UNL A   1      40.227  28.739  29.127  1.00  0.00     0.037 A 
ATOM     49  C   UNL A   1      46.707  28.467  29.636  1.00  0.00     0.049 A 
ATOM     50  C   UNL A   1      41.264  29.720  29.597  1.00  0.00     0.074 A 
ATOM     51  C   UNL A   1      47.577  29.470  30.032  1.00  0.00     0.029 A 
ATOM     52  N   UNL A   1      45.427  28.996  29.717  1.00  0.00    -0.354 N 
ATOM     53  N   UNL A   1      42.566  29.584  29.650  1.00  0.00    -0.248 NA
ATOM     54  C   UNL A   1      40.777  31.026  30.063  1.00  0.00     0.031 C 
ATOM     55  C   UNL A   1      46.821  30.592  30.389  1.00  0.00     0.029 A 
ATOM     56  C   UNL A   1      45.483  30.302  30.174  1.00  0.00     0.049 A 
ATOM     57  H   UNL A   1      44.601  28.513  29.487  1.00  0.00     0.167 HD
ATOM     58  C   UNL A   1      43.055  30.793  30.128  1.00  0.00     0.074 A 
ATOM     59  C   UNL A   1      41.911  31.656  30.336  1.00  0.00     0.031 C 
ATOM     60  C   UNL A   1      44.339  31.155  30.371  1.00  0.00     0.037 A 
BRANCH  47  61
ATOM     61  C   UNL A   1      48.452  26.688  29.244  1.00  0.00     0.057 A 
ATOM     62  C   UNL A   1      49.323  26.944  28.177  1.00  0.00     0.134 A 
ATOM     63  C   UNL A   1      48.979  26.039  30.367  1.00  0.00     0.134 A 
ATOM     64  F   UNL A   1      48.877  27.553  27.068  1.00  0.00    -0.206 F 
ATOM     65  C   UNL A   1      50.660  26.547  28.215  1.00  0.00     0.040 A 
ATOM     66  C   UNL A   1      50.321  25.660  30.428  1.00  0.00     0.040 A 
ATOM     67  F   UNL A   1      48.202  25.770  31.427  1.00  0.00    -0.206 F 
ATOM     68  C   UNL A   1      51.164  25.908  29.346  1.00  0.00     0.006 A 
ENDBRANCH  47  61
BRANCH  48  69
ATOM     69  C   UNL A   1      38.787  29.101  29.141  1.00  0.00     0.057 A 
ATOM     70  C   UNL A   1      38.152  29.566  27.984  1.00  0.00     0.134 A 
ATOM     71  C   UNL A   1      38.018  29.000  30.306  1.00  0.00     0.134 A 
ATOM     72  F   UNL A   1      38.843  29.704  26.844  1.00  0.00    -0.206 F 
ATOM     73  C   UNL A   1      36.806  29.937  27.988  1.00  0.00     0.040 A 
ATOM     74  C   UNL A   1      36.665  29.344  30.319  1.00  0.00     0.040 A 
ATOM     75  F   UNL A   1      38.568  28.554  31.444  1.00  0.00    -0.206 F 
ATOM     76  C   UNL A   1      36.058  29.821  29.159  1.00  0.00     0.006 A 
ENDBRANCH  48  69
BRANCH  60  77
ATOM     77  C   UNL A   1      44.576  32.556  30.855  1.00  0.00     0.057 A 
ATOM     78  C   UNL A   1      44.654  32.864  32.219  1.00  0.00     0.134 A 
ATOM     79  C   UNL A   1      44.756  33.603  29.943  1.00  0.00     0.134 A 
ATOM     80  F   UNL A   1      44.478  31.908  33.143  1.00  0.00    -0.206 F 
ATOM     81  C   UNL A   1      44.881  34.169  32.659  1.00  0.00     0.040 A 
ATOM     82  C   UNL A   1      45.006  34.908  30.370  1.00  0.00     0.040 A 
ATOM     83  F   UNL A   1      44.699  33.374  28.622  1.00  0.00    -0.206 F 
ATOM     84  C   UNL A   1      45.063  35.195  31.733  1.00  0.00     0.006 A 
ENDBRANCH  60  77
ENDBRANCH  34  35
ENDBRANCH  26  29
ENDBRANCH  24  25
ENDBRANCH  23  24
ENDBRANCH  22  23
ENDBRANCH   3  22
TORSDOF 15
ENDMDL
