MODEL 1
REMARK VINA RESULT:     -10.6      0.000      0.000
REMARK SMILES Cn1cc(C(=O)NCCCNC(=O)c2ccc(-c3c4nc(c(-c5c(F)cccc5F)c5ccc([nH]5)c(-c5c(F)cccc5F)c5nc(c(-c6c(F)cccc6F)c6ccc3[nH]6)C=C5)C=C4)cc2)c(C(=O)Nc2ccc(-c3nc4cc(Cl)ccc4o3)cc2)n1
REMARK SMILES IDX 8 1 7 2 5 3 6 4 4 6 1 7 2 8 3 9 88 10 68 11 69 12 70 13
REMARK SMILES IDX 71 14 72 16 73 17 87 18 74 19 86 20 75 21 76 22 77 23 85 24
REMARK SMILES IDX 78 25 84 26 79 27 83 28 80 29 82 30 81 31 9 32 10 33 11 34
REMARK SMILES IDX 12 35 13 37 14 38 15 39 67 40 16 41 66 42 17 43 18 44 19 45
REMARK SMILES IDX 60 46 20 47 65 48 59 49 61 50 21 51 64 52 58 53 57 54 22 56
REMARK SMILES IDX 48 57 31 58 47 59 32 60 35 61 46 62 62 63 33 64 34 65 45 67
REMARK SMILES IDX 63 68 36 69 23 70 24 71 29 72 25 73 26 74 28 75 30 76 27 77
REMARK SMILES IDX 49 78 50 79 55 80 51 81 52 82 54 83 56 84 53 85 37 86 38 87
REMARK SMILES IDX 43 88 39 89 40 90 42 91 44 92 41 93
REMARK H PARENT 7 5 71 15 11 36 61 55 35 66
REMARK Flexibility Score: inf
ROOT
ATOM      1  C   UNL A   1      34.071  34.397  30.146  1.00  0.00     0.118 C 
ENDROOT
BRANCH   1   2
ATOM      2  N   UNL A   1      34.407  33.189  30.877  1.00  0.00    -0.352 N 
ATOM      3  C   UNL A   1      35.559  32.755  31.487  1.00  0.00     0.255 C 
ATOM      4  O   UNL A   1      35.435  31.830  32.297  1.00  0.00    -0.269 OA
ATOM      5  H   UNL A   1      33.659  32.553  30.952  1.00  0.00     0.163 HD
BRANCH   3   6
ATOM      6  C   UNL A   1      36.864  33.321  31.187  1.00  0.00     0.090 A 
ATOM      7  C   UNL A   1      39.434  34.956  29.248  1.00  0.00     0.173 C 
ATOM      8  N   UNL A   1      38.589  34.282  30.206  1.00  0.00    -0.274 N 
ATOM      9  C   UNL A   1      37.399  33.670  29.958  1.00  0.00     0.123 A 
ATOM     10  N   UNL A   1      38.924  34.298  31.496  1.00  0.00    -0.167 NA
ATOM     11  C   UNL A   1      37.860  33.770  32.136  1.00  0.00     0.163 A 
BRANCH  11  12
ATOM     12  C   UNL A   1      37.819  33.831  33.614  1.00  0.00     0.276 C 
ATOM     13  O   UNL A   1      37.338  34.808  34.200  1.00  0.00    -0.267 OA
ATOM     14  N   UNL A   1      38.233  32.783  34.407  1.00  0.00    -0.321 N 
ATOM     15  H   UNL A   1      37.938  32.849  35.344  1.00  0.00     0.170 HD
BRANCH  14  16
ATOM     16  C   UNL A   1      38.991  31.644  34.130  1.00  0.00     0.041 A 
ATOM     17  C   UNL A   1      40.327  31.666  34.542  1.00  0.00     0.027 A 
ATOM     18  C   UNL A   1      38.482  30.509  33.501  1.00  0.00     0.027 A 
ATOM     19  C   UNL A   1      41.101  30.509  34.477  1.00  0.00     0.016 A 
ATOM     20  C   UNL A   1      39.279  29.365  33.381  1.00  0.00     0.016 A 
ATOM     21  C   UNL A   1      40.569  29.335  33.932  1.00  0.00     0.037 A 
BRANCH  21  22
ATOM     22  C   UNL A   1      41.294  28.081  34.040  1.00  0.00     0.227 A 
ATOM     23  N   UNL A   1      41.155  27.079  34.890  1.00  0.00    -0.209 NA
ATOM     24  O   UNL A   1      42.403  27.998  33.234  1.00  0.00    -0.436 OA
ATOM     25  C   UNL A   1      42.220  26.258  34.599  1.00  0.00     0.111 A 
ATOM     26  C   UNL A   1      43.004  26.838  33.615  1.00  0.00     0.155 A 
ATOM     27  C   UNL A   1      42.614  25.033  35.148  1.00  0.00     0.053 A 
ATOM     28  C   UNL A   1      44.199  26.317  33.140  1.00  0.00     0.051 A 
ATOM     29  C   UNL A   1      43.819  24.477  34.694  1.00  0.00     0.043 A 
ATOM     30  C   UNL A   1      44.602  25.108  33.720  1.00  0.00     0.024 A 
ATOM     31  Cl  UNL A   1      44.357  22.984  35.365  1.00  0.00    -0.084 Cl
ENDBRANCH  21  22
ENDBRANCH  14  16
ENDBRANCH  11  12
ENDBRANCH   3   6
ENDBRANCH   1   2
BRANCH   1  32
ATOM     32  C   UNL A   1      33.998  34.273  28.625  1.00  0.00     0.042 C 
BRANCH  32  33
ATOM     33  C   UNL A   1      34.845  33.167  27.993  1.00  0.00     0.118 C 
BRANCH  33  34
ATOM     34  N   UNL A   1      34.142  31.911  27.804  1.00  0.00    -0.352 N 
ATOM     35  C   UNL A   1      34.531  30.599  27.899  1.00  0.00     0.251 C 
ATOM     36  H   UNL A   1      33.196  32.023  27.559  1.00  0.00     0.163 HD
ATOM     37  O   UNL A   1      33.698  29.735  27.626  1.00  0.00    -0.269 OA
BRANCH  35  38
ATOM     38  C   UNL A   1      35.896  30.173  28.299  1.00  0.00     0.039 A 
ATOM     39  C   UNL A   1      36.881  30.139  27.300  1.00  0.00     0.014 A 
ATOM     40  C   UNL A   1      36.214  29.707  29.577  1.00  0.00     0.014 A 
ATOM     41  C   UNL A   1      38.176  29.694  27.585  1.00  0.00     0.010 A 
ATOM     42  C   UNL A   1      37.514  29.275  29.870  1.00  0.00     0.010 A 
ATOM     43  C   UNL A   1      38.506  29.272  28.878  1.00  0.00    -0.014 A 
BRANCH  43  44
ATOM     44  C   UNL A   1      39.892  28.872  29.220  1.00  0.00     0.031 A 
ATOM     45  C   UNL A   1      40.823  29.817  29.920  1.00  0.00     0.074 A 
ATOM     46  C   UNL A   1      40.334  27.658  28.844  1.00  0.00     0.049 A 
ATOM     47  N   UNL A   1      42.097  29.676  30.183  1.00  0.00    -0.248 NA
ATOM     48  C   UNL A   1      40.247  31.088  30.377  1.00  0.00     0.031 C 
ATOM     49  C   UNL A   1      39.534  26.644  28.156  1.00  0.00     0.029 A 
ATOM     50  N   UNL A   1      41.575  27.083  28.965  1.00  0.00    -0.354 N 
ATOM     51  C   UNL A   1      42.483  30.844  30.824  1.00  0.00     0.074 A 
ATOM     52  C   UNL A   1      41.306  31.687  30.907  1.00  0.00     0.031 C 
ATOM     53  C   UNL A   1      40.310  25.580  27.894  1.00  0.00     0.029 A 
ATOM     54  C   UNL A   1      41.663  25.847  28.375  1.00  0.00     0.049 A 
ATOM     55  H   UNL A   1      42.326  27.515  29.431  1.00  0.00     0.167 HD
ATOM     56  C   UNL A   1      43.705  31.184  31.300  1.00  0.00     0.037 A 
ATOM     57  C   UNL A   1      42.721  25.032  28.214  1.00  0.00     0.037 A 
ATOM     58  C   UNL A   1      44.875  30.348  31.240  1.00  0.00     0.049 A 
ATOM     59  C   UNL A   1      44.066  25.433  28.739  1.00  0.00     0.074 A 
ATOM     60  C   UNL A   1      46.146  30.603  31.730  1.00  0.00     0.029 A 
ATOM     61  N   UNL A   1      44.919  29.095  30.652  1.00  0.00    -0.354 N 
ATOM     62  N   UNL A   1      44.413  26.537  29.352  1.00  0.00    -0.248 NA
ATOM     63  C   UNL A   1      45.165  24.476  28.547  1.00  0.00     0.031 C 
ATOM     64  C   UNL A   1      46.963  29.506  31.426  1.00  0.00     0.029 A 
ATOM     65  C   UNL A   1      46.195  28.567  30.758  1.00  0.00     0.049 A 
ATOM     66  H   UNL A   1      44.155  28.645  30.222  1.00  0.00     0.167 HD
ATOM     67  C   UNL A   1      45.767  26.407  29.625  1.00  0.00     0.074 A 
ATOM     68  C   UNL A   1      46.179  25.116  29.116  1.00  0.00     0.031 C 
ATOM     69  C   UNL A   1      46.592  27.283  30.247  1.00  0.00     0.037 A 
BRANCH  56  70
ATOM     70  C   UNL A   1      43.842  32.534  31.927  1.00  0.00     0.057 A 
ATOM     71  C   UNL A   1      43.897  33.697  31.150  1.00  0.00     0.134 A 
ATOM     72  C   UNL A   1      43.874  32.675  33.319  1.00  0.00     0.134 A 
ATOM     73  F   UNL A   1      43.876  33.621  29.812  1.00  0.00    -0.206 F 
ATOM     74  C   UNL A   1      43.988  34.958  31.740  1.00  0.00     0.040 A 
ATOM     75  C   UNL A   1      43.957  33.931  33.920  1.00  0.00     0.040 A 
ATOM     76  F   UNL A   1      43.823  31.595  34.114  1.00  0.00    -0.206 F 
ATOM     77  C   UNL A   1      44.015  35.078  33.129  1.00  0.00     0.006 A 
ENDBRANCH  56  70
BRANCH  57  78
ATOM     78  C   UNL A   1      42.545  23.753  27.492  1.00  0.00     0.057 A 
ATOM     79  C   UNL A   1      42.668  23.687  26.102  1.00  0.00     0.134 A 
ATOM     80  C   UNL A   1      42.268  22.569  28.183  1.00  0.00     0.134 A 
ATOM     81  F   UNL A   1      42.916  24.796  25.392  1.00  0.00    -0.206 F 
ATOM     82  C   UNL A   1      42.522  22.479  25.418  1.00  0.00     0.040 A 
ATOM     83  C   UNL A   1      42.130  21.354  27.513  1.00  0.00     0.040 A 
ATOM     84  F   UNL A   1      42.142  22.578  29.518  1.00  0.00    -0.206 F 
ATOM     85  C   UNL A   1      42.256  21.307  26.126  1.00  0.00     0.006 A 
ENDBRANCH  57  78
BRANCH  69  86
ATOM     86  C   UNL A   1      48.017  26.864  30.419  1.00  0.00     0.057 A 
ATOM     87  C   UNL A   1      48.422  26.097  31.518  1.00  0.00     0.134 A 
ATOM     88  C   UNL A   1      48.986  27.211  29.471  1.00  0.00     0.134 A 
ATOM     89  F   UNL A   1      47.538  25.747  32.465  1.00  0.00    -0.206 F 
ATOM     90  C   UNL A   1      49.749  25.694  31.671  1.00  0.00     0.040 A 
ATOM     91  C   UNL A   1      50.314  26.807  29.610  1.00  0.00     0.040 A 
ATOM     92  F   UNL A   1      48.656  27.947  28.400  1.00  0.00    -0.206 F 
ATOM     93  C   UNL A   1      50.699  26.047  30.713  1.00  0.00     0.006 A 
ENDBRANCH  69  86
ENDBRANCH  43  44
ENDBRANCH  35  38
ENDBRANCH  33  34
ENDBRANCH  32  33
ENDBRANCH   1  32
TORSDOF 13
ENDMDL
MODEL 2
REMARK VINA RESULT:     -10.2      5.306     10.398
REMARK SMILES Cn1cc(C(=O)NCCCNC(=O)c2ccc(-c3c4nc(c(-c5c(F)cccc5F)c5ccc([nH]5)c(-c5c(F)cccc5F)c5nc(c(-c6c(F)cccc6F)c6ccc3[nH]6)C=C5)C=C4)cc2)c(C(=O)Nc2ccc(-c3nc4cc(Cl)ccc4o3)cc2)n1
REMARK SMILES IDX 8 1 7 2 5 3 6 4 4 6 1 7 2 8 3 9 88 10 68 11 69 12 70 13
REMARK SMILES IDX 71 14 72 16 73 17 87 18 74 19 86 20 75 21 76 22 77 23 85 24
REMARK SMILES IDX 78 25 84 26 79 27 83 28 80 29 82 30 81 31 9 32 10 33 11 34
REMARK SMILES IDX 12 35 13 37 14 38 15 39 67 40 16 41 66 42 17 43 18 44 19 45
REMARK SMILES IDX 60 46 20 47 65 48 59 49 61 50 21 51 64 52 58 53 57 54 22 56
REMARK SMILES IDX 48 57 31 58 47 59 32 60 35 61 46 62 62 63 33 64 34 65 45 67
REMARK SMILES IDX 63 68 36 69 23 70 24 71 29 72 25 73 26 74 28 75 30 76 27 77
REMARK SMILES IDX 49 78 50 79 55 80 51 81 52 82 54 83 56 84 53 85 37 86 38 87
REMARK SMILES IDX 43 88 39 89 40 90 42 91 44 92 41 93
REMARK H PARENT 7 5 71 15 11 36 61 55 35 66
REMARK Flexibility Score: inf
ROOT
ATOM      1  C   UNL A   1      32.497  29.971  27.252  1.00  0.00     0.118 C 
ENDROOT
BRANCH   1   2
ATOM      2  N   UNL A   1      31.706  28.754  27.303  1.00  0.00    -0.352 N 
ATOM      3  C   UNL A   1      31.545  27.706  26.429  1.00  0.00     0.255 C 
ATOM      4  O   UNL A   1      31.056  26.674  26.897  1.00  0.00    -0.269 OA
ATOM      5  H   UNL A   1      31.180  28.661  28.130  1.00  0.00     0.163 HD
BRANCH   3   6
ATOM      6  C   UNL A   1      31.901  27.799  25.023  1.00  0.00     0.090 A 
ATOM      7  C   UNL A   1      34.034  28.118  22.128  1.00  0.00     0.173 C 
ATOM      8  N   UNL A   1      32.988  27.992  23.114  1.00  0.00    -0.274 N 
ATOM      9  C   UNL A   1      33.095  28.209  24.453  1.00  0.00     0.123 A 
ATOM     10  N   UNL A   1      31.789  27.545  22.739  1.00  0.00    -0.167 NA
ATOM     11  C   UNL A   1      31.113  27.358  23.892  1.00  0.00     0.163 A 
BRANCH  11  12
ATOM     12  C   UNL A   1      29.806  26.666  23.844  1.00  0.00     0.276 C 
ATOM     13  O   UNL A   1      28.747  27.304  23.819  1.00  0.00    -0.267 OA
ATOM     14  N   UNL A   1      29.700  25.297  23.745  1.00  0.00    -0.321 N 
ATOM     15  H   UNL A   1      28.803  24.983  23.484  1.00  0.00     0.170 HD
BRANCH  14  16
ATOM     16  C   UNL A   1      30.625  24.270  23.943  1.00  0.00     0.041 A 
ATOM     17  C   UNL A   1      30.820  23.850  25.262  1.00  0.00     0.027 A 
ATOM     18  C   UNL A   1      31.324  23.649  22.909  1.00  0.00     0.027 A 
ATOM     19  C   UNL A   1      31.579  22.712  25.530  1.00  0.00     0.016 A 
ATOM     20  C   UNL A   1      32.133  22.541  23.187  1.00  0.00     0.016 A 
ATOM     21  C   UNL A   1      32.209  22.023  24.488  1.00  0.00     0.037 A 
BRANCH  21  22
ATOM     22  C   UNL A   1      32.833  20.733  24.732  1.00  0.00     0.227 A 
ATOM     23  N   UNL A   1      34.074  20.329  24.533  1.00  0.00    -0.209 NA
ATOM     24  O   UNL A   1      31.952  19.734  25.069  1.00  0.00    -0.436 OA
ATOM     25  C   UNL A   1      34.020  18.980  24.796  1.00  0.00     0.111 A 
ATOM     26  C   UNL A   1      32.717  18.609  25.085  1.00  0.00     0.155 A 
ATOM     27  C   UNL A   1      35.017  17.996  24.771  1.00  0.00     0.053 A 
ATOM     28  C   UNL A   1      32.292  17.310  25.320  1.00  0.00     0.051 A 
ATOM     29  C   UNL A   1      34.624  16.670  25.002  1.00  0.00     0.043 A 
ATOM     30  C   UNL A   1      33.290  16.330  25.260  1.00  0.00     0.024 A 
ATOM     31  Cl  UNL A   1      35.814  15.425  24.952  1.00  0.00    -0.084 Cl
ENDBRANCH  21  22
ENDBRANCH  14  16
ENDBRANCH  11  12
ENDBRANCH   3   6
ENDBRANCH   1   2
BRANCH   1  32
ATOM     32  C   UNL A   1      31.722  31.280  27.108  1.00  0.00     0.042 C 
BRANCH  32  33
ATOM     33  C   UNL A   1      32.499  32.469  26.538  1.00  0.00     0.118 C 
BRANCH  33  34
ATOM     34  N   UNL A   1      32.308  33.710  27.265  1.00  0.00    -0.352 N 
ATOM     35  C   UNL A   1      32.998  34.311  28.286  1.00  0.00     0.251 C 
ATOM     36  H   UNL A   1      31.525  34.225  26.964  1.00  0.00     0.163 HD
ATOM     37  O   UNL A   1      32.551  35.366  28.737  1.00  0.00    -0.269 OA
BRANCH  35  38
ATOM     38  C   UNL A   1      34.240  33.752  28.880  1.00  0.00     0.039 A 
ATOM     39  C   UNL A   1      34.099  32.701  29.799  1.00  0.00     0.014 A 
ATOM     40  C   UNL A   1      35.510  34.287  28.653  1.00  0.00     0.014 A 
ATOM     41  C   UNL A   1      35.216  32.160  30.445  1.00  0.00     0.010 A 
ATOM     42  C   UNL A   1      36.632  33.737  29.287  1.00  0.00     0.010 A 
ATOM     43  C   UNL A   1      36.495  32.665  30.181  1.00  0.00    -0.014 A 
BRANCH  43  44
ATOM     44  C   UNL A   1      37.699  32.054  30.794  1.00  0.00     0.031 A 
ATOM     45  C   UNL A   1      38.474  30.986  30.083  1.00  0.00     0.074 A 
ATOM     46  C   UNL A   1      38.064  32.430  32.034  1.00  0.00     0.049 A 
ATOM     47  N   UNL A   1      39.473  30.261  30.521  1.00  0.00    -0.248 NA
ATOM     48  C   UNL A   1      38.072  30.689  28.702  1.00  0.00     0.031 C 
ATOM     49  C   UNL A   1      37.396  33.455  32.836  1.00  0.00     0.029 A 
ATOM     50  N   UNL A   1      39.073  31.971  32.844  1.00  0.00    -0.354 N 
ATOM     51  C   UNL A   1      39.810  29.412  29.478  1.00  0.00     0.074 A 
ATOM     52  C   UNL A   1      38.907  29.709  28.384  1.00  0.00     0.031 C 
ATOM     53  C   UNL A   1      37.998  33.531  34.034  1.00  0.00     0.029 A 
ATOM     54  C   UNL A   1      39.076  32.547  34.089  1.00  0.00     0.049 A 
ATOM     55  H   UNL A   1      39.729  31.297  32.558  1.00  0.00     0.167 HD
ATOM     56  C   UNL A   1      40.784  28.471  29.435  1.00  0.00     0.037 A 
ATOM     57  C   UNL A   1      39.843  32.293  35.166  1.00  0.00     0.037 A 
ATOM     58  C   UNL A   1      41.698  28.180  30.508  1.00  0.00     0.049 A 
ATOM     59  C   UNL A   1      40.906  31.240  35.098  1.00  0.00     0.074 A 
ATOM     60  C   UNL A   1      42.738  27.264  30.533  1.00  0.00     0.029 A 
ATOM     61  N   UNL A   1      41.682  28.799  31.746  1.00  0.00    -0.354 N 
ATOM     62  N   UNL A   1      41.221  30.451  34.101  1.00  0.00    -0.248 NA
ATOM     63  C   UNL A   1      41.719  31.040  36.307  1.00  0.00     0.031 C 
ATOM     64  C   UNL A   1      43.343  27.322  31.795  1.00  0.00     0.029 A 
ATOM     65  C   UNL A   1      42.686  28.280  32.547  1.00  0.00     0.049 A 
ATOM     66  H   UNL A   1      41.050  29.504  32.017  1.00  0.00     0.167 HD
ATOM     67  C   UNL A   1      42.270  29.667  34.557  1.00  0.00     0.074 A 
ATOM     68  C   UNL A   1      42.543  30.075  35.919  1.00  0.00     0.031 C 
ATOM     69  C   UNL A   1      42.947  28.695  33.899  1.00  0.00     0.037 A 
BRANCH  56  70
ATOM     70  C   UNL A   1      40.906  27.672  28.176  1.00  0.00     0.057 A 
ATOM     71  C   UNL A   1      40.192  26.483  27.994  1.00  0.00     0.134 A 
ATOM     72  C   UNL A   1      41.710  28.120  27.122  1.00  0.00     0.134 A 
ATOM     73  F   UNL A   1      39.410  26.004  28.973  1.00  0.00    -0.206 F 
ATOM     74  C   UNL A   1      40.280  25.760  26.805  1.00  0.00     0.040 A 
ATOM     75  C   UNL A   1      41.800  27.410  25.925  1.00  0.00     0.040 A 
ATOM     76  F   UNL A   1      42.417  29.254  27.240  1.00  0.00    -0.206 F 
ATOM     77  C   UNL A   1      41.084  26.225  25.764  1.00  0.00     0.006 A 
ENDBRANCH  56  70
BRANCH  57  78
ATOM     78  C   UNL A   1      39.604  33.045  36.416  1.00  0.00     0.057 A 
ATOM     79  C   UNL A   1      40.272  34.243  36.677  1.00  0.00     0.134 A 
ATOM     80  C   UNL A   1      38.685  32.586  37.367  1.00  0.00     0.134 A 
ATOM     81  F   UNL A   1      41.174  34.717  35.806  1.00  0.00    -0.206 F 
ATOM     82  C   UNL A   1      40.035  34.966  37.847  1.00  0.00     0.040 A 
ATOM     83  C   UNL A   1      38.432  33.304  38.536  1.00  0.00     0.040 A 
ATOM     84  F   UNL A   1      38.016  31.442  37.165  1.00  0.00    -0.206 F 
ATOM     85  C   UNL A   1      39.109  34.498  38.778  1.00  0.00     0.006 A 
ENDBRANCH  57  78
BRANCH  69  86
ATOM     86  C   UNL A   1      44.054  28.020  34.644  1.00  0.00     0.057 A 
ATOM     87  C   UNL A   1      43.847  26.808  35.313  1.00  0.00     0.134 A 
ATOM     88  C   UNL A   1      45.339  28.574  34.675  1.00  0.00     0.134 A 
ATOM     89  F   UNL A   1      42.632  26.238  35.328  1.00  0.00    -0.206 F 
ATOM     90  C   UNL A   1      44.884  26.171  35.995  1.00  0.00     0.040 A 
ATOM     91  C   UNL A   1      46.385  27.942  35.348  1.00  0.00     0.040 A 
ATOM     92  F   UNL A   1      45.594  29.735  34.055  1.00  0.00    -0.206 F 
ATOM     93  C   UNL A   1      46.158  26.737  36.012  1.00  0.00     0.006 A 
ENDBRANCH  69  86
ENDBRANCH  43  44
ENDBRANCH  35  38
ENDBRANCH  33  34
ENDBRANCH  32  33
ENDBRANCH   1  32
TORSDOF 13
ENDMDL
MODEL 3
REMARK VINA RESULT:     -10.1      5.201      8.143
REMARK SMILES Cn1cc(C(=O)NCCCNC(=O)c2ccc(-c3c4nc(c(-c5c(F)cccc5F)c5ccc([nH]5)c(-c5c(F)cccc5F)c5nc(c(-c6c(F)cccc6F)c6ccc3[nH]6)C=C5)C=C4)cc2)c(C(=O)Nc2ccc(-c3nc4cc(Cl)ccc4o3)cc2)n1
REMARK SMILES IDX 8 1 7 2 5 3 6 4 4 6 1 7 2 8 3 9 88 10 68 11 69 12 70 13
REMARK SMILES IDX 71 14 72 16 73 17 87 18 74 19 86 20 75 21 76 22 77 23 85 24
REMARK SMILES IDX 78 25 84 26 79 27 83 28 80 29 82 30 81 31 9 32 10 33 11 34
REMARK SMILES IDX 12 35 13 37 14 38 15 39 67 40 16 41 66 42 17 43 18 44 19 45
REMARK SMILES IDX 60 46 20 47 65 48 59 49 61 50 21 51 64 52 58 53 57 54 22 56
REMARK SMILES IDX 48 57 31 58 47 59 32 60 35 61 46 62 62 63 33 64 34 65 45 67
REMARK SMILES IDX 63 68 36 69 23 70 24 71 29 72 25 73 26 74 28 75 30 76 27 77
REMARK SMILES IDX 49 78 50 79 55 80 51 81 52 82 54 83 56 84 53 85 37 86 38 87
REMARK SMILES IDX 43 88 39 89 40 90 42 91 44 92 41 93
REMARK H PARENT 7 5 71 15 11 36 61 55 35 66
REMARK Flexibility Score: inf
ROOT
ATOM      1  C   UNL A   1      32.461  28.773  27.263  1.00  0.00     0.118 C 
ENDROOT
BRANCH   1   2
ATOM      2  N   UNL A   1      31.713  27.529  27.282  1.00  0.00    -0.352 N 
ATOM      3  C   UNL A   1      31.214  26.723  26.287  1.00  0.00     0.255 C 
ATOM      4  O   UNL A   1      30.904  25.574  26.618  1.00  0.00    -0.269 OA
ATOM      5  H   UNL A   1      31.526  27.196  28.188  1.00  0.00     0.163 HD
BRANCH   3   6
ATOM      6  C   UNL A   1      31.029  27.188  24.922  1.00  0.00     0.090 A 
ATOM      7  C   UNL A   1      29.378  28.750  22.117  1.00  0.00     0.173 C 
ATOM      8  N   UNL A   1      30.225  28.070  23.069  1.00  0.00    -0.274 N 
ATOM      9  C   UNL A   1      29.866  27.602  24.295  1.00  0.00     0.123 A 
ATOM     10  N   UNL A   1      31.523  27.927  22.800  1.00  0.00    -0.167 NA
ATOM     11  C   UNL A   1      32.060  27.443  23.939  1.00  0.00     0.163 A 
BRANCH  11  12
ATOM     12  C   UNL A   1      33.534  27.362  24.051  1.00  0.00     0.276 C 
ATOM     13  O   UNL A   1      34.245  28.352  23.847  1.00  0.00    -0.267 OA
ATOM     14  N   UNL A   1      34.180  26.216  24.461  1.00  0.00    -0.321 N 
ATOM     15  H   UNL A   1      35.119  26.358  24.720  1.00  0.00     0.170 HD
BRANCH  14  16
ATOM     16  C   UNL A   1      33.752  24.892  24.578  1.00  0.00     0.041 A 
ATOM     17  C   UNL A   1      33.421  24.234  23.390  1.00  0.00     0.027 A 
ATOM     18  C   UNL A   1      33.667  24.211  25.791  1.00  0.00     0.027 A 
ATOM     19  C   UNL A   1      33.167  22.863  23.395  1.00  0.00     0.016 A 
ATOM     20  C   UNL A   1      33.354  22.848  25.801  1.00  0.00     0.016 A 
ATOM     21  C   UNL A   1      33.172  22.150  24.598  1.00  0.00     0.037 A 
BRANCH  21  22
ATOM     22  C   UNL A   1      33.106  20.698  24.591  1.00  0.00     0.227 A 
ATOM     23  N   UNL A   1      32.153  19.881  25.001  1.00  0.00    -0.209 NA
ATOM     24  O   UNL A   1      34.286  20.080  24.255  1.00  0.00    -0.436 OA
ATOM     25  C   UNL A   1      32.727  18.635  24.890  1.00  0.00     0.111 A 
ATOM     26  C   UNL A   1      34.042  18.759  24.473  1.00  0.00     0.155 A 
ATOM     27  C   UNL A   1      32.218  17.360  25.162  1.00  0.00     0.053 A 
ATOM     28  C   UNL A   1      34.936  17.708  24.334  1.00  0.00     0.051 A 
ATOM     29  C   UNL A   1      33.094  16.272  25.035  1.00  0.00     0.043 A 
ATOM     30  C   UNL A   1      34.427  16.440  24.641  1.00  0.00     0.024 A 
ATOM     31  Cl  UNL A   1      32.517  14.687  25.389  1.00  0.00    -0.084 Cl
ENDBRANCH  21  22
ENDBRANCH  14  16
ENDBRANCH  11  12
ENDBRANCH   3   6
ENDBRANCH   1   2
BRANCH   1  32
ATOM     32  C   UNL A   1      33.985  28.651  27.270  1.00  0.00     0.042 C 
BRANCH  32  33
ATOM     33  C   UNL A   1      34.770  29.962  27.332  1.00  0.00     0.118 C 
BRANCH  33  34
ATOM     34  N   UNL A   1      34.858  30.544  28.659  1.00  0.00    -0.352 N 
ATOM     35  C   UNL A   1      35.885  30.668  29.559  1.00  0.00     0.251 C 
ATOM     36  H   UNL A   1      34.009  30.927  28.977  1.00  0.00     0.163 HD
ATOM     37  O   UNL A   1      35.632  31.179  30.650  1.00  0.00    -0.269 OA
BRANCH  35  38
ATOM     38  C   UNL A   1      37.272  30.209  29.292  1.00  0.00     0.039 A 
ATOM     39  C   UNL A   1      38.108  30.001  30.401  1.00  0.00     0.014 A 
ATOM     40  C   UNL A   1      37.808  30.082  28.008  1.00  0.00     0.014 A 
ATOM     41  C   UNL A   1      39.445  29.625  30.230  1.00  0.00     0.010 A 
ATOM     42  C   UNL A   1      39.141  29.690  27.834  1.00  0.00     0.010 A 
ATOM     43  C   UNL A   1      39.967  29.452  28.942  1.00  0.00    -0.014 A 
BRANCH  43  44
ATOM     44  C   UNL A   1      41.357  28.977  28.740  1.00  0.00     0.031 A 
ATOM     45  C   UNL A   1      42.513  29.932  28.750  1.00  0.00     0.074 A 
ATOM     46  C   UNL A   1      41.573  27.672  28.489  1.00  0.00     0.049 A 
ATOM     47  N   UNL A   1      43.772  29.707  28.470  1.00  0.00    -0.248 NA
ATOM     48  C   UNL A   1      42.214  31.322  29.117  1.00  0.00     0.031 C 
ATOM     49  C   UNL A   1      40.538  26.638  28.449  1.00  0.00     0.029 A 
ATOM     50  N   UNL A   1      42.733  27.001  28.194  1.00  0.00    -0.354 N 
ATOM     51  C   UNL A   1      44.415  30.928  28.611  1.00  0.00     0.074 A 
ATOM     52  C   UNL A   1      43.407  31.893  28.999  1.00  0.00     0.031 C 
ATOM     53  C   UNL A   1      41.106  25.466  28.123  1.00  0.00     0.029 A 
ATOM     54  C   UNL A   1      42.537  25.673  27.910  1.00  0.00     0.049 A 
ATOM     55  H   UNL A   1      43.618  27.430  28.187  1.00  0.00     0.167 HD
ATOM     56  C   UNL A   1      45.727  31.218  28.433  1.00  0.00     0.037 A 
ATOM     57  C   UNL A   1      43.405  24.731  27.497  1.00  0.00     0.037 A 
ATOM     58  C   UNL A   1      46.740  30.264  28.066  1.00  0.00     0.049 A 
ATOM     59  C   UNL A   1      44.849  25.078  27.298  1.00  0.00     0.074 A 
ATOM     60  C   UNL A   1      48.100  30.469  27.899  1.00  0.00     0.029 A 
ATOM     61  N   UNL A   1      46.504  28.925  27.807  1.00  0.00    -0.354 N 
ATOM     62  N   UNL A   1      45.445  26.235  27.444  1.00  0.00    -0.248 NA
ATOM     63  C   UNL A   1      45.739  23.989  26.871  1.00  0.00     0.031 C 
ATOM     64  C   UNL A   1      48.686  29.252  27.526  1.00  0.00     0.029 A 
ATOM     65  C   UNL A   1      47.691  28.292  27.472  1.00  0.00     0.049 A 
ATOM     66  H   UNL A   1      45.624  28.486  27.854  1.00  0.00     0.167 HD
ATOM     67  C   UNL A   1      46.779  26.014  27.136  1.00  0.00     0.074 A 
ATOM     68  C   UNL A   1      46.909  24.611  26.797  1.00  0.00     0.031 C 
ATOM     69  C   UNL A   1      47.805  26.898  27.138  1.00  0.00     0.037 A 
BRANCH  56  70
ATOM     70  C   UNL A   1      46.143  32.641  28.627  1.00  0.00     0.057 A 
ATOM     71  C   UNL A   1      46.139  33.554  27.568  1.00  0.00     0.134 A 
ATOM     72  C   UNL A   1      46.509  33.111  29.894  1.00  0.00     0.134 A 
ATOM     73  F   UNL A   1      45.803  33.157  26.331  1.00  0.00    -0.206 F 
ATOM     74  C   UNL A   1      46.493  34.889  27.760  1.00  0.00     0.040 A 
ATOM     75  C   UNL A   1      46.857  34.446  30.101  1.00  0.00     0.040 A 
ATOM     76  F   UNL A   1      46.530  32.280  30.948  1.00  0.00    -0.206 F 
ATOM     77  C   UNL A   1      46.851  35.339  29.031  1.00  0.00     0.006 A 
ENDBRANCH  56  70
BRANCH  57  78
ATOM     78  C   UNL A   1      42.912  23.365  27.220  1.00  0.00     0.057 A 
ATOM     79  C   UNL A   1      42.682  22.457  28.257  1.00  0.00     0.134 A 
ATOM     80  C   UNL A   1      42.642  22.949  25.912  1.00  0.00     0.134 A 
ATOM     81  F   UNL A   1      42.939  22.801  29.526  1.00  0.00    -0.206 F 
ATOM     82  C   UNL A   1      42.198  21.174  28.001  1.00  0.00     0.040 A 
ATOM     83  C   UNL A   1      42.149  21.673  25.644  1.00  0.00     0.040 A 
ATOM     84  F   UNL A   1      42.845  23.783  24.881  1.00  0.00    -0.206 F 
ATOM     85  C   UNL A   1      41.926  20.780  26.691  1.00  0.00     0.006 A 
ENDBRANCH  57  78
BRANCH  69  86
ATOM     86  C   UNL A   1      49.155  26.368  26.774  1.00  0.00     0.057 A 
ATOM     87  C   UNL A   1      49.972  25.745  27.725  1.00  0.00     0.134 A 
ATOM     88  C   UNL A   1      49.632  26.461  25.462  1.00  0.00     0.134 A 
ATOM     89  F   UNL A   1      49.571  25.639  29.001  1.00  0.00    -0.206 F 
ATOM     90  C   UNL A   1      51.226  25.237  27.382  1.00  0.00     0.040 A 
ATOM     91  C   UNL A   1      50.882  25.951  25.106  1.00  0.00     0.040 A 
ATOM     92  F   UNL A   1      48.895  27.051  24.510  1.00  0.00    -0.206 F 
ATOM     93  C   UNL A   1      51.683  25.338  26.068  1.00  0.00     0.006 A 
ENDBRANCH  69  86
ENDBRANCH  43  44
ENDBRANCH  35  38
ENDBRANCH  33  34
ENDBRANCH  32  33
ENDBRANCH   1  32
TORSDOF 13
ENDMDL
