MODEL 1
REMARK VINA RESULT:     -11.6      0.000      0.000
REMARK SMILES CC[C@@]1(C(=O)NCCCNC(=O)c2ccc(-c3c4nc(c(-c5c(F)cccc5F)c5ccc([nH]5)c(-c5c(F)cccc5F)c5nc(c(-c6c(F)cccc6F)c6ccc3[nH]6)C=C5)C=C4)cc2)CCC[N@@H+](Cc2ccc(C3CC3)cc2)C1
REMARK SMILES IDX 7 1 6 2 4 3 5 4 3 6 67 7 81 8 68 9 70 10 69 11 2 13 1 14
REMARK SMILES IDX 71 15 72 16 73 17 80 18 74 19 79 20 75 21 76 22 77 23 78 24
REMARK SMILES IDX 8 25 9 26 10 27 11 28 12 30 13 31 14 32 66 33 15 34 65 35
REMARK SMILES IDX 16 36 17 37 18 38 59 39 19 40 64 41 58 42 60 43 20 44 63 45
REMARK SMILES IDX 57 46 56 47 21 49 47 50 30 51 46 52 31 53 34 54 45 55 61 56
REMARK SMILES IDX 32 57 33 58 44 60 62 61 35 62 22 63 23 64 28 65 24 66 25 67
REMARK SMILES IDX 27 68 29 69 26 70 48 71 49 72 54 73 50 74 51 75 53 76 55 77
REMARK SMILES IDX 52 78 36 79 37 80 42 81 38 82 39 83 41 84 43 85 40 86
REMARK H PARENT 6 5 70 12 10 29 60 48 34 59
REMARK Flexibility Score: inf
ROOT
ATOM      1  C   UNL A   1      36.531  20.417  24.894  1.00  0.00     0.117 C 
ENDROOT
BRANCH   1   2
ATOM      2  N   UNL A   1      36.832  21.725  24.322  1.00  0.00    -0.355 N 
ATOM      3  C   UNL A   1      36.038  22.589  23.621  1.00  0.00     0.231 C 
ATOM      4  O   UNL A   1      36.566  23.056  22.603  1.00  0.00    -0.274 OA
ATOM      5  H   UNL A   1      37.754  22.036  24.463  1.00  0.00     0.163 HD
BRANCH   3   6
ATOM      6  C   UNL A   1      34.746  23.225  24.199  1.00  0.00     0.098 C 
ATOM      7  C   UNL A   1      33.564  22.287  24.459  1.00  0.00     0.028 C 
ATOM      8  C   UNL A   1      34.264  24.387  23.272  1.00  0.00     0.279 C 
ATOM      9  C   UNL A   1      32.919  21.833  23.158  1.00  0.00     0.063 C 
ATOM     10  N   UNL A   1      33.353  24.082  22.157  1.00  0.00    -0.330 N 
ATOM     11  C   UNL A   1      32.373  23.016  22.382  1.00  0.00     0.262 C 
ATOM     12  H   UNL A   1      33.968  23.683  21.449  1.00  0.00     0.348 HD
BRANCH   6  13
ATOM     13  C   UNL A   1      35.273  23.894  25.531  1.00  0.00     0.019 C 
ATOM     14  C   UNL A   1      34.820  23.282  26.851  1.00  0.00     0.005 C 
ENDBRANCH   6  13
BRANCH  10  15
ATOM     15  C   UNL A   1      32.715  25.317  21.618  1.00  0.00     0.299 C 
BRANCH  15  16
ATOM     16  C   UNL A   1      32.368  26.372  22.664  1.00  0.00     0.006 A 
ATOM     17  C   UNL A   1      31.240  26.202  23.476  1.00  0.00     0.010 A 
ATOM     18  C   UNL A   1      33.235  27.429  22.959  1.00  0.00     0.010 A 
ATOM     19  C   UNL A   1      31.053  27.002  24.611  1.00  0.00     0.004 A 
ATOM     20  C   UNL A   1      33.053  28.205  24.110  1.00  0.00     0.004 A 
ATOM     21  C   UNL A   1      31.977  27.992  24.985  1.00  0.00    -0.045 A 
BRANCH  21  22
ATOM     22  C   UNL A   1      31.794  28.752  26.286  1.00  0.00     0.019 C 
ATOM     23  C   UNL A   1      31.669  28.036  27.611  1.00  0.00     0.009 C 
ATOM     24  C   UNL A   1      32.907  28.827  27.300  1.00  0.00     0.009 C 
ENDBRANCH  21  22
ENDBRANCH  15  16
ENDBRANCH  10  15
ENDBRANCH   3   6
ENDBRANCH   1   2
BRANCH   1  25
ATOM     25  C   UNL A   1      37.766  19.518  24.964  1.00  0.00     0.042 C 
BRANCH  25  26
ATOM     26  C   UNL A   1      38.892  20.080  25.817  1.00  0.00     0.118 C 
BRANCH  26  27
ATOM     27  N   UNL A   1      40.080  19.248  25.786  1.00  0.00    -0.352 N 
ATOM     28  C   UNL A   1      41.391  19.592  26.019  1.00  0.00     0.251 C 
ATOM     29  H   UNL A   1      39.926  18.301  25.567  1.00  0.00     0.163 HD
ATOM     30  O   UNL A   1      42.287  18.798  25.748  1.00  0.00    -0.269 OA
BRANCH  28  31
ATOM     31  C   UNL A   1      41.731  20.925  26.570  1.00  0.00     0.039 A 
ATOM     32  C   UNL A   1      42.122  21.940  25.692  1.00  0.00     0.014 A 
ATOM     33  C   UNL A   1      41.689  21.176  27.943  1.00  0.00     0.014 A 
ATOM     34  C   UNL A   1      42.419  23.214  26.189  1.00  0.00     0.010 A 
ATOM     35  C   UNL A   1      41.874  22.469  28.423  1.00  0.00     0.010 A 
ATOM     36  C   UNL A   1      42.269  23.497  27.556  1.00  0.00    -0.014 A 
BRANCH  36  37
ATOM     37  C   UNL A   1      42.572  24.844  28.108  1.00  0.00     0.031 A 
ATOM     38  C   UNL A   1      43.984  25.194  28.500  1.00  0.00     0.074 A 
ATOM     39  C   UNL A   1      41.580  25.734  28.304  1.00  0.00     0.049 A 
ATOM     40  N   UNL A   1      44.445  26.291  29.049  1.00  0.00    -0.248 NA
ATOM     41  C   UNL A   1      45.009  24.162  28.280  1.00  0.00     0.031 C 
ATOM     42  C   UNL A   1      40.164  25.503  28.015  1.00  0.00     0.029 A 
ATOM     43  N   UNL A   1      41.613  27.014  28.798  1.00  0.00    -0.354 N 
ATOM     44  C   UNL A   1      45.800  26.067  29.257  1.00  0.00     0.074 A 
ATOM     45  C   UNL A   1      46.075  24.712  28.838  1.00  0.00     0.031 C 
ATOM     46  C   UNL A   1      39.469  26.616  28.302  1.00  0.00     0.029 A 
ATOM     47  C   UNL A   1      40.382  27.624  28.831  1.00  0.00     0.049 A 
ATOM     48  H   UNL A   1      42.440  27.454  29.100  1.00  0.00     0.167 HD
ATOM     49  C   UNL A   1      46.741  26.922  29.726  1.00  0.00     0.037 A 
ATOM     50  C   UNL A   1      40.030  28.857  29.241  1.00  0.00     0.037 A 
ATOM     51  C   UNL A   1      46.474  28.283  30.107  1.00  0.00     0.049 A 
ATOM     52  C   UNL A   1      41.091  29.793  29.752  1.00  0.00     0.074 A 
ATOM     53  C   UNL A   1      47.366  29.251  30.530  1.00  0.00     0.029 A 
ATOM     54  N   UNL A   1      45.216  28.866  30.113  1.00  0.00    -0.354 N 
ATOM     55  N   UNL A   1      42.380  29.591  29.878  1.00  0.00    -0.248 NA
ATOM     56  C   UNL A   1      40.647  31.129  30.174  1.00  0.00     0.031 C 
ATOM     57  C   UNL A   1      46.642  30.410  30.833  1.00  0.00     0.029 A 
ATOM     58  C   UNL A   1      45.305  30.177  30.552  1.00  0.00     0.049 A 
ATOM     59  H   UNL A   1      44.383  28.416  29.843  1.00  0.00     0.167 HD
ATOM     60  C   UNL A   1      42.906  30.781  30.367  1.00  0.00     0.074 A 
ATOM     61  C   UNL A   1      41.797  31.703  30.501  1.00  0.00     0.031 C 
ATOM     62  C   UNL A   1      44.191  31.083  30.675  1.00  0.00     0.037 A 
BRANCH  49  63
ATOM     63  C   UNL A   1      48.147  26.403  29.842  1.00  0.00     0.057 A 
ATOM     64  C   UNL A   1      49.071  26.524  28.795  1.00  0.00     0.134 A 
ATOM     65  C   UNL A   1      48.584  25.780  31.018  1.00  0.00     0.134 A 
ATOM     66  F   UNL A   1      48.715  27.098  27.636  1.00  0.00    -0.206 F 
ATOM     67  C   UNL A   1      50.365  26.011  28.898  1.00  0.00     0.040 A 
ATOM     68  C   UNL A   1      49.885  25.292  31.145  1.00  0.00     0.040 A 
ATOM     69  F   UNL A   1      47.755  25.637  32.063  1.00  0.00    -0.206 F 
ATOM     70  C   UNL A   1      50.777  25.397  30.080  1.00  0.00     0.006 A 
ENDBRANCH  49  63
BRANCH  50  71
ATOM     71  C   UNL A   1      38.614  29.293  29.146  1.00  0.00     0.057 A 
ATOM     72  C   UNL A   1      37.782  29.283  30.270  1.00  0.00     0.134 A 
ATOM     73  C   UNL A   1      38.061  29.737  27.938  1.00  0.00     0.134 A 
ATOM     74  F   UNL A   1      38.249  28.852  31.452  1.00  0.00    -0.206 F 
ATOM     75  C   UNL A   1      36.447  29.685  30.198  1.00  0.00     0.040 A 
ATOM     76  C   UNL A   1      36.735  30.164  27.856  1.00  0.00     0.040 A 
ATOM     77  F   UNL A   1      38.809  29.777  26.825  1.00  0.00    -0.206 F 
ATOM     78  C   UNL A   1      35.922  30.133  28.987  1.00  0.00     0.006 A 
ENDBRANCH  50  71
BRANCH  62  79
ATOM     79  C   UNL A   1      44.473  32.475  31.158  1.00  0.00     0.057 A 
ATOM     80  C   UNL A   1      44.483  32.799  32.519  1.00  0.00     0.134 A 
ATOM     81  C   UNL A   1      44.780  33.495  30.247  1.00  0.00     0.134 A 
ATOM     82  F   UNL A   1      44.185  31.872  33.441  1.00  0.00    -0.206 F 
ATOM     83  C   UNL A   1      44.768  34.093  32.958  1.00  0.00     0.040 A 
ATOM     84  C   UNL A   1      45.093  34.785  30.675  1.00  0.00     0.040 A 
ATOM     85  F   UNL A   1      44.797  33.249  28.928  1.00  0.00    -0.206 F 
ATOM     86  C   UNL A   1      45.082  35.089  32.034  1.00  0.00     0.006 A 
ENDBRANCH  62  79
ENDBRANCH  36  37
ENDBRANCH  28  31
ENDBRANCH  26  27
ENDBRANCH  25  26
ENDBRANCH   1  25
TORSDOF 14
ENDMDL
MODEL 2
REMARK VINA RESULT:     -11.6      3.638      8.721
REMARK SMILES CC[C@@]1(C(=O)NCCCNC(=O)c2ccc(-c3c4nc(c(-c5c(F)cccc5F)c5ccc([nH]5)c(-c5c(F)cccc5F)c5nc(c(-c6c(F)cccc6F)c6ccc3[nH]6)C=C5)C=C4)cc2)CCC[N@@H+](Cc2ccc(C3CC3)cc2)C1
REMARK SMILES IDX 7 1 6 2 4 3 5 4 3 6 67 7 81 8 68 9 70 10 69 11 2 13 1 14
REMARK SMILES IDX 71 15 72 16 73 17 80 18 74 19 79 20 75 21 76 22 77 23 78 24
REMARK SMILES IDX 8 25 9 26 10 27 11 28 12 30 13 31 14 32 66 33 15 34 65 35
REMARK SMILES IDX 16 36 17 37 18 38 59 39 19 40 64 41 58 42 60 43 20 44 63 45
REMARK SMILES IDX 57 46 56 47 21 49 47 50 30 51 46 52 31 53 34 54 45 55 61 56
REMARK SMILES IDX 32 57 33 58 44 60 62 61 35 62 22 63 23 64 28 65 24 66 25 67
REMARK SMILES IDX 27 68 29 69 26 70 48 71 49 72 54 73 50 74 51 75 53 76 55 77
REMARK SMILES IDX 52 78 36 79 37 80 42 81 38 82 39 83 41 84 43 85 40 86
REMARK H PARENT 6 5 70 12 10 29 60 48 34 59
REMARK Flexibility Score: inf
ROOT
ATOM      1  C   UNL A   1      31.372  30.486  25.800  1.00  0.00     0.117 C 
ENDROOT
BRANCH   1   2
ATOM      2  N   UNL A   1      31.808  29.520  26.803  1.00  0.00    -0.355 N 
ATOM      3  C   UNL A   1      31.543  28.184  26.922  1.00  0.00     0.231 C 
ATOM      4  O   UNL A   1      31.223  27.825  28.063  1.00  0.00    -0.274 OA
ATOM      5  H   UNL A   1      32.385  29.890  27.509  1.00  0.00     0.163 HD
BRANCH   3   6
ATOM      6  C   UNL A   1      31.943  27.135  25.851  1.00  0.00     0.098 C 
ATOM      7  C   UNL A   1      31.224  27.208  24.501  1.00  0.00     0.028 C 
ATOM      8  C   UNL A   1      31.772  25.693  26.428  1.00  0.00     0.279 C 
ATOM      9  C   UNL A   1      29.780  26.739  24.615  1.00  0.00     0.063 C 
ATOM     10  N   UNL A   1      30.472  25.016  26.289  1.00  0.00    -0.330 N 
ATOM     11  C   UNL A   1      29.715  25.293  25.066  1.00  0.00     0.262 C 
ATOM     12  H   UNL A   1      29.900  25.447  27.016  1.00  0.00     0.348 HD
BRANCH   6  13
ATOM     13  C   UNL A   1      33.497  27.385  25.705  1.00  0.00     0.019 C 
ATOM     14  C   UNL A   1      34.376  26.181  25.388  1.00  0.00     0.005 C 
ENDBRANCH   6  13
BRANCH  10  15
ATOM     15  C   UNL A   1      30.585  23.554  26.554  1.00  0.00     0.299 C 
BRANCH  15  16
ATOM     16  C   UNL A   1      31.897  22.917  26.103  1.00  0.00     0.006 A 
ATOM     17  C   UNL A   1      32.078  22.577  24.756  1.00  0.00     0.010 A 
ATOM     18  C   UNL A   1      32.998  22.814  26.959  1.00  0.00     0.010 A 
ATOM     19  C   UNL A   1      33.351  22.251  24.270  1.00  0.00     0.004 A 
ATOM     20  C   UNL A   1      34.269  22.513  26.458  1.00  0.00     0.004 A 
ATOM     21  C   UNL A   1      34.488  22.256  25.096  1.00  0.00    -0.045 A 
BRANCH  21  22
ATOM     22  C   UNL A   1      35.862  22.012  24.501  1.00  0.00     0.019 C 
ATOM     23  C   UNL A   1      36.504  23.003  23.558  1.00  0.00     0.009 C 
ATOM     24  C   UNL A   1      37.052  22.825  24.946  1.00  0.00     0.009 C 
ENDBRANCH  21  22
ENDBRANCH  15  16
ENDBRANCH  10  15
ENDBRANCH   3   6
ENDBRANCH   1   2
BRANCH   1  25
ATOM     25  C   UNL A   1      31.273  31.903  26.365  1.00  0.00     0.042 C 
BRANCH  25  26
ATOM     26  C   UNL A   1      32.540  32.384  27.053  1.00  0.00     0.118 C 
BRANCH  26  27
ATOM     27  N   UNL A   1      32.394  33.713  27.617  1.00  0.00    -0.352 N 
ATOM     28  C   UNL A   1      33.168  34.348  28.559  1.00  0.00     0.251 C 
ATOM     29  H   UNL A   1      31.633  34.235  27.277  1.00  0.00     0.163 HD
ATOM     30  O   UNL A   1      32.775  35.395  29.066  1.00  0.00    -0.269 OA
BRANCH  28  31
ATOM     31  C   UNL A   1      34.462  33.765  28.986  1.00  0.00     0.039 A 
ATOM     32  C   UNL A   1      34.481  32.882  30.070  1.00  0.00     0.014 A 
ATOM     33  C   UNL A   1      35.657  34.096  28.344  1.00  0.00     0.014 A 
ATOM     34  C   UNL A   1      35.687  32.298  30.471  1.00  0.00     0.010 A 
ATOM     35  C   UNL A   1      36.834  33.430  28.669  1.00  0.00     0.010 A 
ATOM     36  C   UNL A   1      36.870  32.544  29.755  1.00  0.00    -0.014 A 
BRANCH  36  37
ATOM     37  C   UNL A   1      38.163  31.930  30.158  1.00  0.00     0.031 A 
ATOM     38  C   UNL A   1      39.061  32.643  31.135  1.00  0.00     0.074 A 
ATOM     39  C   UNL A   1      38.556  30.763  29.612  1.00  0.00     0.049 A 
ATOM     40  N   UNL A   1      40.248  32.304  31.569  1.00  0.00    -0.248 NA
ATOM     41  C   UNL A   1      38.575  33.926  31.668  1.00  0.00     0.031 C 
ATOM     42  C   UNL A   1      37.805  29.995  28.617  1.00  0.00     0.029 A 
ATOM     43  N   UNL A   1      39.691  30.018  29.818  1.00  0.00    -0.354 N 
ATOM     44  C   UNL A   1      40.655  33.339  32.403  1.00  0.00     0.074 A 
ATOM     45  C   UNL A   1      39.620  34.346  32.362  1.00  0.00     0.031 C 
ATOM     46  C   UNL A   1      38.481  28.873  28.326  1.00  0.00     0.029 A 
ATOM     47  C   UNL A   1      39.729  28.858  29.082  1.00  0.00     0.049 A 
ATOM     48  H   UNL A   1      40.409  30.290  30.433  1.00  0.00     0.167 HD
ATOM     49  C   UNL A   1      41.775  33.432  33.160  1.00  0.00     0.037 A 
ATOM     50  C   UNL A   1      40.664  27.891  29.026  1.00  0.00     0.037 A 
ATOM     51  C   UNL A   1      42.787  32.413  33.228  1.00  0.00     0.049 A 
ATOM     52  C   UNL A   1      41.898  28.011  29.879  1.00  0.00     0.074 A 
ATOM     53  C   UNL A   1      43.925  32.379  34.013  1.00  0.00     0.029 A 
ATOM     54  N   UNL A   1      42.781  31.246  32.478  1.00  0.00    -0.354 N 
ATOM     55  N   UNL A   1      42.236  28.962  30.715  1.00  0.00    -0.248 NA
ATOM     56  C   UNL A   1      42.877  26.919  29.783  1.00  0.00     0.031 C 
ATOM     57  C   UNL A   1      44.631  31.210  33.707  1.00  0.00     0.029 A 
ATOM     58  C   UNL A   1      43.908  30.493  32.767  1.00  0.00     0.049 A 
ATOM     59  H   UNL A   1      42.080  30.991  31.836  1.00  0.00     0.167 HD
ATOM     60  C   UNL A   1      43.451  28.573  31.264  1.00  0.00     0.074 A 
ATOM     61  C   UNL A   1      43.783  27.292  30.676  1.00  0.00     0.031 C 
ATOM     62  C   UNL A   1      44.221  29.218  32.175  1.00  0.00     0.037 A 
BRANCH  49  63
ATOM     63  C   UNL A   1      41.952  34.681  33.977  1.00  0.00     0.057 A 
ATOM     64  C   UNL A   1      42.575  35.825  33.458  1.00  0.00     0.134 A 
ATOM     65  C   UNL A   1      41.488  34.744  35.297  1.00  0.00     0.134 A 
ATOM     66  F   UNL A   1      43.054  35.829  32.204  1.00  0.00    -0.206 F 
ATOM     67  C   UNL A   1      42.764  36.970  34.232  1.00  0.00     0.040 A 
ATOM     68  C   UNL A   1      41.644  35.894  36.071  1.00  0.00     0.040 A 
ATOM     69  F   UNL A   1      40.876  33.689  35.856  1.00  0.00    -0.206 F 
ATOM     70  C   UNL A   1      42.293  37.008  35.543  1.00  0.00     0.006 A 
ENDBRANCH  49  63
BRANCH  50  71
ATOM     71  C   UNL A   1      40.452  26.704  28.160  1.00  0.00     0.057 A 
ATOM     72  C   UNL A   1      39.572  25.685  28.540  1.00  0.00     0.134 A 
ATOM     73  C   UNL A   1      41.112  26.563  26.933  1.00  0.00     0.134 A 
ATOM     74  F   UNL A   1      38.924  25.755  29.712  1.00  0.00    -0.206 F 
ATOM     75  C   UNL A   1      39.365  24.560  27.740  1.00  0.00     0.040 A 
ATOM     76  C   UNL A   1      40.896  25.455  26.112  1.00  0.00     0.040 A 
ATOM     77  F   UNL A   1      41.963  27.509  26.509  1.00  0.00    -0.206 F 
ATOM     78  C   UNL A   1      40.025  24.447  26.518  1.00  0.00     0.006 A 
ENDBRANCH  50  71
BRANCH  62  79
ATOM     79  C   UNL A   1      45.482  28.534  32.615  1.00  0.00     0.057 A 
ATOM     80  C   UNL A   1      46.709  28.768  31.984  1.00  0.00     0.134 A 
ATOM     81  C   UNL A   1      45.473  27.663  33.713  1.00  0.00     0.134 A 
ATOM     82  F   UNL A   1      46.783  29.580  30.919  1.00  0.00    -0.206 F 
ATOM     83  C   UNL A   1      47.881  28.143  32.416  1.00  0.00     0.040 A 
ATOM     84  C   UNL A   1      46.642  27.054  34.170  1.00  0.00     0.040 A 
ATOM     85  F   UNL A   1      44.331  27.404  34.368  1.00  0.00    -0.206 F 
ATOM     86  C   UNL A   1      47.850  27.288  33.517  1.00  0.00     0.006 A 
ENDBRANCH  62  79
ENDBRANCH  36  37
ENDBRANCH  28  31
ENDBRANCH  26  27
ENDBRANCH  25  26
ENDBRANCH   1  25
TORSDOF 14
ENDMDL
MODEL 3
REMARK VINA RESULT:     -11.6      0.694      6.259
REMARK SMILES CC[C@@]1(C(=O)NCCCNC(=O)c2ccc(-c3c4nc(c(-c5c(F)cccc5F)c5ccc([nH]5)c(-c5c(F)cccc5F)c5nc(c(-c6c(F)cccc6F)c6ccc3[nH]6)C=C5)C=C4)cc2)CCC[N@@H+](Cc2ccc(C3CC3)cc2)C1
REMARK SMILES IDX 7 1 6 2 4 3 5 4 3 6 67 7 81 8 68 9 70 10 69 11 2 13 1 14
REMARK SMILES IDX 71 15 72 16 73 17 80 18 74 19 79 20 75 21 76 22 77 23 78 24
REMARK SMILES IDX 8 25 9 26 10 27 11 28 12 30 13 31 14 32 66 33 15 34 65 35
REMARK SMILES IDX 16 36 17 37 18 38 59 39 19 40 64 41 58 42 60 43 20 44 63 45
REMARK SMILES IDX 57 46 56 47 21 49 47 50 30 51 46 52 31 53 34 54 45 55 61 56
REMARK SMILES IDX 32 57 33 58 44 60 62 61 35 62 22 63 23 64 28 65 24 66 25 67
REMARK SMILES IDX 27 68 29 69 26 70 48 71 49 72 54 73 50 74 51 75 53 76 55 77
REMARK SMILES IDX 52 78 36 79 37 80 42 81 38 82 39 83 41 84 43 85 40 86
REMARK H PARENT 6 5 70 12 10 29 60 48 34 59
REMARK Flexibility Score: inf
ROOT
ATOM      1  C   UNL A   1      36.508  20.331  24.941  1.00  0.00     0.117 C 
ENDROOT
BRANCH   1   2
ATOM      2  N   UNL A   1      36.778  21.673  24.436  1.00  0.00    -0.355 N 
ATOM      3  C   UNL A   1      35.953  22.570  23.817  1.00  0.00     0.231 C 
ATOM      4  O   UNL A   1      36.439  23.101  22.810  1.00  0.00    -0.274 OA
ATOM      5  H   UNL A   1      37.704  21.982  24.561  1.00  0.00     0.163 HD
BRANCH   3   6
ATOM      6  C   UNL A   1      34.681  23.161  24.480  1.00  0.00     0.098 C 
ATOM      7  C   UNL A   1      33.394  22.337  24.374  1.00  0.00     0.028 C 
ATOM      8  C   UNL A   1      34.403  24.592  23.920  1.00  0.00     0.279 C 
ATOM      9  C   UNL A   1      32.833  22.365  22.959  1.00  0.00     0.063 C 
ATOM     10  N   UNL A   1      33.575  24.739  22.710  1.00  0.00    -0.330 N 
ATOM     11  C   UNL A   1      32.480  23.780  22.544  1.00  0.00     0.262 C 
ATOM     12  H   UNL A   1      34.213  24.494  21.954  1.00  0.00     0.348 HD
BRANCH   6  13
ATOM     13  C   UNL A   1      35.142  23.343  25.981  1.00  0.00     0.019 C 
ATOM     14  C   UNL A   1      34.391  22.554  27.048  1.00  0.00     0.005 C 
ENDBRANCH   6  13
BRANCH  10  15
ATOM     15  C   UNL A   1      33.114  26.145  22.531  1.00  0.00     0.299 C 
BRANCH  15  16
ATOM     16  C   UNL A   1      32.929  26.933  23.824  1.00  0.00     0.006 A 
ATOM     17  C   UNL A   1      33.827  27.957  24.149  1.00  0.00     0.010 A 
ATOM     18  C   UNL A   1      31.790  26.782  24.622  1.00  0.00     0.010 A 
ATOM     19  C   UNL A   1      33.530  28.865  25.174  1.00  0.00     0.004 A 
ATOM     20  C   UNL A   1      31.490  27.710  25.626  1.00  0.00     0.004 A 
ATOM     21  C   UNL A   1      32.335  28.795  25.908  1.00  0.00    -0.045 A 
BRANCH  21  22
ATOM     22  C   UNL A   1      32.002  29.869  26.927  1.00  0.00     0.019 C 
ATOM     23  C   UNL A   1      32.972  30.982  27.250  1.00  0.00     0.009 C 
ATOM     24  C   UNL A   1      31.711  31.283  26.493  1.00  0.00     0.009 C 
ENDBRANCH  21  22
ENDBRANCH  15  16
ENDBRANCH  10  15
ENDBRANCH   3   6
ENDBRANCH   1   2
BRANCH   1  25
ATOM     25  C   UNL A   1      37.770  19.470  25.002  1.00  0.00     0.042 C 
BRANCH  25  26
ATOM     26  C   UNL A   1      38.922  20.116  25.753  1.00  0.00     0.118 C 
BRANCH  26  27
ATOM     27  N   UNL A   1      40.082  19.248  25.842  1.00  0.00    -0.352 N 
ATOM     28  C   UNL A   1      41.389  19.568  26.125  1.00  0.00     0.251 C 
ATOM     29  H   UNL A   1      39.908  18.294  25.677  1.00  0.00     0.163 HD
ATOM     30  O   UNL A   1      42.271  18.731  25.956  1.00  0.00    -0.269 OA
BRANCH  28  31
ATOM     31  C   UNL A   1      41.743  20.924  26.607  1.00  0.00     0.039 A 
ATOM     32  C   UNL A   1      41.703  21.186  27.979  1.00  0.00     0.014 A 
ATOM     33  C   UNL A   1      42.092  21.944  25.718  1.00  0.00     0.014 A 
ATOM     34  C   UNL A   1      42.062  22.450  28.457  1.00  0.00     0.010 A 
ATOM     35  C   UNL A   1      42.556  23.163  26.201  1.00  0.00     0.010 A 
ATOM     36  C   UNL A   1      42.520  23.442  27.574  1.00  0.00    -0.014 A 
BRANCH  36  37
ATOM     37  C   UNL A   1      42.912  24.791  28.059  1.00  0.00     0.031 A 
ATOM     38  C   UNL A   1      41.857  25.841  28.293  1.00  0.00     0.074 A 
ATOM     39  C   UNL A   1      44.212  25.093  28.239  1.00  0.00     0.049 A 
ATOM     40  N   UNL A   1      41.998  27.091  28.660  1.00  0.00    -0.248 NA
ATOM     41  C   UNL A   1      40.461  25.445  28.050  1.00  0.00     0.031 C 
ATOM     42  C   UNL A   1      45.336  24.186  27.999  1.00  0.00     0.029 A 
ATOM     43  N   UNL A   1      44.809  26.254  28.665  1.00  0.00    -0.354 N 
ATOM     44  C   UNL A   1      40.716  27.627  28.667  1.00  0.00     0.074 A 
ATOM     45  C   UNL A   1      39.821  26.592  28.206  1.00  0.00     0.031 C 
ATOM     46  C   UNL A   1      46.481  24.811  28.315  1.00  0.00     0.029 A 
ATOM     47  C   UNL A   1      46.179  26.173  28.742  1.00  0.00     0.049 A 
ATOM     48  H   UNL A   1      44.304  27.067  28.893  1.00  0.00     0.167 HD
ATOM     49  C   UNL A   1      40.314  28.863  29.051  1.00  0.00     0.037 A 
ATOM     50  C   UNL A   1      47.087  27.093  29.117  1.00  0.00     0.037 A 
ATOM     51  C   UNL A   1      41.201  29.881  29.545  1.00  0.00     0.049 A 
ATOM     52  C   UNL A   1      46.619  28.457  29.546  1.00  0.00     0.074 A 
ATOM     53  C   UNL A   1      40.888  31.141  30.023  1.00  0.00     0.029 A 
ATOM     54  N   UNL A   1      42.580  29.755  29.621  1.00  0.00    -0.354 N 
ATOM     55  N   UNL A   1      45.398  28.928  29.614  1.00  0.00    -0.248 NA
ATOM     56  C   UNL A   1      47.656  29.414  29.955  1.00  0.00     0.031 C 
ATOM     57  C   UNL A   1      42.082  31.793  30.350  1.00  0.00     0.029 A 
ATOM     58  C   UNL A   1      43.135  30.922  30.120  1.00  0.00     0.049 A 
ATOM     59  H   UNL A   1      43.089  28.954  29.360  1.00  0.00     0.167 HD
ATOM     60  C   UNL A   1      45.516  30.225  30.097  1.00  0.00     0.074 A 
ATOM     61  C   UNL A   1      46.928  30.461  30.319  1.00  0.00     0.031 C 
ATOM     62  C   UNL A   1      44.543  31.138  30.338  1.00  0.00     0.037 A 
BRANCH  49  63
ATOM     63  C   UNL A   1      38.846  29.170  28.956  1.00  0.00     0.057 A 
ATOM     64  C   UNL A   1      37.993  29.069  30.064  1.00  0.00     0.134 A 
ATOM     65  C   UNL A   1      38.278  29.577  27.742  1.00  0.00     0.134 A 
ATOM     66  F   UNL A   1      38.469  28.672  31.254  1.00  0.00    -0.206 F 
ATOM     67  C   UNL A   1      36.625  29.325  29.961  1.00  0.00     0.040 A 
ATOM     68  C   UNL A   1      36.916  29.866  27.634  1.00  0.00     0.040 A 
ATOM     69  F   UNL A   1      39.035  29.702  26.642  1.00  0.00    -0.206 F 
ATOM     70  C   UNL A   1      36.084  29.730  28.742  1.00  0.00     0.006 A 
ENDBRANCH  49  63
BRANCH  50  71
ATOM     71  C   UNL A   1      48.530  26.743  29.143  1.00  0.00     0.057 A 
ATOM     72  C   UNL A   1      49.100  26.128  30.263  1.00  0.00     0.134 A 
ATOM     73  C   UNL A   1      49.369  27.004  28.052  1.00  0.00     0.134 A 
ATOM     74  F   UNL A   1      48.352  25.868  31.345  1.00  0.00    -0.206 F 
ATOM     75  C   UNL A   1      50.456  25.796  30.305  1.00  0.00     0.040 A 
ATOM     76  C   UNL A   1      50.720  26.656  28.072  1.00  0.00     0.040 A 
ATOM     77  F   UNL A   1      48.881  27.585  26.947  1.00  0.00    -0.206 F 
ATOM     78  C   UNL A   1      51.268  26.055  29.203  1.00  0.00     0.006 A 
ENDBRANCH  50  71
BRANCH  62  79
ATOM     79  C   UNL A   1      44.967  32.464  30.898  1.00  0.00     0.057 A 
ATOM     80  C   UNL A   1      45.060  32.689  32.276  1.00  0.00     0.134 A 
ATOM     81  C   UNL A   1      45.328  33.514  30.043  1.00  0.00     0.134 A 
ATOM     82  F   UNL A   1      44.717  31.729  33.147  1.00  0.00    -0.206 F 
ATOM     83  C   UNL A   1      45.478  33.920  32.786  1.00  0.00     0.040 A 
ATOM     84  C   UNL A   1      45.771  34.739  30.541  1.00  0.00     0.040 A 
ATOM     85  F   UNL A   1      45.270  33.360  28.712  1.00  0.00    -0.206 F 
ATOM     86  C   UNL A   1      45.842  34.947  31.917  1.00  0.00     0.006 A 
ENDBRANCH  62  79
ENDBRANCH  36  37
ENDBRANCH  28  31
ENDBRANCH  26  27
ENDBRANCH  25  26
ENDBRANCH   1  25
TORSDOF 14
ENDMDL
