MODEL 1
REMARK VINA RESULT:     -12.3      0.000      0.000
REMARK SMILES COc1cc([C@@H]2[NH2+][C@H](C(=O)NCCCNC(=O)c3ccc(-c4c5nc(c(-c6c(F)cccc6F)c6ccc([nH]6)c(-c6c(F)cccc6F)c6nc(c(-c7c(F)cccc7F)c7ccc4[nH]7)C=C6)C=C5)cc3)CS2)ccc1OCc1ccc(Cl)cc1
REMARK SMILES IDX 12 1 11 2 9 3 10 4 8 6 6 7 7 8 73 9 72 12 5 13 3 14 4 15
REMARK SMILES IDX 76 16 75 17 74 18 2 19 1 20 77 21 78 22 79 23 80 24 85 25
REMARK SMILES IDX 81 26 84 27 82 28 83 29 13 30 14 31 15 32 16 33 17 35 18 36
REMARK SMILES IDX 19 37 71 38 20 39 70 40 21 41 22 42 23 43 64 44 24 45 69 46
REMARK SMILES IDX 63 47 65 48 25 49 68 50 62 51 61 52 26 54 52 55 35 56 51 57
REMARK SMILES IDX 36 58 39 59 50 60 66 61 37 62 38 63 49 65 67 66 40 67 27 68
REMARK SMILES IDX 28 69 33 70 29 71 30 72 32 73 34 74 31 75 53 76 54 77 59 78
REMARK SMILES IDX 55 79 56 80 58 81 60 82 57 83 41 84 42 85 47 86 43 87 44 88
REMARK SMILES IDX 46 89 48 90 45 91
REMARK H PARENT 11 5 7 10 7 11 15 34 65 53 39 64
REMARK Flexibility Score: inf
ROOT
ATOM      1  C   UNL A   1      39.276  21.024  26.145  1.00  0.00     0.118 C 
ENDROOT
BRANCH   1   2
ATOM      2  N   UNL A   1      38.741  22.189  25.454  1.00  0.00    -0.351 N 
ATOM      3  C   UNL A   1      37.471  22.661  25.303  1.00  0.00     0.279 C 
ATOM      4  O   UNL A   1      37.344  23.689  24.627  1.00  0.00    -0.268 OA
ATOM      5  H   UNL A   1      39.428  22.740  25.012  1.00  0.00     0.163 HD
BRANCH   3   6
ATOM      6  C   UNL A   1      36.226  22.027  25.950  1.00  0.00     0.283 C 
ATOM      7  C   UNL A   1      34.059  22.594  26.868  1.00  0.00     0.274 C 
ATOM      8  N   UNL A   1      35.470  22.999  26.758  1.00  0.00    -0.321 N 
ATOM      9  S   UNL A   1      33.814  21.082  25.898  1.00  0.00    -0.088 SA
ATOM     10  H   UNL A   1      35.877  23.047  27.692  1.00  0.00     0.348 HD
ATOM     11  H   UNL A   1      35.517  23.910  26.305  1.00  0.00     0.348 HD
ATOM     12  C   UNL A   1      35.322  21.347  24.938  1.00  0.00     0.151 C 
BRANCH   7  13
ATOM     13  C   UNL A   1      33.244  23.800  26.417  1.00  0.00     0.024 A 
ATOM     14  C   UNL A   1      33.018  25.480  24.662  1.00  0.00     0.161 A 
ATOM     15  C   UNL A   1      33.822  24.681  25.481  1.00  0.00     0.061 A 
ATOM     16  C   UNL A   1      31.629  25.377  24.757  1.00  0.00     0.161 A 
ATOM     17  C   UNL A   1      31.065  24.633  25.794  1.00  0.00     0.051 A 
ATOM     18  C   UNL A   1      31.863  23.880  26.643  1.00  0.00     0.015 A 
BRANCH  14  19
ATOM     19  O   UNL A   1      33.642  26.167  23.656  1.00  0.00    -0.493 OA
ATOM     20  C   UNL A   1      33.700  27.563  23.958  1.00  0.00     0.278 C 
ENDBRANCH  14  19
BRANCH  16  21
ATOM     21  O   UNL A   1      30.691  25.789  23.859  1.00  0.00    -0.485 OA
BRANCH  21  22
ATOM     22  C   UNL A   1      29.587  26.540  24.322  1.00  0.00     0.265 C 
BRANCH  22  23
ATOM     23  C   UNL A   1      29.300  27.770  23.504  1.00  0.00    -0.011 A 
ATOM     24  C   UNL A   1      30.325  28.602  23.036  1.00  0.00     0.009 A 
ATOM     25  C   UNL A   1      27.971  28.122  23.244  1.00  0.00     0.009 A 
ATOM     26  C   UNL A   1      30.035  29.700  22.233  1.00  0.00     0.021 A 
ATOM     27  C   UNL A   1      27.675  29.230  22.455  1.00  0.00     0.021 A 
ATOM     28  C   UNL A   1      28.711  29.999  21.932  1.00  0.00     0.041 A 
ATOM     29  Cl  UNL A   1      28.352  31.326  20.903  1.00  0.00    -0.084 Cl
ENDBRANCH  22  23
ENDBRANCH  21  22
ENDBRANCH  16  21
ENDBRANCH   7  13
ENDBRANCH   3   6
ENDBRANCH   1   2
BRANCH   1  30
ATOM     30  C   UNL A   1      40.712  20.715  25.735  1.00  0.00     0.042 C 
BRANCH  30  31
ATOM     31  C   UNL A   1      41.813  21.648  26.255  1.00  0.00     0.118 C 
BRANCH  31  32
ATOM     32  N   UNL A   1      42.638  22.346  25.276  1.00  0.00    -0.352 N 
ATOM     33  C   UNL A   1      43.094  23.650  25.203  1.00  0.00     0.251 C 
ATOM     34  H   UNL A   1      42.928  21.781  24.524  1.00  0.00     0.163 HD
ATOM     35  O   UNL A   1      43.909  23.922  24.317  1.00  0.00    -0.269 OA
BRANCH  33  36
ATOM     36  C   UNL A   1      42.588  24.757  26.071  1.00  0.00     0.039 A 
ATOM     37  C   UNL A   1      41.485  24.495  26.905  1.00  0.00     0.014 A 
ATOM     38  C   UNL A   1      43.185  26.012  26.151  1.00  0.00     0.014 A 
ATOM     39  C   UNL A   1      41.125  25.390  27.928  1.00  0.00     0.010 A 
ATOM     40  C   UNL A   1      42.868  26.882  27.197  1.00  0.00     0.010 A 
ATOM     41  C   UNL A   1      41.860  26.564  28.118  1.00  0.00    -0.014 A 
BRANCH  41  42
ATOM     42  C   UNL A   1      41.517  27.549  29.175  1.00  0.00     0.031 A 
ATOM     43  C   UNL A   1      42.311  27.528  30.442  1.00  0.00     0.074 A 
ATOM     44  C   UNL A   1      40.462  28.379  29.064  1.00  0.00     0.049 A 
ATOM     45  N   UNL A   1      42.130  28.208  31.542  1.00  0.00    -0.248 NA
ATOM     46  C   UNL A   1      43.425  26.569  30.490  1.00  0.00     0.031 C 
ATOM     47  C   UNL A   1      39.553  28.429  27.928  1.00  0.00     0.029 A 
ATOM     48  N   UNL A   1      39.961  29.330  29.923  1.00  0.00    -0.354 N 
ATOM     49  C   UNL A   1      43.085  27.733  32.426  1.00  0.00     0.074 A 
ATOM     50  C   UNL A   1      43.819  26.688  31.746  1.00  0.00     0.031 C 
ATOM     51  C   UNL A   1      38.640  29.395  28.122  1.00  0.00     0.029 A 
ATOM     52  C   UNL A   1      38.863  30.001  29.431  1.00  0.00     0.049 A 
ATOM     53  H   UNL A   1      40.352  29.513  30.807  1.00  0.00     0.167 HD
ATOM     54  C   UNL A   1      43.331  28.133  33.695  1.00  0.00     0.037 A 
ATOM     55  C   UNL A   1      38.120  30.982  29.984  1.00  0.00     0.037 A 
ATOM     56  C   UNL A   1      42.601  29.167  34.373  1.00  0.00     0.049 A 
ATOM     57  C   UNL A   1      38.436  31.434  31.387  1.00  0.00     0.074 A 
ATOM     58  C   UNL A   1      42.794  29.661  35.650  1.00  0.00     0.029 A 
ATOM     59  N   UNL A   1      41.531  29.862  33.829  1.00  0.00    -0.354 N 
ATOM     60  N   UNL A   1      39.385  31.022  32.193  1.00  0.00    -0.248 NA
ATOM     61  C   UNL A   1      37.566  32.468  31.967  1.00  0.00     0.031 C 
ATOM     62  C   UNL A   1      41.819  30.637  35.890  1.00  0.00     0.029 A 
ATOM     63  C   UNL A   1      41.046  30.776  34.749  1.00  0.00     0.049 A 
ATOM     64  H   UNL A   1      41.170  29.727  32.923  1.00  0.00     0.167 HD
ATOM     65  C   UNL A   1      39.233  31.753  33.365  1.00  0.00     0.074 A 
ATOM     66  C   UNL A   1      38.119  32.653  33.157  1.00  0.00     0.031 C 
ATOM     67  C   UNL A   1      39.945  31.676  34.516  1.00  0.00     0.037 A 
BRANCH  54  68
ATOM     68  C   UNL A   1      44.427  27.415  34.417  1.00  0.00     0.057 A 
ATOM     69  C   UNL A   1      45.750  27.876  34.387  1.00  0.00     0.134 A 
ATOM     70  C   UNL A   1      44.168  26.225  35.105  1.00  0.00     0.134 A 
ATOM     71  F   UNL A   1      46.064  28.996  33.718  1.00  0.00    -0.206 F 
ATOM     72  C   UNL A   1      46.784  27.157  34.984  1.00  0.00     0.040 A 
ATOM     73  C   UNL A   1      45.191  25.511  35.730  1.00  0.00     0.040 A 
ATOM     74  F   UNL A   1      42.924  25.728  35.164  1.00  0.00    -0.206 F 
ATOM     75  C   UNL A   1      46.504  25.971  35.661  1.00  0.00     0.006 A 
ENDBRANCH  54  68
BRANCH  55  76
ATOM     76  C   UNL A   1      37.004  31.619  29.233  1.00  0.00     0.057 A 
ATOM     77  C   UNL A   1      37.135  32.921  28.728  1.00  0.00     0.134 A 
ATOM     78  C   UNL A   1      35.770  30.985  29.053  1.00  0.00     0.134 A 
ATOM     79  F   UNL A   1      38.284  33.594  28.890  1.00  0.00    -0.206 F 
ATOM     80  C   UNL A   1      36.075  33.577  28.098  1.00  0.00     0.040 A 
ATOM     81  C   UNL A   1      34.709  31.620  28.401  1.00  0.00     0.040 A 
ATOM     82  F   UNL A   1      35.575  29.740  29.507  1.00  0.00    -0.206 F 
ATOM     83  C   UNL A   1      34.856  32.924  27.931  1.00  0.00     0.006 A 
ENDBRANCH  55  76
BRANCH  67  84
ATOM     84  C   UNL A   1      39.563  32.607  35.627  1.00  0.00     0.057 A 
ATOM     85  C   UNL A   1      40.125  33.884  35.747  1.00  0.00     0.134 A 
ATOM     86  C   UNL A   1      38.575  32.244  36.551  1.00  0.00     0.134 A 
ATOM     87  F   UNL A   1      41.086  34.286  34.902  1.00  0.00    -0.206 F 
ATOM     88  C   UNL A   1      39.727  34.764  36.755  1.00  0.00     0.040 A 
ATOM     89  C   UNL A   1      38.151  33.123  37.548  1.00  0.00     0.040 A 
ATOM     90  F   UNL A   1      37.992  31.038  36.486  1.00  0.00    -0.206 F 
ATOM     91  C   UNL A   1      38.730  34.387  37.653  1.00  0.00     0.006 A 
ENDBRANCH  67  84
ENDBRANCH  41  42
ENDBRANCH  33  36
ENDBRANCH  31  32
ENDBRANCH  30  31
ENDBRANCH   1  30
TORSDOF 15
ENDMDL
MODEL 2
REMARK VINA RESULT:     -12.3      1.654      6.386
REMARK SMILES COc1cc([C@@H]2[NH2+][C@H](C(=O)NCCCNC(=O)c3ccc(-c4c5nc(c(-c6c(F)cccc6F)c6ccc([nH]6)c(-c6c(F)cccc6F)c6nc(c(-c7c(F)cccc7F)c7ccc4[nH]7)C=C6)C=C5)cc3)CS2)ccc1OCc1ccc(Cl)cc1
REMARK SMILES IDX 12 1 11 2 9 3 10 4 8 6 6 7 7 8 73 9 72 12 5 13 3 14 4 15
REMARK SMILES IDX 76 16 75 17 74 18 2 19 1 20 77 21 78 22 79 23 80 24 85 25
REMARK SMILES IDX 81 26 84 27 82 28 83 29 13 30 14 31 15 32 16 33 17 35 18 36
REMARK SMILES IDX 19 37 71 38 20 39 70 40 21 41 22 42 23 43 64 44 24 45 69 46
REMARK SMILES IDX 63 47 65 48 25 49 68 50 62 51 61 52 26 54 52 55 35 56 51 57
REMARK SMILES IDX 36 58 39 59 50 60 66 61 37 62 38 63 49 65 67 66 40 67 27 68
REMARK SMILES IDX 28 69 33 70 29 71 30 72 32 73 34 74 31 75 53 76 54 77 59 78
REMARK SMILES IDX 55 79 56 80 58 81 60 82 57 83 41 84 42 85 47 86 43 87 44 88
REMARK SMILES IDX 46 89 48 90 45 91
REMARK H PARENT 11 5 7 10 7 11 15 34 65 53 39 64
REMARK Flexibility Score: inf
ROOT
ATOM      1  C   UNL A   1      37.893  21.492  25.624  1.00  0.00     0.118 C 
ENDROOT
BRANCH   1   2
ATOM      2  N   UNL A   1      37.401  22.309  24.524  1.00  0.00    -0.351 N 
ATOM      3  C   UNL A   1      36.149  22.519  24.027  1.00  0.00     0.279 C 
ATOM      4  O   UNL A   1      36.064  23.272  23.050  1.00  0.00    -0.268 OA
ATOM      5  H   UNL A   1      38.107  22.803  24.048  1.00  0.00     0.163 HD
BRANCH   3   6
ATOM      6  C   UNL A   1      34.864  21.921  24.632  1.00  0.00     0.283 C 
ATOM      7  C   UNL A   1      33.025  22.464  26.110  1.00  0.00     0.274 C 
ATOM      8  N   UNL A   1      34.471  22.606  25.875  1.00  0.00    -0.321 N 
ATOM      9  S   UNL A   1      32.301  21.548  24.722  1.00  0.00    -0.088 SA
ATOM     10  H   UNL A   1      34.979  22.196  26.659  1.00  0.00     0.348 HD
ATOM     11  H   UNL A   1      34.695  23.597  25.790  1.00  0.00     0.348 HD
ATOM     12  C   UNL A   1      33.711  21.892  23.645  1.00  0.00     0.151 C 
BRANCH   7  13
ATOM     13  C   UNL A   1      32.494  23.878  26.309  1.00  0.00     0.024 A 
ATOM     14  C   UNL A   1      32.800  26.208  25.649  1.00  0.00     0.161 A 
ATOM     15  C   UNL A   1      33.337  24.958  25.974  1.00  0.00     0.061 A 
ATOM     16  C   UNL A   1      31.415  26.373  25.629  1.00  0.00     0.161 A 
ATOM     17  C   UNL A   1      30.595  25.357  26.120  1.00  0.00     0.051 A 
ATOM     18  C   UNL A   1      31.129  24.132  26.494  1.00  0.00     0.015 A 
BRANCH  14  19
ATOM     19  O   UNL A   1      33.665  27.148  25.157  1.00  0.00    -0.493 OA
ATOM     20  C   UNL A   1      33.834  28.217  26.092  1.00  0.00     0.278 C 
ENDBRANCH  14  19
BRANCH  16  21
ATOM     21  O   UNL A   1      30.693  27.365  25.033  1.00  0.00    -0.485 OA
BRANCH  21  22
ATOM     22  C   UNL A   1      29.872  27.042  23.930  1.00  0.00     0.265 C 
BRANCH  22  23
ATOM     23  C   UNL A   1      29.438  28.236  23.124  1.00  0.00    -0.011 A 
ATOM     24  C   UNL A   1      30.354  29.019  22.410  1.00  0.00     0.009 A 
ATOM     25  C   UNL A   1      28.088  28.606  23.124  1.00  0.00     0.009 A 
ATOM     26  C   UNL A   1      29.918  30.082  21.627  1.00  0.00     0.021 A 
ATOM     27  C   UNL A   1      27.649  29.680  22.355  1.00  0.00     0.021 A 
ATOM     28  C   UNL A   1      28.564  30.396  21.589  1.00  0.00     0.041 A 
ATOM     29  Cl  UNL A   1      28.017  31.679  20.586  1.00  0.00    -0.084 Cl
ENDBRANCH  22  23
ENDBRANCH  21  22
ENDBRANCH  16  21
ENDBRANCH   7  13
ENDBRANCH   3   6
ENDBRANCH   1   2
BRANCH   1  30
ATOM     30  C   UNL A   1      39.217  22.005  26.180  1.00  0.00     0.042 C 
BRANCH  30  31
ATOM     31  C   UNL A   1      39.288  23.480  26.593  1.00  0.00     0.118 C 
BRANCH  31  32
ATOM     32  N   UNL A   1      40.025  24.398  25.733  1.00  0.00    -0.352 N 
ATOM     33  C   UNL A   1      40.776  25.527  26.003  1.00  0.00     0.251 C 
ATOM     34  H   UNL A   1      39.980  24.170  24.777  1.00  0.00     0.163 HD
ATOM     35  O   UNL A   1      41.413  26.027  25.072  1.00  0.00    -0.269 OA
BRANCH  33  36
ATOM     36  C   UNL A   1      40.786  26.222  27.327  1.00  0.00     0.039 A 
ATOM     37  C   UNL A   1      41.674  27.300  27.503  1.00  0.00     0.014 A 
ATOM     38  C   UNL A   1      39.923  25.908  28.372  1.00  0.00     0.014 A 
ATOM     39  C   UNL A   1      41.556  28.159  28.610  1.00  0.00     0.010 A 
ATOM     40  C   UNL A   1      39.764  26.785  29.448  1.00  0.00     0.010 A 
ATOM     41  C   UNL A   1      40.553  27.938  29.560  1.00  0.00    -0.014 A 
BRANCH  41  42
ATOM     42  C   UNL A   1      40.390  28.807  30.753  1.00  0.00     0.031 A 
ATOM     43  C   UNL A   1      39.329  29.860  30.718  1.00  0.00     0.074 A 
ATOM     44  C   UNL A   1      41.225  28.738  31.807  1.00  0.00     0.049 A 
ATOM     45  N   UNL A   1      39.071  30.803  31.585  1.00  0.00    -0.248 NA
ATOM     46  C   UNL A   1      38.484  29.885  29.515  1.00  0.00     0.031 C 
ATOM     47  C   UNL A   1      42.354  27.826  31.921  1.00  0.00     0.029 A 
ATOM     48  N   UNL A   1      41.268  29.456  32.980  1.00  0.00    -0.354 N 
ATOM     49  C   UNL A   1      38.057  31.555  31.016  1.00  0.00     0.074 A 
ATOM     50  C   UNL A   1      37.771  30.980  29.719  1.00  0.00     0.031 C 
ATOM     51  C   UNL A   1      42.948  27.991  33.115  1.00  0.00     0.029 A 
ATOM     52  C   UNL A   1      42.274  29.066  33.836  1.00  0.00     0.049 A 
ATOM     53  H   UNL A   1      40.637  30.182  33.188  1.00  0.00     0.167 HD
ATOM     54  C   UNL A   1      37.417  32.631  31.528  1.00  0.00     0.037 A 
ATOM     55  C   UNL A   1      42.615  29.535  35.053  1.00  0.00     0.037 A 
ATOM     56  C   UNL A   1      37.702  33.206  32.813  1.00  0.00     0.049 A 
ATOM     57  C   UNL A   1      41.864  30.715  35.618  1.00  0.00     0.074 A 
ATOM     58  C   UNL A   1      37.090  34.281  33.430  1.00  0.00     0.029 A 
ATOM     59  N   UNL A   1      38.690  32.755  33.675  1.00  0.00    -0.354 N 
ATOM     60  N   UNL A   1      40.861  31.380  35.098  1.00  0.00    -0.248 NA
ATOM     61  C   UNL A   1      42.306  31.224  36.925  1.00  0.00     0.031 C 
ATOM     62  C   UNL A   1      37.728  34.499  34.656  1.00  0.00     0.029 A 
ATOM     63  C   UNL A   1      38.711  33.536  34.817  1.00  0.00     0.049 A 
ATOM     64  H   UNL A   1      39.288  31.992  33.502  1.00  0.00     0.167 HD
ATOM     65  C   UNL A   1      40.546  32.374  36.016  1.00  0.00     0.074 A 
ATOM     66  C   UNL A   1      41.445  32.209  37.138  1.00  0.00     0.031 C 
ATOM     67  C   UNL A   1      39.605  33.345  35.932  1.00  0.00     0.037 A 
BRANCH  54  68
ATOM     68  C   UNL A   1      36.365  33.252  30.664  1.00  0.00     0.057 A 
ATOM     69  C   UNL A   1      35.001  33.017  30.886  1.00  0.00     0.134 A 
ATOM     70  C   UNL A   1      36.719  34.049  29.570  1.00  0.00     0.134 A 
ATOM     71  F   UNL A   1      34.603  32.235  31.901  1.00  0.00    -0.206 F 
ATOM     72  C   UNL A   1      34.027  33.522  30.026  1.00  0.00     0.040 A 
ATOM     73  C   UNL A   1      35.751  34.584  28.719  1.00  0.00     0.040 A 
ATOM     74  F   UNL A   1      38.007  34.306  29.302  1.00  0.00    -0.206 F 
ATOM     75  C   UNL A   1      34.402  34.311  28.939  1.00  0.00     0.006 A 
ENDBRANCH  54  68
BRANCH  55  76
ATOM     76  C   UNL A   1      43.711  28.908  35.841  1.00  0.00     0.057 A 
ATOM     77  C   UNL A   1      45.028  29.382  35.737  1.00  0.00     0.134 A 
ATOM     78  C   UNL A   1      43.497  27.796  36.662  1.00  0.00     0.134 A 
ATOM     79  F   UNL A   1      45.306  30.429  34.946  1.00  0.00    -0.206 F 
ATOM     80  C   UNL A   1      46.089  28.757  36.394  1.00  0.00     0.040 A 
ATOM     81  C   UNL A   1      44.546  27.177  37.347  1.00  0.00     0.040 A 
ATOM     82  F   UNL A   1      42.264  27.292  36.811  1.00  0.00    -0.206 F 
ATOM     83  C   UNL A   1      45.849  27.651  37.205  1.00  0.00     0.006 A 
ENDBRANCH  55  76
BRANCH  67  84
ATOM     84  C   UNL A   1      39.477  34.284  37.093  1.00  0.00     0.057 A 
ATOM     85  C   UNL A   1      40.043  35.565  37.074  1.00  0.00     0.134 A 
ATOM     86  C   UNL A   1      38.724  33.925  38.219  1.00  0.00     0.134 A 
ATOM     87  F   UNL A   1      40.787  35.964  36.031  1.00  0.00    -0.206 F 
ATOM     88  C   UNL A   1      39.876  36.451  38.140  1.00  0.00     0.040 A 
ATOM     89  C   UNL A   1      38.530  34.810  39.279  1.00  0.00     0.040 A 
ATOM     90  F   UNL A   1      38.150  32.715  38.296  1.00  0.00    -0.206 F 
ATOM     91  C   UNL A   1      39.109  36.078  39.242  1.00  0.00     0.006 A 
ENDBRANCH  67  84
ENDBRANCH  41  42
ENDBRANCH  33  36
ENDBRANCH  31  32
ENDBRANCH  30  31
ENDBRANCH   1  30
TORSDOF 15
ENDMDL
MODEL 3
REMARK VINA RESULT:     -12.2      3.554      8.526
REMARK SMILES COc1cc([C@@H]2[NH2+][C@H](C(=O)NCCCNC(=O)c3ccc(-c4c5nc(c(-c6c(F)cccc6F)c6ccc([nH]6)c(-c6c(F)cccc6F)c6nc(c(-c7c(F)cccc7F)c7ccc4[nH]7)C=C6)C=C5)cc3)CS2)ccc1OCc1ccc(Cl)cc1
REMARK SMILES IDX 12 1 11 2 9 3 10 4 8 6 6 7 7 8 73 9 72 12 5 13 3 14 4 15
REMARK SMILES IDX 76 16 75 17 74 18 2 19 1 20 77 21 78 22 79 23 80 24 85 25
REMARK SMILES IDX 81 26 84 27 82 28 83 29 13 30 14 31 15 32 16 33 17 35 18 36
REMARK SMILES IDX 19 37 71 38 20 39 70 40 21 41 22 42 23 43 64 44 24 45 69 46
REMARK SMILES IDX 63 47 65 48 25 49 68 50 62 51 61 52 26 54 52 55 35 56 51 57
REMARK SMILES IDX 36 58 39 59 50 60 66 61 37 62 38 63 49 65 67 66 40 67 27 68
REMARK SMILES IDX 28 69 33 70 29 71 30 72 32 73 34 74 31 75 53 76 54 77 59 78
REMARK SMILES IDX 55 79 56 80 58 81 60 82 57 83 41 84 42 85 47 86 43 87 44 88
REMARK SMILES IDX 46 89 48 90 45 91
REMARK H PARENT 11 5 7 10 7 11 15 34 65 53 39 64
REMARK Flexibility Score: inf
ROOT
ATOM      1  C   UNL A   1      33.905  30.767  27.426  1.00  0.00     0.118 C 
ENDROOT
BRANCH   1   2
ATOM      2  N   UNL A   1      33.631  29.338  27.486  1.00  0.00    -0.351 N 
ATOM      3  C   UNL A   1      33.148  28.458  26.562  1.00  0.00     0.279 C 
ATOM      4  O   UNL A   1      33.008  27.289  26.938  1.00  0.00    -0.268 OA
ATOM      5  H   UNL A   1      33.831  28.930  28.359  1.00  0.00     0.163 HD
BRANCH   3   6
ATOM      6  C   UNL A   1      32.822  28.825  25.102  1.00  0.00     0.283 C 
ATOM      7  C   UNL A   1      32.714  27.872  22.879  1.00  0.00     0.274 C 
ATOM      8  N   UNL A   1      33.460  27.902  24.147  1.00  0.00    -0.321 N 
ATOM      9  S   UNL A   1      31.262  28.947  23.036  1.00  0.00    -0.088 SA
ATOM     10  H   UNL A   1      34.414  28.214  23.967  1.00  0.00     0.348 HD
ATOM     11  H   UNL A   1      33.465  26.966  24.549  1.00  0.00     0.348 HD
ATOM     12  C   UNL A   1      31.330  28.922  24.842  1.00  0.00     0.151 C 
BRANCH   7  13
ATOM     13  C   UNL A   1      32.415  26.404  22.606  1.00  0.00     0.024 A 
ATOM     14  C   UNL A   1      33.400  24.172  22.544  1.00  0.00     0.161 A 
ATOM     15  C   UNL A   1      33.497  25.548  22.314  1.00  0.00     0.061 A 
ATOM     16  C   UNL A   1      32.229  23.651  23.096  1.00  0.00     0.161 A 
ATOM     17  C   UNL A   1      31.107  24.471  23.226  1.00  0.00     0.051 A 
ATOM     18  C   UNL A   1      31.184  25.828  22.949  1.00  0.00     0.015 A 
BRANCH  14  19
ATOM     19  O   UNL A   1      34.547  23.437  22.414  1.00  0.00    -0.493 OA
ATOM     20  C   UNL A   1      35.294  23.445  23.633  1.00  0.00     0.278 C 
ENDBRANCH  14  19
BRANCH  16  21
ATOM     21  O   UNL A   1      32.046  22.442  23.698  1.00  0.00    -0.485 OA
BRANCH  21  22
ATOM     22  C   UNL A   1      31.797  21.309  22.892  1.00  0.00     0.265 C 
BRANCH  22  23
ATOM     23  C   UNL A   1      32.538  20.075  23.329  1.00  0.00    -0.011 A 
ATOM     24  C   UNL A   1      33.494  20.110  24.352  1.00  0.00     0.009 A 
ATOM     25  C   UNL A   1      32.304  18.866  22.663  1.00  0.00     0.009 A 
ATOM     26  C   UNL A   1      34.122  18.944  24.775  1.00  0.00     0.021 A 
ATOM     27  C   UNL A   1      32.942  17.699  23.072  1.00  0.00     0.021 A 
ATOM     28  C   UNL A   1      33.829  17.739  24.144  1.00  0.00     0.041 A 
ATOM     29  Cl  UNL A   1      34.567  16.289  24.695  1.00  0.00    -0.084 Cl
ENDBRANCH  22  23
ENDBRANCH  21  22
ENDBRANCH  16  21
ENDBRANCH   7  13
ENDBRANCH   3   6
ENDBRANCH   1   2
BRANCH   1  30
ATOM     30  C   UNL A   1      32.649  31.608  27.630  1.00  0.00     0.042 C 
BRANCH  30  31
ATOM     31  C   UNL A   1      32.555  32.938  26.873  1.00  0.00     0.118 C 
BRANCH  31  32
ATOM     32  N   UNL A   1      32.252  34.142  27.636  1.00  0.00    -0.352 N 
ATOM     33  C   UNL A   1      32.973  34.856  28.576  1.00  0.00     0.251 C 
ATOM     34  H   UNL A   1      31.363  34.520  27.445  1.00  0.00     0.163 HD
ATOM     35  O   UNL A   1      32.510  35.936  28.953  1.00  0.00    -0.269 OA
BRANCH  33  36
ATOM     36  C   UNL A   1      34.224  34.353  29.221  1.00  0.00     0.039 A 
ATOM     37  C   UNL A   1      34.107  33.641  30.429  1.00  0.00     0.014 A 
ATOM     38  C   UNL A   1      35.492  34.491  28.663  1.00  0.00     0.014 A 
ATOM     39  C   UNL A   1      35.195  32.918  30.950  1.00  0.00     0.010 A 
ATOM     40  C   UNL A   1      36.564  33.735  29.144  1.00  0.00     0.010 A 
ATOM     41  C   UNL A   1      36.417  32.913  30.270  1.00  0.00    -0.014 A 
BRANCH  41  42
ATOM     42  C   UNL A   1      37.601  32.177  30.780  1.00  0.00     0.031 A 
ATOM     43  C   UNL A   1      38.273  32.690  32.013  1.00  0.00     0.074 A 
ATOM     44  C   UNL A   1      38.138  31.135  30.115  1.00  0.00     0.049 A 
ATOM     45  N   UNL A   1      39.378  32.287  32.582  1.00  0.00    -0.248 NA
ATOM     46  C   UNL A   1      37.639  33.850  32.658  1.00  0.00     0.031 C 
ATOM     47  C   UNL A   1      37.639  30.602  28.855  1.00  0.00     0.029 A 
ATOM     48  N   UNL A   1      39.229  30.346  30.392  1.00  0.00    -0.354 N 
ATOM     49  C   UNL A   1      39.591  33.167  33.630  1.00  0.00     0.074 A 
ATOM     50  C   UNL A   1      38.522  34.141  33.598  1.00  0.00     0.031 C 
ATOM     51  C   UNL A   1      38.378  29.540  28.491  1.00  0.00     0.029 A 
ATOM     52  C   UNL A   1      39.446  29.348  29.467  1.00  0.00     0.049 A 
ATOM     53  H   UNL A   1      39.804  30.482  31.180  1.00  0.00     0.167 HD
ATOM     54  C   UNL A   1      40.591  33.165  34.542  1.00  0.00     0.037 A 
ATOM     55  C   UNL A   1      40.404  28.401  29.413  1.00  0.00     0.037 A 
ATOM     56  C   UNL A   1      41.655  32.201  34.573  1.00  0.00     0.049 A 
ATOM     57  C   UNL A   1      41.488  28.398  30.461  1.00  0.00     0.074 A 
ATOM     58  C   UNL A   1      42.699  32.100  35.474  1.00  0.00     0.029 A 
ATOM     59  N   UNL A   1      41.814  31.174  33.654  1.00  0.00    -0.354 N 
ATOM     60  N   UNL A   1      41.644  29.198  31.488  1.00  0.00    -0.248 NA
ATOM     61  C   UNL A   1      42.540  27.379  30.330  1.00  0.00     0.031 C 
ATOM     62  C   UNL A   1      43.509  31.027  35.082  1.00  0.00     0.029 A 
ATOM     63  C   UNL A   1      42.946  30.439  33.961  1.00  0.00     0.049 A 
ATOM     64  H   UNL A   1      41.212  30.994  32.897  1.00  0.00     0.167 HD
ATOM     65  C   UNL A   1      42.801  28.772  32.129  1.00  0.00     0.074 A 
ATOM     66  C   UNL A   1      43.292  27.627  31.393  1.00  0.00     0.031 C 
ATOM     67  C   UNL A   1      43.409  29.291  33.224  1.00  0.00     0.037 A 
BRANCH  54  68
ATOM     68  C   UNL A   1      40.567  34.263  35.557  1.00  0.00     0.057 A 
ATOM     69  C   UNL A   1      39.895  34.120  36.778  1.00  0.00     0.134 A 
ATOM     70  C   UNL A   1      41.176  35.494  35.290  1.00  0.00     0.134 A 
ATOM     71  F   UNL A   1      39.267  32.973  37.077  1.00  0.00    -0.206 F 
ATOM     72  C   UNL A   1      39.798  35.176  37.683  1.00  0.00     0.040 A 
ATOM     73  C   UNL A   1      41.109  36.549  36.200  1.00  0.00     0.040 A 
ATOM     74  F   UNL A   1      41.828  35.696  34.135  1.00  0.00    -0.206 F 
ATOM     75  C   UNL A   1      40.409  36.396  37.395  1.00  0.00     0.006 A 
ENDBRANCH  54  68
BRANCH  55  76
ATOM     76  C   UNL A   1      40.404  27.366  28.343  1.00  0.00     0.057 A 
ATOM     77  C   UNL A   1      41.090  27.584  27.138  1.00  0.00     0.134 A 
ATOM     78  C   UNL A   1      39.681  26.174  28.459  1.00  0.00     0.134 A 
ATOM     79  F   UNL A   1      41.781  28.718  26.953  1.00  0.00    -0.206 F 
ATOM     80  C   UNL A   1      41.034  26.671  26.084  1.00  0.00     0.040 A 
ATOM     81  C   UNL A   1      39.638  25.239  27.421  1.00  0.00     0.040 A 
ATOM     82  F   UNL A   1      39.005  25.899  29.583  1.00  0.00    -0.206 F 
ATOM     83  C   UNL A   1      40.307  25.491  26.224  1.00  0.00     0.006 A 
ENDBRANCH  55  76
BRANCH  67  84
ATOM     84  C   UNL A   1      44.653  28.609  33.710  1.00  0.00     0.057 A 
ATOM     85  C   UNL A   1      44.605  27.525  34.595  1.00  0.00     0.134 A 
ATOM     86  C   UNL A   1      45.911  29.004  33.236  1.00  0.00     0.134 A 
ATOM     87  F   UNL A   1      43.432  27.108  35.095  1.00  0.00    -0.206 F 
ATOM     88  C   UNL A   1      45.765  26.865  35.003  1.00  0.00     0.040 A 
ATOM     89  C   UNL A   1      47.075  28.337  33.617  1.00  0.00     0.040 A 
ATOM     90  F   UNL A   1      46.025  30.031  32.381  1.00  0.00    -0.206 F 
ATOM     91  C   UNL A   1      47.004  27.265  34.505  1.00  0.00     0.006 A 
ENDBRANCH  67  84
ENDBRANCH  41  42
ENDBRANCH  33  36
ENDBRANCH  31  32
ENDBRANCH  30  31
ENDBRANCH   1  30
TORSDOF 15
ENDMDL
