MODEL 1
REMARK VINA RESULT:     -12.5      0.000      0.000
REMARK SMILES O=C(Cc1ccccc1-c1ccn(C(F)F)c(=O)c1)NCCCNC(=O)c1ccc(-c2c3nc(c(-c4c(F)cccc4F)c4ccc([nH]4)c(-c4c(F)cccc4F)c4nc(c(-c5c(F)cccc5F)c5ccc2[nH]5)C=C4)C=C3)cc1
REMARK SMILES IDX 21 1 20 2 1 3 2 4 3 6 4 7 5 8 9 9 6 10 8 11 7 12 10 13 11 14
REMARK SMILES IDX 19 15 12 16 17 17 13 18 18 19 14 20 15 21 16 22 22 23 23 24
REMARK SMILES IDX 24 25 25 26 26 28 27 29 28 30 80 31 29 32 79 33 30 34 31 35
REMARK SMILES IDX 32 36 73 37 33 38 78 39 72 40 74 41 34 42 77 43 71 44 70 45
REMARK SMILES IDX 35 47 61 48 44 49 60 50 45 51 48 52 59 53 75 54 46 55 47 56
REMARK SMILES IDX 58 58 76 59 49 60 36 61 37 62 42 63 38 64 39 65 41 66 43 67
REMARK SMILES IDX 40 68 62 69 63 70 68 71 64 72 65 73 67 74 69 75 66 76 50 77
REMARK SMILES IDX 51 78 56 79 52 80 53 81 55 82 57 83 54 84
REMARK H PARENT 20 5 24 27 74 46 48 57
REMARK Flexibility Score: inf
ROOT
ATOM      1  C   UNL A   1      32.173  30.263  26.216  1.00  0.00     0.117 C 
ENDROOT
BRANCH   1   2
ATOM      2  N   UNL A   1      31.781  29.919  24.867  1.00  0.00    -0.356 N 
ATOM      3  O   UNL A   1      33.420  28.341  24.518  1.00  0.00    -0.275 OA
ATOM      4  C   UNL A   1      32.411  28.929  24.142  1.00  0.00     0.224 C 
ATOM      5  H   UNL A   1      31.037  30.411  24.451  1.00  0.00     0.163 HD
BRANCH   4   6
ATOM      6  C   UNL A   1      31.702  28.600  22.839  1.00  0.00     0.136 C 
BRANCH   6   7
ATOM      7  C   UNL A   1      30.188  28.636  22.953  1.00  0.00    -0.031 A 
ATOM      8  C   UNL A   1      29.478  29.734  22.425  1.00  0.00     0.005 A 
ATOM      9  C   UNL A   1      29.449  27.563  23.498  1.00  0.00    -0.014 A 
ATOM     10  C   UNL A   1      28.085  29.786  22.461  1.00  0.00     0.000 A 
ATOM     11  C   UNL A   1      28.045  27.632  23.539  1.00  0.00     0.009 A 
ATOM     12  C   UNL A   1      27.368  28.738  23.023  1.00  0.00     0.001 A 
BRANCH   9  13
ATOM     13  C   UNL A   1      30.106  26.336  23.990  1.00  0.00    -0.011 A 
ATOM     14  C   UNL A   1      30.361  25.180  23.151  1.00  0.00     0.027 A 
ATOM     15  C   UNL A   1      30.404  26.276  25.299  1.00  0.00     0.080 A 
ATOM     16  C   UNL A   1      30.802  24.038  23.692  1.00  0.00     0.095 A 
ATOM     17  C   UNL A   1      30.943  25.028  25.904  1.00  0.00     0.255 A 
ATOM     18  N   UNL A   1      31.068  23.947  25.046  1.00  0.00    -0.258 N 
ATOM     19  O   UNL A   1      31.204  25.026  27.103  1.00  0.00    -0.269 OA
BRANCH  18  20
ATOM     20  C   UNL A   1      31.485  22.700  25.629  1.00  0.00     0.451 C 
ATOM     21  F   UNL A   1      30.431  21.870  25.820  1.00  0.00    -0.185 F 
ATOM     22  F   UNL A   1      32.378  22.066  24.828  1.00  0.00    -0.185 F 
ENDBRANCH  18  20
ENDBRANCH   9  13
ENDBRANCH   6   7
ENDBRANCH   4   6
ENDBRANCH   1   2
BRANCH   1  23
ATOM     23  C   UNL A   1      31.721  31.660  26.616  1.00  0.00     0.042 C 
BRANCH  23  24
ATOM     24  C   UNL A   1      32.773  32.498  27.337  1.00  0.00     0.118 C 
BRANCH  24  25
ATOM     25  N   UNL A   1      32.365  33.874  27.581  1.00  0.00    -0.352 N 
ATOM     26  C   UNL A   1      32.916  34.799  28.439  1.00  0.00     0.251 C 
ATOM     27  H   UNL A   1      31.589  34.186  27.060  1.00  0.00     0.163 HD
ATOM     28  O   UNL A   1      32.384  35.894  28.593  1.00  0.00    -0.269 OA
BRANCH  26  29
ATOM     29  C   UNL A   1      34.127  34.449  29.210  1.00  0.00     0.039 A 
ATOM     30  C   UNL A   1      33.975  33.884  30.480  1.00  0.00     0.014 A 
ATOM     31  C   UNL A   1      35.401  34.628  28.665  1.00  0.00     0.014 A 
ATOM     32  C   UNL A   1      35.097  33.410  31.162  1.00  0.00     0.010 A 
ATOM     33  C   UNL A   1      36.510  34.094  29.317  1.00  0.00     0.010 A 
ATOM     34  C   UNL A   1      36.367  33.464  30.563  1.00  0.00    -0.014 A 
BRANCH  34  35
ATOM     35  C   UNL A   1      37.549  32.831  31.200  1.00  0.00     0.031 A 
ATOM     36  C   UNL A   1      38.211  31.643  30.563  1.00  0.00     0.074 A 
ATOM     37  C   UNL A   1      37.973  33.273  32.401  1.00  0.00     0.049 A 
ATOM     38  N   UNL A   1      39.183  30.895  31.020  1.00  0.00    -0.248 NA
ATOM     39  C   UNL A   1      37.696  31.226  29.250  1.00  0.00     0.031 C 
ATOM     40  C   UNL A   1      37.389  34.389  33.148  1.00  0.00     0.029 A 
ATOM     41  N   UNL A   1      38.985  32.826  33.214  1.00  0.00    -0.354 N 
ATOM     42  C   UNL A   1      39.386  29.912  30.061  1.00  0.00     0.074 A 
ATOM     43  C   UNL A   1      38.407  30.132  29.018  1.00  0.00     0.031 C 
ATOM     44  C   UNL A   1      38.060  34.548  34.299  1.00  0.00     0.029 A 
ATOM     45  C   UNL A   1      39.094  33.523  34.393  1.00  0.00     0.049 A 
ATOM     46  H   UNL A   1      39.577  32.076  32.973  1.00  0.00     0.167 HD
ATOM     47  C   UNL A   1      40.315  28.927  30.043  1.00  0.00     0.037 A 
ATOM     48  C   UNL A   1      39.923  33.347  35.439  1.00  0.00     0.037 A 
ATOM     49  C   UNL A   1      41.303  28.722  31.068  1.00  0.00     0.049 A 
ATOM     50  C   UNL A   1      40.935  32.235  35.401  1.00  0.00     0.074 A 
ATOM     51  C   UNL A   1      42.329  27.794  31.104  1.00  0.00     0.029 A 
ATOM     52  N   UNL A   1      41.389  29.456  32.243  1.00  0.00    -0.354 N 
ATOM     53  N   UNL A   1      41.156  31.353  34.458  1.00  0.00    -0.248 NA
ATOM     54  C   UNL A   1      41.810  32.096  36.574  1.00  0.00     0.031 C 
ATOM     55  C   UNL A   1      43.010  27.938  32.317  1.00  0.00     0.029 A 
ATOM     56  C   UNL A   1      42.433  28.984  33.020  1.00  0.00     0.049 A 
ATOM     57  H   UNL A   1      40.795  30.202  32.486  1.00  0.00     0.167 HD
ATOM     58  C   UNL A   1      42.208  30.568  34.912  1.00  0.00     0.074 A 
ATOM     59  C   UNL A   1      42.590  31.087  36.209  1.00  0.00     0.031 C 
ATOM     60  C   UNL A   1      42.803  29.510  34.308  1.00  0.00     0.037 A 
BRANCH  47  61
ATOM     61  C   UNL A   1      40.306  27.993  28.869  1.00  0.00     0.057 A 
ATOM     62  C   UNL A   1      41.025  28.272  27.700  1.00  0.00     0.134 A 
ATOM     63  C   UNL A   1      39.603  26.783  28.922  1.00  0.00     0.134 A 
ATOM     64  F   UNL A   1      41.711  29.419  27.581  1.00  0.00    -0.206 F 
ATOM     65  C   UNL A   1      41.025  27.394  26.615  1.00  0.00     0.040 A 
ATOM     66  C   UNL A   1      39.615  25.885  27.854  1.00  0.00     0.040 A 
ATOM     67  F   UNL A   1      38.899  26.451  30.015  1.00  0.00    -0.206 F 
ATOM     68  C   UNL A   1      40.323  26.192  26.694  1.00  0.00     0.006 A 
ENDBRANCH  47  61
BRANCH  48  69
ATOM     69  C   UNL A   1      39.840  34.251  36.613  1.00  0.00     0.057 A 
ATOM     70  C   UNL A   1      40.546  35.459  36.641  1.00  0.00     0.134 A 
ATOM     71  C   UNL A   1      39.065  33.928  37.733  1.00  0.00     0.134 A 
ATOM     72  F   UNL A   1      41.321  35.812  35.606  1.00  0.00    -0.206 F 
ATOM     73  C   UNL A   1      40.496  36.308  37.748  1.00  0.00     0.040 A 
ATOM     74  C   UNL A   1      38.988  34.778  38.837  1.00  0.00     0.040 A 
ATOM     75  F   UNL A   1      38.361  32.787  37.763  1.00  0.00    -0.206 F 
ATOM     76  C   UNL A   1      39.712  35.970  38.849  1.00  0.00     0.006 A 
ENDBRANCH  48  69
BRANCH  60  77
ATOM     77  C   UNL A   1      43.943  28.859  35.034  1.00  0.00     0.057 A 
ATOM     78  C   UNL A   1      43.743  27.769  35.889  1.00  0.00     0.134 A 
ATOM     79  C   UNL A   1      45.257  29.303  34.843  1.00  0.00     0.134 A 
ATOM     80  F   UNL A   1      42.506  27.306  36.125  1.00  0.00    -0.206 F 
ATOM     81  C   UNL A   1      44.811  27.153  36.544  1.00  0.00     0.040 A 
ATOM     82  C   UNL A   1      46.335  28.680  35.474  1.00  0.00     0.040 A 
ATOM     83  F   UNL A   1      45.515  30.338  34.031  1.00  0.00    -0.206 F 
ATOM     84  C   UNL A   1      46.112  27.604  36.331  1.00  0.00     0.006 A 
ENDBRANCH  60  77
ENDBRANCH  34  35
ENDBRANCH  26  29
ENDBRANCH  24  25
ENDBRANCH  23  24
ENDBRANCH   1  23
TORSDOF 13
ENDMDL
MODEL 2
REMARK VINA RESULT:     -12.5      0.556      6.281
REMARK SMILES O=C(Cc1ccccc1-c1ccn(C(F)F)c(=O)c1)NCCCNC(=O)c1ccc(-c2c3nc(c(-c4c(F)cccc4F)c4ccc([nH]4)c(-c4c(F)cccc4F)c4nc(c(-c5c(F)cccc5F)c5ccc2[nH]5)C=C4)C=C3)cc1
REMARK SMILES IDX 21 1 20 2 1 3 2 4 3 6 4 7 5 8 9 9 6 10 8 11 7 12 10 13 11 14
REMARK SMILES IDX 19 15 12 16 17 17 13 18 18 19 14 20 15 21 16 22 22 23 23 24
REMARK SMILES IDX 24 25 25 26 26 28 27 29 28 30 80 31 29 32 79 33 30 34 31 35
REMARK SMILES IDX 32 36 73 37 33 38 78 39 72 40 74 41 34 42 77 43 71 44 70 45
REMARK SMILES IDX 35 47 61 48 44 49 60 50 45 51 48 52 59 53 75 54 46 55 47 56
REMARK SMILES IDX 58 58 76 59 49 60 36 61 37 62 42 63 38 64 39 65 41 66 43 67
REMARK SMILES IDX 40 68 62 69 63 70 68 71 64 72 65 73 67 74 69 75 66 76 50 77
REMARK SMILES IDX 51 78 56 79 52 80 53 81 55 82 57 83 54 84
REMARK H PARENT 20 5 24 27 74 46 48 57
REMARK Flexibility Score: inf
ROOT
ATOM      1  C   UNL A   1      31.949  30.564  26.524  1.00  0.00     0.117 C 
ENDROOT
BRANCH   1   2
ATOM      2  N   UNL A   1      31.618  30.195  25.165  1.00  0.00    -0.356 N 
ATOM      3  O   UNL A   1      32.757  28.196  25.157  1.00  0.00    -0.275 OA
ATOM      4  C   UNL A   1      32.006  28.995  24.608  1.00  0.00     0.224 C 
ATOM      5  H   UNL A   1      31.094  30.825  24.618  1.00  0.00     0.163 HD
BRANCH   4   6
ATOM      6  C   UNL A   1      31.373  28.734  23.251  1.00  0.00     0.136 C 
BRANCH   6   7
ATOM      7  C   UNL A   1      29.858  28.627  23.307  1.00  0.00    -0.031 A 
ATOM      8  C   UNL A   1      29.070  29.709  22.864  1.00  0.00     0.005 A 
ATOM      9  C   UNL A   1      29.203  27.442  23.708  1.00  0.00    -0.014 A 
ATOM     10  C   UNL A   1      27.678  29.635  22.848  1.00  0.00     0.000 A 
ATOM     11  C   UNL A   1      27.797  27.385  23.698  1.00  0.00     0.009 A 
ATOM     12  C   UNL A   1      27.041  28.476  23.271  1.00  0.00     0.001 A 
BRANCH   9  13
ATOM     13  C   UNL A   1      29.952  26.231  24.099  1.00  0.00    -0.011 A 
ATOM     14  C   UNL A   1      30.449  25.261  23.143  1.00  0.00     0.027 A 
ATOM     15  C   UNL A   1      30.102  25.995  25.414  1.00  0.00     0.080 A 
ATOM     16  C   UNL A   1      30.969  24.103  23.565  1.00  0.00     0.095 A 
ATOM     17  C   UNL A   1      30.724  24.732  25.896  1.00  0.00     0.255 A 
ATOM     18  N   UNL A   1      31.087  23.824  24.914  1.00  0.00    -0.258 N 
ATOM     19  O   UNL A   1      30.844  24.566  27.106  1.00  0.00    -0.269 OA
BRANCH  18  20
ATOM     20  C   UNL A   1      31.591  22.553  25.359  1.00  0.00     0.451 C 
ATOM     21  F   UNL A   1      30.592  21.762  25.821  1.00  0.00    -0.185 F 
ATOM     22  F   UNL A   1      32.211  21.897  24.346  1.00  0.00    -0.185 F 
ENDBRANCH  18  20
ENDBRANCH   9  13
ENDBRANCH   6   7
ENDBRANCH   4   6
ENDBRANCH   1   2
BRANCH   1  23
ATOM     23  C   UNL A   1      31.603  32.013  26.835  1.00  0.00     0.042 C 
BRANCH  23  24
ATOM     24  C   UNL A   1      32.787  32.889  27.235  1.00  0.00     0.118 C 
BRANCH  24  25
ATOM     25  N   UNL A   1      32.413  34.236  27.640  1.00  0.00    -0.352 N 
ATOM     26  C   UNL A   1      32.986  35.039  28.600  1.00  0.00     0.251 C 
ATOM     27  H   UNL A   1      31.646  34.627  27.162  1.00  0.00     0.163 HD
ATOM     28  O   UNL A   1      32.482  36.121  28.883  1.00  0.00    -0.269 OA
BRANCH  26  29
ATOM     29  C   UNL A   1      34.188  34.571  29.322  1.00  0.00     0.039 A 
ATOM     30  C   UNL A   1      34.033  34.011  30.592  1.00  0.00     0.014 A 
ATOM     31  C   UNL A   1      35.451  34.635  28.728  1.00  0.00     0.014 A 
ATOM     32  C   UNL A   1      35.130  33.428  31.228  1.00  0.00     0.010 A 
ATOM     33  C   UNL A   1      36.530  33.995  29.333  1.00  0.00     0.010 A 
ATOM     34  C   UNL A   1      36.376  33.370  30.581  1.00  0.00    -0.014 A 
BRANCH  34  35
ATOM     35  C   UNL A   1      37.517  32.623  31.168  1.00  0.00     0.031 A 
ATOM     36  C   UNL A   1      38.179  33.110  32.425  1.00  0.00     0.074 A 
ATOM     37  C   UNL A   1      38.015  31.552  30.518  1.00  0.00     0.049 A 
ATOM     38  N   UNL A   1      39.248  32.654  33.027  1.00  0.00    -0.248 NA
ATOM     39  C   UNL A   1      37.571  34.279  33.079  1.00  0.00     0.031 C 
ATOM     40  C   UNL A   1      37.494  31.004  29.264  1.00  0.00     0.029 A 
ATOM     41  N   UNL A   1      39.084  30.744  30.813  1.00  0.00    -0.354 N 
ATOM     42  C   UNL A   1      39.451  33.487  34.119  1.00  0.00     0.074 A 
ATOM     43  C   UNL A   1      38.420  34.502  34.073  1.00  0.00     0.031 C 
ATOM     44  C   UNL A   1      38.234  29.942  28.906  1.00  0.00     0.029 A 
ATOM     45  C   UNL A   1      39.304  29.759  29.880  1.00  0.00     0.049 A 
ATOM     46  H   UNL A   1      39.641  30.858  31.617  1.00  0.00     0.167 HD
ATOM     47  C   UNL A   1      40.399  33.403  35.082  1.00  0.00     0.037 A 
ATOM     48  C   UNL A   1      40.269  28.822  29.809  1.00  0.00     0.037 A 
ATOM     49  C   UNL A   1      41.409  32.379  35.142  1.00  0.00     0.049 A 
ATOM     50  C   UNL A   1      41.319  28.759  30.883  1.00  0.00     0.074 A 
ATOM     51  C   UNL A   1      42.369  32.172  36.117  1.00  0.00     0.029 A 
ATOM     52  N   UNL A   1      41.592  31.392  34.184  1.00  0.00    -0.354 N 
ATOM     53  N   UNL A   1      41.460  29.515  31.944  1.00  0.00    -0.248 NA
ATOM     54  C   UNL A   1      42.344  27.714  30.747  1.00  0.00     0.031 C 
ATOM     55  C   UNL A   1      43.160  31.085  35.729  1.00  0.00     0.029 A 
ATOM     56  C   UNL A   1      42.666  30.590  34.533  1.00  0.00     0.049 A 
ATOM     57  H   UNL A   1      41.041  31.279  33.377  1.00  0.00     0.167 HD
ATOM     58  C   UNL A   1      42.574  29.025  32.613  1.00  0.00     0.074 A 
ATOM     59  C   UNL A   1      43.063  27.899  31.846  1.00  0.00     0.031 C 
ATOM     60  C   UNL A   1      43.142  29.471  33.761  1.00  0.00     0.037 A 
BRANCH  47  61
ATOM     61  C   UNL A   1      40.385  34.449  36.157  1.00  0.00     0.057 A 
ATOM     62  C   UNL A   1      39.625  34.296  37.324  1.00  0.00     0.134 A 
ATOM     63  C   UNL A   1      41.168  35.604  36.041  1.00  0.00     0.134 A 
ATOM     64  F   UNL A   1      38.845  33.218  37.491  1.00  0.00    -0.206 F 
ATOM     65  C   UNL A   1      39.626  35.267  38.327  1.00  0.00     0.040 A 
ATOM     66  C   UNL A   1      41.196  36.570  37.049  1.00  0.00     0.040 A 
ATOM     67  F   UNL A   1      41.924  35.809  34.952  1.00  0.00    -0.206 F 
ATOM     68  C   UNL A   1      40.419  36.405  38.193  1.00  0.00     0.006 A 
ENDBRANCH  47  61
BRANCH  48  69
ATOM     69  C   UNL A   1      40.284  27.856  28.682  1.00  0.00     0.057 A 
ATOM     70  C   UNL A   1      39.614  26.631  28.776  1.00  0.00     0.134 A 
ATOM     71  C   UNL A   1      40.973  28.128  27.494  1.00  0.00     0.134 A 
ATOM     72  F   UNL A   1      38.954  26.307  29.896  1.00  0.00    -0.206 F 
ATOM     73  C   UNL A   1      39.640  25.703  27.733  1.00  0.00     0.040 A 
ATOM     74  C   UNL A   1      40.989  27.219  26.435  1.00  0.00     0.040 A 
ATOM     75  F   UNL A   1      41.630  29.287  27.342  1.00  0.00    -0.206 F 
ATOM     76  C   UNL A   1      40.326  25.998  26.557  1.00  0.00     0.006 A 
ENDBRANCH  48  69
BRANCH  60  77
ATOM     77  C   UNL A   1      44.341  28.726  34.267  1.00  0.00     0.057 A 
ATOM     78  C   UNL A   1      44.215  27.616  35.110  1.00  0.00     0.134 A 
ATOM     79  C   UNL A   1      45.632  29.102  33.876  1.00  0.00     0.134 A 
ATOM     80  F   UNL A   1      43.007  27.215  35.532  1.00  0.00    -0.206 F 
ATOM     81  C   UNL A   1      45.334  26.913  35.560  1.00  0.00     0.040 A 
ATOM     82  C   UNL A   1      46.756  28.393  34.300  1.00  0.00     0.040 A 
ATOM     83  F   UNL A   1      45.819  30.153  33.065  1.00  0.00    -0.206 F 
ATOM     84  C   UNL A   1      46.609  27.297  35.148  1.00  0.00     0.006 A 
ENDBRANCH  60  77
ENDBRANCH  34  35
ENDBRANCH  26  29
ENDBRANCH  24  25
ENDBRANCH  23  24
ENDBRANCH   1  23
TORSDOF 13
ENDMDL
MODEL 3
REMARK VINA RESULT:     -12.4      5.505      9.961
REMARK SMILES O=C(Cc1ccccc1-c1ccn(C(F)F)c(=O)c1)NCCCNC(=O)c1ccc(-c2c3nc(c(-c4c(F)cccc4F)c4ccc([nH]4)c(-c4c(F)cccc4F)c4nc(c(-c5c(F)cccc5F)c5ccc2[nH]5)C=C4)C=C3)cc1
REMARK SMILES IDX 21 1 20 2 1 3 2 4 3 6 4 7 5 8 9 9 6 10 8 11 7 12 10 13 11 14
REMARK SMILES IDX 19 15 12 16 17 17 13 18 18 19 14 20 15 21 16 22 22 23 23 24
REMARK SMILES IDX 24 25 25 26 26 28 27 29 28 30 80 31 29 32 79 33 30 34 31 35
REMARK SMILES IDX 32 36 73 37 33 38 78 39 72 40 74 41 34 42 77 43 71 44 70 45
REMARK SMILES IDX 35 47 61 48 44 49 60 50 45 51 48 52 59 53 75 54 46 55 47 56
REMARK SMILES IDX 58 58 76 59 49 60 36 61 37 62 42 63 38 64 39 65 41 66 43 67
REMARK SMILES IDX 40 68 62 69 63 70 68 71 64 72 65 73 67 74 69 75 66 76 50 77
REMARK SMILES IDX 51 78 56 79 52 80 53 81 55 82 57 83 54 84
REMARK H PARENT 20 5 24 27 74 46 48 57
REMARK Flexibility Score: inf
ROOT
ATOM      1  C   UNL A   1      37.036  21.060  24.926  1.00  0.00     0.117 C 
ENDROOT
BRANCH   1   2
ATOM      2  N   UNL A   1      35.695  20.639  25.267  1.00  0.00    -0.356 N 
ATOM      3  O   UNL A   1      35.096  22.565  26.375  1.00  0.00    -0.275 OA
ATOM      4  C   UNL A   1      34.804  21.464  25.921  1.00  0.00     0.224 C 
ATOM      5  H   UNL A   1      35.408  19.729  25.023  1.00  0.00     0.163 HD
BRANCH   4   6
ATOM      6  C   UNL A   1      33.398  20.890  25.988  1.00  0.00     0.136 C 
BRANCH   6   7
ATOM      7  C   UNL A   1      33.026  20.070  24.765  1.00  0.00    -0.031 A 
ATOM      8  C   UNL A   1      33.100  18.663  24.825  1.00  0.00     0.005 A 
ATOM      9  C   UNL A   1      32.522  20.663  23.587  1.00  0.00    -0.014 A 
ATOM     10  C   UNL A   1      32.719  17.868  23.745  1.00  0.00     0.000 A 
ATOM     11  C   UNL A   1      32.152  19.850  22.500  1.00  0.00     0.009 A 
ATOM     12  C   UNL A   1      32.250  18.461  22.580  1.00  0.00     0.001 A 
BRANCH   9  13
ATOM     13  C   UNL A   1      32.325  22.122  23.472  1.00  0.00    -0.011 A 
ATOM     14  C   UNL A   1      31.124  22.799  23.920  1.00  0.00     0.027 A 
ATOM     15  C   UNL A   1      33.284  22.828  22.849  1.00  0.00     0.080 A 
ATOM     16  C   UNL A   1      30.932  24.092  23.635  1.00  0.00     0.095 A 
ATOM     17  C   UNL A   1      33.105  24.279  22.570  1.00  0.00     0.255 A 
ATOM     18  N   UNL A   1      31.889  24.821  22.953  1.00  0.00    -0.258 N 
ATOM     19  O   UNL A   1      34.012  24.880  22.003  1.00  0.00    -0.269 OA
BRANCH  18  20
ATOM     20  C   UNL A   1      31.650  26.194  22.598  1.00  0.00     0.451 C 
ATOM     21  F   UNL A   1      31.405  26.324  21.272  1.00  0.00    -0.185 F 
ATOM     22  F   UNL A   1      30.581  26.688  23.272  1.00  0.00    -0.185 F 
ENDBRANCH  18  20
ENDBRANCH   9  13
ENDBRANCH   6   7
ENDBRANCH   4   6
ENDBRANCH   1   2
BRANCH   1  23
ATOM     23  C   UNL A   1      38.042  19.920  25.001  1.00  0.00     0.042 C 
BRANCH  23  24
ATOM     24  C   UNL A   1      39.255  20.186  25.888  1.00  0.00     0.118 C 
BRANCH  24  25
ATOM     25  N   UNL A   1      40.231  19.106  25.891  1.00  0.00    -0.352 N 
ATOM     26  C   UNL A   1      41.591  19.171  26.092  1.00  0.00     0.251 C 
ATOM     27  H   UNL A   1      39.868  18.205  25.727  1.00  0.00     0.163 HD
ATOM     28  O   UNL A   1      42.285  18.168  25.965  1.00  0.00    -0.269 OA
BRANCH  26  29
ATOM     29  C   UNL A   1      42.219  20.469  26.417  1.00  0.00     0.039 A 
ATOM     30  C   UNL A   1      42.726  21.251  25.376  1.00  0.00     0.014 A 
ATOM     31  C   UNL A   1      42.261  20.936  27.734  1.00  0.00     0.014 A 
ATOM     32  C   UNL A   1      43.187  22.541  25.642  1.00  0.00     0.010 A 
ATOM     33  C   UNL A   1      42.659  22.246  27.988  1.00  0.00     0.010 A 
ATOM     34  C   UNL A   1      43.109  23.067  26.942  1.00  0.00    -0.014 A 
BRANCH  34  35
ATOM     35  C   UNL A   1      43.449  24.485  27.223  1.00  0.00     0.031 A 
ATOM     36  C   UNL A   1      44.875  24.952  27.159  1.00  0.00     0.074 A 
ATOM     37  C   UNL A   1      42.482  25.334  27.623  1.00  0.00     0.049 A 
ATOM     38  N   UNL A   1      45.377  26.120  27.472  1.00  0.00    -0.248 NA
ATOM     39  C   UNL A   1      45.871  23.969  26.706  1.00  0.00     0.031 C 
ATOM     40  C   UNL A   1      41.065  24.995  27.771  1.00  0.00     0.029 A 
ATOM     41  N   UNL A   1      42.546  26.653  27.997  1.00  0.00    -0.354 N 
ATOM     42  C   UNL A   1      46.746  26.008  27.269  1.00  0.00     0.074 A 
ATOM     43  C   UNL A   1      47.001  24.647  26.848  1.00  0.00     0.031 C 
ATOM     44  C   UNL A   1      40.393  26.080  28.188  1.00  0.00     0.029 A 
ATOM     45  C   UNL A   1      41.335  27.178  28.377  1.00  0.00     0.049 A 
ATOM     46  H   UNL A   1      43.382  27.174  27.992  1.00  0.00     0.167 HD
ATOM     47  C   UNL A   1      47.702  26.958  27.403  1.00  0.00     0.037 A 
ATOM     48  C   UNL A   1      41.019  28.403  28.840  1.00  0.00     0.037 A 
ATOM     49  C   UNL A   1      47.445  28.318  27.798  1.00  0.00     0.049 A 
ATOM     50  C   UNL A   1      42.101  29.435  28.996  1.00  0.00     0.074 A 
ATOM     51  C   UNL A   1      48.339  29.371  27.895  1.00  0.00     0.029 A 
ATOM     52  N   UNL A   1      46.203  28.815  28.165  1.00  0.00    -0.354 N 
ATOM     53  N   UNL A   1      43.381  29.333  28.739  1.00  0.00    -0.248 NA
ATOM     54  C   UNL A   1      41.691  30.751  29.507  1.00  0.00     0.031 C 
ATOM     55  C   UNL A   1      47.647  30.493  28.360  1.00  0.00     0.029 A 
ATOM     56  C   UNL A   1      46.313  30.151  28.513  1.00  0.00     0.049 A 
ATOM     57  H   UNL A   1      45.368  28.295  28.175  1.00  0.00     0.167 HD
ATOM     58  C   UNL A   1      43.928  30.575  29.036  1.00  0.00     0.074 A 
ATOM     59  C   UNL A   1      42.837  31.419  29.479  1.00  0.00     0.031 C 
ATOM     60  C   UNL A   1      45.219  30.979  28.951  1.00  0.00     0.037 A 
BRANCH  47  61
ATOM     61  C   UNL A   1      49.118  26.558  27.117  1.00  0.00     0.057 A 
ATOM     62  C   UNL A   1      49.969  26.089  28.126  1.00  0.00     0.134 A 
ATOM     63  C   UNL A   1      49.626  26.605  25.813  1.00  0.00     0.134 A 
ATOM     64  F   UNL A   1      49.548  26.030  29.398  1.00  0.00    -0.206 F 
ATOM     65  C   UNL A   1      51.283  25.704  27.852  1.00  0.00     0.040 A 
ATOM     66  C   UNL A   1      50.930  26.200  25.522  1.00  0.00     0.040 A 
ATOM     67  F   UNL A   1      48.861  27.038  24.799  1.00  0.00    -0.206 F 
ATOM     68  C   UNL A   1      51.763  25.753  26.545  1.00  0.00     0.006 A 
ENDBRANCH  47  61
BRANCH  48  69
ATOM     69  C   UNL A   1      39.612  28.726  29.184  1.00  0.00     0.057 A 
ATOM     70  C   UNL A   1      38.721  29.187  28.209  1.00  0.00     0.134 A 
ATOM     71  C   UNL A   1      39.128  28.594  30.492  1.00  0.00     0.134 A 
ATOM     72  F   UNL A   1      39.132  29.352  26.944  1.00  0.00    -0.206 F 
ATOM     73  C   UNL A   1      37.402  29.518  28.523  1.00  0.00     0.040 A 
ATOM     74  C   UNL A   1      37.806  28.900  30.815  1.00  0.00     0.040 A 
ATOM     75  F   UNL A   1      39.932  28.153  31.470  1.00  0.00    -0.206 F 
ATOM     76  C   UNL A   1      36.940  29.371  29.829  1.00  0.00     0.006 A 
ENDBRANCH  48  69
BRANCH  60  77
ATOM     77  C   UNL A   1      45.518  32.401  29.322  1.00  0.00     0.057 A 
ATOM     78  C   UNL A   1      45.912  32.756  30.618  1.00  0.00     0.134 A 
ATOM     79  C   UNL A   1      45.448  33.419  28.363  1.00  0.00     0.134 A 
ATOM     80  F   UNL A   1      45.984  31.829  31.585  1.00  0.00    -0.206 F 
ATOM     81  C   UNL A   1      46.210  34.078  30.952  1.00  0.00     0.040 A 
ATOM     82  C   UNL A   1      45.767  34.740  28.679  1.00  0.00     0.040 A 
ATOM     83  F   UNL A   1      45.083  33.144  27.103  1.00  0.00    -0.206 F 
ATOM     84  C   UNL A   1      46.145  35.073  29.978  1.00  0.00     0.006 A 
ENDBRANCH  60  77
ENDBRANCH  34  35
ENDBRANCH  26  29
ENDBRANCH  24  25
ENDBRANCH  23  24
ENDBRANCH   1  23
TORSDOF 13
ENDMDL
