MODEL 1
REMARK VINA RESULT:     -12.0      0.000      0.000
REMARK SMILES C[C@@H]1CN(C(=O)C[NH+]2CCC(CC(=O)NCCCNC(=O)c3ccc(-c4c5nc(c(-c6c(F)cccc6F)c6ccc([nH]6)c(-c6c(F)cccc6F)c6nc(c(-c7c(F)cccc7F)c7ccc4[nH]7)C=C6)C=C5)cc3)CC2)C[C@@H](C)O1
REMARK SMILES IDX 16 1 15 2 13 3 14 4 12 6 11 7 8 8 9 9 77 10 10 12 76 13 7 14
REMARK SMILES IDX 5 15 1 16 2 17 3 18 81 19 4 20 79 21 78 22 80 23 6 24 17 25
REMARK SMILES IDX 18 26 19 27 20 28 21 30 22 31 23 32 75 33 24 34 74 35 25 36
REMARK SMILES IDX 26 37 27 38 68 39 28 40 73 41 67 42 69 43 29 44 72 45 66 46
REMARK SMILES IDX 65 47 30 49 56 50 39 51 55 52 40 53 43 54 54 55 70 56 41 57
REMARK SMILES IDX 42 58 53 60 71 61 44 62 31 63 32 64 37 65 33 66 34 67 36 68
REMARK SMILES IDX 38 69 35 70 57 71 58 72 63 73 59 74 60 75 62 76 64 77 61 78
REMARK SMILES IDX 45 79 46 80 51 81 47 82 48 83 50 84 52 85 49 86
REMARK H PARENT 15 5 8 11 19 29 69 48 43 59
REMARK Flexibility Score: inf
ROOT
ATOM      1  C   UNL A   1      36.031  20.469  25.007  1.00  0.00     0.117 C 
ENDROOT
BRANCH   1   2
ATOM      2  N   UNL A   1      34.870  19.581  25.024  1.00  0.00    -0.356 N 
ATOM      3  C   UNL A   1      33.575  19.775  24.621  1.00  0.00     0.220 C 
ATOM      4  O   UNL A   1      32.793  18.828  24.722  1.00  0.00    -0.275 OA
ATOM      5  H   UNL A   1      35.051  18.684  25.388  1.00  0.00     0.163 HD
BRANCH   3   6
ATOM      6  C   UNL A   1      33.085  21.133  24.121  1.00  0.00     0.104 C 
BRANCH   6   7
ATOM      7  C   UNL A   1      32.093  21.808  25.091  1.00  0.00     0.009 C 
ATOM      8  N   UNL A   1      31.445  24.287  26.668  1.00  0.00    -0.327 N 
ATOM      9  C   UNL A   1      30.647  23.918  25.483  1.00  0.00     0.262 C 
ATOM     10  C   UNL A   1      31.971  23.067  27.267  1.00  0.00     0.262 C 
ATOM     11  H   UNL A   1      30.866  24.728  27.382  1.00  0.00     0.348 HD
ATOM     12  C   UNL A   1      31.380  23.020  24.458  1.00  0.00     0.066 C 
ATOM     13  C   UNL A   1      32.828  22.247  26.341  1.00  0.00     0.066 C 
BRANCH   8  14
ATOM     14  C   UNL A   1      32.433  25.356  26.360  1.00  0.00     0.363 C 
BRANCH  14  15
ATOM     15  C   UNL A   1      31.865  26.780  26.240  1.00  0.00     0.277 C 
ATOM     16  C   UNL A   1      31.612  26.235  21.945  1.00  0.00     0.040 C 
ATOM     17  C   UNL A   1      32.337  27.429  22.566  1.00  0.00     0.135 C 
ATOM     18  C   UNL A   1      32.967  27.195  23.974  1.00  0.00     0.151 C 
ATOM     19  O   UNL A   1      31.475  28.576  22.508  1.00  0.00    -0.372 OA
ATOM     20  N   UNL A   1      32.081  27.528  25.096  1.00  0.00    -0.333 N 
ATOM     21  C   UNL A   1      30.546  28.627  23.600  1.00  0.00     0.135 C 
ATOM     22  C   UNL A   1      31.327  28.766  24.908  1.00  0.00     0.151 C 
ATOM     23  C   UNL A   1      29.590  29.770  23.361  1.00  0.00     0.040 C 
ATOM     24  O   UNL A   1      31.188  27.226  27.175  1.00  0.00    -0.268 OA
ENDBRANCH  14  15
ENDBRANCH   8  14
ENDBRANCH   6   7
ENDBRANCH   3   6
ENDBRANCH   1   2
BRANCH   1  25
ATOM     25  C   UNL A   1      37.369  19.733  24.826  1.00  0.00     0.042 C 
BRANCH  25  26
ATOM     26  C   UNL A   1      38.577  20.357  25.521  1.00  0.00     0.118 C 
BRANCH  26  27
ATOM     27  N   UNL A   1      39.675  19.413  25.679  1.00  0.00    -0.352 N 
ATOM     28  C   UNL A   1      40.985  19.591  26.060  1.00  0.00     0.251 C 
ATOM     29  H   UNL A   1      39.436  18.480  25.478  1.00  0.00     0.163 HD
ATOM     30  O   UNL A   1      41.769  18.655  25.914  1.00  0.00    -0.269 OA
BRANCH  28  31
ATOM     31  C   UNL A   1      41.494  20.869  26.627  1.00  0.00     0.039 A 
ATOM     32  C   UNL A   1      42.006  21.835  25.749  1.00  0.00     0.014 A 
ATOM     33  C   UNL A   1      41.553  21.110  27.999  1.00  0.00     0.014 A 
ATOM     34  C   UNL A   1      42.504  23.057  26.232  1.00  0.00     0.010 A 
ATOM     35  C   UNL A   1      41.989  22.357  28.475  1.00  0.00     0.010 A 
ATOM     36  C   UNL A   1      42.462  23.357  27.600  1.00  0.00    -0.014 A 
BRANCH  36  37
ATOM     37  C   UNL A   1      42.884  24.693  28.136  1.00  0.00     0.031 A 
ATOM     38  C   UNL A   1      41.860  25.781  28.358  1.00  0.00     0.074 A 
ATOM     39  C   UNL A   1      44.187  24.988  28.344  1.00  0.00     0.049 A 
ATOM     40  N   UNL A   1      42.035  27.032  28.710  1.00  0.00    -0.248 NA
ATOM     41  C   UNL A   1      40.453  25.420  28.128  1.00  0.00     0.031 C 
ATOM     42  C   UNL A   1      45.316  24.076  28.143  1.00  0.00     0.029 A 
ATOM     43  N   UNL A   1      44.791  26.163  28.735  1.00  0.00    -0.354 N 
ATOM     44  C   UNL A   1      40.769  27.603  28.727  1.00  0.00     0.074 A 
ATOM     45  C   UNL A   1      39.845  26.586  28.273  1.00  0.00     0.031 C 
ATOM     46  C   UNL A   1      46.466  24.729  28.375  1.00  0.00     0.029 A 
ATOM     47  C   UNL A   1      46.166  26.106  28.750  1.00  0.00     0.049 A 
ATOM     48  H   UNL A   1      44.284  26.970  28.982  1.00  0.00     0.167 HD
ATOM     49  C   UNL A   1      40.391  28.843  29.125  1.00  0.00     0.037 A 
ATOM     50  C   UNL A   1      47.089  27.047  29.031  1.00  0.00     0.037 A 
ATOM     51  C   UNL A   1      41.288  29.852  29.621  1.00  0.00     0.049 A 
ATOM     52  C   UNL A   1      46.655  28.422  29.460  1.00  0.00     0.074 A 
ATOM     53  C   UNL A   1      40.980  31.101  30.137  1.00  0.00     0.029 A 
ATOM     54  N   UNL A   1      42.667  29.732  29.666  1.00  0.00    -0.354 N 
ATOM     55  N   UNL A   1      45.444  28.908  29.572  1.00  0.00    -0.248 NA
ATOM     56  C   UNL A   1      47.717  29.371  29.830  1.00  0.00     0.031 C 
ATOM     57  C   UNL A   1      42.176  31.751  30.456  1.00  0.00     0.029 A 
ATOM     58  C   UNL A   1      43.225  30.892  30.180  1.00  0.00     0.049 A 
ATOM     59  H   UNL A   1      43.175  28.940  29.376  1.00  0.00     0.167 HD
ATOM     60  C   UNL A   1      45.596  30.198  30.065  1.00  0.00     0.074 A 
ATOM     61  C   UNL A   1      47.015  30.421  30.233  1.00  0.00     0.031 C 
ATOM     62  C   UNL A   1      44.637  31.108  30.363  1.00  0.00     0.037 A 
BRANCH  49  63
ATOM     63  C   UNL A   1      38.925  29.164  29.063  1.00  0.00     0.057 A 
ATOM     64  C   UNL A   1      38.105  29.072  30.196  1.00  0.00     0.134 A 
ATOM     65  C   UNL A   1      38.330  29.583  27.867  1.00  0.00     0.134 A 
ATOM     66  F   UNL A   1      38.611  28.669  31.371  1.00  0.00    -0.206 F 
ATOM     67  C   UNL A   1      36.737  29.343  30.132  1.00  0.00     0.040 A 
ATOM     68  C   UNL A   1      36.969  29.886  27.798  1.00  0.00     0.040 A 
ATOM     69  F   UNL A   1      39.060  29.706  26.748  1.00  0.00    -0.206 F 
ATOM     70  C   UNL A   1      36.167  29.757  28.930  1.00  0.00     0.006 A 
ENDBRANCH  49  63
BRANCH  50  71
ATOM     71  C   UNL A   1      48.536  26.712  28.972  1.00  0.00     0.057 A 
ATOM     72  C   UNL A   1      49.276  26.930  27.803  1.00  0.00     0.134 A 
ATOM     73  C   UNL A   1      49.203  26.144  30.062  1.00  0.00     0.134 A 
ATOM     74  F   UNL A   1      48.685  27.448  26.717  1.00  0.00    -0.206 F 
ATOM     75  C   UNL A   1      50.624  26.577  27.714  1.00  0.00     0.040 A 
ATOM     76  C   UNL A   1      50.556  25.806  29.994  1.00  0.00     0.040 A 
ATOM     77  F   UNL A   1      48.551  25.909  31.210  1.00  0.00    -0.206 F 
ATOM     78  C   UNL A   1      51.269  26.015  28.814  1.00  0.00     0.006 A 
ENDBRANCH  50  71
BRANCH  62  79
ATOM     79  C   UNL A   1      45.080  32.417  30.950  1.00  0.00     0.057 A 
ATOM     80  C   UNL A   1      45.221  32.604  32.330  1.00  0.00     0.134 A 
ATOM     81  C   UNL A   1      45.416  33.492  30.114  1.00  0.00     0.134 A 
ATOM     82  F   UNL A   1      44.902  31.620  33.185  1.00  0.00    -0.206 F 
ATOM     83  C   UNL A   1      45.664  33.818  32.860  1.00  0.00     0.040 A 
ATOM     84  C   UNL A   1      45.884  34.701  30.631  1.00  0.00     0.040 A 
ATOM     85  F   UNL A   1      45.310  33.378  28.782  1.00  0.00    -0.206 F 
ATOM     86  C   UNL A   1      46.005  34.867  32.009  1.00  0.00     0.006 A 
ENDBRANCH  62  79
ENDBRANCH  36  37
ENDBRANCH  28  31
ENDBRANCH  26  27
ENDBRANCH  25  26
ENDBRANCH   1  25
TORSDOF 13
ENDMDL
MODEL 2
REMARK VINA RESULT:     -11.9      0.582      6.146
REMARK SMILES C[C@@H]1CN(C(=O)C[NH+]2CCC(CC(=O)NCCCNC(=O)c3ccc(-c4c5nc(c(-c6c(F)cccc6F)c6ccc([nH]6)c(-c6c(F)cccc6F)c6nc(c(-c7c(F)cccc7F)c7ccc4[nH]7)C=C6)C=C5)cc3)CC2)C[C@@H](C)O1
REMARK SMILES IDX 16 1 15 2 13 3 14 4 12 6 11 7 8 8 9 9 77 10 10 12 76 13 7 14
REMARK SMILES IDX 5 15 1 16 2 17 3 18 81 19 4 20 79 21 78 22 80 23 6 24 17 25
REMARK SMILES IDX 18 26 19 27 20 28 21 30 22 31 23 32 75 33 24 34 74 35 25 36
REMARK SMILES IDX 26 37 27 38 68 39 28 40 73 41 67 42 69 43 29 44 72 45 66 46
REMARK SMILES IDX 65 47 30 49 56 50 39 51 55 52 40 53 43 54 54 55 70 56 41 57
REMARK SMILES IDX 42 58 53 60 71 61 44 62 31 63 32 64 37 65 33 66 34 67 36 68
REMARK SMILES IDX 38 69 35 70 57 71 58 72 63 73 59 74 60 75 62 76 64 77 61 78
REMARK SMILES IDX 45 79 46 80 51 81 47 82 48 83 50 84 52 85 49 86
REMARK H PARENT 15 5 8 11 19 29 69 48 43 59
REMARK Flexibility Score: inf
ROOT
ATOM      1  C   UNL A   1      35.993  20.183  24.915  1.00  0.00     0.117 C 
ENDROOT
BRANCH   1   2
ATOM      2  N   UNL A   1      34.792  19.350  24.925  1.00  0.00    -0.356 N 
ATOM      3  C   UNL A   1      33.498  19.622  24.567  1.00  0.00     0.220 C 
ATOM      4  O   UNL A   1      32.674  18.709  24.648  1.00  0.00    -0.275 OA
ATOM      5  H   UNL A   1      34.939  18.430  25.245  1.00  0.00     0.163 HD
BRANCH   3   6
ATOM      6  C   UNL A   1      33.060  21.021  24.140  1.00  0.00     0.104 C 
BRANCH   6   7
ATOM      7  C   UNL A   1      32.133  21.701  25.169  1.00  0.00     0.009 C 
ATOM      8  N   UNL A   1      31.577  24.198  26.754  1.00  0.00    -0.327 N 
ATOM      9  C   UNL A   1      30.699  23.804  25.635  1.00  0.00     0.262 C 
ATOM     10  C   UNL A   1      32.156  22.992  27.331  1.00  0.00     0.262 C 
ATOM     11  H   UNL A   1      31.046  24.644  27.502  1.00  0.00     0.348 HD
ATOM     12  C   UNL A   1      31.365  22.898  24.573  1.00  0.00     0.066 C 
ATOM     13  C   UNL A   1      32.952  22.166  26.356  1.00  0.00     0.066 C 
BRANCH   8  14
ATOM     14  C   UNL A   1      32.529  25.271  26.360  1.00  0.00     0.363 C 
BRANCH  14  15
ATOM     15  C   UNL A   1      31.940  26.688  26.261  1.00  0.00     0.277 C 
ATOM     16  C   UNL A   1      31.811  26.247  21.948  1.00  0.00     0.040 C 
ATOM     17  C   UNL A   1      32.498  27.437  22.618  1.00  0.00     0.135 C 
ATOM     18  C   UNL A   1      33.094  27.178  24.036  1.00  0.00     0.151 C 
ATOM     19  O   UNL A   1      31.617  28.570  22.565  1.00  0.00    -0.372 OA
ATOM     20  N   UNL A   1      32.172  27.467  25.142  1.00  0.00    -0.333 N 
ATOM     21  C   UNL A   1      30.659  28.577  23.632  1.00  0.00     0.135 C 
ATOM     22  C   UNL A   1      31.402  28.697  24.964  1.00  0.00     0.151 C 
ATOM     23  C   UNL A   1      29.690  29.710  23.396  1.00  0.00     0.040 C 
ATOM     24  O   UNL A   1      31.230  27.099  27.188  1.00  0.00    -0.268 OA
ENDBRANCH  14  15
ENDBRANCH   8  14
ENDBRANCH   6   7
ENDBRANCH   3   6
ENDBRANCH   1   2
BRANCH   1  25
ATOM     25  C   UNL A   1      37.303  19.379  24.932  1.00  0.00     0.042 C 
BRANCH  25  26
ATOM     26  C   UNL A   1      38.559  20.150  25.330  1.00  0.00     0.118 C 
BRANCH  26  27
ATOM     27  N   UNL A   1      39.687  19.272  25.604  1.00  0.00    -0.352 N 
ATOM     28  C   UNL A   1      40.957  19.532  26.065  1.00  0.00     0.251 C 
ATOM     29  H   UNL A   1      39.508  18.320  25.429  1.00  0.00     0.163 HD
ATOM     30  O   UNL A   1      41.793  18.632  26.015  1.00  0.00    -0.269 OA
BRANCH  28  31
ATOM     31  C   UNL A   1      41.363  20.856  26.608  1.00  0.00     0.039 A 
ATOM     32  C   UNL A   1      41.930  21.794  25.733  1.00  0.00     0.014 A 
ATOM     33  C   UNL A   1      41.272  21.172  27.963  1.00  0.00     0.014 A 
ATOM     34  C   UNL A   1      42.336  23.058  26.194  1.00  0.00     0.010 A 
ATOM     35  C   UNL A   1      41.616  22.458  28.409  1.00  0.00     0.010 A 
ATOM     36  C   UNL A   1      42.143  23.428  27.532  1.00  0.00    -0.014 A 
BRANCH  36  37
ATOM     37  C   UNL A   1      42.463  24.805  28.032  1.00  0.00     0.031 A 
ATOM     38  C   UNL A   1      43.859  25.136  28.507  1.00  0.00     0.074 A 
ATOM     39  C   UNL A   1      41.503  25.749  28.157  1.00  0.00     0.049 A 
ATOM     40  N   UNL A   1      44.310  26.229  29.072  1.00  0.00    -0.248 NA
ATOM     41  C   UNL A   1      44.877  24.086  28.348  1.00  0.00     0.031 C 
ATOM     42  C   UNL A   1      40.094  25.594  27.789  1.00  0.00     0.029 A 
ATOM     43  N   UNL A   1      41.561  27.026  28.674  1.00  0.00    -0.354 N 
ATOM     44  C   UNL A   1      45.651  25.991  29.347  1.00  0.00     0.074 A 
ATOM     45  C   UNL A   1      45.920  24.623  28.960  1.00  0.00     0.031 C 
ATOM     46  C   UNL A   1      39.420  26.707  28.120  1.00  0.00     0.029 A 
ATOM     47  C   UNL A   1      40.342  27.665  28.719  1.00  0.00     0.049 A 
ATOM     48  H   UNL A   1      42.398  27.442  28.981  1.00  0.00     0.167 HD
ATOM     49  C   UNL A   1      46.592  26.837  29.832  1.00  0.00     0.037 A 
ATOM     50  C   UNL A   1      39.996  28.881  29.186  1.00  0.00     0.037 A 
ATOM     51  C   UNL A   1      46.355  28.212  30.181  1.00  0.00     0.049 A 
ATOM     52  C   UNL A   1      41.050  29.804  29.733  1.00  0.00     0.074 A 
ATOM     53  C   UNL A   1      47.272  29.168  30.589  1.00  0.00     0.029 A 
ATOM     54  N   UNL A   1      45.116  28.831  30.163  1.00  0.00    -0.354 N 
ATOM     55  N   UNL A   1      42.334  29.594  29.884  1.00  0.00    -0.248 NA
ATOM     56  C   UNL A   1      40.610  31.146  30.148  1.00  0.00     0.031 C 
ATOM     57  C   UNL A   1      46.579  30.354  30.856  1.00  0.00     0.029 A 
ATOM     58  C   UNL A   1      45.240  30.149  30.573  1.00  0.00     0.049 A 
ATOM     59  H   UNL A   1      44.272  28.398  29.898  1.00  0.00     0.167 HD
ATOM     60  C   UNL A   1      42.860  30.786  30.367  1.00  0.00     0.074 A 
ATOM     61  C   UNL A   1      41.759  31.716  30.484  1.00  0.00     0.031 C 
ATOM     62  C   UNL A   1      44.147  31.081  30.673  1.00  0.00     0.037 A 
BRANCH  49  63
ATOM     63  C   UNL A   1      47.984  26.294  29.990  1.00  0.00     0.057 A 
ATOM     64  C   UNL A   1      48.430  25.760  31.206  1.00  0.00     0.134 A 
ATOM     65  C   UNL A   1      48.881  26.292  28.915  1.00  0.00     0.134 A 
ATOM     66  F   UNL A   1      47.624  25.740  32.278  1.00  0.00    -0.206 F 
ATOM     67  C   UNL A   1      49.733  25.282  31.360  1.00  0.00     0.040 A 
ATOM     68  C   UNL A   1      50.176  25.788  29.049  1.00  0.00     0.040 A 
ATOM     69  F   UNL A   1      48.515  26.776  27.718  1.00  0.00    -0.206 F 
ATOM     70  C   UNL A   1      50.608  25.292  30.277  1.00  0.00     0.006 A 
ENDBRANCH  49  63
BRANCH  50  71
ATOM     71  C   UNL A   1      38.583  29.333  29.110  1.00  0.00     0.057 A 
ATOM     72  C   UNL A   1      37.758  29.305  30.242  1.00  0.00     0.134 A 
ATOM     73  C   UNL A   1      38.016  29.773  27.910  1.00  0.00     0.134 A 
ATOM     74  F   UNL A   1      38.238  28.868  31.415  1.00  0.00    -0.206 F 
ATOM     75  C   UNL A   1      36.415  29.680  30.179  1.00  0.00     0.040 A 
ATOM     76  C   UNL A   1      36.680  30.171  27.836  1.00  0.00     0.040 A 
ATOM     77  F   UNL A   1      38.752  29.822  26.790  1.00  0.00    -0.206 F 
ATOM     78  C   UNL A   1      35.873  30.119  28.972  1.00  0.00     0.006 A 
ENDBRANCH  50  71
BRANCH  62  79
ATOM     79  C   UNL A   1      44.453  32.481  31.119  1.00  0.00     0.057 A 
ATOM     80  C   UNL A   1      44.439  32.851  32.468  1.00  0.00     0.134 A 
ATOM     81  C   UNL A   1      44.813  33.461  30.183  1.00  0.00     0.134 A 
ATOM     82  F   UNL A   1      44.088  31.966  33.413  1.00  0.00    -0.206 F 
ATOM     83  C   UNL A   1      44.756  34.151  32.871  1.00  0.00     0.040 A 
ATOM     84  C   UNL A   1      45.157  34.755  30.576  1.00  0.00     0.040 A 
ATOM     85  F   UNL A   1      44.853  33.171  28.874  1.00  0.00    -0.206 F 
ATOM     86  C   UNL A   1      45.124  35.104  31.924  1.00  0.00     0.006 A 
ENDBRANCH  62  79
ENDBRANCH  36  37
ENDBRANCH  28  31
ENDBRANCH  26  27
ENDBRANCH  25  26
ENDBRANCH   1  25
TORSDOF 13
ENDMDL
MODEL 3
REMARK VINA RESULT:     -11.8      1.289      1.967
REMARK SMILES C[C@@H]1CN(C(=O)C[NH+]2CCC(CC(=O)NCCCNC(=O)c3ccc(-c4c5nc(c(-c6c(F)cccc6F)c6ccc([nH]6)c(-c6c(F)cccc6F)c6nc(c(-c7c(F)cccc7F)c7ccc4[nH]7)C=C6)C=C5)cc3)CC2)C[C@@H](C)O1
REMARK SMILES IDX 16 1 15 2 13 3 14 4 12 6 11 7 8 8 9 9 77 10 10 12 76 13 7 14
REMARK SMILES IDX 5 15 1 16 2 17 3 18 81 19 4 20 79 21 78 22 80 23 6 24 17 25
REMARK SMILES IDX 18 26 19 27 20 28 21 30 22 31 23 32 75 33 24 34 74 35 25 36
REMARK SMILES IDX 26 37 27 38 68 39 28 40 73 41 67 42 69 43 29 44 72 45 66 46
REMARK SMILES IDX 65 47 30 49 56 50 39 51 55 52 40 53 43 54 54 55 70 56 41 57
REMARK SMILES IDX 42 58 53 60 71 61 44 62 31 63 32 64 37 65 33 66 34 67 36 68
REMARK SMILES IDX 38 69 35 70 57 71 58 72 63 73 59 74 60 75 62 76 64 77 61 78
REMARK SMILES IDX 45 79 46 80 51 81 47 82 48 83 50 84 52 85 49 86
REMARK H PARENT 15 5 8 11 19 29 69 48 43 59
REMARK Flexibility Score: inf
ROOT
ATOM      1  C   UNL A   1      36.279  20.368  24.971  1.00  0.00     0.117 C 
ENDROOT
BRANCH   1   2
ATOM      2  N   UNL A   1      35.055  19.570  25.026  1.00  0.00    -0.356 N 
ATOM      3  C   UNL A   1      33.777  19.843  24.615  1.00  0.00     0.220 C 
ATOM      4  O   UNL A   1      32.927  18.962  24.757  1.00  0.00    -0.275 OA
ATOM      5  H   UNL A   1      35.170  18.679  25.428  1.00  0.00     0.163 HD
BRANCH   3   6
ATOM      6  C   UNL A   1      33.388  21.210  24.058  1.00  0.00     0.104 C 
BRANCH   6   7
ATOM      7  C   UNL A   1      32.214  21.858  24.821  1.00  0.00     0.009 C 
ATOM      8  N   UNL A   1      31.281  24.245  26.398  1.00  0.00    -0.327 N 
ATOM      9  C   UNL A   1      30.774  23.998  25.034  1.00  0.00     0.262 C 
ATOM     10  C   UNL A   1      31.617  22.963  27.003  1.00  0.00     0.262 C 
ATOM     11  H   UNL A   1      30.562  24.659  26.991  1.00  0.00     0.348 HD
ATOM     12  C   UNL A   1      31.704  23.144  24.139  1.00  0.00     0.066 C 
ATOM     13  C   UNL A   1      32.646  22.174  26.238  1.00  0.00     0.066 C 
BRANCH   8  14
ATOM     14  C   UNL A   1      32.342  25.288  26.415  1.00  0.00     0.363 C 
BRANCH  14  15
ATOM     15  C   UNL A   1      31.855  26.743  26.328  1.00  0.00     0.277 C 
ATOM     16  C   UNL A   1      31.714  26.359  22.011  1.00  0.00     0.040 C 
ATOM     17  C   UNL A   1      32.481  27.489  22.696  1.00  0.00     0.135 C 
ATOM     18  C   UNL A   1      33.051  27.174  24.114  1.00  0.00     0.151 C 
ATOM     19  O   UNL A   1      31.682  28.682  22.652  1.00  0.00    -0.372 OA
ATOM     20  N   UNL A   1      32.147  27.517  25.219  1.00  0.00    -0.333 N 
ATOM     21  C   UNL A   1      30.722  28.746  23.716  1.00  0.00     0.135 C 
ATOM     22  C   UNL A   1      31.465  28.800  25.052  1.00  0.00     0.151 C 
ATOM     23  C   UNL A   1      29.836  29.946  23.488  1.00  0.00     0.040 C 
ATOM     24  O   UNL A   1      31.171  27.193  27.257  1.00  0.00    -0.268 OA
ENDBRANCH  14  15
ENDBRANCH   8  14
ENDBRANCH   6   7
ENDBRANCH   3   6
ENDBRANCH   1   2
BRANCH   1  25
ATOM     25  C   UNL A   1      37.566  19.527  24.989  1.00  0.00     0.042 C 
BRANCH  25  26
ATOM     26  C   UNL A   1      38.776  20.166  25.667  1.00  0.00     0.118 C 
BRANCH  26  27
ATOM     27  N   UNL A   1      39.871  19.225  25.850  1.00  0.00    -0.352 N 
ATOM     28  C   UNL A   1      41.212  19.418  26.093  1.00  0.00     0.251 C 
ATOM     29  H   UNL A   1      39.604  18.279  25.791  1.00  0.00     0.163 HD
ATOM     30  O   UNL A   1      41.968  18.453  26.002  1.00  0.00    -0.269 OA
BRANCH  28  31
ATOM     31  C   UNL A   1      41.784  20.745  26.446  1.00  0.00     0.039 A 
ATOM     32  C   UNL A   1      42.051  21.656  25.414  1.00  0.00     0.014 A 
ATOM     33  C   UNL A   1      42.136  21.087  27.752  1.00  0.00     0.014 A 
ATOM     34  C   UNL A   1      42.597  22.921  25.692  1.00  0.00     0.010 A 
ATOM     35  C   UNL A   1      42.619  22.375  28.035  1.00  0.00     0.010 A 
ATOM     36  C   UNL A   1      42.847  23.319  27.013  1.00  0.00    -0.014 A 
BRANCH  36  37
ATOM     37  C   UNL A   1      43.326  24.699  27.351  1.00  0.00     0.031 A 
ATOM     38  C   UNL A   1      42.353  25.739  27.856  1.00  0.00     0.074 A 
ATOM     39  C   UNL A   1      44.606  25.075  27.129  1.00  0.00     0.049 A 
ATOM     40  N   UNL A   1      42.545  27.012  28.101  1.00  0.00    -0.248 NA
ATOM     41  C   UNL A   1      40.972  25.291  28.092  1.00  0.00     0.031 C 
ATOM     42  C   UNL A   1      45.673  24.218  26.607  1.00  0.00     0.029 A 
ATOM     43  N   UNL A   1      45.222  26.299  27.277  1.00  0.00    -0.354 N 
ATOM     44  C   UNL A   1      41.314  27.514  28.502  1.00  0.00     0.074 A 
ATOM     45  C   UNL A   1      40.364  26.428  28.390  1.00  0.00     0.031 C 
ATOM     46  C   UNL A   1      46.791  24.943  26.446  1.00  0.00     0.029 A 
ATOM     47  C   UNL A   1      46.533  26.317  26.859  1.00  0.00     0.049 A 
ATOM     48  H   UNL A   1      44.765  27.087  27.650  1.00  0.00     0.167 HD
ATOM     49  C   UNL A   1      40.998  28.748  28.965  1.00  0.00     0.037 A 
ATOM     50  C   UNL A   1      47.433  27.320  26.809  1.00  0.00     0.037 A 
ATOM     51  C   UNL A   1      41.935  29.827  29.125  1.00  0.00     0.049 A 
ATOM     52  C   UNL A   1      47.064  28.687  27.315  1.00  0.00     0.074 A 
ATOM     53  C   UNL A   1      41.722  31.080  29.678  1.00  0.00     0.029 A 
ATOM     54  N   UNL A   1      43.264  29.785  28.735  1.00  0.00    -0.354 N 
ATOM     55  N   UNL A   1      45.920  29.111  27.791  1.00  0.00    -0.248 NA
ATOM     56  C   UNL A   1      48.123  29.709  27.306  1.00  0.00     0.031 C 
ATOM     57  C   UNL A   1      42.912  31.809  29.585  1.00  0.00     0.029 A 
ATOM     58  C   UNL A   1      43.877  30.996  29.015  1.00  0.00     0.049 A 
ATOM     59  H   UNL A   1      43.707  29.010  28.321  1.00  0.00     0.167 HD
ATOM     60  C   UNL A   1      46.132  30.429  28.176  1.00  0.00     0.074 A 
ATOM     61  C   UNL A   1      47.514  30.737  27.881  1.00  0.00     0.031 C 
ATOM     62  C   UNL A   1      45.257  31.298  28.737  1.00  0.00     0.037 A 
BRANCH  49  63
ATOM     63  C   UNL A   1      39.568  28.985  29.360  1.00  0.00     0.057 A 
ATOM     64  C   UNL A   1      38.618  29.443  28.437  1.00  0.00     0.134 A 
ATOM     65  C   UNL A   1      39.134  28.742  30.669  1.00  0.00     0.134 A 
ATOM     66  F   UNL A   1      38.971  29.704  27.170  1.00  0.00    -0.206 F 
ATOM     67  C   UNL A   1      37.296  29.691  28.812  1.00  0.00     0.040 A 
ATOM     68  C   UNL A   1      37.807  28.957  31.046  1.00  0.00     0.040 A 
ATOM     69  F   UNL A   1      39.987  28.290  31.599  1.00  0.00    -0.206 F 
ATOM     70  C   UNL A   1      36.887  29.443  30.119  1.00  0.00     0.006 A 
ENDBRANCH  49  63
BRANCH  50  71
ATOM     71  C   UNL A   1      48.807  27.062  26.305  1.00  0.00     0.057 A 
ATOM     72  C   UNL A   1      49.834  26.685  27.180  1.00  0.00     0.134 A 
ATOM     73  C   UNL A   1      49.134  27.212  24.953  1.00  0.00     0.134 A 
ATOM     74  F   UNL A   1      49.586  26.550  28.491  1.00  0.00    -0.206 F 
ATOM     75  C   UNL A   1      51.140  26.485  26.733  1.00  0.00     0.040 A 
ATOM     76  C   UNL A   1      50.433  26.995  24.488  1.00  0.00     0.040 A 
ATOM     77  F   UNL A   1      48.198  27.573  24.065  1.00  0.00    -0.206 F 
ATOM     78  C   UNL A   1      51.443  26.637  25.380  1.00  0.00     0.006 A 
ENDBRANCH  50  71
BRANCH  62  79
ATOM     79  C   UNL A   1      45.773  32.656  29.118  1.00  0.00     0.057 A 
ATOM     80  C   UNL A   1      46.361  32.904  30.363  1.00  0.00     0.134 A 
ATOM     81  C   UNL A   1      45.722  33.717  28.203  1.00  0.00     0.134 A 
ATOM     82  F   UNL A   1      46.428  31.936  31.290  1.00  0.00    -0.206 F 
ATOM     83  C   UNL A   1      46.865  34.165  30.693  1.00  0.00     0.040 A 
ATOM     84  C   UNL A   1      46.245  34.973  28.512  1.00  0.00     0.040 A 
ATOM     85  F   UNL A   1      45.177  33.545  26.989  1.00  0.00    -0.206 F 
ATOM     86  C   UNL A   1      46.815  35.201  29.762  1.00  0.00     0.006 A 
ENDBRANCH  62  79
ENDBRANCH  36  37
ENDBRANCH  28  31
ENDBRANCH  26  27
ENDBRANCH  25  26
ENDBRANCH   1  25
TORSDOF 13
ENDMDL
