MODEL 1
REMARK VINA RESULT:     -12.4      0.000      0.000
REMARK SMILES O=C(NCCCNC(=O)[C@@H]1CCCC[C@@H]1C(=O)Nc1cccc(C(F)(F)F)c1)c1ccc(-c2c3nc(c(-c4c(F)cccc4F)c4ccc([nH]4)c(-c4c(F)cccc4F)c4nc(c(-c5c(F)cccc5F)c5ccc2[nH]5)C=C4)C=C3)cc1
REMARK SMILES IDX 5 1 4 2 3 3 1 4 2 5 29 7 30 8 82 9 31 10 81 11 32 12 33 13
REMARK SMILES IDX 34 14 75 15 35 16 80 17 74 18 76 19 36 20 79 21 73 22 72 23
REMARK SMILES IDX 37 25 63 26 46 27 62 28 47 29 50 30 61 31 77 32 48 33 49 34
REMARK SMILES IDX 60 36 78 37 51 38 38 39 39 40 44 41 40 42 41 43 43 44 45 45
REMARK SMILES IDX 42 46 64 47 65 48 70 49 66 50 67 51 69 52 71 53 68 54 52 55
REMARK SMILES IDX 53 56 58 57 54 58 55 59 57 60 59 61 56 62 6 63 7 64 8 65
REMARK SMILES IDX 9 67 10 68 11 69 15 70 12 71 14 72 13 73 16 74 17 75 18 76
REMARK SMILES IDX 19 78 20 79 28 80 21 81 23 82 22 83 24 84 25 85 26 86 27 87
REMARK H PARENT 3 6 76 24 50 35 7 66 18 77
REMARK Flexibility Score: inf
ROOT
ATOM      1  C   UNL A   1      37.578  19.640  24.978  1.00  0.00     0.042 C 
ENDROOT
BRANCH   1   2
ATOM      2  C   UNL A   1      38.831  20.276  25.561  1.00  0.00     0.118 C 
BRANCH   2   3
ATOM      3  N   UNL A   1      39.912  19.308  25.714  1.00  0.00    -0.352 N 
ATOM      4  O   UNL A   1      42.042  18.607  25.906  1.00  0.00    -0.269 OA
ATOM      5  C   UNL A   1      41.227  19.508  26.047  1.00  0.00     0.251 C 
ATOM      6  H   UNL A   1      39.659  18.371  25.553  1.00  0.00     0.163 HD
BRANCH   5   7
ATOM      7  C   UNL A   1      41.647  20.818  26.579  1.00  0.00     0.039 A 
ATOM      8  C   UNL A   1      42.094  21.814  25.709  1.00  0.00     0.014 A 
ATOM      9  C   UNL A   1      41.563  21.063  27.952  1.00  0.00     0.014 A 
ATOM     10  C   UNL A   1      42.581  23.006  26.218  1.00  0.00     0.010 A 
ATOM     11  C   UNL A   1      41.954  22.305  28.455  1.00  0.00     0.010 A 
ATOM     12  C   UNL A   1      42.474  23.281  27.590  1.00  0.00    -0.014 A 
BRANCH  12  13
ATOM     13  C   UNL A   1      42.792  24.648  28.065  1.00  0.00     0.031 A 
ATOM     14  C   UNL A   1      41.718  25.670  28.289  1.00  0.00     0.074 A 
ATOM     15  C   UNL A   1      44.084  24.942  28.307  1.00  0.00     0.049 A 
ATOM     16  N   UNL A   1      41.839  26.904  28.705  1.00  0.00    -0.248 NA
ATOM     17  C   UNL A   1      40.332  25.263  28.010  1.00  0.00     0.031 C 
ATOM     18  C   UNL A   1      45.210  24.022  28.105  1.00  0.00     0.029 A 
ATOM     19  N   UNL A   1      44.674  26.080  28.788  1.00  0.00    -0.354 N 
ATOM     20  C   UNL A   1      40.554  27.430  28.720  1.00  0.00     0.074 A 
ATOM     21  C   UNL A   1      39.666  26.386  28.255  1.00  0.00     0.031 C 
ATOM     22  C   UNL A   1      46.344  24.617  28.496  1.00  0.00     0.029 A 
ATOM     23  C   UNL A   1      46.040  25.983  28.902  1.00  0.00     0.049 A 
ATOM     24  H   UNL A   1      44.169  26.891  29.028  1.00  0.00     0.167 HD
ATOM     25  C   UNL A   1      40.162  28.672  29.092  1.00  0.00     0.037 A 
ATOM     26  C   UNL A   1      46.955  26.901  29.259  1.00  0.00     0.037 A 
ATOM     27  C   UNL A   1      41.059  29.695  29.566  1.00  0.00     0.049 A 
ATOM     28  C   UNL A   1      46.484  28.277  29.627  1.00  0.00     0.074 A 
ATOM     29  C   UNL A   1      40.750  30.967  30.017  1.00  0.00     0.029 A 
ATOM     30  N   UNL A   1      42.438  29.570  29.639  1.00  0.00    -0.354 N 
ATOM     31  N   UNL A   1      45.260  28.740  29.693  1.00  0.00    -0.248 NA
ATOM     32  C   UNL A   1      47.520  29.258  29.966  1.00  0.00     0.031 C 
ATOM     33  C   UNL A   1      41.945  31.633  30.304  1.00  0.00     0.029 A 
ATOM     34  C   UNL A   1      42.996  30.756  30.092  1.00  0.00     0.049 A 
ATOM     35  H   UNL A   1      42.946  28.760  29.404  1.00  0.00     0.167 HD
ATOM     36  C   UNL A   1      45.378  30.062  30.097  1.00  0.00     0.074 A 
ATOM     37  C   UNL A   1      46.791  30.315  30.291  1.00  0.00     0.031 C 
ATOM     38  C   UNL A   1      44.405  30.988  30.280  1.00  0.00     0.037 A 
BRANCH  25  39
ATOM     39  C   UNL A   1      38.704  29.015  28.990  1.00  0.00     0.057 A 
ATOM     40  C   UNL A   1      37.841  28.930  30.089  1.00  0.00     0.134 A 
ATOM     41  C   UNL A   1      38.181  29.535  27.797  1.00  0.00     0.134 A 
ATOM     42  F   UNL A   1      38.275  28.433  31.258  1.00  0.00    -0.206 F 
ATOM     43  C   UNL A   1      36.511  29.345  30.006  1.00  0.00     0.040 A 
ATOM     44  C   UNL A   1      36.860  29.974  27.708  1.00  0.00     0.040 A 
ATOM     45  F   UNL A   1      38.955  29.650  26.708  1.00  0.00    -0.206 F 
ATOM     46  C   UNL A   1      36.019  29.881  28.816  1.00  0.00     0.006 A 
ENDBRANCH  25  39
BRANCH  26  47
ATOM     47  C   UNL A   1      48.400  26.564  29.242  1.00  0.00     0.057 A 
ATOM     48  C   UNL A   1      49.034  26.019  30.364  1.00  0.00     0.134 A 
ATOM     49  C   UNL A   1      49.189  26.805  28.109  1.00  0.00     0.134 A 
ATOM     50  F   UNL A   1      48.337  25.778  31.484  1.00  0.00    -0.206 F 
ATOM     51  C   UNL A   1      50.405  25.756  30.372  1.00  0.00     0.040 A 
ATOM     52  C   UNL A   1      50.554  26.515  28.092  1.00  0.00     0.040 A 
ATOM     53  F   UNL A   1      48.642  27.315  26.996  1.00  0.00    -0.206 F 
ATOM     54  C   UNL A   1      51.168  26.002  29.232  1.00  0.00     0.006 A 
ENDBRANCH  26  47
BRANCH  38  55
ATOM     55  C   UNL A   1      44.843  32.347  30.742  1.00  0.00     0.057 A 
ATOM     56  C   UNL A   1      44.991  32.653  32.101  1.00  0.00     0.134 A 
ATOM     57  C   UNL A   1      45.136  33.355  29.815  1.00  0.00     0.134 A 
ATOM     58  F   UNL A   1      44.709  31.735  33.040  1.00  0.00    -0.206 F 
ATOM     59  C   UNL A   1      45.387  33.922  32.523  1.00  0.00     0.040 A 
ATOM     60  C   UNL A   1      45.564  34.618  30.224  1.00  0.00     0.040 A 
ATOM     61  F   UNL A   1      45.022  33.126  28.499  1.00  0.00    -0.206 F 
ATOM     62  C   UNL A   1      45.682  34.907  31.582  1.00  0.00     0.006 A 
ENDBRANCH  38  55
ENDBRANCH  12  13
ENDBRANCH   5   7
ENDBRANCH   2   3
ENDBRANCH   1   2
BRANCH   1  63
ATOM     63  C   UNL A   1      36.477  20.666  24.737  1.00  0.00     0.117 C 
BRANCH  63  64
ATOM     64  N   UNL A   1      35.553  20.721  25.866  1.00  0.00    -0.356 N 
ATOM     65  C   UNL A   1      34.669  21.706  26.220  1.00  0.00     0.223 C 
ATOM     66  H   UNL A   1      35.568  19.935  26.460  1.00  0.00     0.163 HD
ATOM     67  O   UNL A   1      34.108  21.658  27.312  1.00  0.00    -0.275 OA
BRANCH  65  68
ATOM     68  C   UNL A   1      34.413  22.810  25.221  1.00  0.00     0.091 C 
ATOM     69  C   UNL A   1      34.508  24.206  25.785  1.00  0.00     0.014 C 
ATOM     70  C   UNL A   1      33.146  22.582  24.393  1.00  0.00     0.091 C 
ATOM     71  C   UNL A   1      34.624  25.193  24.624  1.00  0.00     0.001 C 
ATOM     72  C   UNL A   1      33.212  23.467  23.157  1.00  0.00     0.014 C 
ATOM     73  C   UNL A   1      33.906  24.830  23.310  1.00  0.00     0.001 C 
BRANCH  70  74
ATOM     74  C   UNL A   1      31.810  22.446  25.163  1.00  0.00     0.228 C 
ATOM     75  O   UNL A   1      31.417  21.303  25.444  1.00  0.00    -0.274 OA
ATOM     76  N   UNL A   1      31.070  23.465  25.682  1.00  0.00    -0.326 N 
ATOM     77  H   UNL A   1      30.474  23.179  26.411  1.00  0.00     0.169 HD
BRANCH  76  78
ATOM     78  C   UNL A   1      30.979  24.828  25.399  1.00  0.00     0.041 A 
ATOM     79  C   UNL A   1      30.338  25.211  24.219  1.00  0.00     0.026 A 
ATOM     80  C   UNL A   1      31.529  25.805  26.220  1.00  0.00     0.039 A 
ATOM     81  C   UNL A   1      30.095  26.560  23.956  1.00  0.00     0.003 A 
ATOM     82  C   UNL A   1      31.288  27.170  25.975  1.00  0.00     0.058 A 
ATOM     83  C   UNL A   1      30.543  27.536  24.845  1.00  0.00     0.013 A 
BRANCH  82  84
ATOM     84  C   UNL A   1      31.712  28.225  26.971  1.00  0.00     0.416 C 
ATOM     85  F   UNL A   1      31.587  29.492  26.495  1.00  0.00    -0.166 F 
ATOM     86  F   UNL A   1      30.960  28.178  28.108  1.00  0.00    -0.166 F 
ATOM     87  F   UNL A   1      33.004  28.099  27.381  1.00  0.00    -0.166 F 
ENDBRANCH  82  84
ENDBRANCH  76  78
ENDBRANCH  70  74
ENDBRANCH  65  68
ENDBRANCH  63  64
ENDBRANCH   1  63
TORSDOF 13
ENDMDL
MODEL 2
REMARK VINA RESULT:     -12.4      4.856      9.329
REMARK SMILES O=C(NCCCNC(=O)[C@@H]1CCCC[C@@H]1C(=O)Nc1cccc(C(F)(F)F)c1)c1ccc(-c2c3nc(c(-c4c(F)cccc4F)c4ccc([nH]4)c(-c4c(F)cccc4F)c4nc(c(-c5c(F)cccc5F)c5ccc2[nH]5)C=C4)C=C3)cc1
REMARK SMILES IDX 5 1 4 2 3 3 1 4 2 5 29 7 30 8 82 9 31 10 81 11 32 12 33 13
REMARK SMILES IDX 34 14 75 15 35 16 80 17 74 18 76 19 36 20 79 21 73 22 72 23
REMARK SMILES IDX 37 25 63 26 46 27 62 28 47 29 50 30 61 31 77 32 48 33 49 34
REMARK SMILES IDX 60 36 78 37 51 38 38 39 39 40 44 41 40 42 41 43 43 44 45 45
REMARK SMILES IDX 42 46 64 47 65 48 70 49 66 50 67 51 69 52 71 53 68 54 52 55
REMARK SMILES IDX 53 56 58 57 54 58 55 59 57 60 59 61 56 62 6 63 7 64 8 65
REMARK SMILES IDX 9 67 10 68 11 69 15 70 12 71 14 72 13 73 16 74 17 75 18 76
REMARK SMILES IDX 19 78 20 79 28 80 21 81 23 82 22 83 24 84 25 85 26 86 27 87
REMARK H PARENT 3 6 76 24 50 35 7 66 18 77
REMARK Flexibility Score: inf
ROOT
ATOM      1  C   UNL A   1      31.280  31.784  26.501  1.00  0.00     0.042 C 
ENDROOT
BRANCH   1   2
ATOM      2  C   UNL A   1      32.605  32.429  26.876  1.00  0.00     0.118 C 
BRANCH   2   3
ATOM      3  N   UNL A   1      32.430  33.804  27.331  1.00  0.00    -0.352 N 
ATOM      4  O   UNL A   1      32.593  35.545  28.750  1.00  0.00    -0.269 OA
ATOM      5  C   UNL A   1      33.028  34.464  28.374  1.00  0.00     0.251 C 
ATOM      6  H   UNL A   1      31.786  34.338  26.813  1.00  0.00     0.163 HD
BRANCH   5   7
ATOM      7  C   UNL A   1      34.201  33.862  29.035  1.00  0.00     0.039 A 
ATOM      8  C   UNL A   1      34.030  32.810  29.937  1.00  0.00     0.014 A 
ATOM      9  C   UNL A   1      35.481  34.328  28.726  1.00  0.00     0.014 A 
ATOM     10  C   UNL A   1      35.120  32.313  30.630  1.00  0.00     0.010 A 
ATOM     11  C   UNL A   1      36.591  33.753  29.346  1.00  0.00     0.010 A 
ATOM     12  C   UNL A   1      36.416  32.747  30.309  1.00  0.00    -0.014 A 
BRANCH  12  13
ATOM     13  C   UNL A   1      37.569  32.033  30.904  1.00  0.00     0.031 A 
ATOM     14  C   UNL A   1      38.308  30.969  30.149  1.00  0.00     0.074 A 
ATOM     15  C   UNL A   1      37.948  32.384  32.149  1.00  0.00     0.049 A 
ATOM     16  N   UNL A   1      39.337  30.259  30.534  1.00  0.00    -0.248 NA
ATOM     17  C   UNL A   1      37.835  30.655  28.792  1.00  0.00     0.031 C 
ATOM     18  C   UNL A   1      37.285  33.397  32.978  1.00  0.00     0.029 A 
ATOM     19  N   UNL A   1      38.984  31.947  32.932  1.00  0.00    -0.354 N 
ATOM     20  C   UNL A   1      39.625  29.402  29.480  1.00  0.00     0.074 A 
ATOM     21  C   UNL A   1      38.651  29.667  28.443  1.00  0.00     0.031 C 
ATOM     22  C   UNL A   1      37.952  33.532  34.131  1.00  0.00     0.029 A 
ATOM     23  C   UNL A   1      39.040  32.565  34.158  1.00  0.00     0.049 A 
ATOM     24  H   UNL A   1      39.625  31.258  32.644  1.00  0.00     0.167 HD
ATOM     25  C   UNL A   1      40.616  28.483  29.396  1.00  0.00     0.037 A 
ATOM     26  C   UNL A   1      39.855  32.352  35.206  1.00  0.00     0.037 A 
ATOM     27  C   UNL A   1      41.585  28.242  30.434  1.00  0.00     0.049 A 
ATOM     28  C   UNL A   1      40.916  31.298  35.088  1.00  0.00     0.074 A 
ATOM     29  C   UNL A   1      42.660  27.369  30.421  1.00  0.00     0.029 A 
ATOM     30  N   UNL A   1      41.594  28.864  31.674  1.00  0.00    -0.354 N 
ATOM     31  N   UNL A   1      41.213  30.537  34.063  1.00  0.00    -0.248 NA
ATOM     32  C   UNL A   1      41.752  31.070  36.272  1.00  0.00     0.031 C 
ATOM     33  C   UNL A   1      43.281  27.417  31.672  1.00  0.00     0.029 A 
ATOM     34  C   UNL A   1      42.632  28.366  32.445  1.00  0.00     0.049 A 
ATOM     35  H   UNL A   1      40.956  29.557  31.963  1.00  0.00     0.167 HD
ATOM     36  C   UNL A   1      42.280  29.751  34.473  1.00  0.00     0.074 A 
ATOM     37  C   UNL A   1      42.597  30.152  35.828  1.00  0.00     0.031 C 
ATOM     38  C   UNL A   1      42.933  28.778  33.792  1.00  0.00     0.037 A 
BRANCH  25  39
ATOM     39  C   UNL A   1      40.704  27.647  28.153  1.00  0.00     0.057 A 
ATOM     40  C   UNL A   1      41.476  28.033  27.050  1.00  0.00     0.134 A 
ATOM     41  C   UNL A   1      40.085  26.390  28.100  1.00  0.00     0.134 A 
ATOM     42  F   UNL A   1      42.087  29.228  27.032  1.00  0.00    -0.206 F 
ATOM     43  C   UNL A   1      41.628  27.201  25.939  1.00  0.00     0.040 A 
ATOM     44  C   UNL A   1      40.249  25.540  27.004  1.00  0.00     0.040 A 
ATOM     45  F   UNL A   1      39.337  25.955  29.124  1.00  0.00    -0.206 F 
ATOM     46  C   UNL A   1      41.023  25.945  25.919  1.00  0.00     0.006 A 
ENDBRANCH  25  39
BRANCH  26  47
ATOM     47  C   UNL A   1      39.671  33.117  36.465  1.00  0.00     0.057 A 
ATOM     48  C   UNL A   1      38.764  32.700  37.445  1.00  0.00     0.134 A 
ATOM     49  C   UNL A   1      40.380  34.301  36.705  1.00  0.00     0.134 A 
ATOM     50  F   UNL A   1      38.044  31.582  37.267  1.00  0.00    -0.206 F 
ATOM     51  C   UNL A   1      38.544  33.449  38.602  1.00  0.00     0.040 A 
ATOM     52  C   UNL A   1      40.196  35.041  37.874  1.00  0.00     0.040 A 
ATOM     53  F   UNL A   1      41.274  34.751  35.812  1.00  0.00    -0.206 F 
ATOM     54  C   UNL A   1      39.264  34.622  38.819  1.00  0.00     0.006 A 
ENDBRANCH  26  47
BRANCH  38  55
ATOM     55  C   UNL A   1      44.073  28.106  34.500  1.00  0.00     0.057 A 
ATOM     56  C   UNL A   1      43.896  26.920  35.225  1.00  0.00     0.134 A 
ATOM     57  C   UNL A   1      45.365  28.641  34.439  1.00  0.00     0.134 A 
ATOM     58  F   UNL A   1      42.678  26.366  35.335  1.00  0.00    -0.206 F 
ATOM     59  C   UNL A   1      44.959  26.308  35.889  1.00  0.00     0.040 A 
ATOM     60  C   UNL A   1      46.442  28.020  35.072  1.00  0.00     0.040 A 
ATOM     61  F   UNL A   1      45.605  29.770  33.755  1.00  0.00    -0.206 F 
ATOM     62  C   UNL A   1      46.238  26.854  35.808  1.00  0.00     0.006 A 
ENDBRANCH  38  55
ENDBRANCH  12  13
ENDBRANCH   5   7
ENDBRANCH   2   3
ENDBRANCH   1   2
BRANCH   1  63
ATOM     63  C   UNL A   1      31.436  30.299  26.188  1.00  0.00     0.117 C 
BRANCH  63  64
ATOM     64  N   UNL A   1      32.202  30.099  24.962  1.00  0.00    -0.356 N 
ATOM     65  C   UNL A   1      32.721  28.944  24.439  1.00  0.00     0.223 C 
ATOM     66  H   UNL A   1      32.369  30.912  24.432  1.00  0.00     0.163 HD
ATOM     67  O   UNL A   1      33.499  29.000  23.490  1.00  0.00    -0.275 OA
BRANCH  65  68
ATOM     68  C   UNL A   1      32.286  27.636  25.059  1.00  0.00     0.091 C 
ATOM     69  C   UNL A   1      33.409  26.674  25.357  1.00  0.00     0.014 C 
ATOM     70  C   UNL A   1      31.119  26.984  24.315  1.00  0.00     0.091 C 
ATOM     71  C   UNL A   1      32.891  25.604  26.316  1.00  0.00     0.001 C 
ATOM     72  C   UNL A   1      30.477  25.954  25.233  1.00  0.00     0.014 C 
ATOM     73  C   UNL A   1      31.408  25.203  26.199  1.00  0.00     0.001 C 
BRANCH  70  74
ATOM     74  C   UNL A   1      31.330  26.646  22.820  1.00  0.00     0.228 C 
ATOM     75  O   UNL A   1      30.831  27.408  21.977  1.00  0.00    -0.274 OA
ATOM     76  N   UNL A   1      32.121  25.656  22.320  1.00  0.00    -0.326 N 
ATOM     77  H   UNL A   1      32.400  25.815  21.389  1.00  0.00     0.169 HD
BRANCH  76  78
ATOM     78  C   UNL A   1      32.619  24.465  22.848  1.00  0.00     0.041 A 
ATOM     79  C   UNL A   1      31.710  23.441  23.127  1.00  0.00     0.026 A 
ATOM     80  C   UNL A   1      33.965  24.275  23.138  1.00  0.00     0.039 A 
ATOM     81  C   UNL A   1      32.168  22.183  23.522  1.00  0.00     0.003 A 
ATOM     82  C   UNL A   1      34.445  23.011  23.530  1.00  0.00     0.058 A 
ATOM     83  C   UNL A   1      33.533  21.960  23.696  1.00  0.00     0.013 A 
BRANCH  82  84
ATOM     84  C   UNL A   1      35.928  22.747  23.653  1.00  0.00     0.416 C 
ATOM     85  F   UNL A   1      36.569  22.727  22.454  1.00  0.00    -0.166 F 
ATOM     86  F   UNL A   1      36.552  23.708  24.393  1.00  0.00    -0.166 F 
ATOM     87  F   UNL A   1      36.224  21.566  24.262  1.00  0.00    -0.166 F 
ENDBRANCH  82  84
ENDBRANCH  76  78
ENDBRANCH  70  74
ENDBRANCH  65  68
ENDBRANCH  63  64
ENDBRANCH   1  63
TORSDOF 13
ENDMDL
MODEL 3
REMARK VINA RESULT:     -12.3      1.027      6.175
REMARK SMILES O=C(NCCCNC(=O)[C@@H]1CCCC[C@@H]1C(=O)Nc1cccc(C(F)(F)F)c1)c1ccc(-c2c3nc(c(-c4c(F)cccc4F)c4ccc([nH]4)c(-c4c(F)cccc4F)c4nc(c(-c5c(F)cccc5F)c5ccc2[nH]5)C=C4)C=C3)cc1
REMARK SMILES IDX 5 1 4 2 3 3 1 4 2 5 29 7 30 8 82 9 31 10 81 11 32 12 33 13
REMARK SMILES IDX 34 14 75 15 35 16 80 17 74 18 76 19 36 20 79 21 73 22 72 23
REMARK SMILES IDX 37 25 63 26 46 27 62 28 47 29 50 30 61 31 77 32 48 33 49 34
REMARK SMILES IDX 60 36 78 37 51 38 38 39 39 40 44 41 40 42 41 43 43 44 45 45
REMARK SMILES IDX 42 46 64 47 65 48 70 49 66 50 67 51 69 52 71 53 68 54 52 55
REMARK SMILES IDX 53 56 58 57 54 58 55 59 57 60 59 61 56 62 6 63 7 64 8 65
REMARK SMILES IDX 9 67 10 68 11 69 15 70 12 71 14 72 13 73 16 74 17 75 18 76
REMARK SMILES IDX 19 78 20 79 28 80 21 81 23 82 22 83 24 84 25 85 26 86 27 87
REMARK H PARENT 3 6 76 24 50 35 7 66 18 77
REMARK Flexibility Score: inf
ROOT
ATOM      1  C   UNL A   1      37.697  19.620  24.937  1.00  0.00     0.042 C 
ENDROOT
BRANCH   1   2
ATOM      2  C   UNL A   1      38.891  20.137  25.726  1.00  0.00     0.118 C 
BRANCH   2   3
ATOM      3  N   UNL A   1      39.951  19.139  25.821  1.00  0.00    -0.352 N 
ATOM      4  O   UNL A   1      42.067  18.370  25.813  1.00  0.00    -0.269 OA
ATOM      5  C   UNL A   1      41.303  19.311  25.982  1.00  0.00     0.251 C 
ATOM      6  H   UNL A   1      39.653  18.204  25.761  1.00  0.00     0.163 HD
BRANCH   5   7
ATOM      7  C   UNL A   1      41.824  20.637  26.363  1.00  0.00     0.039 A 
ATOM      8  C   UNL A   1      42.129  21.577  25.377  1.00  0.00     0.014 A 
ATOM      9  C   UNL A   1      41.978  20.955  27.715  1.00  0.00     0.014 A 
ATOM     10  C   UNL A   1      42.711  22.782  25.730  1.00  0.00     0.010 A 
ATOM     11  C   UNL A   1      42.464  22.212  28.075  1.00  0.00     0.010 A 
ATOM     12  C   UNL A   1      42.842  23.130  27.083  1.00  0.00    -0.014 A 
BRANCH  12  13
ATOM     13  C   UNL A   1      43.253  24.512  27.421  1.00  0.00     0.031 A 
ATOM     14  C   UNL A   1      44.687  24.944  27.352  1.00  0.00     0.074 A 
ATOM     15  C   UNL A   1      42.288  25.383  27.780  1.00  0.00     0.049 A 
ATOM     16  N   UNL A   1      45.201  26.118  27.613  1.00  0.00    -0.248 NA
ATOM     17  C   UNL A   1      45.675  23.934  26.942  1.00  0.00     0.031 C 
ATOM     18  C   UNL A   1      40.861  25.059  27.895  1.00  0.00     0.029 A 
ATOM     19  N   UNL A   1      42.348  26.713  28.098  1.00  0.00    -0.354 N 
ATOM     20  C   UNL A   1      46.569  25.988  27.420  1.00  0.00     0.074 A 
ATOM     21  C   UNL A   1      46.812  24.614  27.035  1.00  0.00     0.031 C 
ATOM     22  C   UNL A   1      40.181  26.166  28.216  1.00  0.00     0.029 A 
ATOM     23  C   UNL A   1      41.125  27.257  28.407  1.00  0.00     0.049 A 
ATOM     24  H   UNL A   1      43.187  27.230  28.105  1.00  0.00     0.167 HD
ATOM     25  C   UNL A   1      47.528  26.936  27.553  1.00  0.00     0.037 A 
ATOM     26  C   UNL A   1      40.801  28.491  28.833  1.00  0.00     0.037 A 
ATOM     27  C   UNL A   1      47.266  28.303  27.924  1.00  0.00     0.049 A 
ATOM     28  C   UNL A   1      41.895  29.502  29.004  1.00  0.00     0.074 A 
ATOM     29  C   UNL A   1      48.164  29.351  28.033  1.00  0.00     0.029 A 
ATOM     30  N   UNL A   1      46.020  28.811  28.259  1.00  0.00    -0.354 N 
ATOM     31  N   UNL A   1      43.177  29.380  28.760  1.00  0.00    -0.248 NA
ATOM     32  C   UNL A   1      41.500  30.820  29.513  1.00  0.00     0.031 C 
ATOM     33  C   UNL A   1      47.473  30.476  28.492  1.00  0.00     0.029 A 
ATOM     34  C   UNL A   1      46.133  30.147  28.610  1.00  0.00     0.049 A 
ATOM     35  H   UNL A   1      45.179  28.298  28.249  1.00  0.00     0.167 HD
ATOM     36  C   UNL A   1      43.739  30.609  29.071  1.00  0.00     0.074 A 
ATOM     37  C   UNL A   1      42.653  31.471  29.490  1.00  0.00     0.031 C 
ATOM     38  C   UNL A   1      45.039  30.989  29.024  1.00  0.00     0.037 A 
BRANCH  25  39
ATOM     39  C   UNL A   1      48.955  26.539  27.316  1.00  0.00     0.057 A 
ATOM     40  C   UNL A   1      49.777  26.069  28.349  1.00  0.00     0.134 A 
ATOM     41  C   UNL A   1      49.483  26.532  26.018  1.00  0.00     0.134 A 
ATOM     42  F   UNL A   1      49.337  26.057  29.617  1.00  0.00    -0.206 F 
ATOM     43  C   UNL A   1      51.072  25.611  28.099  1.00  0.00     0.040 A 
ATOM     44  C   UNL A   1      50.768  26.055  25.752  1.00  0.00     0.040 A 
ATOM     45  F   UNL A   1      48.748  26.962  24.982  1.00  0.00    -0.206 F 
ATOM     46  C   UNL A   1      51.567  25.591  26.795  1.00  0.00     0.006 A 
ENDBRANCH  25  39
BRANCH  26  47
ATOM     47  C   UNL A   1      39.393  28.821  29.167  1.00  0.00     0.057 A 
ATOM     48  C   UNL A   1      38.527  29.367  28.213  1.00  0.00     0.134 A 
ATOM     49  C   UNL A   1      38.886  28.623  30.458  1.00  0.00     0.134 A 
ATOM     50  F   UNL A   1      38.955  29.594  26.962  1.00  0.00    -0.206 F 
ATOM     51  C   UNL A   1      37.220  29.734  28.539  1.00  0.00     0.040 A 
ATOM     52  C   UNL A   1      37.572  28.953  30.788  1.00  0.00     0.040 A 
ATOM     53  F   UNL A   1      39.660  28.092  31.417  1.00  0.00    -0.206 F 
ATOM     54  C   UNL A   1      36.739  29.524  29.830  1.00  0.00     0.006 A 
ENDBRANCH  26  47
BRANCH  38  55
ATOM     55  C   UNL A   1      45.345  32.407  29.408  1.00  0.00     0.057 A 
ATOM     56  C   UNL A   1      45.703  32.757  30.717  1.00  0.00     0.134 A 
ATOM     57  C   UNL A   1      45.298  33.431  28.453  1.00  0.00     0.134 A 
ATOM     58  F   UNL A   1      45.750  31.824  31.681  1.00  0.00    -0.206 F 
ATOM     59  C   UNL A   1      45.974  34.079  31.068  1.00  0.00     0.040 A 
ATOM     60  C   UNL A   1      45.599  34.751  28.787  1.00  0.00     0.040 A 
ATOM     61  F   UNL A   1      44.970  33.163  27.181  1.00  0.00    -0.206 F 
ATOM     62  C   UNL A   1      45.930  35.080  30.099  1.00  0.00     0.006 A 
ENDBRANCH  38  55
ENDBRANCH  12  13
ENDBRANCH   5   7
ENDBRANCH   2   3
ENDBRANCH   1   2
BRANCH   1  63
ATOM     63  C   UNL A   1      36.643  20.702  24.724  1.00  0.00     0.117 C 
BRANCH  63  64
ATOM     64  N   UNL A   1      35.665  20.703  25.807  1.00  0.00    -0.356 N 
ATOM     65  C   UNL A   1      34.699  21.627  26.106  1.00  0.00     0.223 C 
ATOM     66  H   UNL A   1      35.705  19.926  26.411  1.00  0.00     0.163 HD
ATOM     67  O   UNL A   1      34.090  21.551  27.170  1.00  0.00    -0.275 OA
BRANCH  65  68
ATOM     68  C   UNL A   1      34.416  22.702  25.082  1.00  0.00     0.091 C 
ATOM     69  C   UNL A   1      34.510  24.114  25.605  1.00  0.00     0.014 C 
ATOM     70  C   UNL A   1      33.137  22.441  24.284  1.00  0.00     0.091 C 
ATOM     71  C   UNL A   1      34.597  25.069  24.417  1.00  0.00     0.001 C 
ATOM     72  C   UNL A   1      33.174  23.292  23.023  1.00  0.00     0.014 C 
ATOM     73  C   UNL A   1      33.859  24.665  23.126  1.00  0.00     0.001 C 
BRANCH  70  74
ATOM     74  C   UNL A   1      31.816  22.316  25.081  1.00  0.00     0.228 C 
ATOM     75  O   UNL A   1      31.423  21.177  25.376  1.00  0.00    -0.274 OA
ATOM     76  N   UNL A   1      31.091  23.341  25.608  1.00  0.00    -0.326 N 
ATOM     77  H   UNL A   1      30.508  23.063  26.351  1.00  0.00     0.169 HD
BRANCH  76  78
ATOM     78  C   UNL A   1      31.000  24.704  25.319  1.00  0.00     0.041 A 
ATOM     79  C   UNL A   1      30.338  25.082  24.148  1.00  0.00     0.026 A 
ATOM     80  C   UNL A   1      31.571  25.683  26.123  1.00  0.00     0.039 A 
ATOM     81  C   UNL A   1      30.096  26.431  23.882  1.00  0.00     0.003 A 
ATOM     82  C   UNL A   1      31.330  27.048  25.874  1.00  0.00     0.058 A 
ATOM     83  C   UNL A   1      30.565  27.410  24.756  1.00  0.00     0.013 A 
BRANCH  82  84
ATOM     84  C   UNL A   1      31.778  28.106  26.854  1.00  0.00     0.416 C 
ATOM     85  F   UNL A   1      31.679  29.370  26.362  1.00  0.00    -0.166 F 
ATOM     86  F   UNL A   1      31.028  28.091  27.993  1.00  0.00    -0.166 F 
ATOM     87  F   UNL A   1      33.068  27.960  27.264  1.00  0.00    -0.166 F 
ENDBRANCH  82  84
ENDBRANCH  76  78
ENDBRANCH  70  74
ENDBRANCH  65  68
ENDBRANCH  63  64
ENDBRANCH   1  63
TORSDOF 13
ENDMDL
