MODEL 1
REMARK VINA RESULT:     -12.9      0.000      0.000
REMARK SMILES Cc1ccc(C)c(-n2nc(C)c(/C=C(/C#N)C(=O)NCCCNC(=O)c3ccc(-c4c5nc(c(-c6c(F)cccc6F)c6ccc([nH]6)c(-c6c(F)cccc6F)c6nc(c(-c7c(F)cccc7F)c7ccc4[nH]7)C=C6)C=C5)cc3)c2Cl)c1
REMARK SMILES IDX 21 1 20 2 19 3 17 4 18 5 14 7 13 8 12 9 8 10 9 11 80 12
REMARK SMILES IDX 10 13 81 14 11 15 7 16 1 17 2 18 3 19 82 20 4 21 5 22 6 23
REMARK SMILES IDX 15 24 16 25 22 26 23 27 24 28 25 30 26 31 27 32 79 33 28 34
REMARK SMILES IDX 78 35 29 36 30 37 31 38 72 39 32 40 77 41 71 42 73 43 33 44
REMARK SMILES IDX 76 45 70 46 69 47 34 49 60 50 43 51 59 52 44 53 47 54 58 55
REMARK SMILES IDX 74 56 45 57 46 58 57 60 75 61 48 62 35 63 36 64 41 65 37 66
REMARK SMILES IDX 38 67 40 68 42 69 39 70 61 71 62 72 67 73 63 74 64 75 66 76
REMARK SMILES IDX 68 77 65 78 49 79 50 80 55 81 51 82 52 83 54 84 56 85 53 86
REMARK H PARENT 19 6 23 29 73 48 47 59
REMARK Flexibility Score: inf
ROOT
ATOM      1  C   UNL A   1      32.351  29.176  26.983  1.00  0.00     0.042 C 
ENDROOT
BRANCH   1   2
ATOM      2  C   UNL A   1      31.742  29.784  25.697  1.00  0.00     0.118 C 
BRANCH   2   3
ATOM      3  N   UNL A   1      32.630  29.660  24.524  1.00  0.00    -0.351 N 
ATOM      4  C   UNL A   1      32.559  28.953  23.348  1.00  0.00     0.261 C 
ATOM      5  O   UNL A   1      33.573  28.900  22.656  1.00  0.00    -0.268 OA
ATOM      6  H   UNL A   1      33.451  30.200  24.600  1.00  0.00     0.163 HD
BRANCH   4   7
ATOM      7  C   UNL A   1      31.315  28.217  22.941  1.00  0.00     0.117 C 
ATOM      8  C   UNL A   1      30.966  26.974  23.309  1.00  0.00     0.038 C 
BRANCH   8   9
ATOM      9  C   UNL A   1      31.648  26.018  24.146  1.00  0.00     0.036 A 
ATOM     10  N   UNL A   1      33.154  24.467  24.727  1.00  0.00    -0.221 N 
ATOM     11  N   UNL A   1      32.292  24.520  25.767  1.00  0.00    -0.171 NA
ATOM     12  C   UNL A   1      32.800  25.368  23.749  1.00  0.00     0.140 A 
ATOM     13  C   UNL A   1      31.426  25.499  25.460  1.00  0.00     0.069 A 
ATOM     14  Cl  UNL A   1      33.657  25.437  22.266  1.00  0.00    -0.061 Cl
ATOM     15  C   UNL A   1      30.438  25.846  26.514  1.00  0.00     0.069 C 
BRANCH  10  16
ATOM     16  C   UNL A   1      34.310  23.654  24.826  1.00  0.00     0.069 A 
ATOM     17  C   UNL A   1      37.872  24.076  26.128  1.00  0.00     0.044 C 
ATOM     18  C   UNL A   1      36.636  23.473  25.531  1.00  0.00    -0.049 A 
ATOM     19  C   UNL A   1      36.627  22.129  25.149  1.00  0.00     0.004 A 
ATOM     20  C   UNL A   1      35.477  24.235  25.355  1.00  0.00     0.032 A 
ATOM     21  C   UNL A   1      35.468  21.548  24.627  1.00  0.00     0.006 A 
ATOM     22  C   UNL A   1      34.288  22.293  24.466  1.00  0.00    -0.025 A 
ATOM     23  C   UNL A   1      33.108  21.588  23.853  1.00  0.00     0.047 C 
ENDBRANCH  10  16
ENDBRANCH   8   9
BRANCH   7  24
ATOM     24  C   UNL A   1      30.408  29.166  22.172  1.00  0.00     0.105 C 
ATOM     25  N   UNL A   1      29.656  29.953  21.536  1.00  0.00    -0.192 NA
ENDBRANCH   7  24
ENDBRANCH   4   7
ENDBRANCH   2   3
ENDBRANCH   1   2
BRANCH   1  26
ATOM     26  C   UNL A   1      33.787  29.553  27.367  1.00  0.00     0.118 C 
BRANCH  26  27
ATOM     27  N   UNL A   1      34.057  30.990  27.242  1.00  0.00    -0.352 N 
ATOM     28  C   UNL A   1      35.076  31.829  27.678  1.00  0.00     0.251 C 
ATOM     29  H   UNL A   1      33.361  31.468  26.735  1.00  0.00     0.163 HD
ATOM     30  O   UNL A   1      34.920  33.034  27.629  1.00  0.00    -0.269 OA
BRANCH  28  31
ATOM     31  C   UNL A   1      36.351  31.280  28.202  1.00  0.00     0.039 A 
ATOM     32  C   UNL A   1      37.148  31.925  29.153  1.00  0.00     0.014 A 
ATOM     33  C   UNL A   1      36.777  30.068  27.723  1.00  0.00     0.014 A 
ATOM     34  C   UNL A   1      38.376  31.344  29.497  1.00  0.00     0.010 A 
ATOM     35  C   UNL A   1      37.646  29.328  28.448  1.00  0.00     0.010 A 
ATOM     36  C   UNL A   1      38.635  30.041  29.070  1.00  0.00    -0.014 A 
BRANCH  36  37
ATOM     37  C   UNL A   1      39.874  29.310  29.258  1.00  0.00     0.031 A 
ATOM     38  C   UNL A   1      40.165  28.987  30.665  1.00  0.00     0.074 A 
ATOM     39  C   UNL A   1      40.492  28.627  28.265  1.00  0.00     0.049 A 
ATOM     40  N   UNL A   1      41.065  29.515  31.419  1.00  0.00    -0.248 NA
ATOM     41  C   UNL A   1      39.242  28.079  31.361  1.00  0.00     0.031 C 
ATOM     42  C   UNL A   1      40.070  28.427  26.872  1.00  0.00     0.029 A 
ATOM     43  N   UNL A   1      41.601  27.843  28.349  1.00  0.00    -0.354 N 
ATOM     44  C   UNL A   1      40.957  28.847  32.631  1.00  0.00     0.074 A 
ATOM     45  C   UNL A   1      39.681  28.183  32.615  1.00  0.00     0.031 C 
ATOM     46  C   UNL A   1      40.794  27.424  26.321  1.00  0.00     0.029 A 
ATOM     47  C   UNL A   1      41.808  26.995  27.269  1.00  0.00     0.049 A 
ATOM     48  H   UNL A   1      42.212  27.874  29.121  1.00  0.00     0.167 HD
ATOM     49  C   UNL A   1      42.039  28.656  33.434  1.00  0.00     0.037 A 
ATOM     50  C   UNL A   1      42.708  25.980  27.208  1.00  0.00     0.037 A 
ATOM     51  C   UNL A   1      43.163  29.451  33.000  1.00  0.00     0.049 A 
ATOM     52  C   UNL A   1      43.698  26.203  28.299  1.00  0.00     0.074 A 
ATOM     53  C   UNL A   1      43.350  30.796  32.733  1.00  0.00     0.029 A 
ATOM     54  N   UNL A   1      44.202  28.808  32.367  1.00  0.00    -0.354 N 
ATOM     55  N   UNL A   1      44.562  27.181  28.318  1.00  0.00    -0.248 NA
ATOM     56  C   UNL A   1      43.413  25.603  29.596  1.00  0.00     0.031 C 
ATOM     57  C   UNL A   1      44.149  30.827  31.550  1.00  0.00     0.029 A 
ATOM     58  C   UNL A   1      44.461  29.509  31.216  1.00  0.00     0.049 A 
ATOM     59  H   UNL A   1      44.669  28.000  32.680  1.00  0.00     0.167 HD
ATOM     60  C   UNL A   1      44.598  27.599  29.641  1.00  0.00     0.074 A 
ATOM     61  C   UNL A   1      43.944  26.532  30.396  1.00  0.00     0.031 C 
ATOM     62  C   UNL A   1      44.875  28.896  29.974  1.00  0.00     0.037 A 
BRANCH  49  63
ATOM     63  C   UNL A   1      42.194  27.495  34.381  1.00  0.00     0.057 A 
ATOM     64  C   UNL A   1      41.832  27.667  35.727  1.00  0.00     0.134 A 
ATOM     65  C   UNL A   1      42.904  26.311  34.096  1.00  0.00     0.134 A 
ATOM     66  F   UNL A   1      41.179  28.767  36.128  1.00  0.00    -0.206 F 
ATOM     67  C   UNL A   1      42.197  26.754  36.722  1.00  0.00     0.040 A 
ATOM     68  C   UNL A   1      43.217  25.361  35.072  1.00  0.00     0.040 A 
ATOM     69  F   UNL A   1      43.425  26.052  32.891  1.00  0.00    -0.206 F 
ATOM     70  C   UNL A   1      42.890  25.595  36.397  1.00  0.00     0.006 A 
ENDBRANCH  49  63
BRANCH  50  71
ATOM     71  C   UNL A   1      42.624  24.698  26.465  1.00  0.00     0.057 A 
ATOM     72  C   UNL A   1      43.542  24.383  25.452  1.00  0.00     0.134 A 
ATOM     73  C   UNL A   1      41.806  23.638  26.896  1.00  0.00     0.134 A 
ATOM     74  F   UNL A   1      44.399  25.309  24.996  1.00  0.00    -0.206 F 
ATOM     75  C   UNL A   1      43.656  23.091  24.918  1.00  0.00     0.040 A 
ATOM     76  C   UNL A   1      41.900  22.347  26.364  1.00  0.00     0.040 A 
ATOM     77  F   UNL A   1      40.951  23.793  27.916  1.00  0.00    -0.206 F 
ATOM     78  C   UNL A   1      42.838  22.065  25.381  1.00  0.00     0.006 A 
ENDBRANCH  50  71
BRANCH  62  79
ATOM     79  C   UNL A   1      45.395  29.821  28.904  1.00  0.00     0.057 A 
ATOM     80  C   UNL A   1      46.742  29.914  28.526  1.00  0.00     0.134 A 
ATOM     81  C   UNL A   1      44.473  30.519  28.114  1.00  0.00     0.134 A 
ATOM     82  F   UNL A   1      47.691  29.199  29.143  1.00  0.00    -0.206 F 
ATOM     83  C   UNL A   1      47.157  30.700  27.446  1.00  0.00     0.040 A 
ATOM     84  C   UNL A   1      44.870  31.279  27.010  1.00  0.00     0.040 A 
ATOM     85  F   UNL A   1      43.159  30.435  28.373  1.00  0.00    -0.206 F 
ATOM     86  C   UNL A   1      46.218  31.380  26.679  1.00  0.00     0.006 A 
ENDBRANCH  62  79
ENDBRANCH  36  37
ENDBRANCH  28  31
ENDBRANCH  26  27
ENDBRANCH   1  26
TORSDOF 13
ENDMDL
MODEL 2
REMARK VINA RESULT:     -12.8      2.807      7.912
REMARK SMILES Cc1ccc(C)c(-n2nc(C)c(/C=C(/C#N)C(=O)NCCCNC(=O)c3ccc(-c4c5nc(c(-c6c(F)cccc6F)c6ccc([nH]6)c(-c6c(F)cccc6F)c6nc(c(-c7c(F)cccc7F)c7ccc4[nH]7)C=C6)C=C5)cc3)c2Cl)c1
REMARK SMILES IDX 21 1 20 2 19 3 17 4 18 5 14 7 13 8 12 9 8 10 9 11 80 12
REMARK SMILES IDX 10 13 81 14 11 15 7 16 1 17 2 18 3 19 82 20 4 21 5 22 6 23
REMARK SMILES IDX 15 24 16 25 22 26 23 27 24 28 25 30 26 31 27 32 79 33 28 34
REMARK SMILES IDX 78 35 29 36 30 37 31 38 72 39 32 40 77 41 71 42 73 43 33 44
REMARK SMILES IDX 76 45 70 46 69 47 34 49 60 50 43 51 59 52 44 53 47 54 58 55
REMARK SMILES IDX 74 56 45 57 46 58 57 60 75 61 48 62 35 63 36 64 41 65 37 66
REMARK SMILES IDX 38 67 40 68 42 69 39 70 61 71 62 72 67 73 63 74 64 75 66 76
REMARK SMILES IDX 68 77 65 78 49 79 50 80 55 81 51 82 52 83 54 84 56 85 53 86
REMARK H PARENT 19 6 23 29 73 48 47 59
REMARK Flexibility Score: inf
ROOT
ATOM      1  C   UNL A   1      37.665  20.759  24.968  1.00  0.00     0.042 C 
ENDROOT
BRANCH   1   2
ATOM      2  C   UNL A   1      36.127  20.859  24.842  1.00  0.00     0.118 C 
BRANCH   2   3
ATOM      3  N   UNL A   1      35.454  21.063  26.141  1.00  0.00    -0.351 N 
ATOM      4  C   UNL A   1      34.151  21.292  26.511  1.00  0.00     0.261 C 
ATOM      5  O   UNL A   1      33.944  21.631  27.674  1.00  0.00    -0.268 OA
ATOM      6  H   UNL A   1      36.073  21.028  26.907  1.00  0.00     0.163 HD
BRANCH   4   7
ATOM      7  C   UNL A   1      33.020  21.196  25.528  1.00  0.00     0.117 C 
ATOM      8  C   UNL A   1      32.563  22.181  24.739  1.00  0.00     0.038 C 
BRANCH   8   9
ATOM      9  C   UNL A   1      32.984  23.555  24.614  1.00  0.00     0.036 A 
ATOM     10  N   UNL A   1      32.985  25.767  24.957  1.00  0.00    -0.221 N 
ATOM     11  N   UNL A   1      33.898  25.567  23.979  1.00  0.00    -0.171 NA
ATOM     12  C   UNL A   1      32.435  24.573  25.367  1.00  0.00     0.140 A 
ATOM     13  C   UNL A   1      33.957  24.236  23.817  1.00  0.00     0.069 A 
ATOM     14  Cl  UNL A   1      31.168  24.541  26.521  1.00  0.00    -0.061 Cl
ATOM     15  C   UNL A   1      34.993  23.742  22.873  1.00  0.00     0.069 C 
BRANCH  10  16
ATOM     16  C   UNL A   1      32.823  27.066  25.498  1.00  0.00     0.069 A 
ATOM     17  C   UNL A   1      34.875  29.408  27.703  1.00  0.00     0.044 C 
ATOM     18  C   UNL A   1      33.773  28.858  26.849  1.00  0.00    -0.049 A 
ATOM     19  C   UNL A   1      32.656  29.645  26.555  1.00  0.00     0.004 A 
ATOM     20  C   UNL A   1      33.845  27.563  26.327  1.00  0.00     0.032 A 
ATOM     21  C   UNL A   1      31.641  29.155  25.729  1.00  0.00     0.006 A 
ATOM     22  C   UNL A   1      31.709  27.865  25.177  1.00  0.00    -0.025 A 
ATOM     23  C   UNL A   1      30.545  27.414  24.338  1.00  0.00     0.047 C 
ENDBRANCH  10  16
ENDBRANCH   8   9
BRANCH   7  24
ATOM     24  C   UNL A   1      32.570  19.746  25.432  1.00  0.00     0.105 C 
ATOM     25  N   UNL A   1      32.197  18.544  25.353  1.00  0.00    -0.192 NA
ENDBRANCH   7  24
ENDBRANCH   4   7
ENDBRANCH   2   3
ENDBRANCH   1   2
BRANCH   1  26
ATOM     26  C   UNL A   1      38.410  21.832  25.771  1.00  0.00     0.118 C 
BRANCH  26  27
ATOM     27  N   UNL A   1      39.852  21.581  25.868  1.00  0.00    -0.352 N 
ATOM     28  C   UNL A   1      40.952  22.353  26.224  1.00  0.00     0.251 C 
ATOM     29  H   UNL A   1      40.097  20.658  25.627  1.00  0.00     0.163 HD
ATOM     30  O   UNL A   1      42.071  21.945  25.985  1.00  0.00    -0.269 OA
BRANCH  28  31
ATOM     31  C   UNL A   1      40.783  23.668  26.890  1.00  0.00     0.039 A 
ATOM     32  C   UNL A   1      39.653  24.480  26.743  1.00  0.00     0.014 A 
ATOM     33  C   UNL A   1      41.796  24.118  27.698  1.00  0.00     0.014 A 
ATOM     34  C   UNL A   1      39.656  25.742  27.353  1.00  0.00     0.010 A 
ATOM     35  C   UNL A   1      41.535  25.043  28.650  1.00  0.00     0.010 A 
ATOM     36  C   UNL A   1      40.665  26.030  28.274  1.00  0.00    -0.014 A 
BRANCH  36  37
ATOM     37  C   UNL A   1      40.876  27.301  28.940  1.00  0.00     0.031 A 
ATOM     38  C   UNL A   1      41.994  28.084  28.386  1.00  0.00     0.074 A 
ATOM     39  C   UNL A   1      39.930  27.912  29.692  1.00  0.00     0.049 A 
ATOM     40  N   UNL A   1      43.144  28.296  28.925  1.00  0.00    -0.248 NA
ATOM     41  C   UNL A   1      41.874  28.555  26.998  1.00  0.00     0.031 C 
ATOM     42  C   UNL A   1      38.545  27.500  29.959  1.00  0.00     0.029 A 
ATOM     43  N   UNL A   1      39.990  29.136  30.286  1.00  0.00    -0.354 N 
ATOM     44  C   UNL A   1      43.817  29.113  28.027  1.00  0.00     0.074 A 
ATOM     45  C   UNL A   1      43.104  29.018  26.780  1.00  0.00     0.031 C 
ATOM     46  C   UNL A   1      37.856  28.545  30.476  1.00  0.00     0.029 A 
ATOM     47  C   UNL A   1      38.768  29.654  30.693  1.00  0.00     0.049 A 
ATOM     48  H   UNL A   1      40.839  29.618  30.416  1.00  0.00     0.167 HD
ATOM     49  C   UNL A   1      44.738  30.022  28.448  1.00  0.00     0.037 A 
ATOM     50  C   UNL A   1      38.535  30.925  31.110  1.00  0.00     0.037 A 
ATOM     51  C   UNL A   1      45.088  29.812  29.833  1.00  0.00     0.049 A 
ATOM     52  C   UNL A   1      39.856  31.523  31.456  1.00  0.00     0.074 A 
ATOM     53  C   UNL A   1      45.535  28.725  30.563  1.00  0.00     0.029 A 
ATOM     54  N   UNL A   1      44.591  30.696  30.764  1.00  0.00    -0.354 N 
ATOM     55  N   UNL A   1      40.586  31.153  32.473  1.00  0.00    -0.248 NA
ATOM     56  C   UNL A   1      40.576  32.218  30.397  1.00  0.00     0.031 C 
ATOM     57  C   UNL A   1      44.812  28.787  31.793  1.00  0.00     0.029 A 
ATOM     58  C   UNL A   1      44.030  29.943  31.766  1.00  0.00     0.049 A 
ATOM     59  H   UNL A   1      44.631  31.678  30.719  1.00  0.00     0.167 HD
ATOM     60  C   UNL A   1      41.891  31.173  32.000  1.00  0.00     0.074 A 
ATOM     61  C   UNL A   1      41.831  31.926  30.749  1.00  0.00     0.031 C 
ATOM     62  C   UNL A   1      42.845  30.329  32.497  1.00  0.00     0.037 A 
BRANCH  49  63
ATOM     63  C   UNL A   1      45.049  31.306  27.726  1.00  0.00     0.057 A 
ATOM     64  C   UNL A   1      46.327  31.478  27.171  1.00  0.00     0.134 A 
ATOM     65  C   UNL A   1      44.249  32.467  27.764  1.00  0.00     0.134 A 
ATOM     66  F   UNL A   1      47.191  30.455  27.106  1.00  0.00    -0.206 F 
ATOM     67  C   UNL A   1      46.792  32.724  26.736  1.00  0.00     0.040 A 
ATOM     68  C   UNL A   1      44.680  33.701  27.272  1.00  0.00     0.040 A 
ATOM     69  F   UNL A   1      43.055  32.503  28.367  1.00  0.00    -0.206 F 
ATOM     70  C   UNL A   1      45.968  33.840  26.783  1.00  0.00     0.006 A 
ENDBRANCH  49  63
BRANCH  50  71
ATOM     71  C   UNL A   1      37.307  31.746  30.973  1.00  0.00     0.057 A 
ATOM     72  C   UNL A   1      36.903  32.248  29.727  1.00  0.00     0.134 A 
ATOM     73  C   UNL A   1      36.358  31.848  32.006  1.00  0.00     0.134 A 
ATOM     74  F   UNL A   1      37.714  32.163  28.662  1.00  0.00    -0.206 F 
ATOM     75  C   UNL A   1      35.628  32.795  29.516  1.00  0.00     0.040 A 
ATOM     76  C   UNL A   1      35.088  32.402  31.814  1.00  0.00     0.040 A 
ATOM     77  F   UNL A   1      36.595  31.327  33.219  1.00  0.00    -0.206 F 
ATOM     78  C   UNL A   1      34.712  32.865  30.561  1.00  0.00     0.006 A 
ENDBRANCH  50  71
BRANCH  62  79
ATOM     79  C   UNL A   1      42.535  29.544  33.745  1.00  0.00     0.057 A 
ATOM     80  C   UNL A   1      41.918  28.283  33.752  1.00  0.00     0.134 A 
ATOM     81  C   UNL A   1      43.031  30.005  34.971  1.00  0.00     0.134 A 
ATOM     82  F   UNL A   1      41.510  27.700  32.619  1.00  0.00    -0.206 F 
ATOM     83  C   UNL A   1      41.760  27.542  34.928  1.00  0.00     0.040 A 
ATOM     84  C   UNL A   1      42.912  29.258  36.146  1.00  0.00     0.040 A 
ATOM     85  F   UNL A   1      43.686  31.174  35.038  1.00  0.00    -0.206 F 
ATOM     86  C   UNL A   1      42.264  28.026  36.129  1.00  0.00     0.006 A 
ENDBRANCH  62  79
ENDBRANCH  36  37
ENDBRANCH  28  31
ENDBRANCH  26  27
ENDBRANCH   1  26
TORSDOF 13
ENDMDL
MODEL 3
REMARK VINA RESULT:     -12.5      1.364      1.967
REMARK SMILES Cc1ccc(C)c(-n2nc(C)c(/C=C(/C#N)C(=O)NCCCNC(=O)c3ccc(-c4c5nc(c(-c6c(F)cccc6F)c6ccc([nH]6)c(-c6c(F)cccc6F)c6nc(c(-c7c(F)cccc7F)c7ccc4[nH]7)C=C6)C=C5)cc3)c2Cl)c1
REMARK SMILES IDX 21 1 20 2 19 3 17 4 18 5 14 7 13 8 12 9 8 10 9 11 80 12
REMARK SMILES IDX 10 13 81 14 11 15 7 16 1 17 2 18 3 19 82 20 4 21 5 22 6 23
REMARK SMILES IDX 15 24 16 25 22 26 23 27 24 28 25 30 26 31 27 32 79 33 28 34
REMARK SMILES IDX 78 35 29 36 30 37 31 38 72 39 32 40 77 41 71 42 73 43 33 44
REMARK SMILES IDX 76 45 70 46 69 47 34 49 60 50 43 51 59 52 44 53 47 54 58 55
REMARK SMILES IDX 74 56 45 57 46 58 57 60 75 61 48 62 35 63 36 64 41 65 37 66
REMARK SMILES IDX 38 67 40 68 42 69 39 70 61 71 62 72 67 73 63 74 64 75 66 76
REMARK SMILES IDX 68 77 65 78 49 79 50 80 55 81 51 82 52 83 54 84 56 85 53 86
REMARK H PARENT 19 6 23 29 73 48 47 59
REMARK Flexibility Score: inf
ROOT
ATOM      1  C   UNL A   1      32.309  28.376  27.265  1.00  0.00     0.042 C 
ENDROOT
BRANCH   1   2
ATOM      2  C   UNL A   1      31.928  27.178  26.364  1.00  0.00     0.118 C 
BRANCH   2   3
ATOM      3  N   UNL A   1      32.877  26.966  25.254  1.00  0.00    -0.351 N 
ATOM      4  C   UNL A   1      32.777  26.381  24.015  1.00  0.00     0.261 C 
ATOM      5  O   UNL A   1      33.821  26.177  23.399  1.00  0.00    -0.268 OA
ATOM      6  H   UNL A   1      33.777  27.322  25.441  1.00  0.00     0.163 HD
BRANCH   4   7
ATOM      7  C   UNL A   1      31.456  25.944  23.450  1.00  0.00     0.117 C 
ATOM      8  C   UNL A   1      30.874  24.746  23.614  1.00  0.00     0.038 C 
BRANCH   8   9
ATOM      9  C   UNL A   1      31.322  23.576  24.328  1.00  0.00     0.036 A 
ATOM     10  N   UNL A   1      32.410  21.653  24.690  1.00  0.00    -0.221 N 
ATOM     11  N   UNL A   1      31.624  21.818  25.779  1.00  0.00    -0.171 NA
ATOM     12  C   UNL A   1      32.260  22.703  23.813  1.00  0.00     0.140 A 
ATOM     13  C   UNL A   1      31.022  23.004  25.605  1.00  0.00     0.069 A 
ATOM     14  Cl  UNL A   1      33.056  22.699  22.295  1.00  0.00    -0.061 Cl
ATOM     15  C   UNL A   1      30.190  23.483  26.739  1.00  0.00     0.069 C 
BRANCH  10  16
ATOM     16  C   UNL A   1      33.328  20.574  24.655  1.00  0.00     0.069 A 
ATOM     17  C   UNL A   1      33.265  16.938  23.500  1.00  0.00     0.044 C 
ATOM     18  C   UNL A   1      33.738  18.249  24.054  1.00  0.00    -0.049 A 
ATOM     19  C   UNL A   1      35.067  18.399  24.460  1.00  0.00     0.004 A 
ATOM     20  C   UNL A   1      32.869  19.338  24.167  1.00  0.00     0.032 A 
ATOM     21  C   UNL A   1      35.527  19.627  24.942  1.00  0.00     0.006 A 
ATOM     22  C   UNL A   1      34.673  20.738  25.038  1.00  0.00    -0.025 A 
ATOM     23  C   UNL A   1      35.252  22.002  25.613  1.00  0.00     0.047 C 
ENDBRANCH  10  16
ENDBRANCH   8   9
BRANCH   7  24
ATOM     24  C   UNL A   1      30.780  27.139  22.794  1.00  0.00     0.105 C 
ATOM     25  N   UNL A   1      30.220  28.129  22.250  1.00  0.00    -0.192 NA
ENDBRANCH   7  24
ENDBRANCH   4   7
ENDBRANCH   2   3
ENDBRANCH   1   2
BRANCH   1  26
ATOM     26  C   UNL A   1      33.726  28.952  27.164  1.00  0.00     0.118 C 
BRANCH  26  27
ATOM     27  N   UNL A   1      33.752  30.419  27.161  1.00  0.00    -0.352 N 
ATOM     28  C   UNL A   1      34.613  31.378  27.682  1.00  0.00     0.251 C 
ATOM     29  H   UNL A   1      32.988  30.814  26.681  1.00  0.00     0.163 HD
ATOM     30  O   UNL A   1      34.257  32.539  27.728  1.00  0.00    -0.269 OA
BRANCH  28  31
ATOM     31  C   UNL A   1      35.960  31.007  28.183  1.00  0.00     0.039 A 
ATOM     32  C   UNL A   1      36.729  31.814  29.028  1.00  0.00     0.014 A 
ATOM     33  C   UNL A   1      36.486  29.802  27.793  1.00  0.00     0.014 A 
ATOM     34  C   UNL A   1      38.024  31.391  29.356  1.00  0.00     0.010 A 
ATOM     35  C   UNL A   1      37.457  29.222  28.534  1.00  0.00     0.010 A 
ATOM     36  C   UNL A   1      38.395  30.084  29.034  1.00  0.00    -0.014 A 
BRANCH  36  37
ATOM     37  C   UNL A   1      39.709  29.499  29.221  1.00  0.00     0.031 A 
ATOM     38  C   UNL A   1      40.011  29.147  30.618  1.00  0.00     0.074 A 
ATOM     39  C   UNL A   1      40.424  28.942  28.214  1.00  0.00     0.049 A 
ATOM     40  N   UNL A   1      40.826  29.744  31.417  1.00  0.00    -0.248 NA
ATOM     41  C   UNL A   1      39.191  28.104  31.251  1.00  0.00     0.031 C 
ATOM     42  C   UNL A   1      40.055  28.758  26.803  1.00  0.00     0.029 A 
ATOM     43  N   UNL A   1      41.618  28.293  28.290  1.00  0.00    -0.354 N 
ATOM     44  C   UNL A   1      40.777  29.011  32.595  1.00  0.00     0.074 A 
ATOM     45  C   UNL A   1      39.590  28.201  32.519  1.00  0.00     0.031 C 
ATOM     46  C   UNL A   1      40.906  27.876  26.227  1.00  0.00     0.029 A 
ATOM     47  C   UNL A   1      41.946  27.528  27.179  1.00  0.00     0.049 A 
ATOM     48  H   UNL A   1      42.206  28.361  29.077  1.00  0.00     0.167 HD
ATOM     49  C   UNL A   1      41.858  28.913  33.415  1.00  0.00     0.037 A 
ATOM     50  C   UNL A   1      42.962  26.632  27.094  1.00  0.00     0.037 A 
ATOM     51  C   UNL A   1      42.886  29.857  33.044  1.00  0.00     0.049 A 
ATOM     52  C   UNL A   1      43.898  26.920  28.218  1.00  0.00     0.074 A 
ATOM     53  C   UNL A   1      42.915  31.226  32.841  1.00  0.00     0.029 A 
ATOM     54  N   UNL A   1      44.007  29.373  32.409  1.00  0.00    -0.354 N 
ATOM     55  N   UNL A   1      44.637  27.992  28.302  1.00  0.00    -0.248 NA
ATOM     56  C   UNL A   1      43.663  26.230  29.481  1.00  0.00     0.031 C 
ATOM     57  C   UNL A   1      43.726  31.408  31.681  1.00  0.00     0.029 A 
ATOM     58  C   UNL A   1      44.201  30.153  31.296  1.00  0.00     0.049 A 
ATOM     59  H   UNL A   1      44.562  28.613  32.697  1.00  0.00     0.167 HD
ATOM     60  C   UNL A   1      44.597  28.350  29.643  1.00  0.00     0.074 A 
ATOM     61  C   UNL A   1      44.062  27.178  30.333  1.00  0.00     0.031 C 
ATOM     62  C   UNL A   1      44.710  29.654  30.039  1.00  0.00     0.037 A 
BRANCH  49  63
ATOM     63  C   UNL A   1      42.134  27.737  34.314  1.00  0.00     0.057 A 
ATOM     64  C   UNL A   1      41.816  27.837  35.677  1.00  0.00     0.134 A 
ATOM     65  C   UNL A   1      42.916  26.618  33.960  1.00  0.00     0.134 A 
ATOM     66  F   UNL A   1      41.101  28.873  36.142  1.00  0.00    -0.206 F 
ATOM     67  C   UNL A   1      42.285  26.921  36.625  1.00  0.00     0.040 A 
ATOM     68  C   UNL A   1      43.335  25.662  34.888  1.00  0.00     0.040 A 
ATOM     69  F   UNL A   1      43.406  26.438  32.727  1.00  0.00    -0.206 F 
ATOM     70  C   UNL A   1      43.045  25.828  36.232  1.00  0.00     0.006 A 
ENDBRANCH  49  63
BRANCH  50  71
ATOM     71  C   UNL A   1      43.048  25.385  26.294  1.00  0.00     0.057 A 
ATOM     72  C   UNL A   1      44.051  25.207  25.329  1.00  0.00     0.134 A 
ATOM     73  C   UNL A   1      42.312  24.233  26.626  1.00  0.00     0.134 A 
ATOM     74  F   UNL A   1      44.840  26.230  24.970  1.00  0.00    -0.206 F 
ATOM     75  C   UNL A   1      44.321  23.959  24.749  1.00  0.00     0.040 A 
ATOM     76  C   UNL A   1      42.562  22.984  26.047  1.00  0.00     0.040 A 
ATOM     77  F   UNL A   1      41.386  24.257  27.595  1.00  0.00    -0.206 F 
ATOM     78  C   UNL A   1      43.581  22.839  25.115  1.00  0.00     0.006 A 
ENDBRANCH  50  71
BRANCH  62  79
ATOM     79  C   UNL A   1      45.134  30.682  29.024  1.00  0.00     0.057 A 
ATOM     80  C   UNL A   1      46.468  30.958  28.688  1.00  0.00     0.134 A 
ATOM     81  C   UNL A   1      44.151  31.297  28.239  1.00  0.00     0.134 A 
ATOM     82  F   UNL A   1      47.483  30.338  29.300  1.00  0.00    -0.206 F 
ATOM     83  C   UNL A   1      46.806  31.838  27.654  1.00  0.00     0.040 A 
ATOM     84  C   UNL A   1      44.475  32.149  27.179  1.00  0.00     0.040 A 
ATOM     85  F   UNL A   1      42.852  31.040  28.457  1.00  0.00    -0.206 F 
ATOM     86  C   UNL A   1      45.807  32.430  26.891  1.00  0.00     0.006 A 
ENDBRANCH  62  79
ENDBRANCH  36  37
ENDBRANCH  28  31
ENDBRANCH  26  27
ENDBRANCH   1  26
TORSDOF 13
ENDMDL
