MODEL 1
REMARK VINA RESULT:     -13.3      0.000      0.000
REMARK SMILES CC(=O)N[C@H]1[C@@H](Oc2ccc(C)c(C)c2)O[C@H]2CO[C@H](c3ccco3)O[C@@H]2[C@H]1OCC(=O)NCCCNC(=O)c1ccc(-c2c3nc(c(-c4c(F)cccc4F)c4ccc([nH]4)c(-c4c(F)cccc4F)c4nc(c(-c5c(F)cccc5F)c5ccc2[nH]5)C=C4)C=C3)cc1
REMARK SMILES IDX 34 1 33 2 31 3 32 4 30 6 29 7 28 8 5 9 6 10 16 11 27 12
REMARK SMILES IDX 17 13 26 14 18 15 20 16 19 17 4 18 1 19 2 20 3 21 7 23 8 24
REMARK SMILES IDX 9 25 15 26 10 27 13 28 11 29 14 30 12 31 21 32 22 33 25 34
REMARK SMILES IDX 23 35 24 36 35 37 36 38 37 39 38 40 39 42 40 43 41 44 93 45
REMARK SMILES IDX 42 46 92 47 43 48 44 49 45 50 86 51 46 52 91 53 85 54 87 55
REMARK SMILES IDX 47 56 90 57 84 58 83 59 48 61 74 62 57 63 73 64 58 65 61 66
REMARK SMILES IDX 72 67 88 68 59 69 60 70 71 72 89 73 62 74 49 75 50 76 55 77
REMARK SMILES IDX 51 78 52 79 54 80 56 81 53 82 75 83 76 84 81 85 77 86 78 87
REMARK SMILES IDX 80 88 82 89 79 90 63 91 64 92 69 93 65 94 66 95 68 96 70 97
REMARK SMILES IDX 67 98
REMARK H PARENT 33 5 4 22 37 41 87 60 61 71
REMARK Flexibility Score: inf
ROOT
ATOM      1  C   UNL A   1      36.313  20.622  25.175  1.00  0.00     0.117 C 
ENDROOT
BRANCH   1   2
ATOM      2  N   UNL A   1      36.611  21.868  25.850  1.00  0.00    -0.354 N 
ATOM      3  C   UNL A   1      35.667  22.774  26.255  1.00  0.00     0.246 C 
ATOM      4  O   UNL A   1      35.907  23.959  26.037  1.00  0.00    -0.272 OA
ATOM      5  H   UNL A   1      37.555  22.079  26.031  1.00  0.00     0.163 HD
BRANCH   3   6
ATOM      6  C   UNL A   1      34.374  22.228  26.924  1.00  0.00     0.260 C 
BRANCH   6   7
ATOM      7  O   UNL A   1      33.046  22.684  26.841  1.00  0.00    -0.363 OA
BRANCH   7   8
ATOM      8  C   UNL A   1      32.321  22.690  25.610  1.00  0.00     0.179 C 
ATOM      9  C   UNL A   1      32.026  24.138  25.096  1.00  0.00     0.182 C 
ATOM     10  C   UNL A   1      31.419  24.116  23.638  1.00  0.00     0.333 C 
ATOM     11  O   UNL A   1      31.855  23.062  22.777  1.00  0.00    -0.332 OA
ATOM     12  C   UNL A   1      32.768  21.682  24.525  1.00  0.00     0.184 C 
ATOM     13  C   UNL A   1      31.774  21.780  23.367  1.00  0.00     0.180 C 
ATOM     14  O   UNL A   1      32.808  20.335  25.022  1.00  0.00    -0.337 OA
ATOM     15  C   UNL A   1      32.106  20.719  22.324  1.00  0.00     0.199 C 
ATOM     16  C   UNL A   1      33.151  19.424  23.969  1.00  0.00     0.319 C 
ATOM     17  O   UNL A   1      32.179  19.436  22.929  1.00  0.00    -0.343 OA
BRANCH   9  18
ATOM     18  N   UNL A   1      33.152  25.065  25.287  1.00  0.00    -0.345 N 
ATOM     19  C   UNL A   1      32.010  26.918  26.477  1.00  0.00     0.114 C 
ATOM     20  C   UNL A   1      33.229  26.291  25.868  1.00  0.00     0.217 C 
ATOM     21  O   UNL A   1      34.315  26.870  25.911  1.00  0.00    -0.275 OA
ATOM     22  H   UNL A   1      34.008  24.736  24.930  1.00  0.00     0.164 HD
ENDBRANCH   9  18
BRANCH  10  23
ATOM     23  O   UNL A   1      31.438  25.390  22.971  1.00  0.00    -0.463 OA
BRANCH  23  24
ATOM     24  C   UNL A   1      30.428  26.290  23.188  1.00  0.00     0.123 A 
ATOM     25  C   UNL A   1      29.225  26.054  23.845  1.00  0.00     0.047 A 
ATOM     26  C   UNL A   1      30.644  27.553  22.633  1.00  0.00     0.050 A 
ATOM     27  C   UNL A   1      28.202  27.003  23.817  1.00  0.00     0.007 A 
ATOM     28  C   UNL A   1      29.636  28.537  22.626  1.00  0.00    -0.045 A 
ATOM     29  C   UNL A   1      28.377  28.234  23.173  1.00  0.00    -0.048 A 
ATOM     30  C   UNL A   1      29.970  29.875  22.026  1.00  0.00     0.045 C 
ATOM     31  C   UNL A   1      27.207  29.171  23.079  1.00  0.00     0.044 C 
ENDBRANCH  23  24
ENDBRANCH  10  23
BRANCH  16  32
ATOM     32  C   UNL A   1      33.203  18.022  24.481  1.00  0.00     0.159 A 
ATOM     33  C   UNL A   1      34.123  17.007  24.282  1.00  0.00     0.051 A 
ATOM     34  O   UNL A   1      32.203  17.576  25.300  1.00  0.00    -0.464 OA
ATOM     35  C   UNL A   1      33.654  15.884  25.003  1.00  0.00     0.042 A 
ATOM     36  C   UNL A   1      32.481  16.280  25.599  1.00  0.00     0.195 A 
ENDBRANCH  16  32
ENDBRANCH   7   8
ENDBRANCH   6   7
ENDBRANCH   3   6
ENDBRANCH   1   2
BRANCH   1  37
ATOM     37  C   UNL A   1      37.595  19.814  24.951  1.00  0.00     0.042 C 
BRANCH  37  38
ATOM     38  C   UNL A   1      38.812  20.392  25.677  1.00  0.00     0.118 C 
BRANCH  38  39
ATOM     39  N   UNL A   1      39.880  19.415  25.805  1.00  0.00    -0.352 N 
ATOM     40  C   UNL A   1      41.211  19.621  26.058  1.00  0.00     0.251 C 
ATOM     41  H   UNL A   1      39.611  18.474  25.693  1.00  0.00     0.163 HD
ATOM     42  O   UNL A   1      42.030  18.737  25.845  1.00  0.00    -0.269 OA
BRANCH  40  43
ATOM     43  C   UNL A   1      41.643  20.923  26.595  1.00  0.00     0.039 A 
ATOM     44  C   UNL A   1      42.107  21.901  25.716  1.00  0.00     0.014 A 
ATOM     45  C   UNL A   1      41.604  21.158  27.973  1.00  0.00     0.014 A 
ATOM     46  C   UNL A   1      42.496  23.142  26.218  1.00  0.00     0.010 A 
ATOM     47  C   UNL A   1      41.927  22.416  28.464  1.00  0.00     0.010 A 
ATOM     48  C   UNL A   1      42.390  23.412  27.592  1.00  0.00    -0.014 A 
BRANCH  48  49
ATOM     49  C   UNL A   1      42.782  24.729  28.145  1.00  0.00     0.031 A 
ATOM     50  C   UNL A   1      41.737  25.783  28.378  1.00  0.00     0.074 A 
ATOM     51  C   UNL A   1      44.081  24.992  28.373  1.00  0.00     0.049 A 
ATOM     52  N   UNL A   1      41.885  27.017  28.787  1.00  0.00    -0.248 NA
ATOM     53  C   UNL A   1      40.345  25.410  28.078  1.00  0.00     0.031 C 
ATOM     54  C   UNL A   1      45.188  24.062  28.138  1.00  0.00     0.029 A 
ATOM     55  N   UNL A   1      44.691  26.124  28.845  1.00  0.00    -0.354 N 
ATOM     56  C   UNL A   1      40.612  27.571  28.775  1.00  0.00     0.074 A 
ATOM     57  C   UNL A   1      39.712  26.557  28.269  1.00  0.00     0.031 C 
ATOM     58  C   UNL A   1      46.340  24.655  28.490  1.00  0.00     0.029 A 
ATOM     59  C   UNL A   1      46.056  26.014  28.941  1.00  0.00     0.049 A 
ATOM     60  H   UNL A   1      44.198  26.940  29.092  1.00  0.00     0.167 HD
ATOM     61  C   UNL A   1      40.225  28.807  29.170  1.00  0.00     0.037 A 
ATOM     62  C   UNL A   1      46.973  26.911  29.348  1.00  0.00     0.037 A 
ATOM     63  C   UNL A   1      41.121  29.798  29.704  1.00  0.00     0.049 A 
ATOM     64  C   UNL A   1      46.519  28.270  29.801  1.00  0.00     0.074 A 
ATOM     65  C   UNL A   1      40.822  31.055  30.197  1.00  0.00     0.029 A 
ATOM     66  N   UNL A   1      42.494  29.640  29.812  1.00  0.00    -0.354 N 
ATOM     67  N   UNL A   1      45.304  28.759  29.849  1.00  0.00    -0.248 NA
ATOM     68  C   UNL A   1      47.560  29.196  30.265  1.00  0.00     0.031 C 
ATOM     69  C   UNL A   1      42.020  31.672  30.573  1.00  0.00     0.029 A 
ATOM     70  C   UNL A   1      43.060  30.783  30.349  1.00  0.00     0.049 A 
ATOM     71  H   UNL A   1      42.993  28.834  29.546  1.00  0.00     0.167 HD
ATOM     72  C   UNL A   1      45.429  30.041  30.368  1.00  0.00     0.074 A 
ATOM     73  C   UNL A   1      46.839  30.247  30.632  1.00  0.00     0.031 C 
ATOM     74  C   UNL A   1      44.466  30.965  30.606  1.00  0.00     0.037 A 
BRANCH  61  75
ATOM     75  C   UNL A   1      38.769  29.146  29.040  1.00  0.00     0.057 A 
ATOM     76  C   UNL A   1      37.888  29.050  30.126  1.00  0.00     0.134 A 
ATOM     77  C   UNL A   1      38.243  29.587  27.819  1.00  0.00     0.134 A 
ATOM     78  F   UNL A   1      38.324  28.620  31.319  1.00  0.00    -0.206 F 
ATOM     79  C   UNL A   1      36.530  29.346  29.993  1.00  0.00     0.040 A 
ATOM     80  C   UNL A   1      36.893  29.913  27.681  1.00  0.00     0.040 A 
ATOM     81  F   UNL A   1      39.032  29.707  26.741  1.00  0.00    -0.206 F 
ATOM     82  C   UNL A   1      36.031  29.785  28.769  1.00  0.00     0.006 A 
ENDBRANCH  61  75
BRANCH  62  83
ATOM     83  C   UNL A   1      48.408  26.535  29.373  1.00  0.00     0.057 A 
ATOM     84  C   UNL A   1      48.958  25.879  30.480  1.00  0.00     0.134 A 
ATOM     85  C   UNL A   1      49.255  26.801  28.291  1.00  0.00     0.134 A 
ATOM     86  F   UNL A   1      48.198  25.608  31.550  1.00  0.00    -0.206 F 
ATOM     87  C   UNL A   1      50.305  25.513  30.516  1.00  0.00     0.040 A 
ATOM     88  C   UNL A   1      50.599  26.424  28.306  1.00  0.00     0.040 A 
ATOM     89  F   UNL A   1      48.782  27.410  27.194  1.00  0.00    -0.206 F 
ATOM     90  C   UNL A   1      51.128  25.781  29.424  1.00  0.00     0.006 A 
ENDBRANCH  62  83
BRANCH  74  91
ATOM     91  C   UNL A   1      44.903  32.268  31.204  1.00  0.00     0.057 A 
ATOM     92  C   UNL A   1      44.995  32.450  32.588  1.00  0.00     0.134 A 
ATOM     93  C   UNL A   1      45.277  33.339  30.382  1.00  0.00     0.134 A 
ATOM     94  F   UNL A   1      44.641  31.466  33.428  1.00  0.00    -0.206 F 
ATOM     95  C   UNL A   1      45.426  33.659  33.137  1.00  0.00     0.040 A 
ATOM     96  C   UNL A   1      45.731  34.545  30.918  1.00  0.00     0.040 A 
ATOM     97  F   UNL A   1      45.219  33.226  29.046  1.00  0.00    -0.206 F 
ATOM     98  C   UNL A   1      45.802  34.708  32.300  1.00  0.00     0.006 A 
ENDBRANCH  74  91
ENDBRANCH  48  49
ENDBRANCH  40  43
ENDBRANCH  38  39
ENDBRANCH  37  38
ENDBRANCH   1  37
TORSDOF 16
ENDMDL
MODEL 2
REMARK VINA RESULT:     -13.1      3.977      9.295
REMARK SMILES CC(=O)N[C@H]1[C@@H](Oc2ccc(C)c(C)c2)O[C@H]2CO[C@H](c3ccco3)O[C@@H]2[C@H]1OCC(=O)NCCCNC(=O)c1ccc(-c2c3nc(c(-c4c(F)cccc4F)c4ccc([nH]4)c(-c4c(F)cccc4F)c4nc(c(-c5c(F)cccc5F)c5ccc2[nH]5)C=C4)C=C3)cc1
REMARK SMILES IDX 34 1 33 2 31 3 32 4 30 6 29 7 28 8 5 9 6 10 16 11 27 12
REMARK SMILES IDX 17 13 26 14 18 15 20 16 19 17 4 18 1 19 2 20 3 21 7 23 8 24
REMARK SMILES IDX 9 25 15 26 10 27 13 28 11 29 14 30 12 31 21 32 22 33 25 34
REMARK SMILES IDX 23 35 24 36 35 37 36 38 37 39 38 40 39 42 40 43 41 44 93 45
REMARK SMILES IDX 42 46 92 47 43 48 44 49 45 50 86 51 46 52 91 53 85 54 87 55
REMARK SMILES IDX 47 56 90 57 84 58 83 59 48 61 74 62 57 63 73 64 58 65 61 66
REMARK SMILES IDX 72 67 88 68 59 69 60 70 71 72 89 73 62 74 49 75 50 76 55 77
REMARK SMILES IDX 51 78 52 79 54 80 56 81 53 82 75 83 76 84 81 85 77 86 78 87
REMARK SMILES IDX 80 88 82 89 79 90 63 91 64 92 69 93 65 94 66 95 68 96 70 97
REMARK SMILES IDX 67 98
REMARK H PARENT 33 5 4 22 37 41 87 60 61 71
REMARK Flexibility Score: inf
ROOT
ATOM      1  C   UNL A   1      31.445  30.893  26.020  1.00  0.00     0.117 C 
ENDROOT
BRANCH   1   2
ATOM      2  N   UNL A   1      32.733  30.239  26.121  1.00  0.00    -0.354 N 
ATOM      3  C   UNL A   1      33.078  29.358  27.110  1.00  0.00     0.246 C 
ATOM      4  O   UNL A   1      34.195  29.491  27.606  1.00  0.00    -0.272 OA
ATOM      5  H   UNL A   1      33.406  30.442  25.432  1.00  0.00     0.163 HD
BRANCH   3   6
ATOM      6  C   UNL A   1      32.028  28.291  27.534  1.00  0.00     0.260 C 
BRANCH   6   7
ATOM      7  O   UNL A   1      31.511  27.193  26.824  1.00  0.00    -0.363 OA
BRANCH   7   8
ATOM      8  C   UNL A   1      32.123  26.706  25.628  1.00  0.00     0.179 C 
ATOM      9  C   UNL A   1      32.948  25.398  25.869  1.00  0.00     0.182 C 
ATOM     10  C   UNL A   1      33.431  24.766  24.504  1.00  0.00     0.333 C 
ATOM     11  O   UNL A   1      32.573  24.944  23.375  1.00  0.00    -0.332 OA
ATOM     12  C   UNL A   1      31.264  26.718  24.342  1.00  0.00     0.184 C 
ATOM     13  C   UNL A   1      32.163  26.284  23.183  1.00  0.00     0.180 C 
ATOM     14  O   UNL A   1      30.713  28.016  24.072  1.00  0.00    -0.337 OA
ATOM     15  C   UNL A   1      31.390  26.395  21.874  1.00  0.00     0.199 C 
ATOM     16  C   UNL A   1      29.989  28.004  22.835  1.00  0.00     0.319 C 
ATOM     17  O   UNL A   1      30.839  27.697  21.734  1.00  0.00    -0.343 OA
BRANCH   9  18
ATOM     18  N   UNL A   1      32.294  24.459  26.793  1.00  0.00    -0.345 N 
ATOM     19  C   UNL A   1      30.599  23.455  25.284  1.00  0.00     0.114 C 
ATOM     20  C   UNL A   1      31.265  23.588  26.622  1.00  0.00     0.217 C 
ATOM     21  O   UNL A   1      30.903  22.890  27.570  1.00  0.00    -0.275 OA
ATOM     22  H   UNL A   1      32.671  24.461  27.702  1.00  0.00     0.164 HD
ENDBRANCH   9  18
BRANCH  10  23
ATOM     23  O   UNL A   1      33.892  23.408  24.613  1.00  0.00    -0.463 OA
BRANCH  23  24
ATOM     24  C   UNL A   1      35.142  23.148  25.109  1.00  0.00     0.123 A 
ATOM     25  C   UNL A   1      35.999  24.051  25.730  1.00  0.00     0.047 A 
ATOM     26  C   UNL A   1      35.590  21.842  24.908  1.00  0.00     0.050 A 
ATOM     27  C   UNL A   1      37.321  23.701  26.006  1.00  0.00     0.007 A 
ATOM     28  C   UNL A   1      36.911  21.459  25.212  1.00  0.00    -0.045 A 
ATOM     29  C   UNL A   1      37.806  22.421  25.711  1.00  0.00    -0.048 A 
ATOM     30  C   UNL A   1      37.294  20.024  24.981  1.00  0.00     0.045 C 
ATOM     31  C   UNL A   1      39.265  22.135  25.926  1.00  0.00     0.044 C 
ENDBRANCH  23  24
ENDBRANCH  10  23
BRANCH  16  32
ATOM     32  C   UNL A   1      29.406  29.349  22.552  1.00  0.00     0.159 A 
ATOM     33  C   UNL A   1      29.064  30.396  23.392  1.00  0.00     0.051 A 
ATOM     34  O   UNL A   1      29.128  29.696  21.258  1.00  0.00    -0.464 OA
ATOM     35  C   UNL A   1      28.539  31.423  22.573  1.00  0.00     0.042 A 
ATOM     36  C   UNL A   1      28.595  30.946  21.285  1.00  0.00     0.195 A 
ENDBRANCH  16  32
ENDBRANCH   7   8
ENDBRANCH   6   7
ENDBRANCH   3   6
ENDBRANCH   1   2
BRANCH   1  37
ATOM     37  C   UNL A   1      31.406  32.143  26.904  1.00  0.00     0.042 C 
BRANCH  37  38
ATOM     38  C   UNL A   1      32.699  32.960  26.855  1.00  0.00     0.118 C 
BRANCH  38  39
ATOM     39  N   UNL A   1      32.567  34.226  27.558  1.00  0.00    -0.352 N 
ATOM     40  C   UNL A   1      33.152  34.626  28.731  1.00  0.00     0.251 C 
ATOM     41  H   UNL A   1      31.973  34.887  27.134  1.00  0.00     0.163 HD
ATOM     42  O   UNL A   1      32.719  35.592  29.346  1.00  0.00    -0.269 OA
BRANCH  40  43
ATOM     43  C   UNL A   1      34.313  33.877  29.242  1.00  0.00     0.039 A 
ATOM     44  C   UNL A   1      35.598  34.296  28.897  1.00  0.00     0.014 A 
ATOM     45  C   UNL A   1      34.119  32.750  30.046  1.00  0.00     0.014 A 
ATOM     46  C   UNL A   1      36.700  33.603  29.396  1.00  0.00     0.010 A 
ATOM     47  C   UNL A   1      35.216  32.103  30.598  1.00  0.00     0.010 A 
ATOM     48  C   UNL A   1      36.515  32.515  30.264  1.00  0.00    -0.014 A 
BRANCH  48  49
ATOM     49  C   UNL A   1      37.672  31.775  30.820  1.00  0.00     0.031 A 
ATOM     50  C   UNL A   1      38.174  32.100  32.198  1.00  0.00     0.074 A 
ATOM     51  C   UNL A   1      38.303  30.863  30.059  1.00  0.00     0.049 A 
ATOM     52  N   UNL A   1      39.210  31.618  32.835  1.00  0.00    -0.248 NA
ATOM     53  C   UNL A   1      37.432  33.128  32.946  1.00  0.00     0.031 C 
ATOM     54  C   UNL A   1      37.934  30.501  28.689  1.00  0.00     0.029 A 
ATOM     55  N   UNL A   1      39.395  30.081  30.329  1.00  0.00    -0.354 N 
ATOM     56  C   UNL A   1      39.255  32.295  34.046  1.00  0.00     0.074 A 
ATOM     57  C   UNL A   1      38.175  33.258  34.035  1.00  0.00     0.031 C 
ATOM     58  C   UNL A   1      38.772  29.550  28.248  1.00  0.00     0.029 A 
ATOM     59  C   UNL A   1      39.754  29.262  29.288  1.00  0.00     0.049 A 
ATOM     60  H   UNL A   1      39.877  30.105  31.187  1.00  0.00     0.167 HD
ATOM     61  C   UNL A   1      40.107  32.116  35.083  1.00  0.00     0.037 A 
ATOM     62  C   UNL A   1      40.765  28.379  29.187  1.00  0.00     0.037 A 
ATOM     63  C   UNL A   1      41.158  31.134  35.100  1.00  0.00     0.049 A 
ATOM     64  C   UNL A   1      41.686  28.181  30.358  1.00  0.00     0.074 A 
ATOM     65  C   UNL A   1      42.033  30.824  36.126  1.00  0.00     0.029 A 
ATOM     66  N   UNL A   1      41.475  30.302  34.037  1.00  0.00    -0.354 N 
ATOM     67  N   UNL A   1      41.677  28.781  31.524  1.00  0.00    -0.248 NA
ATOM     68  C   UNL A   1      42.750  27.181  30.202  1.00  0.00     0.031 C 
ATOM     69  C   UNL A   1      42.902  29.826  35.670  1.00  0.00     0.029 A 
ATOM     70  C   UNL A   1      42.542  29.489  34.375  1.00  0.00     0.049 A 
ATOM     71  H   UNL A   1      41.008  30.291  33.170  1.00  0.00     0.167 HD
ATOM     72  C   UNL A   1      42.717  28.217  32.250  1.00  0.00     0.074 A 
ATOM     73  C   UNL A   1      43.326  27.216  31.396  1.00  0.00     0.031 C 
ATOM     74  C   UNL A   1      43.131  28.498  33.509  1.00  0.00     0.037 A 
BRANCH  61  75
ATOM     75  C   UNL A   1      39.930  33.003  36.281  1.00  0.00     0.057 A 
ATOM     76  C   UNL A   1      39.021  32.692  37.302  1.00  0.00     0.134 A 
ATOM     77  C   UNL A   1      40.683  34.174  36.422  1.00  0.00     0.134 A 
ATOM     78  F   UNL A   1      38.258  31.592  37.221  1.00  0.00    -0.206 F 
ATOM     79  C   UNL A   1      38.845  33.532  38.403  1.00  0.00     0.040 A 
ATOM     80  C   UNL A   1      40.536  35.008  37.532  1.00  0.00     0.040 A 
ATOM     81  F   UNL A   1      41.575  34.529  35.484  1.00  0.00    -0.206 F 
ATOM     82  C   UNL A   1      39.608  34.691  38.523  1.00  0.00     0.006 A 
ENDBRANCH  61  75
BRANCH  62  83
ATOM     83  C   UNL A   1      40.932  27.593  27.940  1.00  0.00     0.057 A 
ATOM     84  C   UNL A   1      41.744  28.060  26.900  1.00  0.00     0.134 A 
ATOM     85  C   UNL A   1      40.306  26.354  27.765  1.00  0.00     0.134 A 
ATOM     86  F   UNL A   1      42.360  29.247  27.007  1.00  0.00    -0.206 F 
ATOM     87  C   UNL A   1      41.917  27.330  25.723  1.00  0.00     0.040 A 
ATOM     88  C   UNL A   1      40.485  25.603  26.601  1.00  0.00     0.040 A 
ATOM     89  F   UNL A   1      39.531  25.843  28.733  1.00  0.00    -0.206 F 
ATOM     90  C   UNL A   1      41.290  26.094  25.575  1.00  0.00     0.006 A 
ENDBRANCH  62  83
BRANCH  74  91
ATOM     91  C   UNL A   1      44.279  27.697  34.047  1.00  0.00     0.057 A 
ATOM     92  C   UNL A   1      45.598  28.157  33.968  1.00  0.00     0.134 A 
ATOM     93  C   UNL A   1      44.055  26.472  34.687  1.00  0.00     0.134 A 
ATOM     94  F   UNL A   1      45.879  29.317  33.356  1.00  0.00    -0.206 F 
ATOM     95  C   UNL A   1      46.659  27.416  34.492  1.00  0.00     0.040 A 
ATOM     96  C   UNL A   1      45.104  25.733  35.236  1.00  0.00     0.040 A 
ATOM     97  F   UNL A   1      42.812  25.980  34.802  1.00  0.00    -0.206 F 
ATOM     98  C   UNL A   1      46.411  26.204  35.134  1.00  0.00     0.006 A 
ENDBRANCH  74  91
ENDBRANCH  48  49
ENDBRANCH  40  43
ENDBRANCH  38  39
ENDBRANCH  37  38
ENDBRANCH   1  37
TORSDOF 16
ENDMDL
MODEL 3
REMARK VINA RESULT:     -13.0      4.204      9.879
REMARK SMILES CC(=O)N[C@H]1[C@@H](Oc2ccc(C)c(C)c2)O[C@H]2CO[C@H](c3ccco3)O[C@@H]2[C@H]1OCC(=O)NCCCNC(=O)c1ccc(-c2c3nc(c(-c4c(F)cccc4F)c4ccc([nH]4)c(-c4c(F)cccc4F)c4nc(c(-c5c(F)cccc5F)c5ccc2[nH]5)C=C4)C=C3)cc1
REMARK SMILES IDX 34 1 33 2 31 3 32 4 30 6 29 7 28 8 5 9 6 10 16 11 27 12
REMARK SMILES IDX 17 13 26 14 18 15 20 16 19 17 4 18 1 19 2 20 3 21 7 23 8 24
REMARK SMILES IDX 9 25 15 26 10 27 13 28 11 29 14 30 12 31 21 32 22 33 25 34
REMARK SMILES IDX 23 35 24 36 35 37 36 38 37 39 38 40 39 42 40 43 41 44 93 45
REMARK SMILES IDX 42 46 92 47 43 48 44 49 45 50 86 51 46 52 91 53 85 54 87 55
REMARK SMILES IDX 47 56 90 57 84 58 83 59 48 61 74 62 57 63 73 64 58 65 61 66
REMARK SMILES IDX 72 67 88 68 59 69 60 70 71 72 89 73 62 74 49 75 50 76 55 77
REMARK SMILES IDX 51 78 52 79 54 80 56 81 53 82 75 83 76 84 81 85 77 86 78 87
REMARK SMILES IDX 80 88 82 89 79 90 63 91 64 92 69 93 65 94 66 95 68 96 70 97
REMARK SMILES IDX 67 98
REMARK H PARENT 33 5 4 22 37 41 87 60 61 71
REMARK Flexibility Score: inf
ROOT
ATOM      1  C   UNL A   1      31.378  30.813  26.211  1.00  0.00     0.117 C 
ENDROOT
BRANCH   1   2
ATOM      2  N   UNL A   1      32.723  30.279  26.224  1.00  0.00    -0.354 N 
ATOM      3  C   UNL A   1      33.199  29.403  27.162  1.00  0.00     0.246 C 
ATOM      4  O   UNL A   1      34.324  29.624  27.606  1.00  0.00    -0.272 OA
ATOM      5  H   UNL A   1      33.338  30.564  25.510  1.00  0.00     0.163 HD
BRANCH   3   6
ATOM      6  C   UNL A   1      32.275  28.231  27.600  1.00  0.00     0.260 C 
BRANCH   6   7
ATOM      7  O   UNL A   1      31.678  27.212  26.837  1.00  0.00    -0.363 OA
BRANCH   7   8
ATOM      8  C   UNL A   1      32.259  26.733  25.622  1.00  0.00     0.179 C 
ATOM      9  C   UNL A   1      33.088  25.423  25.831  1.00  0.00     0.182 C 
ATOM     10  C   UNL A   1      33.535  24.801  24.450  1.00  0.00     0.333 C 
ATOM     11  O   UNL A   1      32.649  24.989  23.344  1.00  0.00    -0.332 OA
ATOM     12  C   UNL A   1      31.368  26.756  24.358  1.00  0.00     0.184 C 
ATOM     13  C   UNL A   1      32.236  26.330  23.174  1.00  0.00     0.180 C 
ATOM     14  O   UNL A   1      30.811  28.057  24.113  1.00  0.00    -0.337 OA
ATOM     15  C   UNL A   1      31.430  26.453  21.886  1.00  0.00     0.199 C 
ATOM     16  C   UNL A   1      30.055  28.056  22.894  1.00  0.00     0.319 C 
ATOM     17  O   UNL A   1      30.876  27.756  21.770  1.00  0.00    -0.343 OA
BRANCH   9  18
ATOM     18  N   UNL A   1      32.456  24.477  26.764  1.00  0.00    -0.345 N 
ATOM     19  C   UNL A   1      30.614  23.612  25.345  1.00  0.00     0.114 C 
ATOM     20  C   UNL A   1      31.378  23.661  26.636  1.00  0.00     0.217 C 
ATOM     21  O   UNL A   1      31.050  22.941  27.581  1.00  0.00    -0.275 OA
ATOM     22  H   UNL A   1      32.896  24.425  27.643  1.00  0.00     0.164 HD
ENDBRANCH   9  18
BRANCH  10  23
ATOM     23  O   UNL A   1      33.997  23.442  24.536  1.00  0.00    -0.463 OA
BRANCH  23  24
ATOM     24  C   UNL A   1      35.228  23.170  25.073  1.00  0.00     0.123 A 
ATOM     25  C   UNL A   1      36.069  24.065  25.728  1.00  0.00     0.047 A 
ATOM     26  C   UNL A   1      35.673  21.862  24.881  1.00  0.00     0.050 A 
ATOM     27  C   UNL A   1      37.379  23.704  26.046  1.00  0.00     0.007 A 
ATOM     28  C   UNL A   1      36.980  21.468  25.228  1.00  0.00    -0.045 A 
ATOM     29  C   UNL A   1      37.864  22.422  25.762  1.00  0.00    -0.048 A 
ATOM     30  C   UNL A   1      37.361  20.031  25.003  1.00  0.00     0.045 C 
ATOM     31  C   UNL A   1      39.313  22.124  26.025  1.00  0.00     0.044 C 
ENDBRANCH  23  24
ENDBRANCH  10  23
BRANCH  16  32
ATOM     32  C   UNL A   1      29.467  29.404  22.637  1.00  0.00     0.159 A 
ATOM     33  C   UNL A   1      29.095  30.422  23.499  1.00  0.00     0.051 A 
ATOM     34  O   UNL A   1      29.218  29.787  21.348  1.00  0.00    -0.464 OA
ATOM     35  C   UNL A   1      28.581  31.468  22.698  1.00  0.00     0.042 A 
ATOM     36  C   UNL A   1      28.673  31.030  21.399  1.00  0.00     0.195 A 
ENDBRANCH  16  32
ENDBRANCH   7   8
ENDBRANCH   6   7
ENDBRANCH   3   6
ENDBRANCH   1   2
BRANCH   1  37
ATOM     37  C   UNL A   1      31.397  32.325  26.452  1.00  0.00     0.042 C 
BRANCH  37  38
ATOM     38  C   UNL A   1      32.593  32.791  27.286  1.00  0.00     0.118 C 
BRANCH  38  39
ATOM     39  N   UNL A   1      32.493  34.198  27.637  1.00  0.00    -0.352 N 
ATOM     40  C   UNL A   1      33.093  34.874  28.666  1.00  0.00     0.251 C 
ATOM     41  H   UNL A   1      31.913  34.740  27.055  1.00  0.00     0.163 HD
ATOM     42  O   UNL A   1      32.685  35.977  29.010  1.00  0.00    -0.269 OA
BRANCH  40  43
ATOM     43  C   UNL A   1      34.239  34.257  29.356  1.00  0.00     0.039 A 
ATOM     44  C   UNL A   1      34.025  33.569  30.551  1.00  0.00     0.014 A 
ATOM     45  C   UNL A   1      35.525  34.380  28.821  1.00  0.00     0.014 A 
ATOM     46  C   UNL A   1      35.104  32.966  31.194  1.00  0.00     0.010 A 
ATOM     47  C   UNL A   1      36.586  33.721  29.426  1.00  0.00     0.010 A 
ATOM     48  C   UNL A   1      36.387  33.022  30.626  1.00  0.00    -0.014 A 
BRANCH  48  49
ATOM     49  C   UNL A   1      37.544  32.373  31.283  1.00  0.00     0.031 A 
ATOM     50  C   UNL A   1      38.238  31.223  30.611  1.00  0.00     0.074 A 
ATOM     51  C   UNL A   1      37.923  32.778  32.509  1.00  0.00     0.049 A 
ATOM     52  N   UNL A   1      39.220  30.479  31.050  1.00  0.00    -0.248 NA
ATOM     53  C   UNL A   1      37.739  30.837  29.281  1.00  0.00     0.031 C 
ATOM     54  C   UNL A   1      37.291  33.852  33.279  1.00  0.00     0.029 A 
ATOM     55  N   UNL A   1      38.925  32.326  33.326  1.00  0.00    -0.354 N 
ATOM     56  C   UNL A   1      39.443  29.528  30.063  1.00  0.00     0.074 A 
ATOM     57  C   UNL A   1      38.460  29.756  29.026  1.00  0.00     0.031 C 
ATOM     58  C   UNL A   1      37.938  33.990  34.447  1.00  0.00     0.029 A 
ATOM     59  C   UNL A   1      39.003  32.995  34.521  1.00  0.00     0.049 A 
ATOM     60  H   UNL A   1      39.532  31.590  33.080  1.00  0.00     0.167 HD
ATOM     61  C   UNL A   1      40.393  28.566  30.015  1.00  0.00     0.037 A 
ATOM     62  C   UNL A   1      39.842  32.823  35.560  1.00  0.00     0.037 A 
ATOM     63  C   UNL A   1      41.388  28.367  31.036  1.00  0.00     0.049 A 
ATOM     64  C   UNL A   1      40.903  31.762  35.477  1.00  0.00     0.074 A 
ATOM     65  C   UNL A   1      42.438  27.466  31.053  1.00  0.00     0.029 A 
ATOM     66  N   UNL A   1      41.453  29.084  32.221  1.00  0.00    -0.354 N 
ATOM     67  N   UNL A   1      41.146  30.913  34.508  1.00  0.00    -0.248 NA
ATOM     68  C   UNL A   1      41.811  31.641  36.626  1.00  0.00     0.031 C 
ATOM     69  C   UNL A   1      43.119  27.616  32.267  1.00  0.00     0.029 A 
ATOM     70  C   UNL A   1      42.516  28.635  32.986  1.00  0.00     0.049 A 
ATOM     71  H   UNL A   1      40.835  29.805  32.479  1.00  0.00     0.167 HD
ATOM     72  C   UNL A   1      42.246  30.171  34.918  1.00  0.00     0.074 A 
ATOM     73  C   UNL A   1      42.631  30.682  36.218  1.00  0.00     0.031 C 
ATOM     74  C   UNL A   1      42.882  29.161  34.277  1.00  0.00     0.037 A 
BRANCH  61  75
ATOM     75  C   UNL A   1      40.398  27.661  28.818  1.00  0.00     0.057 A 
ATOM     76  C   UNL A   1      39.669  26.465  28.793  1.00  0.00     0.134 A 
ATOM     77  C   UNL A   1      41.130  27.995  27.672  1.00  0.00     0.134 A 
ATOM     78  F   UNL A   1      38.959  26.079  29.864  1.00  0.00    -0.206 F 
ATOM     79  C   UNL A   1      39.695  25.616  27.684  1.00  0.00     0.040 A 
ATOM     80  C   UNL A   1      41.141  27.169  26.546  1.00  0.00     0.040 A 
ATOM     81  F   UNL A   1      41.846  29.129  27.626  1.00  0.00    -0.206 F 
ATOM     82  C   UNL A   1      40.428  25.972  26.554  1.00  0.00     0.006 A 
ENDBRANCH  61  75
BRANCH  62  83
ATOM     83  C   UNL A   1      39.728  33.700  36.750  1.00  0.00     0.057 A 
ATOM     84  C   UNL A   1      40.463  34.888  36.839  1.00  0.00     0.134 A 
ATOM     85  C   UNL A   1      38.872  33.388  37.812  1.00  0.00     0.134 A 
ATOM     86  F   UNL A   1      41.308  35.234  35.857  1.00  0.00    -0.206 F 
ATOM     87  C   UNL A   1      40.362  35.728  37.950  1.00  0.00     0.040 A 
ATOM     88  C   UNL A   1      38.746  34.228  38.921  1.00  0.00     0.040 A 
ATOM     89  F   UNL A   1      38.127  32.274  37.777  1.00  0.00    -0.206 F 
ATOM     90  C   UNL A   1      39.497  35.400  38.992  1.00  0.00     0.006 A 
ENDBRANCH  62  83
BRANCH  74  91
ATOM     91  C   UNL A   1      44.073  28.560  34.962  1.00  0.00     0.057 A 
ATOM     92  C   UNL A   1      45.354  29.107  34.826  1.00  0.00     0.134 A 
ATOM     93  C   UNL A   1      43.928  27.447  35.799  1.00  0.00     0.134 A 
ATOM     94  F   UNL A   1      45.560  30.166  34.029  1.00  0.00    -0.206 F 
ATOM     95  C   UNL A   1      46.454  28.557  35.487  1.00  0.00     0.040 A 
ATOM     96  C   UNL A   1      45.015  26.902  36.483  1.00  0.00     0.040 A 
ATOM     97  F   UNL A   1      42.724  26.881  35.977  1.00  0.00    -0.206 F 
ATOM     98  C   UNL A   1      46.283  27.455  36.323  1.00  0.00     0.006 A 
ENDBRANCH  74  91
ENDBRANCH  48  49
ENDBRANCH  40  43
ENDBRANCH  38  39
ENDBRANCH  37  38
ENDBRANCH   1  37
TORSDOF 16
ENDMDL
