MODEL 1
REMARK VINA RESULT:     -12.4      0.000      0.000
REMARK SMILES C/C(Nc1ccc(C(=O)NCCCNC(=O)c2ccc(-c3c4nc(c(-c5c(F)cccc5F)c5ccc([nH]5)c(-c5c(F)cccc5F)c5nc(c(-c6c(F)cccc6F)c6ccc3[nH]6)C=C5)C=C4)cc2)c(O)c1)=C1/C(=O)O[C@H](C)C1=O
REMARK SMILES IDX 12 1 11 2 10 3 8 4 9 5 7 7 4 8 5 9 73 10 6 11 71 12 3 13
REMARK SMILES IDX 2 15 1 16 74 17 75 18 80 19 76 20 77 21 78 22 81 23 79 24
REMARK SMILES IDX 72 25 13 27 14 28 15 29 16 31 17 32 18 33 70 34 19 35 69 36
REMARK SMILES IDX 20 37 21 38 22 39 63 40 23 41 68 42 62 43 64 44 24 45 67 46
REMARK SMILES IDX 61 47 60 48 25 50 51 51 34 52 50 53 35 54 38 55 49 56 65 57
REMARK SMILES IDX 36 58 37 59 48 61 66 62 39 63 26 64 27 65 32 66 28 67 29 68
REMARK SMILES IDX 31 69 33 70 30 71 52 72 53 73 58 74 54 75 55 76 57 77 59 78
REMARK SMILES IDX 56 79 40 80 41 81 46 82 42 83 43 84 45 85 47 86 44 87
REMARK H PARENT 10 6 3 14 72 26 14 30 64 49 38 60
REMARK Flexibility Score: inf
ROOT
ATOM      1  C   UNL A   1      37.315  20.361  24.736  1.00  0.00     0.042 C 
ENDROOT
BRANCH   1   2
ATOM      2  C   UNL A   1      35.966  20.683  25.356  1.00  0.00     0.118 C 
BRANCH   2   3
ATOM      3  N   UNL A   1      34.885  19.771  25.015  1.00  0.00    -0.352 N 
ATOM      4  C   UNL A   1      33.624  20.005  24.513  1.00  0.00     0.255 C 
ATOM      5  O   UNL A   1      32.915  19.028  24.273  1.00  0.00    -0.269 OA
ATOM      6  H   UNL A   1      35.091  18.821  25.171  1.00  0.00     0.163 HD
BRANCH   4   7
ATOM      7  C   UNL A   1      33.068  21.372  24.321  1.00  0.00     0.081 A 
ATOM      8  C   UNL A   1      31.922  23.786  23.400  1.00  0.00     0.042 A 
ATOM      9  C   UNL A   1      33.219  23.432  23.030  1.00  0.00     0.027 A 
ATOM     10  C   UNL A   1      31.298  23.022  24.392  1.00  0.00     0.073 A 
ATOM     11  C   UNL A   1      33.771  22.215  23.449  1.00  0.00     0.020 A 
ATOM     12  C   UNL A   1      31.901  21.870  24.898  1.00  0.00     0.130 A 
BRANCH   8  13
ATOM     13  N   UNL A   1      31.182  24.805  22.776  1.00  0.00    -0.358 N 
ATOM     14  H   UNL A   1      30.687  24.512  21.977  1.00  0.00     0.166 HD
BRANCH  13  15
ATOM     15  C   UNL A   1      31.018  26.151  23.083  1.00  0.00     0.030 C 
ATOM     16  C   UNL A   1      29.597  26.470  23.533  1.00  0.00     0.065 C 
ATOM     17  C   UNL A   1      31.906  27.169  22.987  1.00  0.00     0.125 C 
ATOM     18  C   UNL A   1      33.289  27.189  22.473  1.00  0.00     0.344 C 
ATOM     19  C   UNL A   1      31.697  28.523  23.534  1.00  0.00     0.212 C 
ATOM     20  O   UNL A   1      33.786  26.495  21.602  1.00  0.00    -0.246 OA
ATOM     21  O   UNL A   1      33.942  28.227  23.080  1.00  0.00    -0.451 OA
ATOM     22  C   UNL A   1      33.045  29.145  23.738  1.00  0.00     0.245 C 
ATOM     23  O   UNL A   1      30.632  29.050  23.811  1.00  0.00    -0.290 OA
ATOM     24  C   UNL A   1      33.384  29.269  25.215  1.00  0.00     0.062 C 
ENDBRANCH  13  15
ENDBRANCH   8  13
BRANCH  12  25
ATOM     25  O   UNL A   1      31.288  21.315  25.988  1.00  0.00    -0.507 OA
ATOM     26  H   UNL A   1      31.721  21.316  26.819  1.00  0.00     0.293 HD
ENDBRANCH  12  25
ENDBRANCH   4   7
ENDBRANCH   2   3
ENDBRANCH   1   2
BRANCH   1  27
ATOM     27  C   UNL A   1      38.529  20.708  25.581  1.00  0.00     0.118 C 
BRANCH  27  28
ATOM     28  N   UNL A   1      39.562  19.678  25.601  1.00  0.00    -0.352 N 
ATOM     29  C   UNL A   1      40.883  19.716  25.988  1.00  0.00     0.251 C 
ATOM     30  H   UNL A   1      39.260  18.798  25.280  1.00  0.00     0.163 HD
ATOM     31  O   UNL A   1      41.592  18.729  25.810  1.00  0.00    -0.269 OA
BRANCH  29  32
ATOM     32  C   UNL A   1      41.474  20.941  26.574  1.00  0.00     0.039 A 
ATOM     33  C   UNL A   1      42.006  21.913  25.722  1.00  0.00     0.014 A 
ATOM     34  C   UNL A   1      41.509  21.145  27.952  1.00  0.00     0.014 A 
ATOM     35  C   UNL A   1      42.469  23.123  26.247  1.00  0.00     0.010 A 
ATOM     36  C   UNL A   1      41.844  22.394  28.461  1.00  0.00     0.010 A 
ATOM     37  C   UNL A   1      42.335  23.399  27.617  1.00  0.00    -0.014 A 
BRANCH  37  38
ATOM     38  C   UNL A   1      42.714  24.716  28.194  1.00  0.00     0.031 A 
ATOM     39  C   UNL A   1      41.669  25.783  28.397  1.00  0.00     0.074 A 
ATOM     40  C   UNL A   1      44.008  24.986  28.462  1.00  0.00     0.049 A 
ATOM     41  N   UNL A   1      41.813  27.020  28.799  1.00  0.00    -0.248 NA
ATOM     42  C   UNL A   1      40.279  25.421  28.071  1.00  0.00     0.031 C 
ATOM     43  C   UNL A   1      45.128  24.064  28.256  1.00  0.00     0.029 A 
ATOM     44  N   UNL A   1      44.603  26.120  28.955  1.00  0.00    -0.354 N 
ATOM     45  C   UNL A   1      40.544  27.584  28.753  1.00  0.00     0.074 A 
ATOM     46  C   UNL A   1      39.654  26.578  28.218  1.00  0.00     0.031 C 
ATOM     47  C   UNL A   1      46.266  24.656  28.652  1.00  0.00     0.029 A 
ATOM     48  C   UNL A   1      45.968  26.015  29.092  1.00  0.00     0.049 A 
ATOM     49  H   UNL A   1      44.101  26.934  29.190  1.00  0.00     0.167 HD
ATOM     50  C   UNL A   1      40.148  28.817  29.149  1.00  0.00     0.037 A 
ATOM     51  C   UNL A   1      46.877  26.914  29.515  1.00  0.00     0.037 A 
ATOM     52  C   UNL A   1      41.030  29.806  29.706  1.00  0.00     0.049 A 
ATOM     53  C   UNL A   1      46.413  28.281  29.939  1.00  0.00     0.074 A 
ATOM     54  C   UNL A   1      40.717  31.061  30.196  1.00  0.00     0.029 A 
ATOM     55  N   UNL A   1      42.402  29.653  29.844  1.00  0.00    -0.354 N 
ATOM     56  N   UNL A   1      45.198  28.773  29.960  1.00  0.00    -0.248 NA
ATOM     57  C   UNL A   1      47.448  29.216  30.402  1.00  0.00     0.031 C 
ATOM     58  C   UNL A   1      41.906  31.689  30.579  1.00  0.00     0.029 A 
ATOM     59  C   UNL A   1      42.953  30.802  30.387  1.00  0.00     0.049 A 
ATOM     60  H   UNL A   1      42.908  28.846  29.594  1.00  0.00     0.167 HD
ATOM     61  C   UNL A   1      45.317  30.061  30.467  1.00  0.00     0.074 A 
ATOM     62  C   UNL A   1      46.722  30.267  30.755  1.00  0.00     0.031 C 
ATOM     63  C   UNL A   1      44.352  30.989  30.675  1.00  0.00     0.037 A 
BRANCH  50  64
ATOM     64  C   UNL A   1      38.692  29.160  28.995  1.00  0.00     0.057 A 
ATOM     65  C   UNL A   1      37.800  29.107  30.076  1.00  0.00     0.134 A 
ATOM     66  C   UNL A   1      38.181  29.576  27.759  1.00  0.00     0.134 A 
ATOM     67  F   UNL A   1      38.219  28.705  31.286  1.00  0.00    -0.206 F 
ATOM     68  C   UNL A   1      36.449  29.424  29.926  1.00  0.00     0.040 A 
ATOM     69  C   UNL A   1      36.839  29.927  27.604  1.00  0.00     0.040 A 
ATOM     70  F   UNL A   1      38.978  29.656  26.684  1.00  0.00    -0.206 F 
ATOM     71  C   UNL A   1      35.966  29.843  28.688  1.00  0.00     0.006 A 
ENDBRANCH  50  64
BRANCH  51  72
ATOM     72  C   UNL A   1      48.315  26.547  29.582  1.00  0.00     0.057 A 
ATOM     73  C   UNL A   1      48.847  25.903  30.706  1.00  0.00     0.134 A 
ATOM     74  C   UNL A   1      49.197  26.844  28.535  1.00  0.00     0.134 A 
ATOM     75  F   UNL A   1      48.058  25.608  31.749  1.00  0.00    -0.206 F 
ATOM     76  C   UNL A   1      50.204  25.589  30.798  1.00  0.00     0.040 A 
ATOM     77  C   UNL A   1      50.551  26.509  28.601  1.00  0.00     0.040 A 
ATOM     78  F   UNL A   1      48.752  27.452  27.426  1.00  0.00    -0.206 F 
ATOM     79  C   UNL A   1      51.060  25.888  29.740  1.00  0.00     0.006 A 
ENDBRANCH  51  72
BRANCH  63  80
ATOM     80  C   UNL A   1      44.772  32.298  31.281  1.00  0.00     0.057 A 
ATOM     81  C   UNL A   1      44.813  32.497  32.666  1.00  0.00     0.134 A 
ATOM     82  C   UNL A   1      45.180  33.361  30.463  1.00  0.00     0.134 A 
ATOM     83  F   UNL A   1      44.424  31.524  33.506  1.00  0.00    -0.206 F 
ATOM     84  C   UNL A   1      45.219  33.714  33.217  1.00  0.00     0.040 A 
ATOM     85  C   UNL A   1      45.618  34.571  31.002  1.00  0.00     0.040 A 
ATOM     86  F   UNL A   1      45.175  33.234  29.128  1.00  0.00    -0.206 F 
ATOM     87  C   UNL A   1      45.631  34.752  32.383  1.00  0.00     0.006 A 
ENDBRANCH  63  80
ENDBRANCH  37  38
ENDBRANCH  29  32
ENDBRANCH  27  28
ENDBRANCH   1  27
TORSDOF 13
ENDMDL
MODEL 2
REMARK VINA RESULT:     -12.4      4.149      9.319
REMARK SMILES C/C(Nc1ccc(C(=O)NCCCNC(=O)c2ccc(-c3c4nc(c(-c5c(F)cccc5F)c5ccc([nH]5)c(-c5c(F)cccc5F)c5nc(c(-c6c(F)cccc6F)c6ccc3[nH]6)C=C5)C=C4)cc2)c(O)c1)=C1/C(=O)O[C@H](C)C1=O
REMARK SMILES IDX 12 1 11 2 10 3 8 4 9 5 7 7 4 8 5 9 73 10 6 11 71 12 3 13
REMARK SMILES IDX 2 15 1 16 74 17 75 18 80 19 76 20 77 21 78 22 81 23 79 24
REMARK SMILES IDX 72 25 13 27 14 28 15 29 16 31 17 32 18 33 70 34 19 35 69 36
REMARK SMILES IDX 20 37 21 38 22 39 63 40 23 41 68 42 62 43 64 44 24 45 67 46
REMARK SMILES IDX 61 47 60 48 25 50 51 51 34 52 50 53 35 54 38 55 49 56 65 57
REMARK SMILES IDX 36 58 37 59 48 61 66 62 39 63 26 64 27 65 32 66 28 67 29 68
REMARK SMILES IDX 31 69 33 70 30 71 52 72 53 73 58 74 54 75 55 76 57 77 59 78
REMARK SMILES IDX 56 79 40 80 41 81 46 82 42 83 43 84 45 85 47 86 44 87
REMARK H PARENT 10 6 3 14 72 26 14 30 64 49 38 60
REMARK Flexibility Score: inf
ROOT
ATOM      1  C   UNL A   1      30.969  31.827  25.751  1.00  0.00     0.042 C 
ENDROOT
BRANCH   1   2
ATOM      2  C   UNL A   1      31.008  30.452  25.107  1.00  0.00     0.118 C 
BRANCH   2   3
ATOM      3  N   UNL A   1      30.377  30.353  23.800  1.00  0.00    -0.352 N 
ATOM      4  C   UNL A   1      30.069  29.259  23.022  1.00  0.00     0.255 C 
ATOM      5  O   UNL A   1      29.487  29.462  21.956  1.00  0.00    -0.269 OA
ATOM      6  H   UNL A   1      30.127  31.218  23.403  1.00  0.00     0.163 HD
BRANCH   4   7
ATOM      7  C   UNL A   1      30.472  27.871  23.377  1.00  0.00     0.081 A 
ATOM      8  C   UNL A   1      30.699  25.092  23.843  1.00  0.00     0.042 A 
ATOM      9  C   UNL A   1      29.885  25.882  24.654  1.00  0.00     0.027 A 
ATOM     10  C   UNL A   1      31.545  25.746  22.939  1.00  0.00     0.073 A 
ATOM     11  C   UNL A   1      29.737  27.250  24.397  1.00  0.00     0.020 A 
ATOM     12  C   UNL A   1      31.480  27.128  22.766  1.00  0.00     0.130 A 
BRANCH   8  13
ATOM     13  N   UNL A   1      30.655  23.688  23.821  1.00  0.00    -0.358 N 
ATOM     14  H   UNL A   1      29.866  23.317  23.362  1.00  0.00     0.166 HD
BRANCH  13  15
ATOM     15  C   UNL A   1      31.522  22.726  24.327  1.00  0.00     0.030 C 
ATOM     16  C   UNL A   1      32.152  21.883  23.225  1.00  0.00     0.065 C 
ATOM     17  C   UNL A   1      31.820  22.429  25.614  1.00  0.00     0.125 C 
ATOM     18  C   UNL A   1      31.281  22.976  26.874  1.00  0.00     0.344 C 
ATOM     19  C   UNL A   1      32.910  21.530  26.040  1.00  0.00     0.212 C 
ATOM     20  O   UNL A   1      30.167  23.421  27.093  1.00  0.00    -0.246 OA
ATOM     21  O   UNL A   1      32.235  22.810  27.840  1.00  0.00    -0.451 OA
ATOM     22  C   UNL A   1      33.279  21.896  27.446  1.00  0.00     0.245 C 
ATOM     23  O   UNL A   1      33.452  20.662  25.375  1.00  0.00    -0.290 OA
ATOM     24  C   UNL A   1      34.641  22.569  27.507  1.00  0.00     0.062 C 
ENDBRANCH  13  15
ENDBRANCH   8  13
BRANCH  12  25
ATOM     25  O   UNL A   1      32.475  27.672  22.001  1.00  0.00    -0.507 OA
ATOM     26  H   UNL A   1      32.291  27.963  21.130  1.00  0.00     0.293 HD
ENDBRANCH  12  25
ENDBRANCH   4   7
ENDBRANCH   2   3
ENDBRANCH   1   2
BRANCH   1  27
ATOM     27  C   UNL A   1      32.021  32.088  26.816  1.00  0.00     0.118 C 
BRANCH  27  28
ATOM     28  N   UNL A   1      32.105  33.478  27.251  1.00  0.00    -0.352 N 
ATOM     29  C   UNL A   1      33.024  34.136  28.038  1.00  0.00     0.251 C 
ATOM     30  H   UNL A   1      31.372  34.048  26.923  1.00  0.00     0.163 HD
ATOM     31  O   UNL A   1      32.819  35.304  28.356  1.00  0.00    -0.269 OA
BRANCH  29  32
ATOM     32  C   UNL A   1      34.232  33.444  28.544  1.00  0.00     0.039 A 
ATOM     33  C   UNL A   1      35.443  34.140  28.592  1.00  0.00     0.014 A 
ATOM     34  C   UNL A   1      34.186  32.118  28.971  1.00  0.00     0.014 A 
ATOM     35  C   UNL A   1      36.569  33.541  29.165  1.00  0.00     0.010 A 
ATOM     36  C   UNL A   1      35.263  31.573  29.658  1.00  0.00     0.010 A 
ATOM     37  C   UNL A   1      36.473  32.273  29.759  1.00  0.00    -0.014 A 
BRANCH  37  38
ATOM     38  C   UNL A   1      37.620  31.652  30.475  1.00  0.00     0.031 A 
ATOM     39  C   UNL A   1      38.476  30.622  29.783  1.00  0.00     0.074 A 
ATOM     40  C   UNL A   1      37.845  31.951  31.770  1.00  0.00     0.049 A 
ATOM     41  N   UNL A   1      39.458  29.902  30.264  1.00  0.00    -0.248 NA
ATOM     42  C   UNL A   1      38.162  30.337  28.373  1.00  0.00     0.031 C 
ATOM     43  C   UNL A   1      37.055  32.886  32.576  1.00  0.00     0.029 A 
ATOM     44  N   UNL A   1      38.799  31.491  32.643  1.00  0.00    -0.354 N 
ATOM     45  C   UNL A   1      39.862  29.072  29.225  1.00  0.00     0.074 A 
ATOM     46  C   UNL A   1      38.974  29.324  28.112  1.00  0.00     0.031 C 
ATOM     47  C   UNL A   1      37.578  32.955  33.810  1.00  0.00     0.029 A 
ATOM     48  C   UNL A   1      38.706  32.035  33.903  1.00  0.00     0.049 A 
ATOM     49  H   UNL A   1      39.486  30.832  32.392  1.00  0.00     0.167 HD
ATOM     50  C   UNL A   1      40.896  28.199  29.190  1.00  0.00     0.037 A 
ATOM     51  C   UNL A   1      39.441  31.812  35.009  1.00  0.00     0.037 A 
ATOM     52  C   UNL A   1      41.795  27.970  30.289  1.00  0.00     0.049 A 
ATOM     53  C   UNL A   1      40.579  30.829  34.947  1.00  0.00     0.074 A 
ATOM     54  C   UNL A   1      42.911  27.154  30.332  1.00  0.00     0.029 A 
ATOM     55  N   UNL A   1      41.677  28.555  31.540  1.00  0.00    -0.354 N 
ATOM     56  N   UNL A   1      40.994  30.107  33.934  1.00  0.00    -0.248 NA
ATOM     57  C   UNL A   1      41.352  30.635  36.181  1.00  0.00     0.031 C 
ATOM     58  C   UNL A   1      43.436  27.203  31.627  1.00  0.00     0.029 A 
ATOM     59  C   UNL A   1      42.685  28.098  32.372  1.00  0.00     0.049 A 
ATOM     60  H   UNL A   1      40.979  29.201  31.799  1.00  0.00     0.167 HD
ATOM     61  C   UNL A   1      42.095  29.397  34.399  1.00  0.00     0.074 A 
ATOM     62  C   UNL A   1      42.291  29.789  35.780  1.00  0.00     0.031 C 
ATOM     63  C   UNL A   1      42.872  28.502  33.742  1.00  0.00     0.037 A 
BRANCH  50  64
ATOM     64  C   UNL A   1      41.112  27.432  27.915  1.00  0.00     0.057 A 
ATOM     65  C   UNL A   1      41.910  27.932  26.875  1.00  0.00     0.134 A 
ATOM     66  C   UNL A   1      40.541  26.166  27.736  1.00  0.00     0.134 A 
ATOM     67  F   UNL A   1      42.477  29.143  26.974  1.00  0.00    -0.206 F 
ATOM     68  C   UNL A   1      42.103  27.215  25.693  1.00  0.00     0.040 A 
ATOM     69  C   UNL A   1      40.754  25.426  26.572  1.00  0.00     0.040 A 
ATOM     70  F   UNL A   1      39.772  25.623  28.692  1.00  0.00    -0.206 F 
ATOM     71  C   UNL A   1      41.531  25.954  25.542  1.00  0.00     0.006 A 
ENDBRANCH  50  64
BRANCH  51  72
ATOM     72  C   UNL A   1      39.142  32.546  36.266  1.00  0.00     0.057 A 
ATOM     73  C   UNL A   1      38.282  32.008  37.231  1.00  0.00     0.134 A 
ATOM     74  C   UNL A   1      39.692  33.807  36.528  1.00  0.00     0.134 A 
ATOM     75  F   UNL A   1      37.709  30.812  37.032  1.00  0.00    -0.206 F 
ATOM     76  C   UNL A   1      37.962  32.704  38.398  1.00  0.00     0.040 A 
ATOM     77  C   UNL A   1      39.404  34.502  37.703  1.00  0.00     0.040 A 
ATOM     78  F   UNL A   1      40.529  34.377  35.649  1.00  0.00    -0.206 F 
ATOM     79  C   UNL A   1      38.528  33.955  38.639  1.00  0.00     0.006 A 
ENDBRANCH  51  72
BRANCH  63  80
ATOM     80  C   UNL A   1      44.033  27.915  34.493  1.00  0.00     0.057 A 
ATOM     81  C   UNL A   1      45.282  28.546  34.542  1.00  0.00     0.134 A 
ATOM     82  C   UNL A   1      43.885  26.720  35.210  1.00  0.00     0.134 A 
ATOM     83  F   UNL A   1      45.496  29.687  33.868  1.00  0.00    -0.206 F 
ATOM     84  C   UNL A   1      46.349  27.997  35.255  1.00  0.00     0.040 A 
ATOM     85  C   UNL A   1      44.934  26.179  35.952  1.00  0.00     0.040 A 
ATOM     86  F   UNL A   1      42.711  26.070  35.214  1.00  0.00    -0.206 F 
ATOM     87  C   UNL A   1      46.173  26.814  35.970  1.00  0.00     0.006 A 
ENDBRANCH  63  80
ENDBRANCH  37  38
ENDBRANCH  29  32
ENDBRANCH  27  28
ENDBRANCH   1  27
TORSDOF 13
ENDMDL
MODEL 3
REMARK VINA RESULT:     -12.4      0.629      6.268
REMARK SMILES C/C(Nc1ccc(C(=O)NCCCNC(=O)c2ccc(-c3c4nc(c(-c5c(F)cccc5F)c5ccc([nH]5)c(-c5c(F)cccc5F)c5nc(c(-c6c(F)cccc6F)c6ccc3[nH]6)C=C5)C=C4)cc2)c(O)c1)=C1/C(=O)O[C@H](C)C1=O
REMARK SMILES IDX 12 1 11 2 10 3 8 4 9 5 7 7 4 8 5 9 73 10 6 11 71 12 3 13
REMARK SMILES IDX 2 15 1 16 74 17 75 18 80 19 76 20 77 21 78 22 81 23 79 24
REMARK SMILES IDX 72 25 13 27 14 28 15 29 16 31 17 32 18 33 70 34 19 35 69 36
REMARK SMILES IDX 20 37 21 38 22 39 63 40 23 41 68 42 62 43 64 44 24 45 67 46
REMARK SMILES IDX 61 47 60 48 25 50 51 51 34 52 50 53 35 54 38 55 49 56 65 57
REMARK SMILES IDX 36 58 37 59 48 61 66 62 39 63 26 64 27 65 32 66 28 67 29 68
REMARK SMILES IDX 31 69 33 70 30 71 52 72 53 73 58 74 54 75 55 76 57 77 59 78
REMARK SMILES IDX 56 79 40 80 41 81 46 82 42 83 43 84 45 85 47 86 44 87
REMARK H PARENT 10 6 3 14 72 26 14 30 64 49 38 60
REMARK Flexibility Score: inf
ROOT
ATOM      1  C   UNL A   1      37.580  19.798  24.895  1.00  0.00     0.042 C 
ENDROOT
BRANCH   1   2
ATOM      2  C   UNL A   1      36.329  20.651  25.010  1.00  0.00     0.118 C 
BRANCH   2   3
ATOM      3  N   UNL A   1      35.121  19.945  25.409  1.00  0.00    -0.352 N 
ATOM      4  C   UNL A   1      33.791  20.222  25.184  1.00  0.00     0.255 C 
ATOM      5  O   UNL A   1      32.961  19.418  25.607  1.00  0.00    -0.269 OA
ATOM      6  H   UNL A   1      35.283  19.125  25.930  1.00  0.00     0.163 HD
BRANCH   4   7
ATOM      7  C   UNL A   1      33.323  21.473  24.526  1.00  0.00     0.081 A 
ATOM      8  C   UNL A   1      31.898  23.595  23.321  1.00  0.00     0.042 A 
ATOM      9  C   UNL A   1      32.110  22.403  22.630  1.00  0.00     0.027 A 
ATOM     10  C   UNL A   1      32.583  23.777  24.528  1.00  0.00     0.073 A 
ATOM     11  C   UNL A   1      32.776  21.335  23.243  1.00  0.00     0.020 A 
ATOM     12  C   UNL A   1      33.346  22.750  25.083  1.00  0.00     0.130 A 
BRANCH   8  13
ATOM     13  N   UNL A   1      30.977  24.579  22.920  1.00  0.00    -0.358 N 
ATOM     14  H   UNL A   1      30.261  24.244  22.332  1.00  0.00     0.166 HD
BRANCH  13  15
ATOM     15  C   UNL A   1      30.891  25.937  23.203  1.00  0.00     0.030 C 
ATOM     16  C   UNL A   1      29.527  26.321  23.764  1.00  0.00     0.065 C 
ATOM     17  C   UNL A   1      31.804  26.917  23.004  1.00  0.00     0.125 C 
ATOM     18  C   UNL A   1      33.137  26.870  22.373  1.00  0.00     0.344 C 
ATOM     19  C   UNL A   1      31.694  28.291  23.530  1.00  0.00     0.212 C 
ATOM     20  O   UNL A   1      33.530  26.137  21.482  1.00  0.00    -0.246 OA
ATOM     21  O   UNL A   1      33.878  27.895  22.894  1.00  0.00    -0.451 OA
ATOM     22  C   UNL A   1      33.077  28.863  23.601  1.00  0.00     0.245 C 
ATOM     23  O   UNL A   1      30.676  28.865  23.883  1.00  0.00    -0.290 OA
ATOM     24  C   UNL A   1      33.546  29.009  25.040  1.00  0.00     0.062 C 
ENDBRANCH  13  15
ENDBRANCH   8  13
BRANCH  12  25
ATOM     25  O   UNL A   1      34.114  23.103  26.158  1.00  0.00    -0.507 OA
ATOM     26  H   UNL A   1      34.561  23.926  26.164  1.00  0.00     0.293 HD
ENDBRANCH  12  25
ENDBRANCH   4   7
ENDBRANCH   2   3
ENDBRANCH   1   2
BRANCH   1  27
ATOM     27  C   UNL A   1      38.805  20.320  25.628  1.00  0.00     0.118 C 
BRANCH  27  28
ATOM     28  N   UNL A   1      39.913  19.374  25.698  1.00  0.00    -0.352 N 
ATOM     29  C   UNL A   1      41.226  19.530  26.082  1.00  0.00     0.251 C 
ATOM     30  H   UNL A   1      39.680  18.459  25.420  1.00  0.00     0.163 HD
ATOM     31  O   UNL A   1      42.008  18.593  25.952  1.00  0.00    -0.269 OA
BRANCH  29  32
ATOM     32  C   UNL A   1      41.719  20.824  26.608  1.00  0.00     0.039 A 
ATOM     33  C   UNL A   1      42.209  21.780  25.713  1.00  0.00     0.014 A 
ATOM     34  C   UNL A   1      41.705  21.108  27.972  1.00  0.00     0.014 A 
ATOM     35  C   UNL A   1      42.578  23.046  26.176  1.00  0.00     0.010 A 
ATOM     36  C   UNL A   1      41.944  22.404  28.414  1.00  0.00     0.010 A 
ATOM     37  C   UNL A   1      42.391  23.389  27.524  1.00  0.00    -0.014 A 
BRANCH  37  38
ATOM     38  C   UNL A   1      42.668  24.760  28.031  1.00  0.00     0.031 A 
ATOM     39  C   UNL A   1      44.062  25.142  28.458  1.00  0.00     0.074 A 
ATOM     40  C   UNL A   1      41.655  25.638  28.185  1.00  0.00     0.049 A 
ATOM     41  N   UNL A   1      44.485  26.251  29.010  1.00  0.00    -0.248 NA
ATOM     42  C   UNL A   1      45.114  24.129  28.273  1.00  0.00     0.031 C 
ATOM     43  C   UNL A   1      40.249  25.375  27.866  1.00  0.00     0.029 A 
ATOM     44  N   UNL A   1      41.650  26.925  28.659  1.00  0.00    -0.354 N 
ATOM     45  C   UNL A   1      45.840  26.060  29.253  1.00  0.00     0.074 A 
ATOM     46  C   UNL A   1      46.153  24.705  28.857  1.00  0.00     0.031 C 
ATOM     47  C   UNL A   1      39.526  26.478  28.121  1.00  0.00     0.029 A 
ATOM     48  C   UNL A   1      40.404  27.507  28.667  1.00  0.00     0.049 A 
ATOM     49  H   UNL A   1      42.462  27.391  28.965  1.00  0.00     0.167 HD
ATOM     50  C   UNL A   1      46.749  26.940  29.735  1.00  0.00     0.037 A 
ATOM     51  C   UNL A   1      40.011  28.729  29.076  1.00  0.00     0.037 A 
ATOM     52  C   UNL A   1      46.441  28.296  30.103  1.00  0.00     0.049 A 
ATOM     53  C   UNL A   1      41.038  29.685  29.619  1.00  0.00     0.074 A 
ATOM     54  C   UNL A   1      47.301  29.286  30.542  1.00  0.00     0.029 A 
ATOM     55  N   UNL A   1      45.170  28.851  30.079  1.00  0.00    -0.354 N 
ATOM     56  N   UNL A   1      42.329  29.514  29.772  1.00  0.00    -0.248 NA
ATOM     57  C   UNL A   1      40.554  31.007  30.039  1.00  0.00     0.031 C 
ATOM     58  C   UNL A   1      46.544  30.423  30.836  1.00  0.00     0.029 A 
ATOM     59  C   UNL A   1      45.220  30.162  30.521  1.00  0.00     0.049 A 
ATOM     60  H   UNL A   1      44.353  28.382  29.790  1.00  0.00     0.167 HD
ATOM     61  C   UNL A   1      42.815  30.714  30.277  1.00  0.00     0.074 A 
ATOM     62  C   UNL A   1      41.682  31.609  30.388  1.00  0.00     0.031 C 
ATOM     63  C   UNL A   1      44.084  31.044  30.619  1.00  0.00     0.037 A 
BRANCH  50  64
ATOM     64  C   UNL A   1      48.166  26.461  29.886  1.00  0.00     0.057 A 
ATOM     65  C   UNL A   1      48.611  25.817  31.050  1.00  0.00     0.134 A 
ATOM     66  C   UNL A   1      49.089  26.618  28.845  1.00  0.00     0.134 A 
ATOM     67  F   UNL A   1      47.783  25.644  32.091  1.00  0.00    -0.206 F 
ATOM     68  C   UNL A   1      49.929  25.378  31.184  1.00  0.00     0.040 A 
ATOM     69  C   UNL A   1      50.401  26.153  28.955  1.00  0.00     0.040 A 
ATOM     70  F   UNL A   1      48.731  27.218  27.700  1.00  0.00    -0.206 F 
ATOM     71  C   UNL A   1      50.827  25.538  30.131  1.00  0.00     0.006 A 
ENDBRANCH  50  64
BRANCH  51  72
ATOM     72  C   UNL A   1      38.584  29.129  28.971  1.00  0.00     0.057 A 
ATOM     73  C   UNL A   1      38.055  29.612  27.768  1.00  0.00     0.134 A 
ATOM     74  C   UNL A   1      37.718  29.056  30.069  1.00  0.00     0.134 A 
ATOM     75  F   UNL A   1      38.836  29.723  26.684  1.00  0.00    -0.206 F 
ATOM     76  C   UNL A   1      36.726  30.028  27.666  1.00  0.00     0.040 A 
ATOM     77  C   UNL A   1      36.380  29.441  29.975  1.00  0.00     0.040 A 
ATOM     78  F   UNL A   1      38.158  28.595  31.250  1.00  0.00    -0.206 F 
ATOM     79  C   UNL A   1      35.882  29.939  28.772  1.00  0.00     0.006 A 
ENDBRANCH  51  72
BRANCH  63  80
ATOM     80  C   UNL A   1      44.326  32.445  31.104  1.00  0.00     0.057 A 
ATOM     81  C   UNL A   1      44.617  33.496  30.227  1.00  0.00     0.134 A 
ATOM     82  C   UNL A   1      44.225  32.751  32.468  1.00  0.00     0.134 A 
ATOM     83  F   UNL A   1      44.740  33.269  28.909  1.00  0.00    -0.206 F 
ATOM     84  C   UNL A   1      44.826  34.796  30.689  1.00  0.00     0.040 A 
ATOM     85  C   UNL A   1      44.400  34.053  32.939  1.00  0.00     0.040 A 
ATOM     86  F   UNL A   1      43.938  31.793  33.362  1.00  0.00    -0.206 F 
ATOM     87  C   UNL A   1      44.709  35.078  32.048  1.00  0.00     0.006 A 
ENDBRANCH  63  80
ENDBRANCH  37  38
ENDBRANCH  29  32
ENDBRANCH  27  28
ENDBRANCH   1  27
TORSDOF 13
ENDMDL
