MODEL 1
REMARK VINA RESULT:     -11.8      0.000      0.000
REMARK SMILES C[C@H]1CC[C@H](CNC(=O)NCc2ccc(C(=O)NCCCNC(=O)c3ccc(-c4c5nc(c(-c6c(F)cccc6F)c6ccc([nH]6)c(-c6c(F)cccc6F)c6nc(c(-c7c(F)cccc7F)c7ccc4[nH]7)C=C6)C=C5)cc3)o2)CC1
REMARK SMILES IDX 19 1 18 2 16 3 17 4 15 6 12 7 13 8 79 9 14 10 11 11 10 12
REMARK SMILES IDX 7 13 8 14 9 16 6 18 5 19 1 20 2 21 81 22 3 23 80 24 4 25
REMARK SMILES IDX 20 26 21 27 22 28 23 29 24 31 25 32 26 33 78 34 27 35 77 36
REMARK SMILES IDX 28 37 29 38 30 39 71 40 31 41 76 42 70 43 72 44 32 45 75 46
REMARK SMILES IDX 69 47 68 48 33 50 59 51 42 52 58 53 43 54 46 55 57 56 73 57
REMARK SMILES IDX 44 58 45 59 56 61 74 62 47 63 34 64 35 65 40 66 36 67 37 68
REMARK SMILES IDX 39 69 41 70 38 71 60 72 61 73 66 74 62 75 63 76 65 77 67 78
REMARK SMILES IDX 64 79 48 80 49 81 54 82 50 83 51 84 53 85 55 86 52 87
REMARK H PARENT 18 5 7 15 10 17 22 30 72 49 46 60
REMARK Flexibility Score: inf
ROOT
ATOM      1  C   UNL A   1      31.773  30.605  26.830  1.00  0.00     0.118 C 
ENDROOT
BRANCH   1   2
ATOM      2  N   UNL A   1      32.990  30.254  27.534  1.00  0.00    -0.349 N 
ATOM      3  C   UNL A   1      33.948  29.307  27.251  1.00  0.00     0.286 C 
ATOM      4  O   UNL A   1      34.975  29.368  27.933  1.00  0.00    -0.266 OA
ATOM      5  H   UNL A   1      33.159  30.779  28.350  1.00  0.00     0.163 HD
BRANCH   3   6
ATOM      6  C   UNL A   1      33.747  28.317  26.210  1.00  0.00     0.191 A 
ATOM      7  C   UNL A   1      32.978  26.371  25.461  1.00  0.00     0.124 A 
ATOM      8  C   UNL A   1      33.542  27.011  24.379  1.00  0.00     0.048 A 
ATOM      9  O   UNL A   1      33.108  27.156  26.570  1.00  0.00    -0.454 OA
ATOM     10  C   UNL A   1      34.019  28.260  24.853  1.00  0.00     0.056 A 
BRANCH   7  11
ATOM     11  C   UNL A   1      32.312  25.048  25.612  1.00  0.00     0.193 C 
BRANCH  11  12
ATOM     12  N   UNL A   1      31.104  25.150  26.394  1.00  0.00    -0.331 N 
ATOM     13  N   UNL A   1      29.365  25.557  24.854  1.00  0.00    -0.338 N 
ATOM     14  C   UNL A   1      29.810  25.247  26.078  1.00  0.00     0.315 C 
ATOM     15  H   UNL A   1      28.418  25.330  24.713  1.00  0.00     0.165 HD
ATOM     16  O   UNL A   1      28.975  25.031  26.959  1.00  0.00    -0.249 OA
ATOM     17  H   UNL A   1      31.268  25.147  27.365  1.00  0.00     0.165 HD
BRANCH  13  18
ATOM     18  C   UNL A   1      29.994  26.158  23.694  1.00  0.00     0.121 C 
BRANCH  18  19
ATOM     19  C   UNL A   1      29.605  27.637  23.542  1.00  0.00     0.008 C 
ATOM     20  C   UNL A   1      28.079  31.305  21.666  1.00  0.00     0.007 C 
ATOM     21  C   UNL A   1      28.492  29.851  21.883  1.00  0.00    -0.014 C 
ATOM     22  C   UNL A   1      27.685  29.217  23.022  1.00  0.00     0.003 C 
ATOM     23  C   UNL A   1      29.994  29.751  22.173  1.00  0.00     0.003 C 
ATOM     24  C   UNL A   1      28.100  27.766  23.261  1.00  0.00     0.006 C 
ATOM     25  C   UNL A   1      30.423  28.307  22.423  1.00  0.00     0.006 C 
ENDBRANCH  18  19
ENDBRANCH  13  18
ENDBRANCH  11  12
ENDBRANCH   7  11
ENDBRANCH   3   6
ENDBRANCH   1   2
BRANCH   1  26
ATOM     26  C   UNL A   1      31.472  32.101  26.907  1.00  0.00     0.042 C 
BRANCH  26  27
ATOM     27  C   UNL A   1      32.713  32.991  26.832  1.00  0.00     0.118 C 
BRANCH  27  28
ATOM     28  N   UNL A   1      32.572  34.206  27.621  1.00  0.00    -0.352 N 
ATOM     29  C   UNL A   1      33.189  34.603  28.780  1.00  0.00     0.251 C 
ATOM     30  H   UNL A   1      31.923  34.852  27.262  1.00  0.00     0.163 HD
ATOM     31  O   UNL A   1      32.759  35.591  29.371  1.00  0.00    -0.269 OA
BRANCH  29  32
ATOM     32  C   UNL A   1      34.351  33.873  29.339  1.00  0.00     0.039 A 
ATOM     33  C   UNL A   1      35.636  34.288  28.969  1.00  0.00     0.014 A 
ATOM     34  C   UNL A   1      34.199  32.743  30.148  1.00  0.00     0.014 A 
ATOM     35  C   UNL A   1      36.760  33.605  29.439  1.00  0.00     0.010 A 
ATOM     36  C   UNL A   1      35.324  32.095  30.666  1.00  0.00     0.010 A 
ATOM     37  C   UNL A   1      36.614  32.514  30.311  1.00  0.00    -0.014 A 
BRANCH  37  38
ATOM     38  C   UNL A   1      37.805  31.809  30.850  1.00  0.00     0.031 A 
ATOM     39  C   UNL A   1      38.334  32.133  32.219  1.00  0.00     0.074 A 
ATOM     40  C   UNL A   1      38.439  30.900  30.086  1.00  0.00     0.049 A 
ATOM     41  N   UNL A   1      39.377  31.641  32.841  1.00  0.00    -0.248 NA
ATOM     42  C   UNL A   1      37.609  33.159  32.984  1.00  0.00     0.031 C 
ATOM     43  C   UNL A   1      38.055  30.524  28.724  1.00  0.00     0.029 A 
ATOM     44  N   UNL A   1      39.543  30.127  30.344  1.00  0.00    -0.354 N 
ATOM     45  C   UNL A   1      39.443  32.305  34.058  1.00  0.00     0.074 A 
ATOM     46  C   UNL A   1      38.358  33.264  34.072  1.00  0.00     0.031 C 
ATOM     47  C   UNL A   1      38.895  29.576  28.276  1.00  0.00     0.029 A 
ATOM     48  C   UNL A   1      39.888  29.296  29.307  1.00  0.00     0.049 A 
ATOM     49  H   UNL A   1      40.040  30.164  31.194  1.00  0.00     0.167 HD
ATOM     50  C   UNL A   1      40.314  32.124  35.080  1.00  0.00     0.037 A 
ATOM     51  C   UNL A   1      40.892  28.405  29.200  1.00  0.00     0.037 A 
ATOM     52  C   UNL A   1      41.378  31.152  35.081  1.00  0.00     0.049 A 
ATOM     53  C   UNL A   1      41.831  28.204  30.355  1.00  0.00     0.074 A 
ATOM     54  C   UNL A   1      42.279  30.859  36.090  1.00  0.00     0.029 A 
ATOM     55  N   UNL A   1      41.680  30.313  34.020  1.00  0.00    -0.354 N 
ATOM     56  N   UNL A   1      41.846  28.803  31.519  1.00  0.00    -0.248 NA
ATOM     57  C   UNL A   1      42.884  27.194  30.181  1.00  0.00     0.031 C 
ATOM     58  C   UNL A   1      43.145  29.860  35.629  1.00  0.00     0.029 A 
ATOM     59  C   UNL A   1      42.761  29.510  34.345  1.00  0.00     0.049 A 
ATOM     60  H   UNL A   1      41.199  30.291  33.162  1.00  0.00     0.167 HD
ATOM     61  C   UNL A   1      42.896  28.231  32.226  1.00  0.00     0.074 A 
ATOM     62  C   UNL A   1      43.482  27.226  31.364  1.00  0.00     0.031 C 
ATOM     63  C   UNL A   1      43.334  28.513  33.478  1.00  0.00     0.037 A 
BRANCH  50  64
ATOM     64  C   UNL A   1      40.150  32.997  36.288  1.00  0.00     0.057 A 
ATOM     65  C   UNL A   1      39.214  32.700  37.288  1.00  0.00     0.134 A 
ATOM     66  C   UNL A   1      40.950  34.132  36.468  1.00  0.00     0.134 A 
ATOM     67  F   UNL A   1      38.408  31.634  37.170  1.00  0.00    -0.206 F 
ATOM     68  C   UNL A   1      39.062  33.516  38.411  1.00  0.00     0.040 A 
ATOM     69  C   UNL A   1      40.824  34.942  37.597  1.00  0.00     0.040 A 
ATOM     70  F   UNL A   1      41.870  34.469  35.552  1.00  0.00    -0.206 F 
ATOM     71  C   UNL A   1      39.873  34.638  38.570  1.00  0.00     0.006 A 
ENDBRANCH  50  64
BRANCH  51  72
ATOM     72  C   UNL A   1      41.036  27.604  27.960  1.00  0.00     0.057 A 
ATOM     73  C   UNL A   1      40.404  26.363  27.831  1.00  0.00     0.134 A 
ATOM     74  C   UNL A   1      41.802  28.058  26.881  1.00  0.00     0.134 A 
ATOM     75  F   UNL A   1      39.672  25.870  28.841  1.00  0.00    -0.206 F 
ATOM     76  C   UNL A   1      40.539  25.591  26.676  1.00  0.00     0.040 A 
ATOM     77  C   UNL A   1      41.930  27.306  25.712  1.00  0.00     0.040 A 
ATOM     78  F   UNL A   1      42.425  29.243  26.944  1.00  0.00    -0.206 F 
ATOM     79  C   UNL A   1      41.302  26.067  25.610  1.00  0.00     0.006 A 
ENDBRANCH  51  72
BRANCH  63  80
ATOM     80  C   UNL A   1      44.487  27.705  33.991  1.00  0.00     0.057 A 
ATOM     81  C   UNL A   1      44.296  26.478  34.639  1.00  0.00     0.134 A 
ATOM     82  C   UNL A   1      45.803  28.152  33.824  1.00  0.00     0.134 A 
ATOM     83  F   UNL A   1      43.058  26.003  34.843  1.00  0.00    -0.206 F 
ATOM     84  C   UNL A   1      45.373  25.735  35.125  1.00  0.00     0.040 A 
ATOM     85  C   UNL A   1      46.889  27.408  34.286  1.00  0.00     0.040 A 
ATOM     86  F   UNL A   1      46.053  29.317  33.207  1.00  0.00    -0.206 F 
ATOM     87  C   UNL A   1      46.675  26.199  34.944  1.00  0.00     0.006 A 
ENDBRANCH  63  80
ENDBRANCH  37  38
ENDBRANCH  29  32
ENDBRANCH  27  28
ENDBRANCH  26  27
ENDBRANCH   1  26
TORSDOF 14
ENDMDL
MODEL 2
REMARK VINA RESULT:     -11.7      4.465      8.718
REMARK SMILES C[C@H]1CC[C@H](CNC(=O)NCc2ccc(C(=O)NCCCNC(=O)c3ccc(-c4c5nc(c(-c6c(F)cccc6F)c6ccc([nH]6)c(-c6c(F)cccc6F)c6nc(c(-c7c(F)cccc7F)c7ccc4[nH]7)C=C6)C=C5)cc3)o2)CC1
REMARK SMILES IDX 19 1 18 2 16 3 17 4 15 6 12 7 13 8 79 9 14 10 11 11 10 12
REMARK SMILES IDX 7 13 8 14 9 16 6 18 5 19 1 20 2 21 81 22 3 23 80 24 4 25
REMARK SMILES IDX 20 26 21 27 22 28 23 29 24 31 25 32 26 33 78 34 27 35 77 36
REMARK SMILES IDX 28 37 29 38 30 39 71 40 31 41 76 42 70 43 72 44 32 45 75 46
REMARK SMILES IDX 69 47 68 48 33 50 59 51 42 52 58 53 43 54 46 55 57 56 73 57
REMARK SMILES IDX 44 58 45 59 56 61 74 62 47 63 34 64 35 65 40 66 36 67 37 68
REMARK SMILES IDX 39 69 41 70 38 71 60 72 61 73 66 74 62 75 63 76 65 77 67 78
REMARK SMILES IDX 64 79 48 80 49 81 54 82 50 83 51 84 53 85 55 86 52 87
REMARK H PARENT 18 5 7 15 10 17 22 30 72 49 46 60
REMARK Flexibility Score: inf
ROOT
ATOM      1  C   UNL A   1      36.909  20.384  24.919  1.00  0.00     0.118 C 
ENDROOT
BRANCH   1   2
ATOM      2  N   UNL A   1      37.017  21.413  23.905  1.00  0.00    -0.349 N 
ATOM      3  C   UNL A   1      36.368  22.621  23.779  1.00  0.00     0.286 C 
ATOM      4  O   UNL A   1      36.808  23.375  22.906  1.00  0.00    -0.266 OA
ATOM      5  H   UNL A   1      37.660  21.216  23.185  1.00  0.00     0.163 HD
BRANCH   3   6
ATOM      6  C   UNL A   1      35.248  22.968  24.635  1.00  0.00     0.191 A 
ATOM      7  C   UNL A   1      33.130  22.789  25.279  1.00  0.00     0.124 A 
ATOM      8  C   UNL A   1      33.732  23.666  26.155  1.00  0.00     0.048 A 
ATOM      9  O   UNL A   1      34.044  22.372  24.355  1.00  0.00    -0.454 OA
ATOM     10  C   UNL A   1      35.088  23.769  25.753  1.00  0.00     0.056 A 
BRANCH   7  11
ATOM     11  C   UNL A   1      31.738  22.271  25.172  1.00  0.00     0.193 C 
BRANCH  11  12
ATOM     12  N   UNL A   1      31.031  22.393  26.425  1.00  0.00    -0.331 N 
ATOM     13  N   UNL A   1      29.794  24.396  26.280  1.00  0.00    -0.338 N 
ATOM     14  C   UNL A   1      30.096  23.235  26.874  1.00  0.00     0.315 C 
ATOM     15  H   UNL A   1      28.926  24.766  26.561  1.00  0.00     0.165 HD
ATOM     16  O   UNL A   1      29.467  22.924  27.888  1.00  0.00    -0.249 OA
ATOM     17  H   UNL A   1      31.291  21.712  27.086  1.00  0.00     0.165 HD
BRANCH  13  18
ATOM     18  C   UNL A   1      30.485  25.220  25.307  1.00  0.00     0.121 C 
BRANCH  18  19
ATOM     19  C   UNL A   1      30.627  26.671  25.793  1.00  0.00     0.008 C 
ATOM     20  C   UNL A   1      32.525  30.534  26.678  1.00  0.00     0.007 C 
ATOM     21  C   UNL A   1      32.315  29.092  26.219  1.00  0.00    -0.014 C 
ATOM     22  C   UNL A   1      31.281  29.023  25.089  1.00  0.00     0.003 C 
ATOM     23  C   UNL A   1      31.885  28.205  27.393  1.00  0.00     0.003 C 
ATOM     24  C   UNL A   1      31.048  27.583  24.632  1.00  0.00     0.006 C 
ATOM     25  C   UNL A   1      31.639  26.765  26.949  1.00  0.00     0.006 C 
ENDBRANCH  18  19
ENDBRANCH  13  18
ENDBRANCH  11  12
ENDBRANCH   7  11
ENDBRANCH   3   6
ENDBRANCH   1   2
BRANCH   1  26
ATOM     26  C   UNL A   1      38.146  19.488  24.966  1.00  0.00     0.042 C 
BRANCH  26  27
ATOM     27  C   UNL A   1      39.176  19.903  26.018  1.00  0.00     0.118 C 
BRANCH  27  28
ATOM     28  N   UNL A   1      40.425  19.167  25.890  1.00  0.00    -0.352 N 
ATOM     29  C   UNL A   1      41.729  19.583  25.978  1.00  0.00     0.251 C 
ATOM     30  H   UNL A   1      40.315  18.205  25.709  1.00  0.00     0.163 HD
ATOM     31  O   UNL A   1      42.622  18.811  25.635  1.00  0.00    -0.269 OA
BRANCH  29  32
ATOM     32  C   UNL A   1      42.089  20.935  26.467  1.00  0.00     0.039 A 
ATOM     33  C   UNL A   1      42.066  21.168  27.848  1.00  0.00     0.014 A 
ATOM     34  C   UNL A   1      42.363  21.992  25.595  1.00  0.00     0.014 A 
ATOM     35  C   UNL A   1      42.358  22.438  28.352  1.00  0.00     0.010 A 
ATOM     36  C   UNL A   1      42.712  23.247  26.101  1.00  0.00     0.010 A 
ATOM     37  C   UNL A   1      42.706  23.484  27.483  1.00  0.00    -0.014 A 
BRANCH  37  38
ATOM     38  C   UNL A   1      43.060  24.825  28.015  1.00  0.00     0.031 A 
ATOM     39  C   UNL A   1      41.996  25.856  28.269  1.00  0.00     0.074 A 
ATOM     40  C   UNL A   1      44.353  25.131  28.233  1.00  0.00     0.049 A 
ATOM     41  N   UNL A   1      42.122  27.086  28.703  1.00  0.00    -0.248 NA
ATOM     42  C   UNL A   1      40.609  25.462  27.978  1.00  0.00     0.031 C 
ATOM     43  C   UNL A   1      45.487  24.238  27.987  1.00  0.00     0.029 A 
ATOM     44  N   UNL A   1      44.933  26.280  28.709  1.00  0.00    -0.354 N 
ATOM     45  C   UNL A   1      40.839  27.616  28.723  1.00  0.00     0.074 A 
ATOM     46  C   UNL A   1      39.952  26.587  28.219  1.00  0.00     0.031 C 
ATOM     47  C   UNL A   1      46.623  24.863  28.337  1.00  0.00     0.029 A 
ATOM     48  C   UNL A   1      46.301  26.206  28.806  1.00  0.00     0.049 A 
ATOM     49  H   UNL A   1      44.417  27.081  28.958  1.00  0.00     0.167 HD
ATOM     50  C   UNL A   1      40.431  28.839  29.138  1.00  0.00     0.037 A 
ATOM     51  C   UNL A   1      47.196  27.118  29.229  1.00  0.00     0.037 A 
ATOM     52  C   UNL A   1      41.306  29.855  29.664  1.00  0.00     0.049 A 
ATOM     53  C   UNL A   1      46.717  28.459  29.707  1.00  0.00     0.074 A 
ATOM     54  C   UNL A   1      40.978  31.106  30.158  1.00  0.00     0.029 A 
ATOM     55  N   UNL A   1      42.683  29.733  29.768  1.00  0.00    -0.354 N 
ATOM     56  N   UNL A   1      45.495  28.926  29.769  1.00  0.00    -0.248 NA
ATOM     57  C   UNL A   1      47.745  29.396  30.184  1.00  0.00     0.031 C 
ATOM     58  C   UNL A   1      42.161  31.752  30.537  1.00  0.00     0.029 A 
ATOM     59  C   UNL A   1      43.221  30.890  30.308  1.00  0.00     0.049 A 
ATOM     60  H   UNL A   1      43.201  28.941  29.499  1.00  0.00     0.167 HD
ATOM     61  C   UNL A   1      45.601  30.200  30.309  1.00  0.00     0.074 A 
ATOM     62  C   UNL A   1      47.007  30.427  30.572  1.00  0.00     0.031 C 
ATOM     63  C   UNL A   1      44.622  31.101  30.565  1.00  0.00     0.037 A 
BRANCH  50  64
ATOM     64  C   UNL A   1      38.966  29.146  29.040  1.00  0.00     0.057 A 
ATOM     65  C   UNL A   1      38.118  29.050  30.153  1.00  0.00     0.134 A 
ATOM     66  C   UNL A   1      38.399  29.564  27.830  1.00  0.00     0.134 A 
ATOM     67  F   UNL A   1      38.597  28.642  31.338  1.00  0.00    -0.206 F 
ATOM     68  C   UNL A   1      36.755  29.334  30.058  1.00  0.00     0.040 A 
ATOM     69  C   UNL A   1      37.042  29.874  27.728  1.00  0.00     0.040 A 
ATOM     70  F   UNL A   1      39.155  29.683  26.729  1.00  0.00    -0.206 F 
ATOM     71  C   UNL A   1      36.214  29.753  28.844  1.00  0.00     0.006 A 
ENDBRANCH  50  64
BRANCH  51  72
ATOM     72  C   UNL A   1      48.639  26.778  29.257  1.00  0.00     0.057 A 
ATOM     73  C   UNL A   1      49.469  27.085  28.174  1.00  0.00     0.134 A 
ATOM     74  C   UNL A   1      49.220  26.145  30.362  1.00  0.00     0.134 A 
ATOM     75  F   UNL A   1      48.963  27.675  27.081  1.00  0.00    -0.206 F 
ATOM     76  C   UNL A   1      50.827  26.762  28.180  1.00  0.00     0.040 A 
ATOM     77  C   UNL A   1      50.580  25.834  30.390  1.00  0.00     0.040 A 
ATOM     78  F   UNL A   1      48.476  25.833  31.432  1.00  0.00    -0.206 F 
ATOM     79  C   UNL A   1      51.386  26.137  29.294  1.00  0.00     0.006 A 
ENDBRANCH  51  72
BRANCH  63  80
ATOM     80  C   UNL A   1      45.040  32.402  31.181  1.00  0.00     0.057 A 
ATOM     81  C   UNL A   1      45.161  32.555  32.568  1.00  0.00     0.134 A 
ATOM     82  C   UNL A   1      45.339  33.509  30.378  1.00  0.00     0.134 A 
ATOM     83  F   UNL A   1      44.874  31.536  33.392  1.00  0.00    -0.206 F 
ATOM     84  C   UNL A   1      45.541  33.773  33.136  1.00  0.00     0.040 A 
ATOM     85  C   UNL A   1      45.741  34.725  30.932  1.00  0.00     0.040 A 
ATOM     86  F   UNL A   1      45.248  33.425  29.042  1.00  0.00    -0.206 F 
ATOM     87  C   UNL A   1      45.837  34.860  32.316  1.00  0.00     0.006 A 
ENDBRANCH  63  80
ENDBRANCH  37  38
ENDBRANCH  29  32
ENDBRANCH  27  28
ENDBRANCH  26  27
ENDBRANCH   1  26
TORSDOF 14
ENDMDL
MODEL 3
REMARK VINA RESULT:     -11.6      1.775      3.361
REMARK SMILES C[C@H]1CC[C@H](CNC(=O)NCc2ccc(C(=O)NCCCNC(=O)c3ccc(-c4c5nc(c(-c6c(F)cccc6F)c6ccc([nH]6)c(-c6c(F)cccc6F)c6nc(c(-c7c(F)cccc7F)c7ccc4[nH]7)C=C6)C=C5)cc3)o2)CC1
REMARK SMILES IDX 19 1 18 2 16 3 17 4 15 6 12 7 13 8 79 9 14 10 11 11 10 12
REMARK SMILES IDX 7 13 8 14 9 16 6 18 5 19 1 20 2 21 81 22 3 23 80 24 4 25
REMARK SMILES IDX 20 26 21 27 22 28 23 29 24 31 25 32 26 33 78 34 27 35 77 36
REMARK SMILES IDX 28 37 29 38 30 39 71 40 31 41 76 42 70 43 72 44 32 45 75 46
REMARK SMILES IDX 69 47 68 48 33 50 59 51 42 52 58 53 43 54 46 55 57 56 73 57
REMARK SMILES IDX 44 58 45 59 56 61 74 62 47 63 34 64 35 65 40 66 36 67 37 68
REMARK SMILES IDX 39 69 41 70 38 71 60 72 61 73 66 74 62 75 63 76 65 77 67 78
REMARK SMILES IDX 64 79 48 80 49 81 54 82 50 83 51 84 53 85 55 86 52 87
REMARK H PARENT 18 5 7 15 10 17 22 30 72 49 46 60
REMARK Flexibility Score: inf
ROOT
ATOM      1  C   UNL A   1      33.633  30.470  27.284  1.00  0.00     0.118 C 
ENDROOT
BRANCH   1   2
ATOM      2  N   UNL A   1      32.573  29.547  27.637  1.00  0.00    -0.349 N 
ATOM      3  C   UNL A   1      32.104  28.428  26.986  1.00  0.00     0.286 C 
ATOM      4  O   UNL A   1      31.312  27.731  27.627  1.00  0.00    -0.266 OA
ATOM      5  H   UNL A   1      32.110  29.755  28.481  1.00  0.00     0.163 HD
BRANCH   3   6
ATOM      6  C   UNL A   1      32.533  28.104  25.639  1.00  0.00     0.191 A 
ATOM      7  C   UNL A   1      32.161  27.382  23.570  1.00  0.00     0.124 A 
ATOM      8  C   UNL A   1      33.487  27.751  23.622  1.00  0.00     0.048 A 
ATOM      9  O   UNL A   1      31.585  27.588  24.791  1.00  0.00    -0.454 OA
ATOM     10  C   UNL A   1      33.722  28.226  24.938  1.00  0.00     0.056 A 
BRANCH   7  11
ATOM     11  C   UNL A   1      31.316  26.818  22.482  1.00  0.00     0.193 C 
BRANCH  11  12
ATOM     12  N   UNL A   1      32.084  26.589  21.281  1.00  0.00    -0.331 N 
ATOM     13  N   UNL A   1      32.768  24.333  21.370  1.00  0.00    -0.338 N 
ATOM     14  C   UNL A   1      32.614  25.496  20.725  1.00  0.00     0.315 C 
ATOM     15  H   UNL A   1      32.914  23.568  20.768  1.00  0.00     0.165 HD
ATOM     16  O   UNL A   1      32.975  25.555  19.547  1.00  0.00    -0.249 OA
ATOM     17  H   UNL A   1      32.251  27.409  20.764  1.00  0.00     0.165 HD
BRANCH  13  18
ATOM     18  C   UNL A   1      32.762  23.971  22.774  1.00  0.00     0.121 C 
BRANCH  18  19
ATOM     19  C   UNL A   1      34.135  24.203  23.425  1.00  0.00     0.008 C 
ATOM     20  C   UNL A   1      37.632  23.497  25.988  1.00  0.00     0.007 C 
ATOM     21  C   UNL A   1      36.275  23.329  25.308  1.00  0.00    -0.014 C 
ATOM     22  C   UNL A   1      36.438  23.195  23.789  1.00  0.00     0.003 C 
ATOM     23  C   UNL A   1      35.350  24.504  25.644  1.00  0.00     0.003 C 
ATOM     24  C   UNL A   1      35.085  23.043  23.093  1.00  0.00     0.006 C 
ATOM     25  C   UNL A   1      33.997  24.372  24.948  1.00  0.00     0.006 C 
ENDBRANCH  18  19
ENDBRANCH  13  18
ENDBRANCH  11  12
ENDBRANCH   7  11
ENDBRANCH   3   6
ENDBRANCH   1   2
BRANCH   1  26
ATOM     26  C   UNL A   1      33.103  31.713  26.571  1.00  0.00     0.042 C 
BRANCH  26  27
ATOM     27  C   UNL A   1      31.918  32.378  27.275  1.00  0.00     0.118 C 
BRANCH  27  28
ATOM     28  N   UNL A   1      32.133  33.800  27.497  1.00  0.00    -0.352 N 
ATOM     29  C   UNL A   1      33.050  34.461  28.274  1.00  0.00     0.251 C 
ATOM     30  H   UNL A   1      31.515  34.387  27.006  1.00  0.00     0.163 HD
ATOM     31  O   UNL A   1      32.909  35.668  28.459  1.00  0.00    -0.269 OA
BRANCH  29  32
ATOM     32  C   UNL A   1      34.196  33.761  28.901  1.00  0.00     0.039 A 
ATOM     33  C   UNL A   1      35.474  33.973  28.367  1.00  0.00     0.014 A 
ATOM     34  C   UNL A   1      34.028  32.843  29.940  1.00  0.00     0.014 A 
ATOM     35  C   UNL A   1      36.578  33.304  28.898  1.00  0.00     0.010 A 
ATOM     36  C   UNL A   1      35.140  32.217  30.510  1.00  0.00     0.010 A 
ATOM     37  C   UNL A   1      36.424  32.436  29.991  1.00  0.00    -0.014 A 
BRANCH  37  38
ATOM     38  C   UNL A   1      37.601  31.754  30.590  1.00  0.00     0.031 A 
ATOM     39  C   UNL A   1      38.058  32.092  31.981  1.00  0.00     0.074 A 
ATOM     40  C   UNL A   1      38.286  30.853  29.861  1.00  0.00     0.049 A 
ATOM     41  N   UNL A   1      39.079  31.621  32.654  1.00  0.00    -0.248 NA
ATOM     42  C   UNL A   1      37.280  33.108  32.706  1.00  0.00     0.031 C 
ATOM     43  C   UNL A   1      37.974  30.465  28.484  1.00  0.00     0.029 A 
ATOM     44  N   UNL A   1      39.389  30.100  30.175  1.00  0.00    -0.354 N 
ATOM     45  C   UNL A   1      39.075  32.291  33.870  1.00  0.00     0.074 A 
ATOM     46  C   UNL A   1      37.974  33.231  33.828  1.00  0.00     0.031 C 
ATOM     47  C   UNL A   1      38.850  29.530  28.082  1.00  0.00     0.029 A 
ATOM     48  C   UNL A   1      39.798  29.271  29.160  1.00  0.00     0.049 A 
ATOM     49  H   UNL A   1      39.845  30.149  31.048  1.00  0.00     0.167 HD
ATOM     50  C   UNL A   1      39.899  32.129  34.933  1.00  0.00     0.037 A 
ATOM     51  C   UNL A   1      40.821  28.398  29.105  1.00  0.00     0.037 A 
ATOM     52  C   UNL A   1      40.978  31.176  34.989  1.00  0.00     0.049 A 
ATOM     53  C   UNL A   1      41.707  28.217  30.304  1.00  0.00     0.074 A 
ATOM     54  C   UNL A   1      41.835  30.903  36.041  1.00  0.00     0.029 A 
ATOM     55  N   UNL A   1      41.345  30.338  33.947  1.00  0.00    -0.354 N 
ATOM     56  N   UNL A   1      41.657  28.822  31.465  1.00  0.00    -0.248 NA
ATOM     57  C   UNL A   1      42.785  27.226  30.186  1.00  0.00     0.031 C 
ATOM     58  C   UNL A   1      42.739  29.917  35.627  1.00  0.00     0.029 A 
ATOM     59  C   UNL A   1      42.423  29.555  34.328  1.00  0.00     0.049 A 
ATOM     60  H   UNL A   1      40.906  30.305  33.068  1.00  0.00     0.167 HD
ATOM     61  C   UNL A   1      42.681  28.270  32.224  1.00  0.00     0.074 A 
ATOM     62  C   UNL A   1      43.325  27.272  31.395  1.00  0.00     0.031 C 
ATOM     63  C   UNL A   1      43.053  28.565  33.494  1.00  0.00     0.037 A 
BRANCH  50  64
ATOM     64  C   UNL A   1      39.662  33.004  36.127  1.00  0.00     0.057 A 
ATOM     65  C   UNL A   1      40.261  34.267  36.245  1.00  0.00     0.134 A 
ATOM     66  C   UNL A   1      38.810  32.595  37.160  1.00  0.00     0.134 A 
ATOM     67  F   UNL A   1      41.099  34.712  35.296  1.00  0.00    -0.206 F 
ATOM     68  C   UNL A   1      40.040  35.078  37.358  1.00  0.00     0.040 A 
ATOM     69  C   UNL A   1      38.562  33.408  38.267  1.00  0.00     0.040 A 
ATOM     70  F   UNL A   1      38.200  31.402  37.106  1.00  0.00    -0.206 F 
ATOM     71  C   UNL A   1      39.184  34.651  38.372  1.00  0.00     0.006 A 
ENDBRANCH  50  64
BRANCH  51  72
ATOM     72  C   UNL A   1      41.038  27.594  27.878  1.00  0.00     0.057 A 
ATOM     73  C   UNL A   1      40.439  26.339  27.726  1.00  0.00     0.134 A 
ATOM     74  C   UNL A   1      41.842  28.060  26.831  1.00  0.00     0.134 A 
ATOM     75  F   UNL A   1      39.673  25.835  28.706  1.00  0.00    -0.206 F 
ATOM     76  C   UNL A   1      40.642  25.566  26.583  1.00  0.00     0.040 A 
ATOM     77  C   UNL A   1      42.038  27.306  25.673  1.00  0.00     0.040 A 
ATOM     78  F   UNL A   1      42.436  29.259  26.915  1.00  0.00    -0.206 F 
ATOM     79  C   UNL A   1      41.442  26.052  25.550  1.00  0.00     0.006 A 
ENDBRANCH  51  72
BRANCH  63  80
ATOM     80  C   UNL A   1      44.194  27.779  34.066  1.00  0.00     0.057 A 
ATOM     81  C   UNL A   1      44.000  26.528  34.664  1.00  0.00     0.134 A 
ATOM     82  C   UNL A   1      45.503  28.273  34.005  1.00  0.00     0.134 A 
ATOM     83  F   UNL A   1      42.768  26.007  34.766  1.00  0.00    -0.206 F 
ATOM     84  C   UNL A   1      45.065  25.806  35.204  1.00  0.00     0.040 A 
ATOM     85  C   UNL A   1      46.579  27.551  34.522  1.00  0.00     0.040 A 
ATOM     86  F   UNL A   1      45.756  29.463  33.440  1.00  0.00    -0.206 F 
ATOM     87  C   UNL A   1      46.360  26.316  35.129  1.00  0.00     0.006 A 
ENDBRANCH  63  80
ENDBRANCH  37  38
ENDBRANCH  29  32
ENDBRANCH  27  28
ENDBRANCH  26  27
ENDBRANCH   1  26
TORSDOF 14
ENDMDL
