MODEL 1
REMARK VINA RESULT:     -13.4      0.000      0.000
REMARK SMILES O=C(NCCCNC(=O)c1ccc(-n2cc(CSc3nc4ccccc4c(=O)n3-c3ccc(Br)cc3)nn2)cc1)c1ccc(-c2c3nc(c(-c4c(F)cccc4F)c4ccc([nH]4)c(-c4c(F)cccc4F)c4nc(c(-c5c(F)cccc5F)c5ccc2[nH]5)C=C4)C=C3)cc1
REMARK SMILES IDX 7 1 8 2 9 3 6 5 5 6 4 7 3 8 1 9 2 10 41 12 42 13 94 14 43 15
REMARK SMILES IDX 93 16 44 17 45 18 46 19 87 20 47 21 92 22 86 23 88 24 48 25
REMARK SMILES IDX 91 26 85 27 84 28 49 30 75 31 58 32 74 33 59 34 62 35 73 36
REMARK SMILES IDX 89 37 60 38 61 39 72 41 90 42 63 43 50 44 51 45 56 46 52 47
REMARK SMILES IDX 53 48 55 49 57 50 54 51 76 52 77 53 82 54 78 55 79 56 81 57
REMARK SMILES IDX 83 58 80 59 64 60 65 61 70 62 66 63 67 64 69 65 71 66 68 67
REMARK SMILES IDX 10 68 11 69 40 70 12 71 39 72 13 73 14 74 15 75 38 76 16 77
REMARK SMILES IDX 37 78 17 79 18 80 19 81 20 82 29 83 21 84 27 85 22 86 26 87
REMARK SMILES IDX 28 88 23 89 25 90 24 91 30 92 31 93 36 94 32 95 35 96 33 97
REMARK SMILES IDX 34 98
REMARK H PARENT 7 4 3 11 88 29 62 40
REMARK Flexibility Score: inf
ROOT
ATOM      1  N   UNL A   1      33.547  32.188  27.559  1.00  0.00    -0.352 N 
ATOM      2  C   UNL A   1      32.341  31.784  27.055  1.00  0.00     0.251 C 
ATOM      3  O   UNL A   1      31.437  32.614  26.906  1.00  0.00    -0.269 OA
ATOM      4  H   UNL A   1      33.571  33.123  27.865  1.00  0.00     0.163 HD
ENDROOT
BRANCH   1   5
ATOM      5  C   UNL A   1      34.801  31.465  27.718  1.00  0.00     0.118 C 
BRANCH   5   6
ATOM      6  C   UNL A   1      35.956  32.352  28.178  1.00  0.00     0.042 C 
BRANCH   6   7
ATOM      7  C   UNL A   1      35.583  33.419  29.203  1.00  0.00     0.118 C 
BRANCH   7   8
ATOM      8  N   UNL A   1      35.177  32.919  30.501  1.00  0.00    -0.352 N 
ATOM      9  O   UNL A   1      35.171  32.119  32.558  1.00  0.00    -0.269 OA
ATOM     10  C   UNL A   1      35.770  32.172  31.481  1.00  0.00     0.251 C 
ATOM     11  H   UNL A   1      34.256  33.179  30.734  1.00  0.00     0.163 HD
BRANCH  10  12
ATOM     12  C   UNL A   1      37.007  31.365  31.316  1.00  0.00     0.039 A 
ATOM     13  C   UNL A   1      38.307  31.859  31.192  1.00  0.00     0.014 A 
ATOM     14  C   UNL A   1      36.807  29.971  31.260  1.00  0.00     0.014 A 
ATOM     15  C   UNL A   1      39.366  30.989  30.924  1.00  0.00     0.010 A 
ATOM     16  C   UNL A   1      37.857  29.102  31.005  1.00  0.00     0.010 A 
ATOM     17  C   UNL A   1      39.133  29.616  30.799  1.00  0.00    -0.014 A 
BRANCH  17  18
ATOM     18  C   UNL A   1      40.267  28.711  30.614  1.00  0.00     0.031 A 
ATOM     19  C   UNL A   1      41.027  28.405  31.863  1.00  0.00     0.074 A 
ATOM     20  C   UNL A   1      40.499  28.043  29.464  1.00  0.00     0.049 A 
ATOM     21  N   UNL A   1      42.280  28.605  32.110  1.00  0.00    -0.248 NA
ATOM     22  C   UNL A   1      40.269  27.893  33.019  1.00  0.00     0.031 C 
ATOM     23  C   UNL A   1      39.659  28.002  28.264  1.00  0.00     0.029 A 
ATOM     24  N   UNL A   1      41.497  27.162  29.162  1.00  0.00    -0.354 N 
ATOM     25  C   UNL A   1      42.513  28.087  33.385  1.00  0.00     0.074 A 
ATOM     26  C   UNL A   1      41.221  27.794  33.947  1.00  0.00     0.031 C 
ATOM     27  C   UNL A   1      40.059  26.980  27.471  1.00  0.00     0.029 A 
ATOM     28  C   UNL A   1      41.254  26.379  28.039  1.00  0.00     0.049 A 
ATOM     29  H   UNL A   1      42.321  27.088  29.696  1.00  0.00     0.167 HD
ATOM     30  C   UNL A   1      43.762  27.742  33.804  1.00  0.00     0.037 A 
ATOM     31  C   UNL A   1      41.950  25.281  27.641  1.00  0.00     0.037 A 
ATOM     32  C   UNL A   1      44.777  28.341  32.982  1.00  0.00     0.049 A 
ATOM     33  C   UNL A   1      43.261  25.304  28.331  1.00  0.00     0.074 A 
ATOM     34  C   UNL A   1      45.159  29.634  32.685  1.00  0.00     0.029 A 
ATOM     35  N   UNL A   1      45.382  27.549  32.039  1.00  0.00    -0.354 N 
ATOM     36  N   UNL A   1      44.203  26.168  28.080  1.00  0.00    -0.248 NA
ATOM     37  C   UNL A   1      43.356  24.628  29.616  1.00  0.00     0.031 C 
ATOM     38  C   UNL A   1      45.547  29.596  31.314  1.00  0.00     0.029 A 
ATOM     39  C   UNL A   1      45.436  28.275  30.880  1.00  0.00     0.049 A 
ATOM     40  H   UNL A   1      45.715  26.632  32.171  1.00  0.00     0.167 HD
ATOM     41  C   UNL A   1      44.735  26.471  29.323  1.00  0.00     0.074 A 
ATOM     42  C   UNL A   1      44.236  25.430  30.219  1.00  0.00     0.031 C 
ATOM     43  C   UNL A   1      45.293  27.693  29.568  1.00  0.00     0.037 A 
BRANCH  30  44
ATOM     44  C   UNL A   1      44.070  26.577  34.715  1.00  0.00     0.057 A 
ATOM     45  C   UNL A   1      43.953  25.265  34.218  1.00  0.00     0.134 A 
ATOM     46  C   UNL A   1      44.161  26.679  36.118  1.00  0.00     0.134 A 
ATOM     47  F   UNL A   1      43.850  25.034  32.900  1.00  0.00    -0.206 F 
ATOM     48  C   UNL A   1      43.846  24.149  35.057  1.00  0.00     0.040 A 
ATOM     49  C   UNL A   1      44.106  25.566  36.962  1.00  0.00     0.040 A 
ATOM     50  F   UNL A   1      44.200  27.857  36.750  1.00  0.00    -0.206 F 
ATOM     51  C   UNL A   1      43.911  24.299  36.436  1.00  0.00     0.006 A 
ENDBRANCH  30  44
BRANCH  31  52
ATOM     52  C   UNL A   1      41.460  24.059  26.956  1.00  0.00     0.057 A 
ATOM     53  C   UNL A   1      42.311  23.276  26.160  1.00  0.00     0.134 A 
ATOM     54  C   UNL A   1      40.230  23.473  27.298  1.00  0.00     0.134 A 
ATOM     55  F   UNL A   1      43.526  23.726  25.815  1.00  0.00    -0.206 F 
ATOM     56  C   UNL A   1      41.968  21.979  25.750  1.00  0.00     0.040 A 
ATOM     57  C   UNL A   1      39.873  22.183  26.891  1.00  0.00     0.040 A 
ATOM     58  F   UNL A   1      39.370  24.097  28.117  1.00  0.00    -0.206 F 
ATOM     59  C   UNL A   1      40.750  21.424  26.126  1.00  0.00     0.006 A 
ENDBRANCH  31  52
BRANCH  43  60
ATOM     60  C   UNL A   1      45.551  28.597  28.396  1.00  0.00     0.057 A 
ATOM     61  C   UNL A   1      44.624  29.523  27.896  1.00  0.00     0.134 A 
ATOM     62  C   UNL A   1      46.840  28.637  27.855  1.00  0.00     0.134 A 
ATOM     63  F   UNL A   1      43.395  29.630  28.418  1.00  0.00    -0.206 F 
ATOM     64  C   UNL A   1      44.955  30.420  26.875  1.00  0.00     0.040 A 
ATOM     65  C   UNL A   1      47.194  29.550  26.861  1.00  0.00     0.040 A 
ATOM     66  F   UNL A   1      47.795  27.817  28.324  1.00  0.00    -0.206 F 
ATOM     67  C   UNL A   1      46.247  30.439  26.360  1.00  0.00     0.006 A 
ENDBRANCH  43  60
ENDBRANCH  17  18
ENDBRANCH  10  12
ENDBRANCH   7   8
ENDBRANCH   6   7
ENDBRANCH   5   6
ENDBRANCH   1   5
BRANCH   2  68
ATOM     68  C   UNL A   1      32.100  30.381  26.666  1.00  0.00     0.039 A 
ATOM     69  C   UNL A   1      32.013  30.071  25.305  1.00  0.00     0.016 A 
ATOM     70  C   UNL A   1      31.880  29.390  27.626  1.00  0.00     0.016 A 
ATOM     71  C   UNL A   1      31.764  28.759  24.897  1.00  0.00     0.029 A 
ATOM     72  C   UNL A   1      31.614  28.079  27.224  1.00  0.00     0.029 A 
ATOM     73  C   UNL A   1      31.547  27.763  25.856  1.00  0.00     0.066 A 
BRANCH  73  74
ATOM     74  N   UNL A   1      31.172  26.466  25.433  1.00  0.00    -0.220 N 
ATOM     75  C   UNL A   1      31.219  25.309  26.166  1.00  0.00     0.141 A 
ATOM     76  N   UNL A   1      30.645  26.198  24.216  1.00  0.00    -0.062 NA
ATOM     77  C   UNL A   1      30.579  24.363  25.397  1.00  0.00     0.093 A 
ATOM     78  N   UNL A   1      30.300  24.915  24.179  1.00  0.00    -0.134 NA
BRANCH  77  79
ATOM     79  C   UNL A   1      30.383  22.927  25.687  1.00  0.00     0.138 C 
BRANCH  79  80
ATOM     80  S   UNL A   1      31.573  21.971  26.627  1.00  0.00    -0.081 SA
BRANCH  80  81
ATOM     81  C   UNL A   1      32.584  20.942  25.644  1.00  0.00     0.176 A 
ATOM     82  N   UNL A   1      32.217  19.694  25.725  1.00  0.00    -0.223 NA
ATOM     83  N   UNL A   1      33.642  21.334  24.833  1.00  0.00    -0.255 N 
ATOM     84  C   UNL A   1      32.976  18.725  25.063  1.00  0.00     0.079 A 
ATOM     85  C   UNL A   1      34.691  20.404  24.769  1.00  0.00     0.266 A 
ATOM     86  C   UNL A   1      32.465  17.448  24.827  1.00  0.00     0.029 A 
ATOM     87  C   UNL A   1      34.291  18.991  24.714  1.00  0.00     0.066 A 
ATOM     88  O   UNL A   1      35.894  20.669  24.751  1.00  0.00    -0.268 OA
ATOM     89  C   UNL A   1      33.289  16.443  24.307  1.00  0.00     0.002 A 
ATOM     90  C   UNL A   1      35.143  17.986  24.246  1.00  0.00     0.016 A 
ATOM     91  C   UNL A   1      34.637  16.702  24.052  1.00  0.00     0.001 A 
BRANCH  83  92
ATOM     92  C   UNL A   1      33.762  22.561  24.069  1.00  0.00     0.051 A 
ATOM     93  C   UNL A   1      34.359  23.703  24.646  1.00  0.00     0.028 A 
ATOM     94  C   UNL A   1      33.363  22.704  22.735  1.00  0.00     0.028 A 
ATOM     95  C   UNL A   1      34.336  24.958  24.025  1.00  0.00     0.018 A 
ATOM     96  C   UNL A   1      33.272  23.966  22.126  1.00  0.00     0.018 A 
ATOM     97  C   UNL A   1      33.720  25.095  22.796  1.00  0.00     0.018 A 
ATOM     98  Br  UNL A   1      33.469  26.809  22.050  1.00  0.00    -0.051 Br
ENDBRANCH  83  92
ENDBRANCH  80  81
ENDBRANCH  79  80
ENDBRANCH  77  79
ENDBRANCH  73  74
ENDBRANCH   2  68
TORSDOF 15
ENDMDL
MODEL 2
REMARK VINA RESULT:     -12.9      1.739      2.647
REMARK SMILES O=C(NCCCNC(=O)c1ccc(-n2cc(CSc3nc4ccccc4c(=O)n3-c3ccc(Br)cc3)nn2)cc1)c1ccc(-c2c3nc(c(-c4c(F)cccc4F)c4ccc([nH]4)c(-c4c(F)cccc4F)c4nc(c(-c5c(F)cccc5F)c5ccc2[nH]5)C=C4)C=C3)cc1
REMARK SMILES IDX 7 1 8 2 9 3 6 5 5 6 4 7 3 8 1 9 2 10 41 12 42 13 94 14 43 15
REMARK SMILES IDX 93 16 44 17 45 18 46 19 87 20 47 21 92 22 86 23 88 24 48 25
REMARK SMILES IDX 91 26 85 27 84 28 49 30 75 31 58 32 74 33 59 34 62 35 73 36
REMARK SMILES IDX 89 37 60 38 61 39 72 41 90 42 63 43 50 44 51 45 56 46 52 47
REMARK SMILES IDX 53 48 55 49 57 50 54 51 76 52 77 53 82 54 78 55 79 56 81 57
REMARK SMILES IDX 83 58 80 59 64 60 65 61 70 62 66 63 67 64 69 65 71 66 68 67
REMARK SMILES IDX 10 68 11 69 40 70 12 71 39 72 13 73 14 74 15 75 38 76 16 77
REMARK SMILES IDX 37 78 17 79 18 80 19 81 20 82 29 83 21 84 27 85 22 86 26 87
REMARK SMILES IDX 28 88 23 89 25 90 24 91 30 92 31 93 36 94 32 95 35 96 33 97
REMARK SMILES IDX 34 98
REMARK H PARENT 7 4 3 11 88 29 62 40
REMARK Flexibility Score: inf
ROOT
ATOM      1  N   UNL A   1      31.018  30.749  24.995  1.00  0.00    -0.352 N 
ATOM      2  C   UNL A   1      30.611  29.697  24.222  1.00  0.00     0.251 C 
ATOM      3  O   UNL A   1      30.180  29.911  23.083  1.00  0.00    -0.269 OA
ATOM      4  H   UNL A   1      30.841  31.636  24.606  1.00  0.00     0.163 HD
ENDROOT
BRANCH   1   5
ATOM      5  C   UNL A   1      31.670  30.776  26.296  1.00  0.00     0.118 C 
BRANCH   5   6
ATOM      6  C   UNL A   1      33.194  30.816  26.208  1.00  0.00     0.042 C 
BRANCH   6   7
ATOM      7  C   UNL A   1      33.927  30.368  27.470  1.00  0.00     0.118 C 
BRANCH   7   8
ATOM      8  N   UNL A   1      34.030  31.365  28.516  1.00  0.00    -0.352 N 
ATOM      9  O   UNL A   1      34.782  32.876  29.939  1.00  0.00    -0.269 OA
ATOM     10  C   UNL A   1      35.046  31.866  29.280  1.00  0.00     0.251 C 
ATOM     11  H   UNL A   1      33.162  31.781  28.727  1.00  0.00     0.163 HD
BRANCH  10  12
ATOM     12  C   UNL A   1      36.387  31.246  29.441  1.00  0.00     0.039 A 
ATOM     13  C   UNL A   1      37.605  31.920  29.540  1.00  0.00     0.014 A 
ATOM     14  C   UNL A   1      36.393  29.837  29.467  1.00  0.00     0.014 A 
ATOM     15  C   UNL A   1      38.804  31.205  29.570  1.00  0.00     0.010 A 
ATOM     16  C   UNL A   1      37.581  29.121  29.507  1.00  0.00     0.010 A 
ATOM     17  C   UNL A   1      38.790  29.807  29.520  1.00  0.00    -0.014 A 
BRANCH  17  18
ATOM     18  C   UNL A   1      40.049  29.073  29.648  1.00  0.00     0.031 A 
ATOM     19  C   UNL A   1      40.514  28.880  31.055  1.00  0.00     0.074 A 
ATOM     20  C   UNL A   1      40.645  28.444  28.614  1.00  0.00     0.049 A 
ATOM     21  N   UNL A   1      41.628  29.257  31.591  1.00  0.00    -0.248 NA
ATOM     22  C   UNL A   1      39.573  28.267  32.010  1.00  0.00     0.031 C 
ATOM     23  C   UNL A   1      40.139  28.282  27.248  1.00  0.00     0.029 A 
ATOM     24  N   UNL A   1      41.798  27.714  28.595  1.00  0.00    -0.354 N 
ATOM     25  C   UNL A   1      41.610  28.780  32.902  1.00  0.00     0.074 A 
ATOM     26  C   UNL A   1      40.273  28.305  33.145  1.00  0.00     0.031 C 
ATOM     27  C   UNL A   1      40.858  27.327  26.613  1.00  0.00     0.029 A 
ATOM     28  C   UNL A   1      41.949  26.903  27.475  1.00  0.00     0.049 A 
ATOM     29  H   UNL A   1      42.469  27.759  29.315  1.00  0.00     0.167 HD
ATOM     30  C   UNL A   1      42.753  28.616  33.624  1.00  0.00     0.037 A 
ATOM     31  C   UNL A   1      42.866  25.915  27.298  1.00  0.00     0.037 A 
ATOM     32  C   UNL A   1      43.846  29.353  33.051  1.00  0.00     0.049 A 
ATOM     33  C   UNL A   1      43.951  26.125  28.285  1.00  0.00     0.074 A 
ATOM     34  C   UNL A   1      44.107  30.687  32.809  1.00  0.00     0.029 A 
ATOM     35  N   UNL A   1      44.767  28.655  32.313  1.00  0.00    -0.354 N 
ATOM     36  N   UNL A   1      44.797  27.114  28.239  1.00  0.00    -0.248 NA
ATOM     37  C   UNL A   1      43.821  25.472  29.578  1.00  0.00     0.031 C 
ATOM     38  C   UNL A   1      44.821  30.703  31.576  1.00  0.00     0.029 A 
ATOM     39  C   UNL A   1      45.003  29.379  31.176  1.00  0.00     0.049 A 
ATOM     40  H   UNL A   1      45.181  27.795  32.555  1.00  0.00     0.167 HD
ATOM     41  C   UNL A   1      44.961  27.492  29.562  1.00  0.00     0.074 A 
ATOM     42  C   UNL A   1      44.407  26.392  30.346  1.00  0.00     0.031 C 
ATOM     43  C   UNL A   1      45.268  28.781  29.890  1.00  0.00     0.037 A 
BRANCH  30  44
ATOM     44  C   UNL A   1      42.987  27.508  34.624  1.00  0.00     0.057 A 
ATOM     45  C   UNL A   1      43.176  26.193  34.161  1.00  0.00     0.134 A 
ATOM     46  C   UNL A   1      42.717  27.624  36.002  1.00  0.00     0.134 A 
ATOM     47  F   UNL A   1      43.430  25.947  32.866  1.00  0.00    -0.206 F 
ATOM     48  C   UNL A   1      43.021  25.074  34.989  1.00  0.00     0.040 A 
ATOM     49  C   UNL A   1      42.611  26.517  36.848  1.00  0.00     0.040 A 
ATOM     50  F   UNL A   1      42.439  28.798  36.582  1.00  0.00    -0.206 F 
ATOM     51  C   UNL A   1      42.726  25.234  36.337  1.00  0.00     0.006 A 
ENDBRANCH  30  44
BRANCH  31  52
ATOM     52  C   UNL A   1      42.732  24.635  26.559  1.00  0.00     0.057 A 
ATOM     53  C   UNL A   1      43.423  24.408  25.359  1.00  0.00     0.134 A 
ATOM     54  C   UNL A   1      42.157  23.502  27.159  1.00  0.00     0.134 A 
ATOM     55  F   UNL A   1      44.045  25.416  24.730  1.00  0.00    -0.206 F 
ATOM     56  C   UNL A   1      43.554  23.128  24.802  1.00  0.00     0.040 A 
ATOM     57  C   UNL A   1      42.275  22.220  26.610  1.00  0.00     0.040 A 
ATOM     58  F   UNL A   1      41.540  23.585  28.346  1.00  0.00    -0.206 F 
ATOM     59  C   UNL A   1      42.989  22.026  25.435  1.00  0.00     0.006 A 
ENDBRANCH  31  52
BRANCH  43  60
ATOM     60  C   UNL A   1      45.679  29.712  28.784  1.00  0.00     0.057 A 
ATOM     61  C   UNL A   1      46.986  29.818  28.287  1.00  0.00     0.134 A 
ATOM     62  C   UNL A   1      44.682  30.412  28.097  1.00  0.00     0.134 A 
ATOM     63  F   UNL A   1      47.991  29.108  28.816  1.00  0.00    -0.206 F 
ATOM     64  C   UNL A   1      47.292  30.617  27.182  1.00  0.00     0.040 A 
ATOM     65  C   UNL A   1      44.968  31.185  26.971  1.00  0.00     0.040 A 
ATOM     66  F   UNL A   1      43.399  30.313  28.482  1.00  0.00    -0.206 F 
ATOM     67  C   UNL A   1      46.278  31.298  26.515  1.00  0.00     0.006 A 
ENDBRANCH  43  60
ENDBRANCH  17  18
ENDBRANCH  10  12
ENDBRANCH   7   8
ENDBRANCH   6   7
ENDBRANCH   5   6
ENDBRANCH   1   5
BRANCH   2  68
ATOM     68  C   UNL A   1      30.691  28.306  24.710  1.00  0.00     0.039 A 
ATOM     69  C   UNL A   1      31.741  27.959  25.566  1.00  0.00     0.016 A 
ATOM     70  C   UNL A   1      29.793  27.330  24.269  1.00  0.00     0.016 A 
ATOM     71  C   UNL A   1      31.863  26.648  26.033  1.00  0.00     0.029 A 
ATOM     72  C   UNL A   1      29.921  26.014  24.720  1.00  0.00     0.029 A 
ATOM     73  C   UNL A   1      30.963  25.669  25.596  1.00  0.00     0.066 A 
BRANCH  73  74
ATOM     74  N   UNL A   1      31.171  24.321  25.975  1.00  0.00    -0.220 N 
ATOM     75  C   UNL A   1      31.233  23.229  25.151  1.00  0.00     0.141 A 
ATOM     76  N   UNL A   1      31.397  23.928  27.250  1.00  0.00    -0.062 NA
ATOM     77  C   UNL A   1      31.638  22.187  25.954  1.00  0.00     0.093 A 
ATOM     78  N   UNL A   1      31.663  22.625  27.248  1.00  0.00    -0.134 NA
BRANCH  77  79
ATOM     79  C   UNL A   1      31.826  20.767  25.588  1.00  0.00     0.138 C 
BRANCH  79  80
ATOM     80  S   UNL A   1      33.022  20.248  24.358  1.00  0.00    -0.081 SA
BRANCH  80  81
ATOM     81  C   UNL A   1      34.601  20.965  24.563  1.00  0.00     0.176 A 
ATOM     82  N   UNL A   1      35.510  20.059  24.788  1.00  0.00    -0.223 NA
ATOM     83  N   UNL A   1      34.926  22.313  24.483  1.00  0.00    -0.255 N 
ATOM     84  C   UNL A   1      36.818  20.471  25.059  1.00  0.00     0.079 A 
ATOM     85  C   UNL A   1      35.951  22.709  25.357  1.00  0.00     0.266 A 
ATOM     86  C   UNL A   1      37.886  19.578  24.972  1.00  0.00     0.029 A 
ATOM     87  C   UNL A   1      37.060  21.758  25.512  1.00  0.00     0.066 A 
ATOM     88  O   UNL A   1      35.998  23.766  25.987  1.00  0.00    -0.268 OA
ATOM     89  C   UNL A   1      39.164  19.962  25.397  1.00  0.00     0.002 A 
ATOM     90  C   UNL A   1      38.317  22.141  25.993  1.00  0.00     0.016 A 
ATOM     91  C   UNL A   1      39.371  21.230  25.942  1.00  0.00     0.001 A 
BRANCH  83  92
ATOM     92  C   UNL A   1      34.338  23.315  23.614  1.00  0.00     0.051 A 
ATOM     93  C   UNL A   1      34.415  24.684  23.951  1.00  0.00     0.028 A 
ATOM     94  C   UNL A   1      33.713  23.033  22.394  1.00  0.00     0.028 A 
ATOM     95  C   UNL A   1      33.712  25.671  23.251  1.00  0.00     0.018 A 
ATOM     96  C   UNL A   1      32.949  23.999  21.719  1.00  0.00     0.018 A 
ATOM     97  C   UNL A   1      32.918  25.307  22.180  1.00  0.00     0.018 A 
ATOM     98  Br  UNL A   1      31.783  26.577  21.370  1.00  0.00    -0.051 Br
ENDBRANCH  83  92
ENDBRANCH  80  81
ENDBRANCH  79  80
ENDBRANCH  77  79
ENDBRANCH  73  74
ENDBRANCH   2  68
TORSDOF 15
ENDMDL
MODEL 3
REMARK VINA RESULT:     -12.8      3.204      8.215
REMARK SMILES O=C(NCCCNC(=O)c1ccc(-n2cc(CSc3nc4ccccc4c(=O)n3-c3ccc(Br)cc3)nn2)cc1)c1ccc(-c2c3nc(c(-c4c(F)cccc4F)c4ccc([nH]4)c(-c4c(F)cccc4F)c4nc(c(-c5c(F)cccc5F)c5ccc2[nH]5)C=C4)C=C3)cc1
REMARK SMILES IDX 7 1 8 2 9 3 6 5 5 6 4 7 3 8 1 9 2 10 41 12 42 13 94 14 43 15
REMARK SMILES IDX 93 16 44 17 45 18 46 19 87 20 47 21 92 22 86 23 88 24 48 25
REMARK SMILES IDX 91 26 85 27 84 28 49 30 75 31 58 32 74 33 59 34 62 35 73 36
REMARK SMILES IDX 89 37 60 38 61 39 72 41 90 42 63 43 50 44 51 45 56 46 52 47
REMARK SMILES IDX 53 48 55 49 57 50 54 51 76 52 77 53 82 54 78 55 79 56 81 57
REMARK SMILES IDX 83 58 80 59 64 60 65 61 70 62 66 63 67 64 69 65 71 66 68 67
REMARK SMILES IDX 10 68 11 69 40 70 12 71 39 72 13 73 14 74 15 75 38 76 16 77
REMARK SMILES IDX 37 78 17 79 18 80 19 81 20 82 29 83 21 84 27 85 22 86 26 87
REMARK SMILES IDX 28 88 23 89 25 90 24 91 30 92 31 93 36 94 32 95 35 96 33 97
REMARK SMILES IDX 34 98
REMARK H PARENT 7 4 3 11 88 29 62 40
REMARK Flexibility Score: inf
ROOT
ATOM      1  N   UNL A   1      34.875  22.042  24.821  1.00  0.00    -0.352 N 
ATOM      2  C   UNL A   1      34.057  22.890  24.127  1.00  0.00     0.251 C 
ATOM      3  O   UNL A   1      33.585  22.527  23.043  1.00  0.00    -0.269 OA
ATOM      4  H   UNL A   1      35.110  21.215  24.341  1.00  0.00     0.163 HD
ENDROOT
BRANCH   1   5
ATOM      5  C   UNL A   1      35.455  22.157  26.151  1.00  0.00     0.118 C 
BRANCH   5   6
ATOM      6  C   UNL A   1      36.603  23.160  26.226  1.00  0.00     0.042 C 
BRANCH   6   7
ATOM      7  C   UNL A   1      37.728  22.932  25.220  1.00  0.00     0.118 C 
BRANCH   7   8
ATOM      8  N   UNL A   1      38.462  21.693  25.379  1.00  0.00    -0.352 N 
ATOM      9  O   UNL A   1      39.788  20.095  26.128  1.00  0.00    -0.269 OA
ATOM     10  C   UNL A   1      39.577  21.310  26.070  1.00  0.00     0.251 C 
ATOM     11  H   UNL A   1      38.064  20.951  24.869  1.00  0.00     0.163 HD
BRANCH  10  12
ATOM     12  C   UNL A   1      40.579  22.232  26.665  1.00  0.00     0.039 A 
ATOM     13  C   UNL A   1      40.312  23.444  27.304  1.00  0.00     0.014 A 
ATOM     14  C   UNL A   1      41.921  21.823  26.532  1.00  0.00     0.014 A 
ATOM     15  C   UNL A   1      41.361  24.269  27.715  1.00  0.00     0.010 A 
ATOM     16  C   UNL A   1      42.967  22.633  26.946  1.00  0.00     0.010 A 
ATOM     17  C   UNL A   1      42.687  23.876  27.504  1.00  0.00    -0.014 A 
BRANCH  17  18
ATOM     18  C   UNL A   1      43.772  24.708  28.025  1.00  0.00     0.031 A 
ATOM     19  C   UNL A   1      43.921  24.674  29.511  1.00  0.00     0.074 A 
ATOM     20  C   UNL A   1      44.693  25.299  27.236  1.00  0.00     0.049 A 
ATOM     21  N   UNL A   1      43.865  25.659  30.346  1.00  0.00    -0.248 NA
ATOM     22  C   UNL A   1      44.057  23.356  30.157  1.00  0.00     0.031 C 
ATOM     23  C   UNL A   1      44.858  25.159  25.787  1.00  0.00     0.029 A 
ATOM     24  N   UNL A   1      45.758  26.078  27.585  1.00  0.00    -0.354 N 
ATOM     25  C   UNL A   1      44.133  25.119  31.605  1.00  0.00     0.074 A 
ATOM     26  C   UNL A   1      44.103  23.688  31.448  1.00  0.00     0.031 C 
ATOM     27  C   UNL A   1      46.071  25.636  25.424  1.00  0.00     0.029 A 
ATOM     28  C   UNL A   1      46.714  26.229  26.585  1.00  0.00     0.049 A 
ATOM     29  H   UNL A   1      45.843  26.498  28.471  1.00  0.00     0.167 HD
ATOM     30  C   UNL A   1      44.568  25.888  32.640  1.00  0.00     0.037 A 
ATOM     31  C   UNL A   1      47.963  26.747  26.719  1.00  0.00     0.037 A 
ATOM     32  C   UNL A   1      44.315  27.283  32.401  1.00  0.00     0.049 A 
ATOM     33  C   UNL A   1      47.995  27.526  27.980  1.00  0.00     0.074 A 
ATOM     34  C   UNL A   1      43.187  28.054  32.211  1.00  0.00     0.029 A 
ATOM     35  N   UNL A   1      45.369  28.060  31.994  1.00  0.00    -0.354 N 
ATOM     36  N   UNL A   1      47.356  28.646  28.162  1.00  0.00    -0.248 NA
ATOM     37  C   UNL A   1      48.392  26.827  29.192  1.00  0.00     0.031 C 
ATOM     38  C   UNL A   1      43.570  29.034  31.249  1.00  0.00     0.029 A 
ATOM     39  C   UNL A   1      44.920  28.836  30.960  1.00  0.00     0.049 A 
ATOM     40  H   UNL A   1      46.278  28.060  32.373  1.00  0.00     0.167 HD
ATOM     41  C   UNL A   1      46.882  28.568  29.462  1.00  0.00     0.074 A 
ATOM     42  C   UNL A   1      47.625  27.469  30.075  1.00  0.00     0.031 C 
ATOM     43  C   UNL A   1      45.736  29.210  29.831  1.00  0.00     0.037 A 
BRANCH  30  44
ATOM     44  C   UNL A   1      45.549  25.434  33.695  1.00  0.00     0.057 A 
ATOM     45  C   UNL A   1      46.860  25.093  33.314  1.00  0.00     0.134 A 
ATOM     46  C   UNL A   1      45.175  25.017  34.989  1.00  0.00     0.134 A 
ATOM     47  F   UNL A   1      47.335  25.424  32.103  1.00  0.00    -0.206 F 
ATOM     48  C   UNL A   1      47.703  24.320  34.124  1.00  0.00     0.040 A 
ATOM     49  C   UNL A   1      46.026  24.289  35.825  1.00  0.00     0.040 A 
ATOM     50  F   UNL A   1      43.940  25.196  35.471  1.00  0.00    -0.206 F 
ATOM     51  C   UNL A   1      47.282  23.905  35.380  1.00  0.00     0.006 A 
ENDBRANCH  30  44
BRANCH  31  52
ATOM     52  C   UNL A   1      49.213  26.375  26.011  1.00  0.00     0.057 A 
ATOM     53  C   UNL A   1      49.702  27.138  24.939  1.00  0.00     0.134 A 
ATOM     54  C   UNL A   1      50.107  25.435  26.552  1.00  0.00     0.134 A 
ATOM     55  F   UNL A   1      48.943  28.092  24.381  1.00  0.00    -0.206 F 
ATOM     56  C   UNL A   1      51.008  26.992  24.451  1.00  0.00     0.040 A 
ATOM     57  C   UNL A   1      51.411  25.275  26.070  1.00  0.00     0.040 A 
ATOM     58  F   UNL A   1      49.776  24.704  27.626  1.00  0.00    -0.206 F 
ATOM     59  C   UNL A   1      51.872  26.066  25.025  1.00  0.00     0.006 A 
ENDBRANCH  31  52
BRANCH  43  60
ATOM     60  C   UNL A   1      45.147  30.207  28.873  1.00  0.00     0.057 A 
ATOM     61  C   UNL A   1      45.545  31.549  28.789  1.00  0.00     0.134 A 
ATOM     62  C   UNL A   1      44.255  29.749  27.898  1.00  0.00     0.134 A 
ATOM     63  F   UNL A   1      46.470  32.055  29.615  1.00  0.00    -0.206 F 
ATOM     64  C   UNL A   1      45.044  32.406  27.803  1.00  0.00     0.040 A 
ATOM     65  C   UNL A   1      43.775  30.584  26.888  1.00  0.00     0.040 A 
ATOM     66  F   UNL A   1      43.873  28.461  27.882  1.00  0.00    -0.206 F 
ATOM     67  C   UNL A   1      44.161  31.921  26.844  1.00  0.00     0.006 A 
ENDBRANCH  43  60
ENDBRANCH  17  18
ENDBRANCH  10  12
ENDBRANCH   7   8
ENDBRANCH   6   7
ENDBRANCH   5   6
ENDBRANCH   1   5
BRANCH   2  68
ATOM     68  C   UNL A   1      33.708  24.224  24.651  1.00  0.00     0.039 A 
ATOM     69  C   UNL A   1      34.341  25.344  24.101  1.00  0.00     0.016 A 
ATOM     70  C   UNL A   1      32.831  24.374  25.729  1.00  0.00     0.016 A 
ATOM     71  C   UNL A   1      34.054  26.622  24.585  1.00  0.00     0.029 A 
ATOM     72  C   UNL A   1      32.553  25.649  26.227  1.00  0.00     0.029 A 
ATOM     73  C   UNL A   1      33.172  26.776  25.661  1.00  0.00     0.066 A 
BRANCH  73  74
ATOM     74  N   UNL A   1      32.986  28.060  26.224  1.00  0.00    -0.220 N 
ATOM     75  C   UNL A   1      33.904  28.802  26.919  1.00  0.00     0.141 A 
ATOM     76  N   UNL A   1      31.843  28.775  26.097  1.00  0.00    -0.062 NA
ATOM     77  C   UNL A   1      33.323  30.039  27.089  1.00  0.00     0.093 A 
ATOM     78  N   UNL A   1      32.034  29.974  26.639  1.00  0.00    -0.134 NA
BRANCH  77  79
ATOM     79  C   UNL A   1      33.858  31.212  27.811  1.00  0.00     0.138 C 
BRANCH  79  80
ATOM     80  S   UNL A   1      35.562  31.743  27.639  1.00  0.00    -0.081 SA
BRANCH  80  81
ATOM     81  C   UNL A   1      36.695  30.784  28.559  1.00  0.00     0.176 A 
ATOM     82  N   UNL A   1      37.566  30.203  27.784  1.00  0.00    -0.223 NA
ATOM     83  N   UNL A   1      36.742  30.637  29.940  1.00  0.00    -0.255 N 
ATOM     84  C   UNL A   1      38.496  29.329  28.355  1.00  0.00     0.079 A 
ATOM     85  C   UNL A   1      37.156  29.367  30.367  1.00  0.00     0.266 A 
ATOM     86  C   UNL A   1      39.644  28.945  27.660  1.00  0.00     0.029 A 
ATOM     87  C   UNL A   1      38.241  28.753  29.590  1.00  0.00     0.066 A 
ATOM     88  O   UNL A   1      36.698  28.738  31.323  1.00  0.00    -0.268 OA
ATOM     89  C   UNL A   1      40.483  27.951  28.177  1.00  0.00     0.002 A 
ATOM     90  C   UNL A   1      39.037  27.720  30.095  1.00  0.00     0.016 A 
ATOM     91  C   UNL A   1      40.160  27.312  29.376  1.00  0.00     0.001 A 
BRANCH  83  92
ATOM     92  C   UNL A   1      36.422  31.632  30.946  1.00  0.00     0.051 A 
ATOM     93  C   UNL A   1      37.453  32.261  31.677  1.00  0.00     0.028 A 
ATOM     94  C   UNL A   1      35.127  32.076  31.235  1.00  0.00     0.028 A 
ATOM     95  C   UNL A   1      37.197  33.086  32.779  1.00  0.00     0.018 A 
ATOM     96  C   UNL A   1      34.851  32.847  32.376  1.00  0.00     0.018 A 
ATOM     97  C   UNL A   1      35.891  33.312  33.168  1.00  0.00     0.018 A 
ATOM     98  Br  UNL A   1      35.528  34.222  34.779  1.00  0.00    -0.051 Br
ENDBRANCH  83  92
ENDBRANCH  80  81
ENDBRANCH  79  80
ENDBRANCH  77  79
ENDBRANCH  73  74
ENDBRANCH   2  68
TORSDOF 15
ENDMDL
