MODEL 1
REMARK VINA RESULT:     -10.8      0.000      0.000
REMARK SMILES CC[NH+](CC)[C@@H](C(=O)NCCCNC(=O)c1ccc(-c2c3nc(c(-c4c(F)cccc4F)c4ccc([nH]4)c(-c4c(F)cccc4F)c4nc(c(-c5c(F)cccc5F)c5ccc2[nH]5)C=C4)C=C3)cc1)c1ccc(C2CC2)cc1
REMARK SMILES IDX 11 1 10 2 9 3 7 4 8 5 6 7 3 8 2 10 1 11 4 12 5 13 70 14
REMARK SMILES IDX 71 15 78 16 72 17 77 18 73 19 74 20 75 21 76 22 12 23 13 24
REMARK SMILES IDX 14 25 15 27 16 28 17 29 69 30 18 31 68 32 19 33 20 34 21 35
REMARK SMILES IDX 62 36 22 37 67 38 61 39 63 40 23 41 66 42 60 43 59 44 24 46
REMARK SMILES IDX 50 47 33 48 49 49 34 50 37 51 48 52 64 53 35 54 36 55 47 57
REMARK SMILES IDX 65 58 38 59 25 60 26 61 31 62 27 63 28 64 30 65 32 66 29 67
REMARK SMILES IDX 51 68 52 69 57 70 53 71 54 72 56 73 58 74 55 75 39 76 40 77
REMARK SMILES IDX 45 78 41 79 42 80 44 81 46 82 43 83
REMARK H PARENT 9 6 3 9 13 26 63 45 37 56
REMARK Flexibility Score: inf
ROOT
ATOM      1  C   UNL A   1      32.914  27.870  26.880  1.00  0.00     0.042 C 
ENDROOT
BRANCH   1   2
ATOM      2  C   UNL A   1      31.480  27.568  26.402  1.00  0.00     0.118 C 
BRANCH   2   3
ATOM      3  N   UNL A   1      30.974  26.266  26.809  1.00  0.00    -0.351 N 
ATOM      4  C   UNL A   1      30.558  25.147  26.135  1.00  0.00     0.283 C 
ATOM      5  O   UNL A   1      30.034  24.290  26.857  1.00  0.00    -0.268 OA
ATOM      6  H   UNL A   1      30.917  26.167  27.785  1.00  0.00     0.163 HD
BRANCH   4   7
ATOM      7  C   UNL A   1      30.698  24.994  24.587  1.00  0.00     0.305 C 
BRANCH   7   8
ATOM      8  N   UNL A   1      32.091  24.643  24.156  1.00  0.00    -0.321 N 
ATOM      9  H   UNL A   1      32.376  25.552  23.792  1.00  0.00     0.349 HD
BRANCH   8  10
ATOM     10  C   UNL A   1      33.088  24.387  25.200  1.00  0.00     0.259 C 
ATOM     11  C   UNL A   1      34.403  25.119  24.936  1.00  0.00     0.071 C 
ENDBRANCH   8  10
BRANCH   8  12
ATOM     12  C   UNL A   1      32.191  23.714  23.032  1.00  0.00     0.259 C 
ATOM     13  C   UNL A   1      32.427  22.238  23.369  1.00  0.00     0.071 C 
ENDBRANCH   8  12
ENDBRANCH   7   8
BRANCH   7  14
ATOM     14  C   UNL A   1      30.146  26.188  23.774  1.00  0.00     0.019 A 
ATOM     15  C   UNL A   1      31.033  26.994  23.042  1.00  0.00     0.011 A 
ATOM     16  C   UNL A   1      28.820  26.636  23.884  1.00  0.00     0.011 A 
ATOM     17  C   UNL A   1      30.631  28.245  22.545  1.00  0.00     0.004 A 
ATOM     18  C   UNL A   1      28.424  27.880  23.376  1.00  0.00     0.004 A 
ATOM     19  C   UNL A   1      29.334  28.743  22.754  1.00  0.00    -0.045 A 
BRANCH  19  20
ATOM     20  C   UNL A   1      28.985  30.169  22.375  1.00  0.00     0.019 C 
ATOM     21  C   UNL A   1      27.656  30.808  22.713  1.00  0.00     0.009 C 
ATOM     22  C   UNL A   1      28.872  31.179  23.502  1.00  0.00     0.009 C 
ENDBRANCH  19  20
ENDBRANCH   7  14
ENDBRANCH   4   7
ENDBRANCH   2   3
ENDBRANCH   1   2
BRANCH   1  23
ATOM     23  C   UNL A   1      33.739  28.854  26.044  1.00  0.00     0.118 C 
BRANCH  23  24
ATOM     24  N   UNL A   1      33.643  30.220  26.527  1.00  0.00    -0.352 N 
ATOM     25  C   UNL A   1      34.436  30.876  27.436  1.00  0.00     0.251 C 
ATOM     26  H   UNL A   1      32.905  30.751  26.150  1.00  0.00     0.163 HD
ATOM     27  O   UNL A   1      34.078  31.980  27.859  1.00  0.00    -0.269 OA
BRANCH  25  28
ATOM     28  C   UNL A   1      35.705  30.292  27.937  1.00  0.00     0.039 A 
ATOM     29  C   UNL A   1      35.700  29.648  29.180  1.00  0.00     0.014 A 
ATOM     30  C   UNL A   1      36.915  30.450  27.252  1.00  0.00     0.014 A 
ATOM     31  C   UNL A   1      36.887  29.140  29.720  1.00  0.00     0.010 A 
ATOM     32  C   UNL A   1      38.098  29.913  27.778  1.00  0.00     0.010 A 
ATOM     33  C   UNL A   1      38.098  29.260  29.021  1.00  0.00    -0.014 A 
BRANCH  33  34
ATOM     34  C   UNL A   1      39.361  28.716  29.593  1.00  0.00     0.031 A 
ATOM     35  C   UNL A   1      39.976  29.326  30.825  1.00  0.00     0.074 A 
ATOM     36  C   UNL A   1      39.984  27.684  28.987  1.00  0.00     0.049 A 
ATOM     37  N   UNL A   1      41.082  28.996  31.447  1.00  0.00    -0.248 NA
ATOM     38  C   UNL A   1      39.264  30.462  31.428  1.00  0.00     0.031 C 
ATOM     39  C   UNL A   1      39.525  27.019  27.768  1.00  0.00     0.029 A 
ATOM     40  N   UNL A   1      41.146  27.025  29.310  1.00  0.00    -0.354 N 
ATOM     41  C   UNL A   1      41.208  29.893  32.501  1.00  0.00     0.074 A 
ATOM     42  C   UNL A   1      40.080  30.797  32.420  1.00  0.00     0.031 C 
ATOM     43  C   UNL A   1      40.395  26.048  27.445  1.00  0.00     0.029 A 
ATOM     44  C   UNL A   1      41.483  26.033  28.420  1.00  0.00     0.049 A 
ATOM     45  H   UNL A   1      41.687  27.243  30.102  1.00  0.00     0.167 HD
ATOM     46  C   UNL A   1      42.167  29.952  33.457  1.00  0.00     0.037 A 
ATOM     47  C   UNL A   1      42.549  25.211  28.385  1.00  0.00     0.037 A 
ATOM     48  C   UNL A   1      43.271  29.035  33.571  1.00  0.00     0.049 A 
ATOM     49  C   UNL A   1      43.589  25.286  29.467  1.00  0.00     0.074 A 
ATOM     50  C   UNL A   1      44.238  28.969  34.561  1.00  0.00     0.029 A 
ATOM     51  N   UNL A   1      43.562  28.030  32.663  1.00  0.00    -0.354 N 
ATOM     52  N   UNL A   1      43.646  26.086  30.503  1.00  0.00    -0.248 NA
ATOM     53  C   UNL A   1      44.711  24.338  29.380  1.00  0.00     0.031 C 
ATOM     54  C   UNL A   1      45.136  27.948  34.234  1.00  0.00     0.029 A 
ATOM     55  C   UNL A   1      44.706  27.355  33.058  1.00  0.00     0.049 A 
ATOM     56  H   UNL A   1      43.034  27.825  31.859  1.00  0.00     0.167 HD
ATOM     57  C   UNL A   1      44.792  25.723  31.201  1.00  0.00     0.074 A 
ATOM     58  C   UNL A   1      45.395  24.623  30.479  1.00  0.00     0.031 C 
ATOM     59  C   UNL A   1      45.298  26.258  32.338  1.00  0.00     0.037 A 
BRANCH  46  60
ATOM     60  C   UNL A   1      42.070  31.050  34.475  1.00  0.00     0.057 A 
ATOM     61  C   UNL A   1      41.345  30.892  35.661  1.00  0.00     0.134 A 
ATOM     62  C   UNL A   1      42.772  32.249  34.298  1.00  0.00     0.134 A 
ATOM     63  F   UNL A   1      40.648  29.769  35.888  1.00  0.00    -0.206 F 
ATOM     64  C   UNL A   1      41.308  31.896  36.631  1.00  0.00     0.040 A 
ATOM     65  C   UNL A   1      42.759  33.252  35.268  1.00  0.00     0.040 A 
ATOM     66  F   UNL A   1      43.495  32.457  33.186  1.00  0.00    -0.206 F 
ATOM     67  C   UNL A   1      42.022  33.078  36.439  1.00  0.00     0.006 A 
ENDBRANCH  46  60
BRANCH  47  68
ATOM     68  C   UNL A   1      42.690  24.230  27.281  1.00  0.00     0.057 A 
ATOM     69  C   UNL A   1      43.310  24.580  26.075  1.00  0.00     0.134 A 
ATOM     70  C   UNL A   1      42.187  22.929  27.396  1.00  0.00     0.134 A 
ATOM     71  F   UNL A   1      43.789  25.820  25.899  1.00  0.00    -0.206 F 
ATOM     72  C   UNL A   1      43.409  23.676  25.017  1.00  0.00     0.040 A 
ATOM     73  C   UNL A   1      42.300  22.008  26.354  1.00  0.00     0.040 A 
ATOM     74  F   UNL A   1      41.585  22.534  28.528  1.00  0.00    -0.206 F 
ATOM     75  C   UNL A   1      42.906  22.385  25.157  1.00  0.00     0.006 A 
ENDBRANCH  47  68
BRANCH  59  76
ATOM     76  C   UNL A   1      46.552  25.647  32.887  1.00  0.00     0.057 A 
ATOM     77  C   UNL A   1      47.820  26.089  32.491  1.00  0.00     0.134 A 
ATOM     78  C   UNL A   1      46.491  24.631  33.849  1.00  0.00     0.134 A 
ATOM     79  F   UNL A   1      47.947  27.049  31.564  1.00  0.00    -0.206 F 
ATOM     80  C   UNL A   1      48.986  25.529  33.021  1.00  0.00     0.040 A 
ATOM     81  C   UNL A   1      47.647  24.078  34.401  1.00  0.00     0.040 A 
ATOM     82  F   UNL A   1      45.307  24.168  34.276  1.00  0.00    -0.206 F 
ATOM     83  C   UNL A   1      48.900  24.524  33.983  1.00  0.00     0.006 A 
ENDBRANCH  59  76
ENDBRANCH  33  34
ENDBRANCH  25  28
ENDBRANCH  23  24
ENDBRANCH   1  23
TORSDOF 15
ENDMDL
MODEL 2
REMARK VINA RESULT:     -10.8      2.378      4.360
REMARK SMILES CC[NH+](CC)[C@@H](C(=O)NCCCNC(=O)c1ccc(-c2c3nc(c(-c4c(F)cccc4F)c4ccc([nH]4)c(-c4c(F)cccc4F)c4nc(c(-c5c(F)cccc5F)c5ccc2[nH]5)C=C4)C=C3)cc1)c1ccc(C2CC2)cc1
REMARK SMILES IDX 11 1 10 2 9 3 7 4 8 5 6 7 3 8 2 10 1 11 4 12 5 13 70 14
REMARK SMILES IDX 71 15 78 16 72 17 77 18 73 19 74 20 75 21 76 22 12 23 13 24
REMARK SMILES IDX 14 25 15 27 16 28 17 29 69 30 18 31 68 32 19 33 20 34 21 35
REMARK SMILES IDX 62 36 22 37 67 38 61 39 63 40 23 41 66 42 60 43 59 44 24 46
REMARK SMILES IDX 50 47 33 48 49 49 34 50 37 51 48 52 64 53 35 54 36 55 47 57
REMARK SMILES IDX 65 58 38 59 25 60 26 61 31 62 27 63 28 64 30 65 32 66 29 67
REMARK SMILES IDX 51 68 52 69 57 70 53 71 54 72 56 73 58 74 55 75 39 76 40 77
REMARK SMILES IDX 45 78 41 79 42 80 44 81 46 82 43 83
REMARK H PARENT 9 6 3 9 13 26 63 45 37 56
REMARK Flexibility Score: inf
ROOT
ATOM      1  C   UNL A   1      34.176  28.572  25.978  1.00  0.00     0.042 C 
ENDROOT
BRANCH   1   2
ATOM      2  C   UNL A   1      33.200  29.042  24.882  1.00  0.00     0.118 C 
BRANCH   2   3
ATOM      3  N   UNL A   1      33.719  28.930  23.528  1.00  0.00    -0.351 N 
ATOM      4  C   UNL A   1      33.588  28.006  22.525  1.00  0.00     0.283 C 
ATOM      5  O   UNL A   1      34.336  28.199  21.559  1.00  0.00    -0.268 OA
ATOM      6  H   UNL A   1      34.292  29.689  23.275  1.00  0.00     0.163 HD
BRANCH   4   7
ATOM      7  C   UNL A   1      32.609  26.792  22.620  1.00  0.00     0.305 C 
BRANCH   7   8
ATOM      8  N   UNL A   1      31.345  27.116  23.361  1.00  0.00    -0.321 N 
ATOM      9  H   UNL A   1      31.708  27.846  23.976  1.00  0.00     0.349 HD
BRANCH   8  10
ATOM     10  C   UNL A   1      30.280  27.810  22.630  1.00  0.00     0.259 C 
ATOM     11  C   UNL A   1      29.922  29.152  23.267  1.00  0.00     0.071 C 
ENDBRANCH   8  10
BRANCH   8  12
ATOM     12  C   UNL A   1      30.841  26.066  24.243  1.00  0.00     0.259 C 
ATOM     13  C   UNL A   1      30.700  26.414  25.728  1.00  0.00     0.071 C 
ENDBRANCH   8  12
ENDBRANCH   7   8
BRANCH   7  14
ATOM     14  C   UNL A   1      33.252  25.492  23.154  1.00  0.00     0.019 A 
ATOM     15  C   UNL A   1      34.093  25.549  24.278  1.00  0.00     0.011 A 
ATOM     16  C   UNL A   1      33.202  24.275  22.457  1.00  0.00     0.011 A 
ATOM     17  C   UNL A   1      34.928  24.469  24.612  1.00  0.00     0.004 A 
ATOM     18  C   UNL A   1      34.030  23.198  22.802  1.00  0.00     0.004 A 
ATOM     19  C   UNL A   1      34.959  23.292  23.845  1.00  0.00    -0.045 A 
BRANCH  19  20
ATOM     20  C   UNL A   1      36.001  22.224  24.113  1.00  0.00     0.019 C 
ATOM     21  C   UNL A   1      36.558  21.945  25.492  1.00  0.00     0.009 C 
ATOM     22  C   UNL A   1      35.558  21.003  24.898  1.00  0.00     0.009 C 
ENDBRANCH  19  20
ENDBRANCH   7  14
ENDBRANCH   4   7
ENDBRANCH   2   3
ENDBRANCH   1   2
BRANCH   1  23
ATOM     23  C   UNL A   1      33.715  28.703  27.433  1.00  0.00     0.118 C 
BRANCH  23  24
ATOM     24  N   UNL A   1      33.682  30.080  27.891  1.00  0.00    -0.352 N 
ATOM     25  C   UNL A   1      34.663  30.810  28.515  1.00  0.00     0.251 C 
ATOM     26  H   UNL A   1      32.836  30.558  27.733  1.00  0.00     0.163 HD
ATOM     27  O   UNL A   1      34.379  31.910  28.998  1.00  0.00    -0.269 OA
BRANCH  25  28
ATOM     28  C   UNL A   1      36.055  30.309  28.639  1.00  0.00     0.039 A 
ATOM     29  C   UNL A   1      36.475  29.801  29.874  1.00  0.00     0.014 A 
ATOM     30  C   UNL A   1      36.978  30.419  27.593  1.00  0.00     0.014 A 
ATOM     31  C   UNL A   1      37.797  29.379  30.053  1.00  0.00     0.010 A 
ATOM     32  C   UNL A   1      38.293  29.966  27.763  1.00  0.00     0.010 A 
ATOM     33  C   UNL A   1      38.720  29.450  28.998  1.00  0.00    -0.014 A 
BRANCH  33  34
ATOM     34  C   UNL A   1      40.126  28.996  29.187  1.00  0.00     0.031 A 
ATOM     35  C   UNL A   1      41.159  29.915  29.783  1.00  0.00     0.074 A 
ATOM     36  C   UNL A   1      40.493  27.760  28.792  1.00  0.00     0.049 A 
ATOM     37  N   UNL A   1      42.433  29.697  30.000  1.00  0.00    -0.248 NA
ATOM     38  C   UNL A   1      40.706  31.259  30.173  1.00  0.00     0.031 C 
ATOM     39  C   UNL A   1      39.609  26.777  28.166  1.00  0.00     0.029 A 
ATOM     40  N   UNL A   1      41.711  27.126  28.848  1.00  0.00    -0.354 N 
ATOM     41  C   UNL A   1      42.937  30.876  30.533  1.00  0.00     0.074 A 
ATOM     42  C   UNL A   1      41.837  31.817  30.584  1.00  0.00     0.031 C 
ATOM     43  C   UNL A   1      40.313  25.665  27.895  1.00  0.00     0.029 A 
ATOM     44  C   UNL A   1      41.699  25.862  28.308  1.00  0.00     0.049 A 
ATOM     45  H   UNL A   1      42.515  27.538  29.237  1.00  0.00     0.167 HD
ATOM     46  C   UNL A   1      44.196  31.150  30.955  1.00  0.00     0.037 A 
ATOM     47  C   UNL A   1      42.693  24.965  28.155  1.00  0.00     0.037 A 
ATOM     48  C   UNL A   1      45.287  30.211  30.947  1.00  0.00     0.049 A 
ATOM     49  C   UNL A   1      44.076  25.287  28.647  1.00  0.00     0.074 A 
ATOM     50  C   UNL A   1      46.571  30.377  31.439  1.00  0.00     0.029 A 
ATOM     51  N   UNL A   1      45.228  28.933  30.415  1.00  0.00    -0.354 N 
ATOM     52  N   UNL A   1      44.513  26.378  29.226  1.00  0.00    -0.248 NA
ATOM     53  C   UNL A   1      45.104  24.249  28.472  1.00  0.00     0.031 C 
ATOM     54  C   UNL A   1      47.301  29.215  31.171  1.00  0.00     0.029 A 
ATOM     55  C   UNL A   1      46.459  28.310  30.544  1.00  0.00     0.049 A 
ATOM     56  H   UNL A   1      44.430  28.528  30.006  1.00  0.00     0.167 HD
ATOM     57  C   UNL A   1      45.856  26.150  29.504  1.00  0.00     0.074 A 
ATOM     58  C   UNL A   1      46.159  24.812  29.042  1.00  0.00     0.031 C 
ATOM     59  C   UNL A   1      46.754  26.978  30.088  1.00  0.00     0.037 A 
BRANCH  46  60
ATOM     60  C   UNL A   1      44.474  32.530  31.474  1.00  0.00     0.057 A 
ATOM     61  C   UNL A   1      44.895  33.563  30.630  1.00  0.00     0.134 A 
ATOM     62  C   UNL A   1      44.246  32.843  32.820  1.00  0.00     0.134 A 
ATOM     63  F   UNL A   1      45.134  33.326  29.332  1.00  0.00    -0.206 F 
ATOM     64  C   UNL A   1      45.094  34.860  31.109  1.00  0.00     0.040 A 
ATOM     65  C   UNL A   1      44.423  34.139  33.307  1.00  0.00     0.040 A 
ATOM     66  F   UNL A   1      43.832  31.899  33.679  1.00  0.00    -0.206 F 
ATOM     67  C   UNL A   1      44.851  35.152  32.450  1.00  0.00     0.006 A 
ENDBRANCH  46  60
BRANCH  47  68
ATOM     68  C   UNL A   1      42.417  23.660  27.504  1.00  0.00     0.057 A 
ATOM     69  C   UNL A   1      42.146  22.515  28.262  1.00  0.00     0.134 A 
ATOM     70  C   UNL A   1      42.442  23.524  26.112  1.00  0.00     0.134 A 
ATOM     71  F   UNL A   1      42.133  22.581  29.602  1.00  0.00    -0.206 F 
ATOM     72  C   UNL A   1      41.927  21.277  27.659  1.00  0.00     0.040 A 
ATOM     73  C   UNL A   1      42.202  22.296  25.494  1.00  0.00     0.040 A 
ATOM     74  F   UNL A   1      42.693  24.586  25.331  1.00  0.00    -0.206 F 
ATOM     75  C   UNL A   1      41.951  21.166  26.271  1.00  0.00     0.006 A 
ENDBRANCH  47  68
BRANCH  59  76
ATOM     76  C   UNL A   1      48.146  26.456  30.284  1.00  0.00     0.057 A 
ATOM     77  C   UNL A   1      48.519  25.774  31.449  1.00  0.00     0.134 A 
ATOM     78  C   UNL A   1      49.114  26.605  29.282  1.00  0.00     0.134 A 
ATOM     79  F   UNL A   1      47.643  25.610  32.451  1.00  0.00    -0.206 F 
ATOM     80  C   UNL A   1      49.812  25.273  31.618  1.00  0.00     0.040 A 
ATOM     81  C   UNL A   1      50.402  26.091  29.430  1.00  0.00     0.040 A 
ATOM     82  F   UNL A   1      48.818  27.243  28.140  1.00  0.00    -0.206 F 
ATOM     83  C   UNL A   1      50.755  25.426  30.603  1.00  0.00     0.006 A 
ENDBRANCH  59  76
ENDBRANCH  33  34
ENDBRANCH  25  28
ENDBRANCH  23  24
ENDBRANCH   1  23
TORSDOF 15
ENDMDL
MODEL 3
REMARK VINA RESULT:     -10.8      1.488      3.603
REMARK SMILES CC[NH+](CC)[C@@H](C(=O)NCCCNC(=O)c1ccc(-c2c3nc(c(-c4c(F)cccc4F)c4ccc([nH]4)c(-c4c(F)cccc4F)c4nc(c(-c5c(F)cccc5F)c5ccc2[nH]5)C=C4)C=C3)cc1)c1ccc(C2CC2)cc1
REMARK SMILES IDX 11 1 10 2 9 3 7 4 8 5 6 7 3 8 2 10 1 11 4 12 5 13 70 14
REMARK SMILES IDX 71 15 78 16 72 17 77 18 73 19 74 20 75 21 76 22 12 23 13 24
REMARK SMILES IDX 14 25 15 27 16 28 17 29 69 30 18 31 68 32 19 33 20 34 21 35
REMARK SMILES IDX 62 36 22 37 67 38 61 39 63 40 23 41 66 42 60 43 59 44 24 46
REMARK SMILES IDX 50 47 33 48 49 49 34 50 37 51 48 52 64 53 35 54 36 55 47 57
REMARK SMILES IDX 65 58 38 59 25 60 26 61 31 62 27 63 28 64 30 65 32 66 29 67
REMARK SMILES IDX 51 68 52 69 57 70 53 71 54 72 56 73 58 74 55 75 39 76 40 77
REMARK SMILES IDX 45 78 41 79 42 80 44 81 46 82 43 83
REMARK H PARENT 9 6 3 9 13 26 63 45 37 56
REMARK Flexibility Score: inf
ROOT
ATOM      1  C   UNL A   1      33.297  27.912  26.887  1.00  0.00     0.042 C 
ENDROOT
BRANCH   1   2
ATOM      2  C   UNL A   1      31.984  27.294  26.370  1.00  0.00     0.118 C 
BRANCH   2   3
ATOM      3  N   UNL A   1      31.656  26.004  26.958  1.00  0.00    -0.351 N 
ATOM      4  C   UNL A   1      31.662  24.713  26.499  1.00  0.00     0.283 C 
ATOM      5  O   UNL A   1      31.146  23.899  27.274  1.00  0.00    -0.268 OA
ATOM      6  H   UNL A   1      31.364  26.074  27.894  1.00  0.00     0.163 HD
BRANCH   4   7
ATOM      7  C   UNL A   1      32.233  24.319  25.099  1.00  0.00     0.305 C 
BRANCH   7   8
ATOM      8  N   UNL A   1      31.353  23.354  24.359  1.00  0.00    -0.321 N 
ATOM      9  H   UNL A   1      30.602  23.270  25.045  1.00  0.00     0.349 HD
BRANCH   8  10
ATOM     10  C   UNL A   1      30.650  23.840  23.169  1.00  0.00     0.259 C 
ATOM     11  C   UNL A   1      31.035  25.276  22.816  1.00  0.00     0.071 C 
ENDBRANCH   8  10
BRANCH   8  12
ATOM     12  C   UNL A   1      31.893  22.006  24.192  1.00  0.00     0.259 C 
ATOM     13  C   UNL A   1      32.074  21.502  22.757  1.00  0.00     0.071 C 
ENDBRANCH   8  12
ENDBRANCH   7   8
BRANCH   7  14
ATOM     14  C   UNL A   1      33.701  23.835  25.119  1.00  0.00     0.019 A 
ATOM     15  C   UNL A   1      34.289  23.466  26.340  1.00  0.00     0.011 A 
ATOM     16  C   UNL A   1      34.550  23.930  24.005  1.00  0.00     0.011 A 
ATOM     17  C   UNL A   1      35.681  23.315  26.456  1.00  0.00     0.004 A 
ATOM     18  C   UNL A   1      35.936  23.767  24.126  1.00  0.00     0.004 A 
ATOM     19  C   UNL A   1      36.542  23.522  25.364  1.00  0.00    -0.045 A 
BRANCH  19  20
ATOM     20  C   UNL A   1      38.045  23.540  25.559  1.00  0.00     0.019 C 
ATOM     21  C   UNL A   1      38.700  23.407  26.917  1.00  0.00     0.009 C 
ATOM     22  C   UNL A   1      38.706  22.240  25.979  1.00  0.00     0.009 C 
ENDBRANCH  19  20
ENDBRANCH   7  14
ENDBRANCH   4   7
ENDBRANCH   2   3
ENDBRANCH   1   2
BRANCH   1  23
ATOM     23  C   UNL A   1      33.910  29.050  26.063  1.00  0.00     0.118 C 
BRANCH  23  24
ATOM     24  N   UNL A   1      33.735  30.350  26.684  1.00  0.00    -0.352 N 
ATOM     25  C   UNL A   1      34.470  30.940  27.682  1.00  0.00     0.251 C 
ATOM     26  H   UNL A   1      32.984  30.885  26.341  1.00  0.00     0.163 HD
ATOM     27  O   UNL A   1      34.048  31.976  28.207  1.00  0.00    -0.269 OA
BRANCH  25  28
ATOM     28  C   UNL A   1      35.751  30.363  28.161  1.00  0.00     0.039 A 
ATOM     29  C   UNL A   1      35.763  29.687  29.387  1.00  0.00     0.014 A 
ATOM     30  C   UNL A   1      36.954  30.556  27.472  1.00  0.00     0.014 A 
ATOM     31  C   UNL A   1      36.961  29.184  29.907  1.00  0.00     0.010 A 
ATOM     32  C   UNL A   1      38.148  30.024  27.977  1.00  0.00     0.010 A 
ATOM     33  C   UNL A   1      38.166  29.340  29.204  1.00  0.00    -0.014 A 
BRANCH  33  34
ATOM     34  C   UNL A   1      39.441  28.800  29.754  1.00  0.00     0.031 A 
ATOM     35  C   UNL A   1      40.068  29.405  30.982  1.00  0.00     0.074 A 
ATOM     36  C   UNL A   1      40.063  27.778  29.132  1.00  0.00     0.049 A 
ATOM     37  N   UNL A   1      41.185  29.079  31.586  1.00  0.00    -0.248 NA
ATOM     38  C   UNL A   1      39.357  30.532  31.603  1.00  0.00     0.031 C 
ATOM     39  C   UNL A   1      39.591  27.119  27.914  1.00  0.00     0.029 A 
ATOM     40  N   UNL A   1      41.234  27.125  29.433  1.00  0.00    -0.354 N 
ATOM     41  C   UNL A   1      41.319  29.969  32.645  1.00  0.00     0.074 A 
ATOM     42  C   UNL A   1      40.184  30.865  32.587  1.00  0.00     0.031 C 
ATOM     43  C   UNL A   1      40.464  26.157  27.571  1.00  0.00     0.029 A 
ATOM     44  C   UNL A   1      41.565  26.143  28.530  1.00  0.00     0.049 A 
ATOM     45  H   UNL A   1      41.784  27.341  30.220  1.00  0.00     0.167 HD
ATOM     46  C   UNL A   1      42.291  30.027  33.588  1.00  0.00     0.037 A 
ATOM     47  C   UNL A   1      42.636  25.328  28.475  1.00  0.00     0.037 A 
ATOM     48  C   UNL A   1      43.403  29.118  33.680  1.00  0.00     0.049 A 
ATOM     49  C   UNL A   1      43.691  25.403  29.543  1.00  0.00     0.074 A 
ATOM     50  C   UNL A   1      44.384  29.051  34.656  1.00  0.00     0.029 A 
ATOM     51  N   UNL A   1      43.688  28.121  32.761  1.00  0.00    -0.354 N 
ATOM     52  N   UNL A   1      43.757  26.195  30.585  1.00  0.00    -0.248 NA
ATOM     53  C   UNL A   1      44.818  24.463  29.433  1.00  0.00     0.031 C 
ATOM     54  C   UNL A   1      45.284  28.039  34.309  1.00  0.00     0.029 A 
ATOM     55  C   UNL A   1      44.843  27.452  33.134  1.00  0.00     0.049 A 
ATOM     56  H   UNL A   1      43.151  27.919  31.962  1.00  0.00     0.167 HD
ATOM     57  C   UNL A   1      44.915  25.835  31.263  1.00  0.00     0.074 A 
ATOM     58  C   UNL A   1      45.515  24.745  30.524  1.00  0.00     0.031 C 
ATOM     59  C   UNL A   1      45.432  26.365  32.398  1.00  0.00     0.037 A 
BRANCH  46  60
ATOM     60  C   UNL A   1      42.200  31.116  34.617  1.00  0.00     0.057 A 
ATOM     61  C   UNL A   1      42.813  32.360  34.428  1.00  0.00     0.134 A 
ATOM     62  C   UNL A   1      41.431  30.940  35.774  1.00  0.00     0.134 A 
ATOM     63  F   UNL A   1      43.566  32.590  33.342  1.00  0.00    -0.206 F 
ATOM     64  C   UNL A   1      42.675  33.389  35.362  1.00  0.00     0.040 A 
ATOM     65  C   UNL A   1      41.270  31.967  36.705  1.00  0.00     0.040 A 
ATOM     66  F   UNL A   1      40.810  29.774  36.008  1.00  0.00    -0.206 F 
ATOM     67  C   UNL A   1      41.895  33.196  36.501  1.00  0.00     0.006 A 
ENDBRANCH  46  60
BRANCH  47  68
ATOM     68  C   UNL A   1      42.769  24.357  27.361  1.00  0.00     0.057 A 
ATOM     69  C   UNL A   1      43.366  24.722  26.148  1.00  0.00     0.134 A 
ATOM     70  C   UNL A   1      42.282  23.050  27.475  1.00  0.00     0.134 A 
ATOM     71  F   UNL A   1      43.829  25.968  25.973  1.00  0.00    -0.206 F 
ATOM     72  C   UNL A   1      43.457  23.827  25.082  1.00  0.00     0.040 A 
ATOM     73  C   UNL A   1      42.386  22.138  26.424  1.00  0.00     0.040 A 
ATOM     74  F   UNL A   1      41.702  22.640  28.613  1.00  0.00    -0.206 F 
ATOM     75  C   UNL A   1      42.969  22.529  25.220  1.00  0.00     0.006 A 
ENDBRANCH  47  68
BRANCH  59  76
ATOM     76  C   UNL A   1      46.699  25.759  32.925  1.00  0.00     0.057 A 
ATOM     77  C   UNL A   1      46.683  24.697  33.836  1.00  0.00     0.134 A 
ATOM     78  C   UNL A   1      47.948  26.221  32.489  1.00  0.00     0.134 A 
ATOM     79  F   UNL A   1      45.520  24.218  34.303  1.00  0.00    -0.206 F 
ATOM     80  C   UNL A   1      47.866  24.124  34.309  1.00  0.00     0.040 A 
ATOM     81  C   UNL A   1      49.136  25.643  32.937  1.00  0.00     0.040 A 
ATOM     82  F   UNL A   1      48.031  27.231  31.611  1.00  0.00    -0.206 F 
ATOM     83  C   UNL A   1      49.097  24.594  33.854  1.00  0.00     0.006 A 
ENDBRANCH  59  76
ENDBRANCH  33  34
ENDBRANCH  25  28
ENDBRANCH  23  24
ENDBRANCH   1  23
TORSDOF 15
ENDMDL
