MODEL 1
REMARK VINA RESULT:     -10.7      0.000      0.000
REMARK SMILES CC[C@H](C)CN(CC)c1nc(C(=O)NCCCNC(=O)c2ccc(-c3c4nc(c(-c5c(F)cccc5F)c5ccc([nH]5)c(-c5c(F)cccc5F)c5nc(c(-c6c(F)cccc6F)c6ccc3[nH]6)C=C5)C=C4)cc2)cc2ccccc12
REMARK SMILES IDX 15 1 14 2 12 3 13 4 11 6 9 7 10 8 81 9 76 10 80 11 75 12
REMARK SMILES IDX 77 13 79 14 78 15 6 16 5 17 3 18 4 19 2 20 1 21 7 22 8 23
REMARK SMILES IDX 16 24 17 25 18 26 19 27 20 29 21 30 22 31 74 32 23 33 73 34
REMARK SMILES IDX 24 35 25 36 26 37 67 38 27 39 72 40 66 41 68 42 28 43 71 44
REMARK SMILES IDX 65 45 64 46 29 48 55 49 38 50 54 51 39 52 42 53 53 54 69 55
REMARK SMILES IDX 40 56 41 57 52 59 70 60 43 61 30 62 31 63 36 64 32 65 33 66
REMARK SMILES IDX 35 67 37 68 34 69 56 70 57 71 62 72 58 73 59 74 61 75 63 76
REMARK SMILES IDX 60 77 44 78 45 79 50 80 46 81 47 82 49 83 51 84 48 85
REMARK H PARENT 14 5 18 28 68 47 42 58
REMARK Flexibility Score: inf
ROOT
ATOM      1  C   UNL A   1      31.683  30.192  26.860  1.00  0.00     0.118 C 
ENDROOT
BRANCH   1   2
ATOM      2  N   UNL A   1      33.071  29.986  27.203  1.00  0.00    -0.351 N 
ATOM      3  C   UNL A   1      33.926  28.969  26.860  1.00  0.00     0.269 C 
ATOM      4  O   UNL A   1      35.058  29.014  27.352  1.00  0.00    -0.268 OA
ATOM      5  H   UNL A   1      33.465  30.685  27.773  1.00  0.00     0.163 HD
BRANCH   3   6
ATOM      6  C   UNL A   1      33.570  27.851  25.919  1.00  0.00     0.131 A 
ATOM      7  C   UNL A   1      32.518  25.814  25.486  1.00  0.00     0.137 A 
ATOM      8  N   UNL A   1      32.952  26.732  26.380  1.00  0.00    -0.225 NA
ATOM      9  C   UNL A   1      32.569  26.082  24.090  1.00  0.00     0.024 A 
ATOM     10  C   UNL A   1      33.357  27.162  23.648  1.00  0.00    -0.012 A 
ATOM     11  C   UNL A   1      31.891  25.339  23.101  1.00  0.00     0.012 A 
ATOM     12  C   UNL A   1      33.854  28.060  24.579  1.00  0.00     0.043 A 
ATOM     13  C   UNL A   1      33.625  27.330  22.278  1.00  0.00     0.009 A 
ATOM     14  C   UNL A   1      32.160  25.503  21.742  1.00  0.00     0.001 A 
ATOM     15  C   UNL A   1      33.063  26.475  21.334  1.00  0.00     0.001 A 
BRANCH   7  16
ATOM     16  N   UNL A   1      32.121  24.550  25.957  1.00  0.00    -0.356 N 
BRANCH  16  17
ATOM     17  C   UNL A   1      33.147  23.702  26.628  1.00  0.00     0.121 C 
BRANCH  17  18
ATOM     18  C   UNL A   1      34.050  22.937  25.631  1.00  0.00     0.005 C 
ATOM     19  C   UNL A   1      33.214  22.282  24.524  1.00  0.00     0.009 C 
BRANCH  18  20
ATOM     20  C   UNL A   1      35.198  23.758  25.009  1.00  0.00     0.002 C 
ATOM     21  C   UNL A   1      35.218  23.576  23.486  1.00  0.00     0.004 C 
ENDBRANCH  18  20
ENDBRANCH  17  18
ENDBRANCH  16  17
BRANCH  16  22
ATOM     22  C   UNL A   1      30.734  24.394  26.410  1.00  0.00     0.114 C 
ATOM     23  C   UNL A   1      30.323  22.967  26.736  1.00  0.00     0.027 C 
ENDBRANCH  16  22
ENDBRANCH   7  16
ENDBRANCH   3   6
ENDBRANCH   1   2
BRANCH   1  24
ATOM     24  C   UNL A   1      31.309  31.660  26.797  1.00  0.00     0.042 C 
BRANCH  24  25
ATOM     25  C   UNL A   1      32.489  32.585  26.572  1.00  0.00     0.118 C 
BRANCH  25  26
ATOM     26  N   UNL A   1      32.355  33.857  27.273  1.00  0.00    -0.352 N 
ATOM     27  C   UNL A   1      33.054  34.359  28.344  1.00  0.00     0.251 C 
ATOM     28  H   UNL A   1      31.651  34.450  26.925  1.00  0.00     0.163 HD
ATOM     29  O   UNL A   1      32.663  35.380  28.906  1.00  0.00    -0.269 OA
BRANCH  27  30
ATOM     30  C   UNL A   1      34.255  33.659  28.845  1.00  0.00     0.039 A 
ATOM     31  C   UNL A   1      35.512  34.236  28.648  1.00  0.00     0.014 A 
ATOM     32  C   UNL A   1      34.148  32.439  29.515  1.00  0.00     0.014 A 
ATOM     33  C   UNL A   1      36.644  33.633  29.199  1.00  0.00     0.010 A 
ATOM     34  C   UNL A   1      35.255  31.906  30.164  1.00  0.00     0.010 A 
ATOM     35  C   UNL A   1      36.519  32.489  30.004  1.00  0.00    -0.014 A 
BRANCH  35  36
ATOM     36  C   UNL A   1      37.693  31.877  30.676  1.00  0.00     0.031 A 
ATOM     37  C   UNL A   1      38.498  30.820  29.970  1.00  0.00     0.074 A 
ATOM     38  C   UNL A   1      37.988  32.216  31.946  1.00  0.00     0.049 A 
ATOM     39  N   UNL A   1      39.505  30.111  30.415  1.00  0.00    -0.248 NA
ATOM     40  C   UNL A   1      38.099  30.491  28.592  1.00  0.00     0.031 C 
ATOM     41  C   UNL A   1      37.252  33.187  32.759  1.00  0.00     0.029 A 
ATOM     42  N   UNL A   1      38.985  31.776  32.780  1.00  0.00    -0.354 N 
ATOM     43  C   UNL A   1      39.844  29.247  29.382  1.00  0.00     0.074 A 
ATOM     44  C   UNL A   1      38.895  29.471  28.313  1.00  0.00     0.031 C 
ATOM     45  C   UNL A   1      37.840  33.290  33.962  1.00  0.00     0.029 A 
ATOM     46  C   UNL A   1      38.963  32.362  34.023  1.00  0.00     0.049 A 
ATOM     47  H   UNL A   1      39.652  31.102  32.514  1.00  0.00     0.167 HD
ATOM     48  C   UNL A   1      40.869  28.365  29.316  1.00  0.00     0.037 A 
ATOM     49  C   UNL A   1      39.756  32.168  35.094  1.00  0.00     0.037 A 
ATOM     50  C   UNL A   1      41.824  28.163  30.373  1.00  0.00     0.049 A 
ATOM     51  C   UNL A   1      40.881  31.174  35.002  1.00  0.00     0.074 A 
ATOM     52  C   UNL A   1      42.936  27.338  30.382  1.00  0.00     0.029 A 
ATOM     53  N   UNL A   1      41.778  28.787  31.610  1.00  0.00    -0.354 N 
ATOM     54  N   UNL A   1      41.235  30.417  33.992  1.00  0.00    -0.248 NA
ATOM     55  C   UNL A   1      41.721  31.014  36.196  1.00  0.00     0.031 C 
ATOM     56  C   UNL A   1      43.531  27.423  31.645  1.00  0.00     0.029 A 
ATOM     57  C   UNL A   1      42.826  28.347  32.401  1.00  0.00     0.049 A 
ATOM     58  H   UNL A   1      41.100  29.446  31.885  1.00  0.00     0.167 HD
ATOM     59  C   UNL A   1      42.354  29.713  34.417  1.00  0.00     0.074 A 
ATOM     60  C   UNL A   1      42.629  30.146  35.771  1.00  0.00     0.031 C 
ATOM     61  C   UNL A   1      43.090  28.793  33.746  1.00  0.00     0.037 A 
BRANCH  48  62
ATOM     62  C   UNL A   1      41.009  27.558  28.057  1.00  0.00     0.057 A 
ATOM     63  C   UNL A   1      41.739  28.024  26.954  1.00  0.00     0.134 A 
ATOM     64  C   UNL A   1      40.428  26.288  27.954  1.00  0.00     0.134 A 
ATOM     65  F   UNL A   1      42.312  29.236  26.980  1.00  0.00    -0.206 F 
ATOM     66  C   UNL A   1      41.858  27.269  25.785  1.00  0.00     0.040 A 
ATOM     67  C   UNL A   1      40.568  25.512  26.802  1.00  0.00     0.040 A 
ATOM     68  F   UNL A   1      39.720  25.776  28.972  1.00  0.00    -0.206 F 
ATOM     69  C   UNL A   1      41.278  26.005  25.710  1.00  0.00     0.006 A 
ENDBRANCH  48  62
BRANCH  49  70
ATOM     70  C   UNL A   1      39.528  32.945  36.339  1.00  0.00     0.057 A 
ATOM     71  C   UNL A   1      40.195  34.154  36.569  1.00  0.00     0.134 A 
ATOM     72  C   UNL A   1      38.646  32.498  37.331  1.00  0.00     0.134 A 
ATOM     73  F   UNL A   1      41.065  34.626  35.664  1.00  0.00    -0.206 F 
ATOM     74  C   UNL A   1      40.012  34.881  37.747  1.00  0.00     0.040 A 
ATOM     75  C   UNL A   1      38.432  33.228  38.502  1.00  0.00     0.040 A 
ATOM     76  F   UNL A   1      37.969  31.352  37.170  1.00  0.00    -0.206 F 
ATOM     77  C   UNL A   1      39.123  34.420  38.715  1.00  0.00     0.006 A 
ENDBRANCH  49  70
BRANCH  61  78
ATOM     78  C   UNL A   1      44.286  28.221  34.450  1.00  0.00     0.057 A 
ATOM     79  C   UNL A   1      44.218  27.032  35.187  1.00  0.00     0.134 A 
ATOM     80  C   UNL A   1      45.534  28.851  34.355  1.00  0.00     0.134 A 
ATOM     81  F   UNL A   1      43.051  26.385  35.328  1.00  0.00    -0.206 F 
ATOM     82  C   UNL A   1      45.341  26.502  35.823  1.00  0.00     0.040 A 
ATOM     83  C   UNL A   1      46.671  28.316  34.960  1.00  0.00     0.040 A 
ATOM     84  F   UNL A   1      45.673  29.989  33.657  1.00  0.00    -0.206 F 
ATOM     85  C   UNL A   1      46.575  27.141  35.703  1.00  0.00     0.006 A 
ENDBRANCH  61  78
ENDBRANCH  35  36
ENDBRANCH  27  30
ENDBRANCH  25  26
ENDBRANCH  24  25
ENDBRANCH   1  24
TORSDOF 15
ENDMDL
MODEL 2
REMARK VINA RESULT:     -10.6      3.584      7.680
REMARK SMILES CC[C@H](C)CN(CC)c1nc(C(=O)NCCCNC(=O)c2ccc(-c3c4nc(c(-c5c(F)cccc5F)c5ccc([nH]5)c(-c5c(F)cccc5F)c5nc(c(-c6c(F)cccc6F)c6ccc3[nH]6)C=C5)C=C4)cc2)cc2ccccc12
REMARK SMILES IDX 15 1 14 2 12 3 13 4 11 6 9 7 10 8 81 9 76 10 80 11 75 12
REMARK SMILES IDX 77 13 79 14 78 15 6 16 5 17 3 18 4 19 2 20 1 21 7 22 8 23
REMARK SMILES IDX 16 24 17 25 18 26 19 27 20 29 21 30 22 31 74 32 23 33 73 34
REMARK SMILES IDX 24 35 25 36 26 37 67 38 27 39 72 40 66 41 68 42 28 43 71 44
REMARK SMILES IDX 65 45 64 46 29 48 55 49 38 50 54 51 39 52 42 53 53 54 69 55
REMARK SMILES IDX 40 56 41 57 52 59 70 60 43 61 30 62 31 63 36 64 32 65 33 66
REMARK SMILES IDX 35 67 37 68 34 69 56 70 57 71 62 72 58 73 59 74 61 75 63 76
REMARK SMILES IDX 60 77 44 78 45 79 50 80 46 81 47 82 49 83 51 84 48 85
REMARK H PARENT 14 5 18 28 68 47 42 58
REMARK Flexibility Score: inf
ROOT
ATOM      1  C   UNL A   1      32.778  26.896  25.342  1.00  0.00     0.118 C 
ENDROOT
BRANCH   1   2
ATOM      2  N   UNL A   1      32.954  26.609  23.937  1.00  0.00    -0.351 N 
ATOM      3  C   UNL A   1      33.607  25.571  23.320  1.00  0.00     0.269 C 
ATOM      4  O   UNL A   1      33.655  25.609  22.086  1.00  0.00    -0.268 OA
ATOM      5  H   UNL A   1      32.541  27.260  23.327  1.00  0.00     0.163 HD
BRANCH   3   6
ATOM      6  C   UNL A   1      34.223  24.411  24.052  1.00  0.00     0.131 A 
ATOM      7  C   UNL A   1      34.143  22.200  24.792  1.00  0.00     0.137 A 
ATOM      8  N   UNL A   1      33.512  23.271  24.259  1.00  0.00    -0.225 NA
ATOM      9  C   UNL A   1      35.551  22.214  24.990  1.00  0.00     0.024 A 
ATOM     10  C   UNL A   1      36.222  23.450  24.924  1.00  0.00    -0.012 A 
ATOM     11  C   UNL A   1      36.340  21.074  25.258  1.00  0.00     0.012 A 
ATOM     12  C   UNL A   1      35.545  24.559  24.440  1.00  0.00     0.043 A 
ATOM     13  C   UNL A   1      37.562  23.553  25.335  1.00  0.00     0.009 A 
ATOM     14  C   UNL A   1      37.668  21.177  25.670  1.00  0.00     0.001 A 
ATOM     15  C   UNL A   1      38.267  22.426  25.748  1.00  0.00     0.001 A 
BRANCH   7  16
ATOM     16  N   UNL A   1      33.368  21.119  25.247  1.00  0.00    -0.356 N 
BRANCH  16  17
ATOM     17  C   UNL A   1      33.159  19.971  24.318  1.00  0.00     0.121 C 
BRANCH  17  18
ATOM     18  C   UNL A   1      33.522  18.605  24.948  1.00  0.00     0.005 C 
ATOM     19  C   UNL A   1      32.290  17.693  25.028  1.00  0.00     0.009 C 
BRANCH  18  20
ATOM     20  C   UNL A   1      34.692  17.854  24.280  1.00  0.00     0.002 C 
ATOM     21  C   UNL A   1      34.165  16.900  23.202  1.00  0.00     0.004 C 
ENDBRANCH  18  20
ENDBRANCH  17  18
ENDBRANCH  16  17
BRANCH  16  22
ATOM     22  C   UNL A   1      33.397  20.812  26.682  1.00  0.00     0.114 C 
ATOM     23  C   UNL A   1      33.317  22.023  27.598  1.00  0.00     0.027 C 
ENDBRANCH  16  22
ENDBRANCH   7  16
ENDBRANCH   3   6
ENDBRANCH   1   2
BRANCH   1  24
ATOM     24  C   UNL A   1      33.593  28.089  25.801  1.00  0.00     0.042 C 
BRANCH  24  25
ATOM     25  C   UNL A   1      33.459  28.391  27.281  1.00  0.00     0.118 C 
BRANCH  25  26
ATOM     26  N   UNL A   1      33.500  29.819  27.575  1.00  0.00    -0.352 N 
ATOM     27  C   UNL A   1      34.507  30.588  28.106  1.00  0.00     0.251 C 
ATOM     28  H   UNL A   1      32.675  30.310  27.359  1.00  0.00     0.163 HD
ATOM     29  O   UNL A   1      34.277  31.746  28.448  1.00  0.00    -0.269 OA
BRANCH  27  30
ATOM     30  C   UNL A   1      35.857  30.019  28.301  1.00  0.00     0.039 A 
ATOM     31  C   UNL A   1      36.769  30.051  27.243  1.00  0.00     0.014 A 
ATOM     32  C   UNL A   1      36.231  29.461  29.524  1.00  0.00     0.014 A 
ATOM     33  C   UNL A   1      38.076  29.604  27.443  1.00  0.00     0.010 A 
ATOM     34  C   UNL A   1      37.560  29.130  29.757  1.00  0.00     0.010 A 
ATOM     35  C   UNL A   1      38.496  29.185  28.716  1.00  0.00    -0.014 A 
BRANCH  35  36
ATOM     36  C   UNL A   1      39.903  28.789  28.981  1.00  0.00     0.031 A 
ATOM     37  C   UNL A   1      40.852  29.767  29.620  1.00  0.00     0.074 A 
ATOM     38  C   UNL A   1      40.344  27.581  28.581  1.00  0.00     0.049 A 
ATOM     39  N   UNL A   1      42.133  29.640  29.860  1.00  0.00    -0.248 NA
ATOM     40  C   UNL A   1      40.297  31.073  30.011  1.00  0.00     0.031 C 
ATOM     41  C   UNL A   1      39.538  26.565  27.901  1.00  0.00     0.029 A 
ATOM     42  N   UNL A   1      41.586  27.005  28.680  1.00  0.00    -0.354 N 
ATOM     43  C   UNL A   1      42.535  30.851  30.411  1.00  0.00     0.074 A 
ATOM     44  C   UNL A   1      41.380  31.722  30.407  1.00  0.00     0.031 C 
ATOM     45  C   UNL A   1      40.296  25.480  27.674  1.00  0.00     0.029 A 
ATOM     46  C   UNL A   1      41.652  25.740  28.147  1.00  0.00     0.049 A 
ATOM     47  H   UNL A   1      42.357  27.455  29.094  1.00  0.00     0.167 HD
ATOM     48  C   UNL A   1      43.748  31.197  30.901  1.00  0.00     0.037 A 
ATOM     49  C   UNL A   1      42.689  24.889  28.044  1.00  0.00     0.037 A 
ATOM     50  C   UNL A   1      44.887  30.319  30.924  1.00  0.00     0.049 A 
ATOM     51  C   UNL A   1      44.031  25.301  28.585  1.00  0.00     0.074 A 
ATOM     52  C   UNL A   1      46.144  30.553  31.453  1.00  0.00     0.029 A 
ATOM     53  N   UNL A   1      44.909  29.040  30.388  1.00  0.00    -0.354 N 
ATOM     54  N   UNL A   1      44.378  26.422  29.169  1.00  0.00    -0.248 NA
ATOM     55  C   UNL A   1      45.123  24.326  28.457  1.00  0.00     0.031 C 
ATOM     56  C   UNL A   1      46.943  29.435  31.190  1.00  0.00     0.029 A 
ATOM     57  C   UNL A   1      46.166  28.481  30.550  1.00  0.00     0.049 A 
ATOM     58  H   UNL A   1      44.144  28.596  29.956  1.00  0.00     0.167 HD
ATOM     59  C   UNL A   1      45.718  26.276  29.506  1.00  0.00     0.074 A 
ATOM     60  C   UNL A   1      46.116  24.953  29.074  1.00  0.00     0.031 C 
ATOM     61  C   UNL A   1      46.544  27.159  30.120  1.00  0.00     0.037 A 
BRANCH  48  62
ATOM     62  C   UNL A   1      43.901  32.586  31.455  1.00  0.00     0.057 A 
ATOM     63  C   UNL A   1      43.651  32.878  32.804  1.00  0.00     0.134 A 
ATOM     64  C   UNL A   1      44.326  33.640  30.637  1.00  0.00     0.134 A 
ATOM     65  F   UNL A   1      43.229  31.919  33.641  1.00  0.00    -0.206 F 
ATOM     66  C   UNL A   1      43.789  34.172  33.309  1.00  0.00     0.040 A 
ATOM     67  C   UNL A   1      44.498  34.931  31.139  1.00  0.00     0.040 A 
ATOM     68  F   UNL A   1      44.589  33.432  29.337  1.00  0.00    -0.206 F 
ATOM     69  C   UNL A   1      44.222  35.202  32.477  1.00  0.00     0.006 A 
ENDBRANCH  48  62
BRANCH  49  70
ATOM     70  C   UNL A   1      42.497  23.554  27.422  1.00  0.00     0.057 A 
ATOM     71  C   UNL A   1      42.208  22.428  28.203  1.00  0.00     0.134 A 
ATOM     72  C   UNL A   1      42.605  23.367  26.039  1.00  0.00     0.134 A 
ATOM     73  F   UNL A   1      42.109  22.539  29.536  1.00  0.00    -0.206 F 
ATOM     74  C   UNL A   1      42.053  21.162  27.635  1.00  0.00     0.040 A 
ATOM     75  C   UNL A   1      42.425  22.112  25.454  1.00  0.00     0.040 A 
ATOM     76  F   UNL A   1      42.872  24.405  25.233  1.00  0.00    -0.206 F 
ATOM     77  C   UNL A   1      42.156  21.003  26.255  1.00  0.00     0.006 A 
ENDBRANCH  49  70
BRANCH  61  78
ATOM     78  C   UNL A   1      47.950  26.709  30.397  1.00  0.00     0.057 A 
ATOM     79  C   UNL A   1      48.300  26.050  31.583  1.00  0.00     0.134 A 
ATOM     80  C   UNL A   1      48.958  26.903  29.444  1.00  0.00     0.134 A 
ATOM     81  F   UNL A   1      47.384  25.844  32.542  1.00  0.00    -0.206 F 
ATOM     82  C   UNL A   1      49.606  25.622  31.821  1.00  0.00     0.040 A 
ATOM     83  C   UNL A   1      50.261  26.452  29.656  1.00  0.00     0.040 A 
ATOM     84  F   UNL A   1      48.690  27.518  28.282  1.00  0.00    -0.206 F 
ATOM     85  C   UNL A   1      50.590  25.816  30.852  1.00  0.00     0.006 A 
ENDBRANCH  61  78
ENDBRANCH  35  36
ENDBRANCH  27  30
ENDBRANCH  25  26
ENDBRANCH  24  25
ENDBRANCH   1  24
TORSDOF 15
ENDMDL
MODEL 3
REMARK VINA RESULT:     -10.6      4.888      9.906
REMARK SMILES CC[C@H](C)CN(CC)c1nc(C(=O)NCCCNC(=O)c2ccc(-c3c4nc(c(-c5c(F)cccc5F)c5ccc([nH]5)c(-c5c(F)cccc5F)c5nc(c(-c6c(F)cccc6F)c6ccc3[nH]6)C=C5)C=C4)cc2)cc2ccccc12
REMARK SMILES IDX 15 1 14 2 12 3 13 4 11 6 9 7 10 8 81 9 76 10 80 11 75 12
REMARK SMILES IDX 77 13 79 14 78 15 6 16 5 17 3 18 4 19 2 20 1 21 7 22 8 23
REMARK SMILES IDX 16 24 17 25 18 26 19 27 20 29 21 30 22 31 74 32 23 33 73 34
REMARK SMILES IDX 24 35 25 36 26 37 67 38 27 39 72 40 66 41 68 42 28 43 71 44
REMARK SMILES IDX 65 45 64 46 29 48 55 49 38 50 54 51 39 52 42 53 53 54 69 55
REMARK SMILES IDX 40 56 41 57 52 59 70 60 43 61 30 62 31 63 36 64 32 65 33 66
REMARK SMILES IDX 35 67 37 68 34 69 56 70 57 71 62 72 58 73 59 74 61 75 63 76
REMARK SMILES IDX 60 77 44 78 45 79 50 80 46 81 47 82 49 83 51 84 48 85
REMARK H PARENT 14 5 18 28 68 47 42 58
REMARK Flexibility Score: inf
ROOT
ATOM      1  C   UNL A   1      37.257  21.361  24.637  1.00  0.00     0.118 C 
ENDROOT
BRANCH   1   2
ATOM      2  N   UNL A   1      37.847  22.501  25.301  1.00  0.00    -0.351 N 
ATOM      3  C   UNL A   1      37.268  23.663  25.747  1.00  0.00     0.269 C 
ATOM      4  O   UNL A   1      38.031  24.505  26.230  1.00  0.00    -0.268 OA
ATOM      5  H   UNL A   1      38.815  22.433  25.458  1.00  0.00     0.163 HD
BRANCH   3   6
ATOM      6  C   UNL A   1      35.790  23.937  25.704  1.00  0.00     0.131 A 
ATOM      7  C   UNL A   1      33.931  24.911  24.683  1.00  0.00     0.137 A 
ATOM      8  N   UNL A   1      35.276  24.799  24.787  1.00  0.00    -0.225 NA
ATOM      9  C   UNL A   1      33.074  24.037  25.409  1.00  0.00     0.024 A 
ATOM     10  C   UNL A   1      33.627  23.282  26.460  1.00  0.00    -0.012 A 
ATOM     11  C   UNL A   1      31.695  23.871  25.161  1.00  0.00     0.012 A 
ATOM     12  C   UNL A   1      35.006  23.229  26.599  1.00  0.00     0.043 A 
ATOM     13  C   UNL A   1      32.791  22.585  27.349  1.00  0.00     0.009 A 
ATOM     14  C   UNL A   1      30.865  23.182  26.045  1.00  0.00     0.001 A 
ATOM     15  C   UNL A   1      31.411  22.573  27.165  1.00  0.00     0.001 A 
BRANCH   7  16
ATOM     16  N   UNL A   1      33.399  25.974  23.934  1.00  0.00    -0.356 N 
BRANCH  16  17
ATOM     17  C   UNL A   1      33.263  27.299  24.604  1.00  0.00     0.121 C 
BRANCH  17  18
ATOM     18  C   UNL A   1      31.799  27.654  24.958  1.00  0.00     0.005 C 
ATOM     19  C   UNL A   1      31.511  27.379  26.441  1.00  0.00     0.009 C 
BRANCH  18  20
ATOM     20  C   UNL A   1      31.352  29.083  24.590  1.00  0.00     0.002 C 
ATOM     21  C   UNL A   1      30.278  29.040  23.496  1.00  0.00     0.004 C 
ENDBRANCH  18  20
ENDBRANCH  17  18
ENDBRANCH  16  17
BRANCH  16  22
ATOM     22  C   UNL A   1      33.652  25.987  22.488  1.00  0.00     0.114 C 
ATOM     23  C   UNL A   1      32.514  25.451  21.634  1.00  0.00     0.027 C 
ENDBRANCH  16  22
ENDBRANCH   7  16
ENDBRANCH   3   6
ENDBRANCH   1   2
BRANCH   1  24
ATOM     24  C   UNL A   1      37.939  20.057  24.998  1.00  0.00     0.042 C 
BRANCH  24  25
ATOM     25  C   UNL A   1      39.015  20.200  26.058  1.00  0.00     0.118 C 
BRANCH  25  26
ATOM     26  N   UNL A   1      40.034  19.160  25.975  1.00  0.00    -0.352 N 
ATOM     27  C   UNL A   1      41.404  19.253  26.027  1.00  0.00     0.251 C 
ATOM     28  H   UNL A   1      39.686  18.246  25.864  1.00  0.00     0.163 HD
ATOM     29  O   UNL A   1      42.095  18.274  25.754  1.00  0.00    -0.269 OA
BRANCH  27  30
ATOM     30  C   UNL A   1      42.052  20.534  26.378  1.00  0.00     0.039 A 
ATOM     31  C   UNL A   1      42.466  21.391  25.355  1.00  0.00     0.014 A 
ATOM     32  C   UNL A   1      42.246  20.900  27.711  1.00  0.00     0.014 A 
ATOM     33  C   UNL A   1      42.992  22.644  25.672  1.00  0.00     0.010 A 
ATOM     34  C   UNL A   1      42.655  22.190  28.023  1.00  0.00     0.010 A 
ATOM     35  C   UNL A   1      43.045  23.074  27.008  1.00  0.00    -0.014 A 
BRANCH  35  36
ATOM     36  C   UNL A   1      43.515  24.435  27.371  1.00  0.00     0.031 A 
ATOM     37  C   UNL A   1      42.525  25.483  27.804  1.00  0.00     0.074 A 
ATOM     38  C   UNL A   1      44.819  24.750  27.240  1.00  0.00     0.049 A 
ATOM     39  N   UNL A   1      42.726  26.746  28.083  1.00  0.00    -0.248 NA
ATOM     40  C   UNL A   1      41.117  25.066  27.903  1.00  0.00     0.031 C 
ATOM     41  C   UNL A   1      45.869  23.840  26.777  1.00  0.00     0.029 A 
ATOM     42  N   UNL A   1      45.482  25.927  27.476  1.00  0.00    -0.354 N 
ATOM     43  C   UNL A   1      41.473  27.272  28.373  1.00  0.00     0.074 A 
ATOM     44  C   UNL A   1      40.511  26.212  28.170  1.00  0.00     0.031 C 
ATOM     45  C   UNL A   1      47.047  24.483  26.794  1.00  0.00     0.029 A 
ATOM     46  C   UNL A   1      46.831  25.861  27.221  1.00  0.00     0.049 A 
ATOM     47  H   UNL A   1      45.034  26.743  27.797  1.00  0.00     0.167 HD
ATOM     48  C   UNL A   1      41.155  28.518  28.797  1.00  0.00     0.037 A 
ATOM     49  C   UNL A   1      47.785  26.807  27.314  1.00  0.00     0.037 A 
ATOM     50  C   UNL A   1      42.118  29.562  29.020  1.00  0.00     0.049 A 
ATOM     51  C   UNL A   1      47.404  28.187  27.775  1.00  0.00     0.074 A 
ATOM     52  C   UNL A   1      41.906  30.840  29.507  1.00  0.00     0.029 A 
ATOM     53  N   UNL A   1      43.477  29.451  28.765  1.00  0.00    -0.354 N 
ATOM     54  N   UNL A   1      46.226  28.650  28.117  1.00  0.00    -0.248 NA
ATOM     55  C   UNL A   1      48.488  29.174  27.872  1.00  0.00     0.031 C 
ATOM     56  C   UNL A   1      43.128  31.520  29.495  1.00  0.00     0.029 A 
ATOM     57  C   UNL A   1      44.112  30.647  29.060  1.00  0.00     0.049 A 
ATOM     58  H   UNL A   1      43.923  28.642  28.425  1.00  0.00     0.167 HD
ATOM     59  C   UNL A   1      46.431  29.970  28.496  1.00  0.00     0.074 A 
ATOM     60  C   UNL A   1      47.849  30.229  28.357  1.00  0.00     0.031 C 
ATOM     61  C   UNL A   1      45.526  30.886  28.922  1.00  0.00     0.037 A 
BRANCH  48  62
ATOM     62  C   UNL A   1      39.703  28.813  29.049  1.00  0.00     0.057 A 
ATOM     63  C   UNL A   1      39.131  28.689  30.323  1.00  0.00     0.134 A 
ATOM     64  C   UNL A   1      38.872  29.252  28.011  1.00  0.00     0.134 A 
ATOM     65  F   UNL A   1      39.867  28.262  31.360  1.00  0.00    -0.206 F 
ATOM     66  C   UNL A   1      37.780  28.959  30.547  1.00  0.00     0.040 A 
ATOM     67  C   UNL A   1      37.527  29.556  28.230  1.00  0.00     0.040 A 
ATOM     68  F   UNL A   1      39.353  29.399  26.767  1.00  0.00    -0.206 F 
ATOM     69  C   UNL A   1      36.976  29.402  29.500  1.00  0.00     0.006 A 
ENDBRANCH  48  62
BRANCH  49  70
ATOM     70  C   UNL A   1      49.195  26.477  26.984  1.00  0.00     0.057 A 
ATOM     71  C   UNL A   1      50.090  26.057  27.976  1.00  0.00     0.134 A 
ATOM     72  C   UNL A   1      49.685  26.579  25.677  1.00  0.00     0.134 A 
ATOM     73  F   UNL A   1      49.685  25.957  29.251  1.00  0.00    -0.206 F 
ATOM     74  C   UNL A   1      51.425  25.770  27.685  1.00  0.00     0.040 A 
ATOM     75  C   UNL A   1      51.010  26.269  25.366  1.00  0.00     0.040 A 
ATOM     76  F   UNL A   1      48.878  26.966  24.679  1.00  0.00    -0.206 F 
ATOM     77  C   UNL A   1      51.887  25.871  26.375  1.00  0.00     0.006 A 
ENDBRANCH  49  70
BRANCH  61  78
ATOM     78  C   UNL A   1      46.047  32.241  29.308  1.00  0.00     0.057 A 
ATOM     79  C   UNL A   1      46.488  32.526  30.606  1.00  0.00     0.134 A 
ATOM     80  C   UNL A   1      46.144  33.262  28.354  1.00  0.00     0.134 A 
ATOM     81  F   UNL A   1      46.410  31.597  31.571  1.00  0.00    -0.206 F 
ATOM     82  C   UNL A   1      46.985  33.784  30.947  1.00  0.00     0.040 A 
ATOM     83  C   UNL A   1      46.668  34.514  28.674  1.00  0.00     0.040 A 
ATOM     84  F   UNL A   1      45.748  33.053  27.088  1.00  0.00    -0.206 F 
ATOM     85  C   UNL A   1      47.083  34.781  29.977  1.00  0.00     0.006 A 
ENDBRANCH  61  78
ENDBRANCH  35  36
ENDBRANCH  27  30
ENDBRANCH  25  26
ENDBRANCH  24  25
ENDBRANCH   1  24
TORSDOF 15
ENDMDL
