MODEL 1
REMARK VINA RESULT:     -11.3      0.000      0.000
REMARK SMILES C[N@H+]1CCO[C@H](CNc2nccnc2C(=O)NCCCNC(=O)c2ccc(-c3c4nc(c(-c5c(F)cccc5F)c5ccc([nH]5)c(-c5c(F)cccc5F)c5nc(c(-c6c(F)cccc6F)c6ccc3[nH]6)C=C5)C=C4)cc2)C1
REMARK SMILES IDX 18 1 17 2 15 3 16 4 14 6 9 7 10 8 11 9 13 10 12 11 8 12 7 14
REMARK SMILES IDX 6 15 1 16 2 17 3 18 78 19 4 21 5 22 19 23 20 24 21 25 22 26
REMARK SMILES IDX 23 28 24 29 25 30 77 31 26 32 76 33 27 34 28 35 29 36 70 37
REMARK SMILES IDX 30 38 75 39 69 40 71 41 31 42 74 43 68 44 67 45 32 47 58 48
REMARK SMILES IDX 41 49 57 50 42 51 45 52 56 53 72 54 43 55 44 56 55 58 73 59
REMARK SMILES IDX 46 60 33 61 34 62 39 63 35 64 36 65 38 66 40 67 37 68 59 69
REMARK SMILES IDX 60 70 65 71 61 72 62 73 64 74 66 75 63 76 47 77 48 78 53 79
REMARK SMILES IDX 49 80 50 81 52 82 54 83 51 84
REMARK H PARENT 17 5 8 13 2 20 21 27 71 46 45 57
REMARK Flexibility Score: inf
ROOT
ATOM      1  C   UNL A   1      33.068  29.302  24.893  1.00  0.00     0.118 C 
ENDROOT
BRANCH   1   2
ATOM      2  N   UNL A   1      33.702  29.165  23.600  1.00  0.00    -0.351 N 
ATOM      3  C   UNL A   1      33.674  28.184  22.635  1.00  0.00     0.273 C 
ATOM      4  O   UNL A   1      34.394  28.394  21.651  1.00  0.00    -0.267 OA
ATOM      5  H   UNL A   1      34.269  29.934  23.360  1.00  0.00     0.163 HD
BRANCH   3   6
ATOM      6  C   UNL A   1      32.785  26.974  22.630  1.00  0.00     0.170 A 
ATOM      7  C   UNL A   1      31.377  26.983  22.586  1.00  0.00     0.157 A 
ATOM      8  N   UNL A   1      30.684  25.849  22.888  1.00  0.00    -0.235 NA
ATOM      9  C   UNL A   1      31.389  24.753  23.236  1.00  0.00     0.133 A 
ATOM     10  N   UNL A   1      33.488  25.833  22.945  1.00  0.00    -0.246 NA
ATOM     11  C   UNL A   1      32.765  24.742  23.257  1.00  0.00     0.132 A 
BRANCH   7  12
ATOM     12  N   UNL A   1      30.593  28.071  22.290  1.00  0.00    -0.365 N 
ATOM     13  H   UNL A   1      30.932  28.765  21.681  1.00  0.00     0.162 HD
BRANCH  12  14
ATOM     14  C   UNL A   1      29.266  28.208  22.871  1.00  0.00     0.152 C 
BRANCH  14  15
ATOM     15  C   UNL A   1      28.604  29.551  22.470  1.00  0.00     0.192 C 
ATOM     16  C   UNL A   1      27.996  31.724  20.282  1.00  0.00     0.332 C 
ATOM     17  N   UNL A   1      29.068  31.747  21.275  1.00  0.00    -0.333 N 
ATOM     18  C   UNL A   1      28.617  32.393  22.521  1.00  0.00     0.290 C 
ATOM     19  C   UNL A   1      29.568  30.396  21.603  1.00  0.00     0.296 C 
ATOM     20  H   UNL A   1      29.830  32.279  20.854  1.00  0.00     0.348 HD
ATOM     21  C   UNL A   1      27.649  31.550  23.360  1.00  0.00     0.222 C 
ATOM     22  O   UNL A   1      28.194  30.265  23.654  1.00  0.00    -0.365 OA
ENDBRANCH  14  15
ENDBRANCH  12  14
ENDBRANCH   7  12
ENDBRANCH   3   6
ENDBRANCH   1   2
BRANCH   1  23
ATOM     23  C   UNL A   1      33.491  28.159  25.828  1.00  0.00     0.042 C 
BRANCH  23  24
ATOM     24  C   UNL A   1      33.265  28.443  27.318  1.00  0.00     0.118 C 
BRANCH  24  25
ATOM     25  N   UNL A   1      33.467  29.852  27.623  1.00  0.00    -0.352 N 
ATOM     26  C   UNL A   1      34.517  30.554  28.157  1.00  0.00     0.251 C 
ATOM     27  H   UNL A   1      32.691  30.417  27.401  1.00  0.00     0.163 HD
ATOM     28  O   UNL A   1      34.283  31.693  28.561  1.00  0.00    -0.269 OA
BRANCH  26  29
ATOM     29  C   UNL A   1      35.910  30.036  28.275  1.00  0.00     0.039 A 
ATOM     30  C   UNL A   1      36.310  29.534  29.524  1.00  0.00     0.014 A 
ATOM     31  C   UNL A   1      36.877  30.165  27.276  1.00  0.00     0.014 A 
ATOM     32  C   UNL A   1      37.640  29.156  29.763  1.00  0.00     0.010 A 
ATOM     33  C   UNL A   1      38.196  29.723  27.498  1.00  0.00     0.010 A 
ATOM     34  C   UNL A   1      38.605  29.224  28.749  1.00  0.00    -0.014 A 
BRANCH  34  35
ATOM     35  C   UNL A   1      40.026  28.818  29.006  1.00  0.00     0.031 A 
ATOM     36  C   UNL A   1      41.001  29.760  29.676  1.00  0.00     0.074 A 
ATOM     37  C   UNL A   1      40.479  27.603  28.628  1.00  0.00     0.049 A 
ATOM     38  N   UNL A   1      42.278  29.591  29.932  1.00  0.00    -0.248 NA
ATOM     39  C   UNL A   1      40.478  31.066  30.100  1.00  0.00     0.031 C 
ATOM     40  C   UNL A   1      39.692  26.575  27.950  1.00  0.00     0.029 A 
ATOM     41  N   UNL A   1      41.728  27.032  28.753  1.00  0.00    -0.354 N 
ATOM     42  C   UNL A   1      42.712  30.772  30.520  1.00  0.00     0.074 A 
ATOM     43  C   UNL A   1      41.574  31.667  30.545  1.00  0.00     0.031 C 
ATOM     44  C   UNL A   1      40.469  25.505  27.717  1.00  0.00     0.029 A 
ATOM     45  C   UNL A   1      41.821  25.775  28.202  1.00  0.00     0.049 A 
ATOM     46  H   UNL A   1      42.483  27.483  29.195  1.00  0.00     0.167 HD
ATOM     47  C   UNL A   1      43.934  31.086  31.020  1.00  0.00     0.037 A 
ATOM     48  C   UNL A   1      42.868  24.936  28.080  1.00  0.00     0.037 A 
ATOM     49  C   UNL A   1      45.067  30.199  31.067  1.00  0.00     0.049 A 
ATOM     50  C   UNL A   1      44.216  25.306  28.634  1.00  0.00     0.074 A 
ATOM     51  C   UNL A   1      46.302  30.413  31.658  1.00  0.00     0.029 A 
ATOM     52  N   UNL A   1      45.111  28.936  30.503  1.00  0.00    -0.354 N 
ATOM     53  N   UNL A   1      44.583  26.399  29.251  1.00  0.00    -0.248 NA
ATOM     54  C   UNL A   1      45.295  24.316  28.477  1.00  0.00     0.031 C 
ATOM     55  C   UNL A   1      47.107  29.293  31.418  1.00  0.00     0.029 A 
ATOM     56  C   UNL A   1      46.360  28.369  30.707  1.00  0.00     0.049 A 
ATOM     57  H   UNL A   1      44.365  28.504  30.027  1.00  0.00     0.167 HD
ATOM     58  C   UNL A   1      45.921  26.219  29.584  1.00  0.00     0.074 A 
ATOM     59  C   UNL A   1      46.303  24.909  29.103  1.00  0.00     0.031 C 
ATOM     60  C   UNL A   1      46.750  27.066  30.237  1.00  0.00     0.037 A 
BRANCH  47  61
ATOM     61  C   UNL A   1      44.114  32.467  31.581  1.00  0.00     0.057 A 
ATOM     62  C   UNL A   1      44.571  33.530  30.791  1.00  0.00     0.134 A 
ATOM     63  C   UNL A   1      43.778  32.745  32.911  1.00  0.00     0.134 A 
ATOM     64  F   UNL A   1      44.912  33.327  29.510  1.00  0.00    -0.206 F 
ATOM     65  C   UNL A   1      44.715  34.816  31.314  1.00  0.00     0.040 A 
ATOM     66  C   UNL A   1      43.896  34.032  33.439  1.00  0.00     0.040 A 
ATOM     67  F   UNL A   1      43.321  31.774  33.716  1.00  0.00    -0.206 F 
ATOM     68  C   UNL A   1      44.372  35.070  32.640  1.00  0.00     0.006 A 
ENDBRANCH  47  61
BRANCH  48  69
ATOM     69  C   UNL A   1      42.687  23.634  27.389  1.00  0.00     0.057 A 
ATOM     70  C   UNL A   1      42.900  23.508  26.013  1.00  0.00     0.134 A 
ATOM     71  C   UNL A   1      42.276  22.494  28.090  1.00  0.00     0.134 A 
ATOM     72  F   UNL A   1      43.269  24.574  25.287  1.00  0.00    -0.206 F 
ATOM     73  C   UNL A   1      42.696  22.296  25.351  1.00  0.00     0.040 A 
ATOM     74  C   UNL A   1      42.087  21.272  27.445  1.00  0.00     0.040 A 
ATOM     75  F   UNL A   1      42.058  22.553  29.412  1.00  0.00    -0.206 F 
ATOM     76  C   UNL A   1      42.293  21.173  26.070  1.00  0.00     0.006 A 
ENDBRANCH  48  69
BRANCH  60  77
ATOM     77  C   UNL A   1      48.152  26.601  30.505  1.00  0.00     0.057 A 
ATOM     78  C   UNL A   1      49.205  26.882  29.626  1.00  0.00     0.134 A 
ATOM     79  C   UNL A   1      48.459  25.895  31.676  1.00  0.00     0.134 A 
ATOM     80  F   UNL A   1      48.976  27.541  28.480  1.00  0.00    -0.206 F 
ATOM     81  C   UNL A   1      50.510  26.464  29.893  1.00  0.00     0.040 A 
ATOM     82  C   UNL A   1      49.764  25.490  31.964  1.00  0.00     0.040 A 
ATOM     83  F   UNL A   1      47.498  25.597  32.563  1.00  0.00    -0.206 F 
ATOM     84  C   UNL A   1      50.793  25.772  31.070  1.00  0.00     0.006 A 
ENDBRANCH  60  77
ENDBRANCH  34  35
ENDBRANCH  26  29
ENDBRANCH  24  25
ENDBRANCH  23  24
ENDBRANCH   1  23
TORSDOF 13
ENDMDL
MODEL 2
REMARK VINA RESULT:     -11.2      4.447      8.822
REMARK SMILES C[N@H+]1CCO[C@H](CNc2nccnc2C(=O)NCCCNC(=O)c2ccc(-c3c4nc(c(-c5c(F)cccc5F)c5ccc([nH]5)c(-c5c(F)cccc5F)c5nc(c(-c6c(F)cccc6F)c6ccc3[nH]6)C=C5)C=C4)cc2)C1
REMARK SMILES IDX 18 1 17 2 15 3 16 4 14 6 9 7 10 8 11 9 13 10 12 11 8 12 7 14
REMARK SMILES IDX 6 15 1 16 2 17 3 18 78 19 4 21 5 22 19 23 20 24 21 25 22 26
REMARK SMILES IDX 23 28 24 29 25 30 77 31 26 32 76 33 27 34 28 35 29 36 70 37
REMARK SMILES IDX 30 38 75 39 69 40 71 41 31 42 74 43 68 44 67 45 32 47 58 48
REMARK SMILES IDX 41 49 57 50 42 51 45 52 56 53 72 54 43 55 44 56 55 58 73 59
REMARK SMILES IDX 46 60 33 61 34 62 39 63 35 64 36 65 38 66 40 67 37 68 59 69
REMARK SMILES IDX 60 70 65 71 61 72 62 73 64 74 66 75 63 76 47 77 48 78 53 79
REMARK SMILES IDX 49 80 50 81 52 82 54 83 51 84
REMARK H PARENT 17 5 8 13 2 20 21 27 71 46 45 57
REMARK Flexibility Score: inf
ROOT
ATOM      1  C   UNL A   1      35.589  22.398  26.128  1.00  0.00     0.118 C 
ENDROOT
BRANCH   1   2
ATOM      2  N   UNL A   1      34.676  22.258  27.241  1.00  0.00    -0.351 N 
ATOM      3  C   UNL A   1      33.322  22.462  27.382  1.00  0.00     0.273 C 
ATOM      4  O   UNL A   1      32.878  22.278  28.522  1.00  0.00    -0.267 OA
ATOM      5  H   UNL A   1      35.113  21.952  28.069  1.00  0.00     0.163 HD
BRANCH   3   6
ATOM      6  C   UNL A   1      32.355  22.770  26.275  1.00  0.00     0.170 A 
ATOM      7  C   UNL A   1      31.958  21.883  25.254  1.00  0.00     0.157 A 
ATOM      8  N   UNL A   1      31.320  22.366  24.151  1.00  0.00    -0.235 NA
ATOM      9  C   UNL A   1      31.105  23.697  24.078  1.00  0.00     0.133 A 
ATOM     10  N   UNL A   1      32.088  24.118  26.202  1.00  0.00    -0.246 NA
ATOM     11  C   UNL A   1      31.476  24.555  25.087  1.00  0.00     0.132 A 
BRANCH   7  12
ATOM     12  N   UNL A   1      32.186  20.530  25.236  1.00  0.00    -0.365 N 
ATOM     13  H   UNL A   1      32.233  20.032  26.083  1.00  0.00     0.162 HD
BRANCH  12  14
ATOM     14  C   UNL A   1      32.360  19.824  23.976  1.00  0.00     0.152 C 
BRANCH  14  15
ATOM     15  C   UNL A   1      32.651  18.319  24.201  1.00  0.00     0.192 C 
ATOM     16  C   UNL A   1      32.237  15.704  25.896  1.00  0.00     0.332 C 
ATOM     17  N   UNL A   1      33.350  16.647  25.986  1.00  0.00    -0.333 N 
ATOM     18  C   UNL A   1      34.431  16.274  25.057  1.00  0.00     0.290 C 
ATOM     19  C   UNL A   1      32.942  18.037  25.694  1.00  0.00     0.296 C 
ATOM     20  H   UNL A   1      33.679  16.603  26.950  1.00  0.00     0.348 HD
ATOM     21  C   UNL A   1      34.122  16.543  23.579  1.00  0.00     0.222 C 
ATOM     22  O   UNL A   1      33.747  17.902  23.362  1.00  0.00    -0.365 OA
ENDBRANCH  14  15
ENDBRANCH  12  14
ENDBRANCH   7  12
ENDBRANCH   3   6
ENDBRANCH   1   2
BRANCH   1  23
ATOM     23  C   UNL A   1      35.801  21.048  25.427  1.00  0.00     0.042 C 
BRANCH  23  24
ATOM     24  C   UNL A   1      37.078  20.967  24.582  1.00  0.00     0.118 C 
BRANCH  24  25
ATOM     25  N   UNL A   1      38.018  20.004  25.138  1.00  0.00    -0.352 N 
ATOM     26  C   UNL A   1      39.247  20.130  25.731  1.00  0.00     0.251 C 
ATOM     27  H   UNL A   1      37.708  19.071  25.074  1.00  0.00     0.163 HD
ATOM     28  O   UNL A   1      39.927  19.109  25.839  1.00  0.00    -0.269 OA
BRANCH  26  29
ATOM     29  C   UNL A   1      39.808  21.408  26.255  1.00  0.00     0.039 A 
ATOM     30  C   UNL A   1      39.165  22.598  25.881  1.00  0.00     0.014 A 
ATOM     31  C   UNL A   1      41.012  21.502  26.956  1.00  0.00     0.014 A 
ATOM     32  C   UNL A   1      39.703  23.851  26.213  1.00  0.00     0.010 A 
ATOM     33  C   UNL A   1      41.516  22.759  27.345  1.00  0.00     0.010 A 
ATOM     34  C   UNL A   1      40.879  23.956  26.968  1.00  0.00    -0.014 A 
BRANCH  34  35
ATOM     35  C   UNL A   1      41.452  25.296  27.324  1.00  0.00     0.031 A 
ATOM     36  C   UNL A   1      42.832  25.707  26.858  1.00  0.00     0.074 A 
ATOM     37  C   UNL A   1      40.757  26.168  28.086  1.00  0.00     0.049 A 
ATOM     38  N   UNL A   1      43.502  26.806  27.113  1.00  0.00    -0.248 NA
ATOM     39  C   UNL A   1      43.558  24.752  26.010  1.00  0.00     0.031 C 
ATOM     40  C   UNL A   1      39.426  25.937  28.644  1.00  0.00     0.029 A 
ATOM     41  N   UNL A   1      41.087  27.428  28.536  1.00  0.00    -0.354 N 
ATOM     42  C   UNL A   1      44.731  26.664  26.481  1.00  0.00     0.074 A 
ATOM     43  C   UNL A   1      44.731  25.353  25.865  1.00  0.00     0.031 C 
ATOM     44  C   UNL A   1      39.054  27.011  29.358  1.00  0.00     0.029 A 
ATOM     45  C   UNL A   1      40.128  28.001  29.337  1.00  0.00     0.049 A 
ATOM     46  H   UNL A   1      41.933  27.877  28.305  1.00  0.00     0.167 HD
ATOM     47  C   UNL A   1      45.760  27.543  26.391  1.00  0.00     0.037 A 
ATOM     48  C   UNL A   1      40.109  29.175  29.998  1.00  0.00     0.037 A 
ATOM     49  C   UNL A   1      45.766  28.875  26.938  1.00  0.00     0.049 A 
ATOM     50  C   UNL A   1      41.263  30.133  29.892  1.00  0.00     0.074 A 
ATOM     51  C   UNL A   1      46.730  29.860  26.791  1.00  0.00     0.029 A 
ATOM     52  N   UNL A   1      44.770  29.411  27.735  1.00  0.00    -0.354 N 
ATOM     53  N   UNL A   1      42.382  30.007  29.227  1.00  0.00    -0.248 NA
ATOM     54  C   UNL A   1      41.144  31.403  30.627  1.00  0.00     0.031 C 
ATOM     55  C   UNL A   1      46.335  30.980  27.533  1.00  0.00     0.029 A 
ATOM     56  C   UNL A   1      45.109  30.702  28.112  1.00  0.00     0.049 A 
ATOM     57  H   UNL A   1      43.944  28.944  27.997  1.00  0.00     0.167 HD
ATOM     58  C   UNL A   1      43.086  31.187  29.436  1.00  0.00     0.074 A 
ATOM     59  C   UNL A   1      42.267  32.022  30.288  1.00  0.00     0.031 C 
ATOM     60  C   UNL A   1      44.300  31.543  28.956  1.00  0.00     0.037 A 
BRANCH  47  61
ATOM     61  C   UNL A   1      46.987  27.095  25.651  1.00  0.00     0.057 A 
ATOM     62  C   UNL A   1      47.216  27.454  24.317  1.00  0.00     0.134 A 
ATOM     63  C   UNL A   1      47.973  26.340  26.298  1.00  0.00     0.134 A 
ATOM     64  F   UNL A   1      46.307  28.174  23.641  1.00  0.00    -0.206 F 
ATOM     65  C   UNL A   1      48.369  27.052  23.642  1.00  0.00     0.040 A 
ATOM     66  C   UNL A   1      49.141  25.952  25.640  1.00  0.00     0.040 A 
ATOM     67  F   UNL A   1      47.821  25.975  27.580  1.00  0.00    -0.206 F 
ATOM     68  C   UNL A   1      49.338  26.303  24.306  1.00  0.00     0.006 A 
ENDBRANCH  47  61
BRANCH  48  69
ATOM     69  C   UNL A   1      38.937  29.524  30.839  1.00  0.00     0.057 A 
ATOM     70  C   UNL A   1      37.902  30.326  30.346  1.00  0.00     0.134 A 
ATOM     71  C   UNL A   1      38.839  29.078  32.163  1.00  0.00     0.134 A 
ATOM     72  F   UNL A   1      37.958  30.803  29.094  1.00  0.00    -0.206 F 
ATOM     73  C   UNL A   1      36.816  30.687  31.144  1.00  0.00     0.040 A 
ATOM     74  C   UNL A   1      37.749  29.416  32.966  1.00  0.00     0.040 A 
ATOM     75  F   UNL A   1      39.798  28.305  32.691  1.00  0.00    -0.206 F 
ATOM     76  C   UNL A   1      36.736  30.228  32.457  1.00  0.00     0.006 A 
ENDBRANCH  48  69
BRANCH  60  77
ATOM     77  C   UNL A   1      44.817  32.908  29.307  1.00  0.00     0.057 A 
ATOM     78  C   UNL A   1      44.508  34.036  28.536  1.00  0.00     0.134 A 
ATOM     79  C   UNL A   1      45.603  33.102  30.450  1.00  0.00     0.134 A 
ATOM     80  F   UNL A   1      43.773  33.916  27.421  1.00  0.00    -0.206 F 
ATOM     81  C   UNL A   1      44.975  35.305  28.881  1.00  0.00     0.040 A 
ATOM     82  C   UNL A   1      46.059  34.370  30.817  1.00  0.00     0.040 A 
ATOM     83  F   UNL A   1      45.932  32.065  31.235  1.00  0.00    -0.206 F 
ATOM     84  C   UNL A   1      45.747  35.476  30.029  1.00  0.00     0.006 A 
ENDBRANCH  60  77
ENDBRANCH  34  35
ENDBRANCH  26  29
ENDBRANCH  24  25
ENDBRANCH  23  24
ENDBRANCH   1  23
TORSDOF 13
ENDMDL
MODEL 3
REMARK VINA RESULT:     -11.2      3.156      6.951
REMARK SMILES C[N@H+]1CCO[C@H](CNc2nccnc2C(=O)NCCCNC(=O)c2ccc(-c3c4nc(c(-c5c(F)cccc5F)c5ccc([nH]5)c(-c5c(F)cccc5F)c5nc(c(-c6c(F)cccc6F)c6ccc3[nH]6)C=C5)C=C4)cc2)C1
REMARK SMILES IDX 18 1 17 2 15 3 16 4 14 6 9 7 10 8 11 9 13 10 12 11 8 12 7 14
REMARK SMILES IDX 6 15 1 16 2 17 3 18 78 19 4 21 5 22 19 23 20 24 21 25 22 26
REMARK SMILES IDX 23 28 24 29 25 30 77 31 26 32 76 33 27 34 28 35 29 36 70 37
REMARK SMILES IDX 30 38 75 39 69 40 71 41 31 42 74 43 68 44 67 45 32 47 58 48
REMARK SMILES IDX 41 49 57 50 42 51 45 52 56 53 72 54 43 55 44 56 55 58 73 59
REMARK SMILES IDX 46 60 33 61 34 62 39 63 35 64 36 65 38 66 40 67 37 68 59 69
REMARK SMILES IDX 60 70 65 71 61 72 62 73 64 74 66 75 63 76 47 77 48 78 53 79
REMARK SMILES IDX 49 80 50 81 52 82 54 83 51 84
REMARK H PARENT 17 5 8 13 2 20 21 27 71 46 45 57
REMARK Flexibility Score: inf
ROOT
ATOM      1  C   UNL A   1      33.379  29.022  25.124  1.00  0.00     0.118 C 
ENDROOT
BRANCH   1   2
ATOM      2  N   UNL A   1      33.823  28.978  23.748  1.00  0.00    -0.351 N 
ATOM      3  C   UNL A   1      33.638  28.074  22.726  1.00  0.00     0.273 C 
ATOM      4  O   UNL A   1      34.219  28.349  21.669  1.00  0.00    -0.267 OA
ATOM      5  H   UNL A   1      34.370  29.754  23.489  1.00  0.00     0.163 HD
BRANCH   3   6
ATOM      6  C   UNL A   1      32.728  26.879  22.757  1.00  0.00     0.170 A 
ATOM      7  C   UNL A   1      31.320  26.913  22.714  1.00  0.00     0.157 A 
ATOM      8  N   UNL A   1      30.608  25.800  23.049  1.00  0.00    -0.235 NA
ATOM      9  C   UNL A   1      31.295  24.701  23.427  1.00  0.00     0.133 A 
ATOM     10  N   UNL A   1      33.411  25.736  23.102  1.00  0.00    -0.246 NA
ATOM     11  C   UNL A   1      32.670  24.667  23.446  1.00  0.00     0.132 A 
BRANCH   7  12
ATOM     12  N   UNL A   1      30.555  28.005  22.390  1.00  0.00    -0.365 N 
ATOM     13  H   UNL A   1      30.886  28.653  21.729  1.00  0.00     0.162 HD
BRANCH  12  14
ATOM     14  C   UNL A   1      29.257  28.213  23.015  1.00  0.00     0.152 C 
BRANCH  14  15
ATOM     15  C   UNL A   1      28.615  29.549  22.562  1.00  0.00     0.192 C 
ATOM     16  C   UNL A   1      28.008  31.630  20.285  1.00  0.00     0.332 C 
ATOM     17  N   UNL A   1      29.099  31.677  21.257  1.00  0.00    -0.333 N 
ATOM     18  C   UNL A   1      28.685  32.389  22.478  1.00  0.00     0.290 C 
ATOM     19  C   UNL A   1      29.578  30.333  21.640  1.00  0.00     0.296 C 
ATOM     20  H   UNL A   1      29.863  32.173  20.798  1.00  0.00     0.348 HD
ATOM     21  C   UNL A   1      27.716  31.607  23.374  1.00  0.00     0.222 C 
ATOM     22  O   UNL A   1      28.241  30.326  23.718  1.00  0.00    -0.365 OA
ENDBRANCH  14  15
ENDBRANCH  12  14
ENDBRANCH   7  12
ENDBRANCH   3   6
ENDBRANCH   1   2
BRANCH   1  23
ATOM     23  C   UNL A   1      32.032  29.752  25.235  1.00  0.00     0.042 C 
BRANCH  23  24
ATOM     24  C   UNL A   1      31.717  30.290  26.636  1.00  0.00     0.118 C 
BRANCH  24  25
ATOM     25  N   UNL A   1      31.757  31.745  26.664  1.00  0.00    -0.352 N 
ATOM     26  C   UNL A   1      32.582  32.648  27.283  1.00  0.00     0.251 C 
ATOM     27  H   UNL A   1      31.045  32.167  26.129  1.00  0.00     0.163 HD
ATOM     28  O   UNL A   1      32.189  33.813  27.350  1.00  0.00    -0.269 OA
BRANCH  26  29
ATOM     29  C   UNL A   1      33.911  32.317  27.870  1.00  0.00     0.039 A 
ATOM     30  C   UNL A   1      34.143  30.982  28.236  1.00  0.00     0.014 A 
ATOM     31  C   UNL A   1      34.869  33.271  28.219  1.00  0.00     0.014 A 
ATOM     32  C   UNL A   1      35.309  30.607  28.920  1.00  0.00     0.010 A 
ATOM     33  C   UNL A   1      36.069  32.883  28.847  1.00  0.00     0.010 A 
ATOM     34  C   UNL A   1      36.304  31.547  29.222  1.00  0.00    -0.014 A 
BRANCH  34  35
ATOM     35  C   UNL A   1      37.551  31.145  29.952  1.00  0.00     0.031 A 
ATOM     36  C   UNL A   1      38.600  30.277  29.292  1.00  0.00     0.074 A 
ATOM     37  C   UNL A   1      37.764  31.532  31.228  1.00  0.00     0.049 A 
ATOM     38  N   UNL A   1      39.714  29.794  29.791  1.00  0.00    -0.248 NA
ATOM     39  C   UNL A   1      38.358  29.889  27.895  1.00  0.00     0.031 C 
ATOM     40  C   UNL A   1      36.856  32.348  32.032  1.00  0.00     0.029 A 
ATOM     41  N   UNL A   1      38.816  31.274  32.081  1.00  0.00    -0.354 N 
ATOM     42  C   UNL A   1      40.288  29.029  28.783  1.00  0.00     0.074 A 
ATOM     43  C   UNL A   1      39.379  29.077  27.657  1.00  0.00     0.031 C 
ATOM     44  C   UNL A   1      37.384  32.524  33.254  1.00  0.00     0.029 A 
ATOM     45  C   UNL A   1      38.656  31.810  33.337  1.00  0.00     0.049 A 
ATOM     46  H   UNL A   1      39.609  30.754  31.815  1.00  0.00     0.167 HD
ATOM     47  C   UNL A   1      41.472  28.367  28.774  1.00  0.00     0.037 A 
ATOM     48  C   UNL A   1      39.427  31.731  34.440  1.00  0.00     0.037 A 
ATOM     49  C   UNL A   1      42.426  28.351  29.853  1.00  0.00     0.049 A 
ATOM     50  C   UNL A   1      40.732  30.985  34.412  1.00  0.00     0.074 A 
ATOM     51  C   UNL A   1      43.694  27.793  29.871  1.00  0.00     0.029 A 
ATOM     52  N   UNL A   1      42.222  28.913  31.101  1.00  0.00    -0.354 N 
ATOM     53  N   UNL A   1      41.288  30.332  33.424  1.00  0.00    -0.248 NA
ATOM     54  C   UNL A   1      41.519  30.973  35.656  1.00  0.00     0.031 C 
ATOM     55  C   UNL A   1      44.243  27.983  31.144  1.00  0.00     0.029 A 
ATOM     56  C   UNL A   1      43.329  28.690  31.907  1.00  0.00     0.049 A 
ATOM     57  H   UNL A   1      41.411  29.399  31.376  1.00  0.00     0.167 HD
ATOM     58  C   UNL A   1      42.500  29.859  33.914  1.00  0.00     0.074 A 
ATOM     59  C   UNL A   1      42.602  30.301  35.287  1.00  0.00     0.031 C 
ATOM     60  C   UNL A   1      43.443  29.129  33.273  1.00  0.00     0.037 A 
BRANCH  47  61
ATOM     61  C   UNL A   1      41.821  27.598  27.533  1.00  0.00     0.057 A 
ATOM     62  C   UNL A   1      41.504  26.240  27.393  1.00  0.00     0.134 A 
ATOM     63  C   UNL A   1      42.434  28.236  26.448  1.00  0.00     0.134 A 
ATOM     64  F   UNL A   1      40.919  25.572  28.398  1.00  0.00    -0.206 F 
ATOM     65  C   UNL A   1      41.812  25.538  26.227  1.00  0.00     0.040 A 
ATOM     66  C   UNL A   1      42.725  27.549  25.268  1.00  0.00     0.040 A 
ATOM     67  F   UNL A   1      42.750  29.538  26.513  1.00  0.00    -0.206 F 
ATOM     68  C   UNL A   1      42.420  26.194  25.158  1.00  0.00     0.006 A 
ENDBRANCH  47  61
BRANCH  48  69
ATOM     69  C   UNL A   1      38.979  32.385  35.695  1.00  0.00     0.057 A 
ATOM     70  C   UNL A   1      39.273  33.727  35.959  1.00  0.00     0.134 A 
ATOM     71  C   UNL A   1      38.267  31.673  36.667  1.00  0.00     0.134 A 
ATOM     72  F   UNL A   1      39.976  34.449  35.074  1.00  0.00    -0.206 F 
ATOM     73  C   UNL A   1      38.886  34.337  37.153  1.00  0.00     0.040 A 
ATOM     74  C   UNL A   1      37.858  32.275  37.858  1.00  0.00     0.040 A 
ATOM     75  F   UNL A   1      37.954  30.384  36.471  1.00  0.00    -0.206 F 
ATOM     76  C   UNL A   1      38.173  33.611  38.104  1.00  0.00     0.006 A 
ENDBRANCH  48  69
BRANCH  60  77
ATOM     77  C   UNL A   1      44.691  28.781  34.031  1.00  0.00     0.057 A 
ATOM     78  C   UNL A   1      44.813  27.582  34.743  1.00  0.00     0.134 A 
ATOM     79  C   UNL A   1      45.797  29.641  34.019  1.00  0.00     0.134 A 
ATOM     80  F   UNL A   1      43.786  26.723  34.808  1.00  0.00    -0.206 F 
ATOM     81  C   UNL A   1      45.986  27.257  35.429  1.00  0.00     0.040 A 
ATOM     82  C   UNL A   1      46.982  29.318  34.683  1.00  0.00     0.040 A 
ATOM     83  F   UNL A   1      45.748  30.804  33.352  1.00  0.00    -0.206 F 
ATOM     84  C   UNL A   1      47.077  28.123  35.393  1.00  0.00     0.006 A 
ENDBRANCH  60  77
ENDBRANCH  34  35
ENDBRANCH  26  29
ENDBRANCH  24  25
ENDBRANCH  23  24
ENDBRANCH   1  23
TORSDOF 13
ENDMDL
