MODEL 1
REMARK VINA RESULT:     -11.0      0.000      0.000
REMARK SMILES CC(C)C[N@@H+](CC[NH+](C)C)[C@@H]1CCC[C@]([NH3+])(C(=O)NCCCNC(=O)c2ccc(-c3c4nc(c(-c5c(F)cccc5F)c5ccc([nH]5)c(-c5c(F)cccc5F)c5nc(c(-c6c(F)cccc6F)c6ccc3[nH]6)C=C5)C=C4)cc2)C1
REMARK SMILES IDX 20 1 19 2 17 3 18 4 15 6 11 7 12 8 80 9 13 10 14 11 5 12
REMARK SMILES IDX 4 14 2 15 1 16 3 17 6 18 7 19 8 20 9 21 10 22 16 24 21 28
REMARK SMILES IDX 22 29 23 30 24 31 25 33 26 34 27 35 79 36 28 37 78 38 29 39
REMARK SMILES IDX 30 40 31 41 72 42 32 43 77 44 71 45 73 46 33 47 76 48 70 49
REMARK SMILES IDX 69 50 34 52 60 53 43 54 59 55 44 56 47 57 58 58 74 59 45 60
REMARK SMILES IDX 46 61 57 63 75 64 48 65 35 66 36 67 41 68 37 69 38 70 40 71
REMARK SMILES IDX 42 72 39 73 61 74 62 75 67 76 63 77 64 78 66 79 68 80 65 81
REMARK SMILES IDX 49 82 50 83 55 84 51 85 52 86 54 87 56 88 53 89
REMARK H PARENT 19 5 5 13 8 23 16 25 16 26 16 27 23 32 73 51 47 62
REMARK Flexibility Score: inf
ROOT
ATOM      1  C   UNL A   1      31.545  30.220  25.671  1.00  0.00     0.118 C 
ENDROOT
BRANCH   1   2
ATOM      2  N   UNL A   1      32.229  28.904  25.632  1.00  0.00    -0.351 N 
ATOM      3  C   UNL A   1      32.948  28.127  24.747  1.00  0.00     0.281 C 
ATOM      4  O   UNL A   1      33.524  27.159  25.276  1.00  0.00    -0.268 OA
ATOM      5  H   UNL A   1      32.143  28.445  26.500  1.00  0.00     0.163 HD
BRANCH   3   6
ATOM      6  C   UNL A   1      33.127  28.341  23.197  1.00  0.00     0.179 C 
ATOM      7  C   UNL A   1      30.766  27.809  22.452  1.00  0.00     0.191 C 
ATOM      8  C   UNL A   1      31.386  26.436  21.888  1.00  0.00     0.065 C 
ATOM      9  C   UNL A   1      31.878  28.828  22.487  1.00  0.00     0.144 C 
ATOM     10  C   UNL A   1      32.811  25.995  22.292  1.00  0.00     0.013 C 
ATOM     11  C   UNL A   1      33.775  27.134  22.529  1.00  0.00     0.079 C 
BRANCH   7  12
ATOM     12  N   UNL A   1      29.660  27.838  23.555  1.00  0.00    -0.327 N 
ATOM     13  H   UNL A   1      29.995  28.504  24.251  1.00  0.00     0.348 HD
BRANCH  12  14
ATOM     14  C   UNL A   1      28.186  28.350  23.228  1.00  0.00     0.265 C 
BRANCH  14  15
ATOM     15  C   UNL A   1      27.618  29.749  22.543  1.00  0.00     0.038 C 
ATOM     16  C   UNL A   1      27.647  30.895  23.567  1.00  0.00     0.013 C 
ATOM     17  C   UNL A   1      28.192  30.431  21.253  1.00  0.00     0.013 C 
ENDBRANCH  14  15
ENDBRANCH  12  14
BRANCH  12  18
ATOM     18  C   UNL A   1      29.478  26.347  23.886  1.00  0.00     0.324 C 
BRANCH  18  19
ATOM     19  C   UNL A   1      29.864  25.820  25.319  1.00  0.00     0.323 C 
BRANCH  19  20
ATOM     20  N   UNL A   1      30.265  24.408  25.363  1.00  0.00    -0.335 N 
ATOM     21  C   UNL A   1      31.638  24.203  24.901  1.00  0.00     0.332 C 
ATOM     22  C   UNL A   1      30.102  23.763  26.662  1.00  0.00     0.332 C 
ATOM     23  H   UNL A   1      29.612  23.960  24.721  1.00  0.00     0.347 HD
ENDBRANCH  19  20
ENDBRANCH  18  19
ENDBRANCH  12  18
ENDBRANCH   7  12
BRANCH   6  24
ATOM     24  N   UNL A   1      34.124  29.445  22.953  1.00  0.00    -0.345 N 
ATOM     25  H   UNL A   1      35.009  29.209  23.400  1.00  0.00     0.345 HD
ATOM     26  H   UNL A   1      33.768  30.317  23.343  1.00  0.00     0.345 HD
ATOM     27  H   UNL A   1      34.269  29.557  21.949  1.00  0.00     0.345 HD
ENDBRANCH   6  24
ENDBRANCH   3   6
ENDBRANCH   1   2
BRANCH   1  28
ATOM     28  C   UNL A   1      31.763  31.298  26.777  1.00  0.00     0.042 C 
BRANCH  28  29
ATOM     29  C   UNL A   1      32.133  32.804  26.661  1.00  0.00     0.118 C 
BRANCH  29  30
ATOM     30  N   UNL A   1      32.286  33.797  27.700  1.00  0.00    -0.352 N 
ATOM     31  C   UNL A   1      33.494  34.276  28.230  1.00  0.00     0.251 C 
ATOM     32  H   UNL A   1      31.459  34.176  28.075  1.00  0.00     0.163 HD
ATOM     33  O   UNL A   1      33.653  35.391  28.667  1.00  0.00    -0.269 OA
BRANCH  31  34
ATOM     34  C   UNL A   1      34.597  33.307  28.357  1.00  0.00     0.039 A 
ATOM     35  C   UNL A   1      35.891  33.788  28.144  1.00  0.00     0.014 A 
ATOM     36  C   UNL A   1      34.369  32.036  28.870  1.00  0.00     0.014 A 
ATOM     37  C   UNL A   1      36.970  33.048  28.612  1.00  0.00     0.010 A 
ATOM     38  C   UNL A   1      35.436  31.350  29.428  1.00  0.00     0.010 A 
ATOM     39  C   UNL A   1      36.740  31.868  29.334  1.00  0.00    -0.014 A 
BRANCH  39  40
ATOM     40  C   UNL A   1      37.852  31.177  30.028  1.00  0.00     0.031 A 
ATOM     41  C   UNL A   1      38.130  31.490  31.466  1.00  0.00     0.074 A 
ATOM     42  C   UNL A   1      38.645  30.330  29.341  1.00  0.00     0.049 A 
ATOM     43  N   UNL A   1      39.095  31.058  32.235  1.00  0.00    -0.248 NA
ATOM     44  C   UNL A   1      37.224  32.450  32.118  1.00  0.00     0.031 C 
ATOM     45  C   UNL A   1      38.509  29.999  27.919  1.00  0.00     0.029 A 
ATOM     46  N   UNL A   1      39.731  29.596  29.745  1.00  0.00    -0.354 N 
ATOM     47  C   UNL A   1      38.923  31.707  33.449  1.00  0.00     0.074 A 
ATOM     48  C   UNL A   1      37.806  32.612  33.296  1.00  0.00     0.031 C 
ATOM     49  C   UNL A   1      39.449  29.101  27.582  1.00  0.00     0.029 A 
ATOM     50  C   UNL A   1      40.277  28.821  28.749  1.00  0.00     0.049 A 
ATOM     51  H   UNL A   1      40.086  29.620  30.663  1.00  0.00     0.167 HD
ATOM     52  C   UNL A   1      39.615  31.541  34.599  1.00  0.00     0.037 A 
ATOM     53  C   UNL A   1      41.326  27.976  28.780  1.00  0.00     0.037 A 
ATOM     54  C   UNL A   1      40.700  30.610  34.750  1.00  0.00     0.049 A 
ATOM     55  C   UNL A   1      42.063  27.789  30.080  1.00  0.00     0.074 A 
ATOM     56  C   UNL A   1      41.436  30.319  35.884  1.00  0.00     0.029 A 
ATOM     57  N   UNL A   1      41.200  29.813  33.730  1.00  0.00    -0.354 N 
ATOM     58  N   UNL A   1      41.850  28.360  31.241  1.00  0.00    -0.248 NA
ATOM     59  C   UNL A   1      43.181  26.835  30.076  1.00  0.00     0.031 C 
ATOM     60  C   UNL A   1      42.404  29.369  35.542  1.00  0.00     0.029 A 
ATOM     61  C   UNL A   1      42.242  29.037  34.206  1.00  0.00     0.049 A 
ATOM     62  H   UNL A   1      40.864  29.803  32.805  1.00  0.00     0.167 HD
ATOM     63  C   UNL A   1      42.782  27.813  32.112  1.00  0.00     0.074 A 
ATOM     64  C   UNL A   1      43.555  26.855  31.347  1.00  0.00     0.031 C 
ATOM     65  C   UNL A   1      42.983  28.078  33.427  1.00  0.00     0.037 A 
BRANCH  52  66
ATOM     66  C   UNL A   1      39.203  32.377  35.775  1.00  0.00     0.057 A 
ATOM     67  C   UNL A   1      39.702  33.673  35.970  1.00  0.00     0.134 A 
ATOM     68  C   UNL A   1      38.303  31.882  36.725  1.00  0.00     0.134 A 
ATOM     69  F   UNL A   1      40.583  34.201  35.106  1.00  0.00    -0.206 F 
ATOM     70  C   UNL A   1      39.347  34.432  37.086  1.00  0.00     0.040 A 
ATOM     71  C   UNL A   1      37.917  32.643  37.829  1.00  0.00     0.040 A 
ATOM     72  F   UNL A   1      37.786  30.650  36.599  1.00  0.00    -0.206 F 
ATOM     73  C   UNL A   1      38.446  33.919  38.017  1.00  0.00     0.006 A 
ENDBRANCH  52  66
BRANCH  53  74
ATOM     74  C   UNL A   1      41.720  27.217  27.565  1.00  0.00     0.057 A 
ATOM     75  C   UNL A   1      42.533  27.797  26.583  1.00  0.00     0.134 A 
ATOM     76  C   UNL A   1      41.290  25.902  27.347  1.00  0.00     0.134 A 
ATOM     77  F   UNL A   1      42.964  29.059  26.724  1.00  0.00    -0.206 F 
ATOM     78  C   UNL A   1      42.882  27.111  25.419  1.00  0.00     0.040 A 
ATOM     79  C   UNL A   1      41.652  25.194  26.199  1.00  0.00     0.040 A 
ATOM     80  F   UNL A   1      40.517  25.284  28.252  1.00  0.00    -0.206 F 
ATOM     81  C   UNL A   1      42.444  25.803  25.226  1.00  0.00     0.006 A 
ENDBRANCH  53  74
BRANCH  65  82
ATOM     82  C   UNL A   1      44.049  27.292  34.128  1.00  0.00     0.057 A 
ATOM     83  C   UNL A   1      43.786  26.050  34.719  1.00  0.00     0.134 A 
ATOM     84  C   UNL A   1      45.368  27.762  34.164  1.00  0.00     0.134 A 
ATOM     85  F   UNL A   1      42.541  25.551  34.728  1.00  0.00    -0.206 F 
ATOM     86  C   UNL A   1      44.794  25.313  35.340  1.00  0.00     0.040 A 
ATOM     87  C   UNL A   1      46.390  27.021  34.758  1.00  0.00     0.040 A 
ATOM     88  F   UNL A   1      45.687  28.940  33.607  1.00  0.00    -0.206 F 
ATOM     89  C   UNL A   1      46.103  25.794  35.353  1.00  0.00     0.006 A 
ENDBRANCH  65  82
ENDBRANCH  39  40
ENDBRANCH  31  34
ENDBRANCH  29  30
ENDBRANCH  28  29
ENDBRANCH   1  28
TORSDOF 17
ENDMDL
MODEL 2
REMARK VINA RESULT:     -10.9      0.513      6.307
REMARK SMILES CC(C)C[N@@H+](CC[NH+](C)C)[C@@H]1CCC[C@]([NH3+])(C(=O)NCCCNC(=O)c2ccc(-c3c4nc(c(-c5c(F)cccc5F)c5ccc([nH]5)c(-c5c(F)cccc5F)c5nc(c(-c6c(F)cccc6F)c6ccc3[nH]6)C=C5)C=C4)cc2)C1
REMARK SMILES IDX 20 1 19 2 17 3 18 4 15 6 11 7 12 8 80 9 13 10 14 11 5 12
REMARK SMILES IDX 4 14 2 15 1 16 3 17 6 18 7 19 8 20 9 21 10 22 16 24 21 28
REMARK SMILES IDX 22 29 23 30 24 31 25 33 26 34 27 35 79 36 28 37 78 38 29 39
REMARK SMILES IDX 30 40 31 41 72 42 32 43 77 44 71 45 73 46 33 47 76 48 70 49
REMARK SMILES IDX 69 50 34 52 60 53 43 54 59 55 44 56 47 57 58 58 74 59 45 60
REMARK SMILES IDX 46 61 57 63 75 64 48 65 35 66 36 67 41 68 37 69 38 70 40 71
REMARK SMILES IDX 42 72 39 73 61 74 62 75 67 76 63 77 64 78 66 79 68 80 65 81
REMARK SMILES IDX 49 82 50 83 55 84 51 85 52 86 54 87 56 88 53 89
REMARK H PARENT 19 5 5 13 8 23 16 25 16 26 16 27 23 32 73 51 47 62
REMARK Flexibility Score: inf
ROOT
ATOM      1  C   UNL A   1      31.553  30.161  25.687  1.00  0.00     0.118 C 
ENDROOT
BRANCH   1   2
ATOM      2  N   UNL A   1      32.225  28.839  25.682  1.00  0.00    -0.351 N 
ATOM      3  C   UNL A   1      32.970  28.050  24.830  1.00  0.00     0.281 C 
ATOM      4  O   UNL A   1      33.517  27.080  25.386  1.00  0.00    -0.268 OA
ATOM      5  H   UNL A   1      32.103  28.387  26.549  1.00  0.00     0.163 HD
BRANCH   3   6
ATOM      6  C   UNL A   1      33.210  28.252  23.286  1.00  0.00     0.179 C 
ATOM      7  C   UNL A   1      30.862  27.786  22.460  1.00  0.00     0.191 C 
ATOM      8  C   UNL A   1      31.460  26.394  21.923  1.00  0.00     0.065 C 
ATOM      9  C   UNL A   1      32.002  28.772  22.531  1.00  0.00     0.144 C 
ATOM     10  C   UNL A   1      32.856  25.912  22.379  1.00  0.00     0.013 C 
ATOM     11  C   UNL A   1      33.844  27.023  22.645  1.00  0.00     0.079 C 
BRANCH   7  12
ATOM     12  N   UNL A   1      29.719  27.853  23.523  1.00  0.00    -0.327 N 
ATOM     13  H   UNL A   1      30.021  28.558  24.196  1.00  0.00     0.348 HD
BRANCH  12  14
ATOM     14  C   UNL A   1      28.250  28.324  23.123  1.00  0.00     0.265 C 
BRANCH  14  15
ATOM     15  C   UNL A   1      27.669  29.735  22.473  1.00  0.00     0.038 C 
ATOM     16  C   UNL A   1      27.664  30.849  23.533  1.00  0.00     0.013 C 
ATOM     17  C   UNL A   1      28.252  30.466  21.214  1.00  0.00     0.013 C 
ENDBRANCH  14  15
ENDBRANCH  12  14
BRANCH  12  18
ATOM     18  C   UNL A   1      29.547  26.378  23.923  1.00  0.00     0.324 C 
BRANCH  18  19
ATOM     19  C   UNL A   1      30.010  25.905  25.353  1.00  0.00     0.323 C 
BRANCH  19  20
ATOM     20  N   UNL A   1      30.268  24.464  25.465  1.00  0.00    -0.335 N 
ATOM     21  C   UNL A   1      30.643  23.862  24.186  1.00  0.00     0.332 C 
ATOM     22  C   UNL A   1      31.258  24.093  26.471  1.00  0.00     0.332 C 
ATOM     23  H   UNL A   1      29.371  24.090  25.775  1.00  0.00     0.347 HD
ENDBRANCH  19  20
ENDBRANCH  18  19
ENDBRANCH  12  18
ENDBRANCH   7  12
BRANCH   6  24
ATOM     24  N   UNL A   1      34.247  29.325  23.074  1.00  0.00    -0.345 N 
ATOM     25  H   UNL A   1      33.893  30.012  22.408  1.00  0.00     0.345 HD
ATOM     26  H   UNL A   1      35.100  28.905  22.707  1.00  0.00     0.345 HD
ATOM     27  H   UNL A   1      34.448  29.784  23.962  1.00  0.00     0.345 HD
ENDBRANCH   6  24
ENDBRANCH   3   6
ENDBRANCH   1   2
BRANCH   1  28
ATOM     28  C   UNL A   1      31.785  31.268  26.761  1.00  0.00     0.042 C 
BRANCH  28  29
ATOM     29  C   UNL A   1      32.089  32.784  26.601  1.00  0.00     0.118 C 
BRANCH  29  30
ATOM     30  N   UNL A   1      32.171  33.819  27.607  1.00  0.00    -0.352 N 
ATOM     31  C   UNL A   1      33.340  34.330  28.189  1.00  0.00     0.251 C 
ATOM     32  H   UNL A   1      31.319  34.204  27.917  1.00  0.00     0.163 HD
ATOM     33  O   UNL A   1      33.464  35.463  28.591  1.00  0.00    -0.269 OA
BRANCH  31  34
ATOM     34  C   UNL A   1      34.442  33.378  28.421  1.00  0.00     0.039 A 
ATOM     35  C   UNL A   1      35.733  33.821  28.130  1.00  0.00     0.014 A 
ATOM     36  C   UNL A   1      34.216  32.183  29.093  1.00  0.00     0.014 A 
ATOM     37  C   UNL A   1      36.817  33.139  28.671  1.00  0.00     0.010 A 
ATOM     38  C   UNL A   1      35.289  31.566  29.717  1.00  0.00     0.010 A 
ATOM     39  C   UNL A   1      36.593  32.060  29.539  1.00  0.00    -0.014 A 
BRANCH  39  40
ATOM     40  C   UNL A   1      37.713  31.455  30.297  1.00  0.00     0.031 A 
ATOM     41  C   UNL A   1      38.582  30.431  29.634  1.00  0.00     0.074 A 
ATOM     42  C   UNL A   1      37.893  31.777  31.594  1.00  0.00     0.049 A 
ATOM     43  N   UNL A   1      39.562  29.726  30.137  1.00  0.00    -0.248 NA
ATOM     44  C   UNL A   1      38.285  30.128  28.224  1.00  0.00     0.031 C 
ATOM     45  C   UNL A   1      37.067  32.713  32.362  1.00  0.00     0.029 A 
ATOM     46  N   UNL A   1      38.829  31.346  32.500  1.00  0.00    -0.354 N 
ATOM     47  C   UNL A   1      39.980  28.887  29.115  1.00  0.00     0.074 A 
ATOM     48  C   UNL A   1      39.108  29.119  27.986  1.00  0.00     0.031 C 
ATOM     49  C   UNL A   1      37.556  32.813  33.610  1.00  0.00     0.029 A 
ATOM     50  C   UNL A   1      38.704  31.924  33.742  1.00  0.00     0.049 A 
ATOM     51  H   UNL A   1      39.526  30.686  32.282  1.00  0.00     0.167 HD
ATOM     52  C   UNL A   1      41.020  28.022  29.108  1.00  0.00     0.037 A 
ATOM     53  C   UNL A   1      39.439  31.754  34.858  1.00  0.00     0.037 A 
ATOM     54  C   UNL A   1      41.905  27.828  30.224  1.00  0.00     0.049 A 
ATOM     55  C   UNL A   1      40.607  30.805  34.816  1.00  0.00     0.074 A 
ATOM     56  C   UNL A   1      43.023  27.018  30.308  1.00  0.00     0.029 A 
ATOM     57  N   UNL A   1      41.771  28.459  31.453  1.00  0.00    -0.354 N 
ATOM     58  N   UNL A   1      41.035  30.064  33.821  1.00  0.00    -0.248 NA
ATOM     59  C   UNL A   1      41.400  30.674  36.046  1.00  0.00     0.031 C 
ATOM     60  C   UNL A   1      43.547  27.135  31.600  1.00  0.00     0.029 A 
ATOM     61  C   UNL A   1      42.780  28.050  32.305  1.00  0.00     0.049 A 
ATOM     62  H   UNL A   1      41.061  29.101  31.683  1.00  0.00     0.167 HD
ATOM     63  C   UNL A   1      42.162  29.406  34.294  1.00  0.00     0.074 A 
ATOM     64  C   UNL A   1      42.358  29.844  35.660  1.00  0.00     0.031 C 
ATOM     65  C   UNL A   1      42.963  28.517  33.656  1.00  0.00     0.037 A 
BRANCH  52  66
ATOM     66  C   UNL A   1      41.252  27.239  27.849  1.00  0.00     0.057 A 
ATOM     67  C   UNL A   1      42.045  27.737  26.805  1.00  0.00     0.134 A 
ATOM     68  C   UNL A   1      40.675  25.977  27.675  1.00  0.00     0.134 A 
ATOM     69  F   UNL A   1      42.613  28.949  26.901  1.00  0.00    -0.206 F 
ATOM     70  C   UNL A   1      42.225  27.023  25.620  1.00  0.00     0.040 A 
ATOM     71  C   UNL A   1      40.872  25.240  26.505  1.00  0.00     0.040 A 
ATOM     72  F   UNL A   1      39.905  25.439  28.634  1.00  0.00    -0.206 F 
ATOM     73  C   UNL A   1      41.642  25.767  25.470  1.00  0.00     0.006 A 
ENDBRANCH  52  66
BRANCH  53  74
ATOM     74  C   UNL A   1      39.124  32.518  36.092  1.00  0.00     0.057 A 
ATOM     75  C   UNL A   1      38.288  31.982  37.080  1.00  0.00     0.134 A 
ATOM     76  C   UNL A   1      39.637  33.802  36.314  1.00  0.00     0.134 A 
ATOM     77  F   UNL A   1      37.751  30.763  36.920  1.00  0.00    -0.206 F 
ATOM     78  C   UNL A   1      37.952  32.702  38.228  1.00  0.00     0.040 A 
ATOM     79  C   UNL A   1      39.330  34.524  37.470  1.00  0.00     0.040 A 
ATOM     80  F   UNL A   1      40.450  34.371  35.413  1.00  0.00    -0.206 F 
ATOM     81  C   UNL A   1      38.478  33.976  38.428  1.00  0.00     0.006 A 
ENDBRANCH  53  74
BRANCH  65  82
ATOM     82  C   UNL A   1      44.147  27.996  34.415  1.00  0.00     0.057 A 
ATOM     83  C   UNL A   1      45.375  28.668  34.422  1.00  0.00     0.134 A 
ATOM     84  C   UNL A   1      44.036  26.835  35.191  1.00  0.00     0.134 A 
ATOM     85  F   UNL A   1      45.548  29.778  33.690  1.00  0.00    -0.206 F 
ATOM     86  C   UNL A   1      46.460  28.190  35.159  1.00  0.00     0.040 A 
ATOM     87  C   UNL A   1      45.105  26.363  35.952  1.00  0.00     0.040 A 
ATOM     88  F   UNL A   1      42.883  26.151  35.233  1.00  0.00    -0.206 F 
ATOM     89  C   UNL A   1      46.324  27.039  35.934  1.00  0.00     0.006 A 
ENDBRANCH  65  82
ENDBRANCH  39  40
ENDBRANCH  31  34
ENDBRANCH  29  30
ENDBRANCH  28  29
ENDBRANCH   1  28
TORSDOF 17
ENDMDL
MODEL 3
REMARK VINA RESULT:     -10.6      3.916      5.736
REMARK SMILES CC(C)C[N@@H+](CC[NH+](C)C)[C@@H]1CCC[C@]([NH3+])(C(=O)NCCCNC(=O)c2ccc(-c3c4nc(c(-c5c(F)cccc5F)c5ccc([nH]5)c(-c5c(F)cccc5F)c5nc(c(-c6c(F)cccc6F)c6ccc3[nH]6)C=C5)C=C4)cc2)C1
REMARK SMILES IDX 20 1 19 2 17 3 18 4 15 6 11 7 12 8 80 9 13 10 14 11 5 12
REMARK SMILES IDX 4 14 2 15 1 16 3 17 6 18 7 19 8 20 9 21 10 22 16 24 21 28
REMARK SMILES IDX 22 29 23 30 24 31 25 33 26 34 27 35 79 36 28 37 78 38 29 39
REMARK SMILES IDX 30 40 31 41 72 42 32 43 77 44 71 45 73 46 33 47 76 48 70 49
REMARK SMILES IDX 69 50 34 52 60 53 43 54 59 55 44 56 47 57 58 58 74 59 45 60
REMARK SMILES IDX 46 61 57 63 75 64 48 65 35 66 36 67 41 68 37 69 38 70 40 71
REMARK SMILES IDX 42 72 39 73 61 74 62 75 67 76 63 77 64 78 66 79 68 80 65 81
REMARK SMILES IDX 49 82 50 83 55 84 51 85 52 86 54 87 56 88 53 89
REMARK H PARENT 19 5 5 13 8 23 16 25 16 26 16 27 23 32 73 51 47 62
REMARK Flexibility Score: inf
ROOT
ATOM      1  C   UNL A   1      31.776  27.963  26.746  1.00  0.00     0.118 C 
ENDROOT
BRANCH   1   2
ATOM      2  N   UNL A   1      31.376  26.550  26.955  1.00  0.00    -0.351 N 
ATOM      3  C   UNL A   1      31.114  25.419  26.210  1.00  0.00     0.281 C 
ATOM      4  O   UNL A   1      31.032  24.376  26.885  1.00  0.00    -0.268 OA
ATOM      5  H   UNL A   1      31.264  26.362  27.915  1.00  0.00     0.163 HD
BRANCH   3   6
ATOM      6  C   UNL A   1      30.938  25.308  24.649  1.00  0.00     0.179 C 
ATOM      7  C   UNL A   1      32.613  23.464  24.194  1.00  0.00     0.191 C 
ATOM      8  C   UNL A   1      33.533  24.624  23.566  1.00  0.00     0.065 C 
ATOM      9  C   UNL A   1      31.178  23.918  24.092  1.00  0.00     0.144 C 
ATOM     10  C   UNL A   1      33.186  26.112  23.799  1.00  0.00     0.013 C 
ATOM     11  C   UNL A   1      31.708  26.399  23.913  1.00  0.00     0.079 C 
BRANCH   7  12
ATOM     12  N   UNL A   1      33.064  22.610  25.422  1.00  0.00    -0.327 N 
ATOM     13  H   UNL A   1      32.410  22.849  26.168  1.00  0.00     0.348 HD
BRANCH  12  14
ATOM     14  C   UNL A   1      33.015  21.017  25.379  1.00  0.00     0.265 C 
BRANCH  14  15
ATOM     15  C   UNL A   1      32.977  19.936  24.121  1.00  0.00     0.038 C 
ATOM     16  C   UNL A   1      32.530  18.553  24.620  1.00  0.00     0.013 C 
ATOM     17  C   UNL A   1      32.153  20.105  22.799  1.00  0.00     0.013 C 
ENDBRANCH  14  15
ENDBRANCH  12  14
BRANCH  12  18
ATOM     18  C   UNL A   1      34.563  22.939  25.527  1.00  0.00     0.324 C 
BRANCH  18  19
ATOM     19  C   UNL A   1      35.524  21.939  26.273  1.00  0.00     0.323 C 
BRANCH  19  20
ATOM     20  N   UNL A   1      36.953  22.241  26.125  1.00  0.00    -0.335 N 
ATOM     21  C   UNL A   1      37.548  21.576  24.966  1.00  0.00     0.332 C 
ATOM     22  C   UNL A   1      37.279  23.663  26.073  1.00  0.00     0.332 C 
ATOM     23  H   UNL A   1      37.360  21.871  26.984  1.00  0.00     0.347 HD
ENDBRANCH  19  20
ENDBRANCH  18  19
ENDBRANCH  12  18
ENDBRANCH   7  12
BRANCH   6  24
ATOM     24  N   UNL A   1      29.504  25.592  24.282  1.00  0.00    -0.345 N 
ATOM     25  H   UNL A   1      29.424  26.549  23.937  1.00  0.00     0.345 HD
ATOM     26  H   UNL A   1      28.913  25.477  25.105  1.00  0.00     0.345 HD
ATOM     27  H   UNL A   1      29.204  24.943  23.555  1.00  0.00     0.345 HD
ENDBRANCH   6  24
ENDBRANCH   3   6
ENDBRANCH   1   2
BRANCH   1  28
ATOM     28  C   UNL A   1      33.241  28.491  26.834  1.00  0.00     0.042 C 
BRANCH  28  29
ATOM     29  C   UNL A   1      33.786  29.939  26.986  1.00  0.00     0.118 C 
BRANCH  29  30
ATOM     30  N   UNL A   1      33.926  30.752  28.173  1.00  0.00    -0.352 N 
ATOM     31  C   UNL A   1      35.127  31.176  28.761  1.00  0.00     0.251 C 
ATOM     32  H   UNL A   1      33.093  31.037  28.615  1.00  0.00     0.163 HD
ATOM     33  O   UNL A   1      35.258  32.208  29.375  1.00  0.00    -0.269 OA
BRANCH  31  34
ATOM     34  C   UNL A   1      36.261  30.236  28.714  1.00  0.00     0.039 A 
ATOM     35  C   UNL A   1      37.063  30.268  27.572  1.00  0.00     0.014 A 
ATOM     36  C   UNL A   1      36.629  29.512  29.842  1.00  0.00     0.014 A 
ATOM     37  C   UNL A   1      38.331  29.703  27.624  1.00  0.00     0.010 A 
ATOM     38  C   UNL A   1      37.931  29.043  29.927  1.00  0.00     0.010 A 
ATOM     39  C   UNL A   1      38.803  29.167  28.831  1.00  0.00    -0.014 A 
BRANCH  39  40
ATOM     40  C   UNL A   1      40.220  28.758  28.975  1.00  0.00     0.031 A 
ATOM     41  C   UNL A   1      41.213  29.730  29.534  1.00  0.00     0.074 A 
ATOM     42  C   UNL A   1      40.613  27.545  28.537  1.00  0.00     0.049 A 
ATOM     43  N   UNL A   1      42.507  29.603  29.673  1.00  0.00    -0.248 NA
ATOM     44  C   UNL A   1      40.687  31.039  29.956  1.00  0.00     0.031 C 
ATOM     45  C   UNL A   1      39.744  26.540  27.916  1.00  0.00     0.029 A 
ATOM     46  N   UNL A   1      41.849  26.951  28.541  1.00  0.00    -0.354 N 
ATOM     47  C   UNL A   1      42.948  30.817  30.177  1.00  0.00     0.074 A 
ATOM     48  C   UNL A   1      41.799  31.691  30.256  1.00  0.00     0.031 C 
ATOM     49  C   UNL A   1      40.468  25.443  27.635  1.00  0.00     0.029 A 
ATOM     50  C   UNL A   1      41.855  25.679  28.020  1.00  0.00     0.049 A 
ATOM     51  H   UNL A   1      42.659  27.393  28.886  1.00  0.00     0.167 HD
ATOM     52  C   UNL A   1      44.196  31.163  30.570  1.00  0.00     0.037 A 
ATOM     53  C   UNL A   1      42.867  24.802  27.874  1.00  0.00     0.037 A 
ATOM     54  C   UNL A   1      45.323  30.272  30.523  1.00  0.00     0.049 A 
ATOM     55  C   UNL A   1      44.241  25.202  28.343  1.00  0.00     0.074 A 
ATOM     56  C   UNL A   1      46.620  30.498  30.946  1.00  0.00     0.029 A 
ATOM     57  N   UNL A   1      45.282  28.978  30.024  1.00  0.00    -0.354 N 
ATOM     58  N   UNL A   1      44.635  26.331  28.881  1.00  0.00    -0.248 NA
ATOM     59  C   UNL A   1      45.309  24.203  28.193  1.00  0.00     0.031 C 
ATOM     60  C   UNL A   1      47.372  29.351  30.673  1.00  0.00     0.029 A 
ATOM     61  C   UNL A   1      46.533  28.396  30.120  1.00  0.00     0.049 A 
ATOM     62  H   UNL A   1      44.481  28.540  29.656  1.00  0.00     0.167 HD
ATOM     63  C   UNL A   1      45.984  26.169  29.163  1.00  0.00     0.074 A 
ATOM     64  C   UNL A   1      46.338  24.827  28.748  1.00  0.00     0.031 C 
ATOM     65  C   UNL A   1      46.854  27.050  29.716  1.00  0.00     0.037 A 
BRANCH  52  66
ATOM     66  C   UNL A   1      44.389  32.556  31.092  1.00  0.00     0.057 A 
ATOM     67  C   UNL A   1      44.736  33.620  30.247  1.00  0.00     0.134 A 
ATOM     68  C   UNL A   1      44.232  32.838  32.454  1.00  0.00     0.134 A 
ATOM     69  F   UNL A   1      44.919  33.414  28.934  1.00  0.00    -0.206 F 
ATOM     70  C   UNL A   1      44.954  34.906  30.744  1.00  0.00     0.040 A 
ATOM     71  C   UNL A   1      44.418  34.127  32.957  1.00  0.00     0.040 A 
ATOM     72  F   UNL A   1      43.900  31.868  33.319  1.00  0.00    -0.206 F 
ATOM     73  C   UNL A   1      44.789  35.163  32.102  1.00  0.00     0.006 A 
ENDBRANCH  52  66
BRANCH  53  74
ATOM     74  C   UNL A   1      42.622  23.455  27.297  1.00  0.00     0.057 A 
ATOM     75  C   UNL A   1      42.853  23.198  25.940  1.00  0.00     0.134 A 
ATOM     76  C   UNL A   1      42.142  22.396  28.078  1.00  0.00     0.134 A 
ATOM     77  F   UNL A   1      43.296  24.174  25.134  1.00  0.00    -0.206 F 
ATOM     78  C   UNL A   1      42.593  21.948  25.374  1.00  0.00     0.040 A 
ATOM     79  C   UNL A   1      41.901  21.133  27.532  1.00  0.00     0.040 A 
ATOM     80  F   UNL A   1      41.908  22.572  29.387  1.00  0.00    -0.206 F 
ATOM     81  C   UNL A   1      42.119  20.909  26.173  1.00  0.00     0.006 A 
ENDBRANCH  53  74
BRANCH  65  82
ATOM     82  C   UNL A   1      48.258  26.576  29.942  1.00  0.00     0.057 A 
ATOM     83  C   UNL A   1      48.633  25.906  31.113  1.00  0.00     0.134 A 
ATOM     84  C   UNL A   1      49.232  26.745  28.949  1.00  0.00     0.134 A 
ATOM     85  F   UNL A   1      47.750  25.723  32.105  1.00  0.00    -0.206 F 
ATOM     86  C   UNL A   1      49.936  25.440  31.297  1.00  0.00     0.040 A 
ATOM     87  C   UNL A   1      50.529  26.259  29.111  1.00  0.00     0.040 A 
ATOM     88  F   UNL A   1      48.932  27.369  27.800  1.00  0.00    -0.206 F 
ATOM     89  C   UNL A   1      50.886  25.609  30.291  1.00  0.00     0.006 A 
ENDBRANCH  65  82
ENDBRANCH  39  40
ENDBRANCH  31  34
ENDBRANCH  29  30
ENDBRANCH  28  29
ENDBRANCH   1  28
TORSDOF 17
ENDMDL
