MODEL 1
REMARK VINA RESULT:     -13.2      0.000      0.000
REMARK SMILES Cc1cccc(NC(=O)[C@H]2C=C[C@@H]([NH3+])C2)c1C(=O)NCCCNC(=O)c1ccc(-c2c3nc(c(-c4c(F)cccc4F)c4ccc([nH]4)c(-c4c(F)cccc4F)c4nc(c(-c5c(F)cccc5F)c5ccc2[nH]5)C=C4)C=C3)cc1
REMARK SMILES IDX 20 1 19 2 17 3 18 4 16 6 1 7 2 8 3 9 4 10 6 11 5 12 7 13
REMARK SMILES IDX 8 14 9 16 10 17 11 18 15 19 12 20 13 21 14 22 21 26 22 27
REMARK SMILES IDX 23 28 24 29 25 31 26 32 27 33 79 34 28 35 78 36 29 37 30 38
REMARK SMILES IDX 31 39 72 40 32 41 77 42 71 43 73 44 33 45 76 46 70 47 69 48
REMARK SMILES IDX 34 50 60 51 43 52 59 53 44 54 47 55 58 56 74 57 45 58 46 59
REMARK SMILES IDX 57 61 75 62 48 63 35 64 36 65 41 66 37 67 38 68 40 69 42 70
REMARK SMILES IDX 39 71 61 72 62 73 67 74 63 75 64 76 66 77 68 78 65 79 49 80
REMARK SMILES IDX 50 81 55 82 51 83 52 84 54 85 56 86 53 87
REMARK H PARENT 19 5 7 15 14 23 14 24 14 25 23 30 73 49 47 60
REMARK Flexibility Score: inf
ROOT
ATOM      1  C   UNL A   1      34.014  29.503  27.150  1.00  0.00     0.118 C 
ENDROOT
BRANCH   1   2
ATOM      2  N   UNL A   1      32.853  28.804  27.677  1.00  0.00    -0.352 N 
ATOM      3  C   UNL A   1      31.742  28.142  27.225  1.00  0.00     0.253 C 
ATOM      4  O   UNL A   1      31.068  27.708  28.173  1.00  0.00    -0.269 OA
ATOM      5  H   UNL A   1      32.871  28.810  28.662  1.00  0.00     0.163 HD
BRANCH   3   6
ATOM      6  C   UNL A   1      31.239  27.861  25.813  1.00  0.00     0.066 A 
ATOM      7  C   UNL A   1      31.171  30.258  24.772  1.00  0.00     0.045 C 
ATOM      8  C   UNL A   1      31.091  28.775  24.732  1.00  0.00    -0.036 A 
ATOM      9  C   UNL A   1      30.655  28.334  23.466  1.00  0.00     0.004 A 
ATOM     10  C   UNL A   1      30.064  27.108  23.325  1.00  0.00     0.002 A 
ATOM     11  C   UNL A   1      30.759  26.524  25.570  1.00  0.00     0.054 A 
ATOM     12  C   UNL A   1      30.030  26.271  24.419  1.00  0.00     0.027 A 
BRANCH  11  13
ATOM     13  N   UNL A   1      30.988  25.450  26.462  1.00  0.00    -0.325 N 
ATOM     14  C   UNL A   1      31.851  24.401  26.562  1.00  0.00     0.231 C 
ATOM     15  H   UNL A   1      30.352  25.464  27.214  1.00  0.00     0.169 HD
ATOM     16  O   UNL A   1      31.665  23.675  27.557  1.00  0.00    -0.274 OA
BRANCH  14  17
ATOM     17  C   UNL A   1      32.977  23.950  25.598  1.00  0.00     0.107 C 
ATOM     18  C   UNL A   1      34.156  24.881  25.645  1.00  0.00    -0.012 C 
ATOM     19  C   UNL A   1      33.604  22.547  25.567  1.00  0.00     0.087 C 
ATOM     20  C   UNL A   1      35.317  24.231  25.523  1.00  0.00     0.033 C 
ATOM     21  C   UNL A   1      35.133  22.755  25.384  1.00  0.00     0.205 C 
BRANCH  21  22
ATOM     22  N   UNL A   1      35.958  22.040  26.349  1.00  0.00    -0.352 N 
ATOM     23  H   UNL A   1      35.376  21.391  26.879  1.00  0.00     0.345 HD
ATOM     24  H   UNL A   1      36.391  22.707  26.988  1.00  0.00     0.345 HD
ATOM     25  H   UNL A   1      36.685  21.520  25.856  1.00  0.00     0.345 HD
ENDBRANCH  21  22
ENDBRANCH  14  17
ENDBRANCH  11  13
ENDBRANCH   3   6
ENDBRANCH   1   2
BRANCH   1  26
ATOM     26  C   UNL A   1      34.111  30.926  27.695  1.00  0.00     0.042 C 
BRANCH  26  27
ATOM     27  C   UNL A   1      35.471  31.585  27.650  1.00  0.00     0.118 C 
BRANCH  27  28
ATOM     28  N   UNL A   1      36.003  31.893  28.981  1.00  0.00    -0.352 N 
ATOM     29  C   UNL A   1      36.817  31.100  29.779  1.00  0.00     0.251 C 
ATOM     30  H   UNL A   1      35.754  32.770  29.354  1.00  0.00     0.163 HD
ATOM     31  O   UNL A   1      37.261  31.499  30.837  1.00  0.00    -0.269 OA
BRANCH  29  32
ATOM     32  C   UNL A   1      37.231  29.797  29.212  1.00  0.00     0.039 A 
ATOM     33  C   UNL A   1      37.534  28.802  30.142  1.00  0.00     0.014 A 
ATOM     34  C   UNL A   1      37.755  29.773  27.922  1.00  0.00     0.014 A 
ATOM     35  C   UNL A   1      38.609  27.964  29.886  1.00  0.00     0.010 A 
ATOM     36  C   UNL A   1      38.880  28.997  27.705  1.00  0.00     0.010 A 
ATOM     37  C   UNL A   1      39.355  28.161  28.722  1.00  0.00    -0.014 A 
BRANCH  37  38
ATOM     38  C   UNL A   1      40.681  27.579  28.551  1.00  0.00     0.031 A 
ATOM     39  C   UNL A   1      40.798  26.140  28.265  1.00  0.00     0.074 A 
ATOM     40  C   UNL A   1      41.810  28.306  28.712  1.00  0.00     0.049 A 
ATOM     41  N   UNL A   1      41.764  25.397  28.689  1.00  0.00    -0.248 NA
ATOM     42  C   UNL A   1      39.790  25.413  27.508  1.00  0.00     0.031 C 
ATOM     43  C   UNL A   1      43.181  27.866  28.464  1.00  0.00     0.029 A 
ATOM     44  N   UNL A   1      41.955  29.535  29.367  1.00  0.00    -0.354 N 
ATOM     45  C   UNL A   1      41.657  24.182  28.060  1.00  0.00     0.074 A 
ATOM     46  C   UNL A   1      40.378  24.220  27.386  1.00  0.00     0.031 C 
ATOM     47  C   UNL A   1      44.014  28.605  29.212  1.00  0.00     0.029 A 
ATOM     48  C   UNL A   1      43.206  29.488  30.030  1.00  0.00     0.049 A 
ATOM     49  H   UNL A   1      41.315  30.283  29.368  1.00  0.00     0.167 HD
ATOM     50  C   UNL A   1      42.714  23.320  28.071  1.00  0.00     0.037 A 
ATOM     51  C   UNL A   1      43.290  29.627  31.384  1.00  0.00     0.037 A 
ATOM     52  C   UNL A   1      43.845  23.850  28.832  1.00  0.00     0.049 A 
ATOM     53  C   UNL A   1      43.798  28.399  32.106  1.00  0.00     0.074 A 
ATOM     54  C   UNL A   1      45.027  24.486  28.489  1.00  0.00     0.029 A 
ATOM     55  N   UNL A   1      43.711  24.024  30.199  1.00  0.00    -0.354 N 
ATOM     56  N   UNL A   1      44.210  27.309  31.521  1.00  0.00    -0.248 NA
ATOM     57  C   UNL A   1      43.769  28.270  33.564  1.00  0.00     0.031 C 
ATOM     58  C   UNL A   1      45.605  25.032  29.671  1.00  0.00     0.029 A 
ATOM     59  C   UNL A   1      44.774  24.730  30.732  1.00  0.00     0.049 A 
ATOM     60  H   UNL A   1      42.951  23.687  30.727  1.00  0.00     0.167 HD
ATOM     61  C   UNL A   1      44.419  26.338  32.466  1.00  0.00     0.074 A 
ATOM     62  C   UNL A   1      44.134  26.988  33.731  1.00  0.00     0.031 C 
ATOM     63  C   UNL A   1      44.759  25.054  32.149  1.00  0.00     0.037 A 
BRANCH  50  64
ATOM     64  C   UNL A   1      42.795  22.125  27.153  1.00  0.00     0.057 A 
ATOM     65  C   UNL A   1      41.982  20.995  27.358  1.00  0.00     0.134 A 
ATOM     66  C   UNL A   1      43.693  22.004  26.079  1.00  0.00     0.134 A 
ATOM     67  F   UNL A   1      40.984  20.998  28.251  1.00  0.00    -0.206 F 
ATOM     68  C   UNL A   1      42.156  19.796  26.655  1.00  0.00     0.040 A 
ATOM     69  C   UNL A   1      43.925  20.794  25.411  1.00  0.00     0.040 A 
ATOM     70  F   UNL A   1      44.352  23.067  25.597  1.00  0.00    -0.206 F 
ATOM     71  C   UNL A   1      43.166  19.675  25.713  1.00  0.00     0.006 A 
ENDBRANCH  50  64
BRANCH  51  72
ATOM     72  C   UNL A   1      42.284  30.589  31.904  1.00  0.00     0.057 A 
ATOM     73  C   UNL A   1      41.108  30.068  32.471  1.00  0.00     0.134 A 
ATOM     74  C   UNL A   1      42.635  31.897  32.242  1.00  0.00     0.134 A 
ATOM     75  F   UNL A   1      40.707  28.822  32.170  1.00  0.00    -0.206 F 
ATOM     76  C   UNL A   1      40.402  30.756  33.460  1.00  0.00     0.040 A 
ATOM     77  C   UNL A   1      41.921  32.603  33.215  1.00  0.00     0.040 A 
ATOM     78  F   UNL A   1      43.741  32.462  31.737  1.00  0.00    -0.206 F 
ATOM     79  C   UNL A   1      40.839  32.011  33.867  1.00  0.00     0.006 A 
ENDBRANCH  51  72
BRANCH  63  80
ATOM     80  C   UNL A   1      45.073  23.997  33.177  1.00  0.00     0.057 A 
ATOM     81  C   UNL A   1      44.129  23.050  33.601  1.00  0.00     0.134 A 
ATOM     82  C   UNL A   1      46.303  23.967  33.865  1.00  0.00     0.134 A 
ATOM     83  F   UNL A   1      42.883  23.042  33.105  1.00  0.00    -0.206 F 
ATOM     84  C   UNL A   1      44.416  22.086  34.577  1.00  0.00     0.040 A 
ATOM     85  C   UNL A   1      46.583  23.043  34.877  1.00  0.00     0.040 A 
ATOM     86  F   UNL A   1      47.296  24.820  33.578  1.00  0.00    -0.206 F 
ATOM     87  C   UNL A   1      45.646  22.084  35.222  1.00  0.00     0.006 A 
ENDBRANCH  63  80
ENDBRANCH  37  38
ENDBRANCH  29  32
ENDBRANCH  27  28
ENDBRANCH  26  27
ENDBRANCH   1  26
TORSDOF 13
ENDMDL
MODEL 2
REMARK VINA RESULT:     -12.7      2.809      4.856
REMARK SMILES Cc1cccc(NC(=O)[C@H]2C=C[C@@H]([NH3+])C2)c1C(=O)NCCCNC(=O)c1ccc(-c2c3nc(c(-c4c(F)cccc4F)c4ccc([nH]4)c(-c4c(F)cccc4F)c4nc(c(-c5c(F)cccc5F)c5ccc2[nH]5)C=C4)C=C3)cc1
REMARK SMILES IDX 20 1 19 2 17 3 18 4 16 6 1 7 2 8 3 9 4 10 6 11 5 12 7 13
REMARK SMILES IDX 8 14 9 16 10 17 11 18 15 19 12 20 13 21 14 22 21 26 22 27
REMARK SMILES IDX 23 28 24 29 25 31 26 32 27 33 79 34 28 35 78 36 29 37 30 38
REMARK SMILES IDX 31 39 72 40 32 41 77 42 71 43 73 44 33 45 76 46 70 47 69 48
REMARK SMILES IDX 34 50 60 51 43 52 59 53 44 54 47 55 58 56 74 57 45 58 46 59
REMARK SMILES IDX 57 61 75 62 48 63 35 64 36 65 41 66 37 67 38 68 40 69 42 70
REMARK SMILES IDX 39 71 61 72 62 73 67 74 63 75 64 76 66 77 68 78 65 79 49 80
REMARK SMILES IDX 50 81 55 82 51 83 52 84 54 85 56 86 53 87
REMARK H PARENT 19 5 7 15 14 23 14 24 14 25 23 30 73 49 47 60
REMARK Flexibility Score: inf
ROOT
ATOM      1  C   UNL A   1      31.991  28.161  27.630  1.00  0.00     0.118 C 
ENDROOT
BRANCH   1   2
ATOM      2  N   UNL A   1      31.238  26.969  27.275  1.00  0.00    -0.352 N 
ATOM      3  C   UNL A   1      31.093  26.103  26.223  1.00  0.00     0.253 C 
ATOM      4  O   UNL A   1      30.280  25.207  26.495  1.00  0.00    -0.269 OA
ATOM      5  H   UNL A   1      30.650  26.704  28.019  1.00  0.00     0.163 HD
BRANCH   3   6
ATOM      6  C   UNL A   1      31.751  26.067  24.847  1.00  0.00     0.066 A 
ATOM      7  C   UNL A   1      34.277  25.784  25.458  1.00  0.00     0.045 C 
ATOM      8  C   UNL A   1      33.117  25.829  24.529  1.00  0.00    -0.036 A 
ATOM      9  C   UNL A   1      33.552  25.780  23.188  1.00  0.00     0.004 A 
ATOM     10  C   UNL A   1      32.759  26.269  22.186  1.00  0.00     0.002 A 
ATOM     11  C   UNL A   1      30.903  26.415  23.735  1.00  0.00     0.054 A 
ATOM     12  C   UNL A   1      31.484  26.682  22.505  1.00  0.00     0.027 A 
BRANCH  11  13
ATOM     13  N   UNL A   1      29.495  26.507  23.839  1.00  0.00    -0.325 N 
ATOM     14  C   UNL A   1      28.525  27.402  23.504  1.00  0.00     0.231 C 
ATOM     15  H   UNL A   1      29.113  25.709  24.271  1.00  0.00     0.169 HD
ATOM     16  O   UNL A   1      27.371  27.048  23.811  1.00  0.00    -0.274 OA
BRANCH  14  17
ATOM     17  C   UNL A   1      28.653  28.805  22.859  1.00  0.00     0.107 C 
ATOM     18  C   UNL A   1      27.431  29.644  23.105  1.00  0.00    -0.012 C 
ATOM     19  C   UNL A   1      29.827  29.774  23.077  1.00  0.00     0.087 C 
ATOM     20  C   UNL A   1      27.733  30.931  23.301  1.00  0.00     0.033 C 
ATOM     21  C   UNL A   1      29.203  31.188  23.234  1.00  0.00     0.205 C 
BRANCH  21  22
ATOM     22  N   UNL A   1      29.653  31.917  24.413  1.00  0.00    -0.352 N 
ATOM     23  H   UNL A   1      28.932  32.579  24.698  1.00  0.00     0.345 HD
ATOM     24  H   UNL A   1      30.512  32.422  24.193  1.00  0.00     0.345 HD
ATOM     25  H   UNL A   1      29.830  31.259  25.173  1.00  0.00     0.345 HD
ENDBRANCH  21  22
ENDBRANCH  14  17
ENDBRANCH  11  13
ENDBRANCH   3   6
ENDBRANCH   1   2
BRANCH   1  26
ATOM     26  C   UNL A   1      31.969  29.197  26.509  1.00  0.00     0.042 C 
BRANCH  26  27
ATOM     27  C   UNL A   1      33.244  29.976  26.272  1.00  0.00     0.118 C 
BRANCH  27  28
ATOM     28  N   UNL A   1      33.425  31.080  27.219  1.00  0.00    -0.352 N 
ATOM     29  C   UNL A   1      34.417  31.225  28.180  1.00  0.00     0.251 C 
ATOM     30  H   UNL A   1      32.763  31.808  27.167  1.00  0.00     0.163 HD
ATOM     31  O   UNL A   1      34.509  32.230  28.858  1.00  0.00    -0.269 OA
BRANCH  29  32
ATOM     32  C   UNL A   1      35.439  30.158  28.242  1.00  0.00     0.039 A 
ATOM     33  C   UNL A   1      35.696  29.640  29.513  1.00  0.00     0.014 A 
ATOM     34  C   UNL A   1      36.382  30.083  27.220  1.00  0.00     0.014 A 
ATOM     35  C   UNL A   1      37.008  29.341  29.850  1.00  0.00     0.010 A 
ATOM     36  C   UNL A   1      37.700  29.869  27.582  1.00  0.00     0.010 A 
ATOM     37  C   UNL A   1      38.017  29.586  28.916  1.00  0.00    -0.014 A 
BRANCH  37  38
ATOM     38  C   UNL A   1      39.423  29.640  29.300  1.00  0.00     0.031 A 
ATOM     39  C   UNL A   1      40.256  28.438  29.133  1.00  0.00     0.074 A 
ATOM     40  C   UNL A   1      39.972  30.740  29.865  1.00  0.00     0.049 A 
ATOM     41  N   UNL A   1      41.219  28.112  29.928  1.00  0.00    -0.248 NA
ATOM     42  C   UNL A   1      40.025  27.474  28.067  1.00  0.00     0.031 C 
ATOM     43  C   UNL A   1      41.380  30.951  30.191  1.00  0.00     0.029 A 
ATOM     44  N   UNL A   1      39.311  31.810  30.481  1.00  0.00    -0.354 N 
ATOM     45  C   UNL A   1      41.895  27.067  29.350  1.00  0.00     0.074 A 
ATOM     46  C   UNL A   1      41.075  26.665  28.228  1.00  0.00     0.031 C 
ATOM     47  C   UNL A   1      41.464  31.854  31.179  1.00  0.00     0.029 A 
ATOM     48  C   UNL A   1      40.114  32.193  31.583  1.00  0.00     0.049 A 
ATOM     49  H   UNL A   1      38.457  32.215  30.205  1.00  0.00     0.167 HD
ATOM     50  C   UNL A   1      43.135  26.731  29.805  1.00  0.00     0.037 A 
ATOM     51  C   UNL A   1      39.626  32.159  32.855  1.00  0.00     0.037 A 
ATOM     52  C   UNL A   1      43.551  27.568  30.930  1.00  0.00     0.049 A 
ATOM     53  C   UNL A   1      40.316  31.164  33.762  1.00  0.00     0.074 A 
ATOM     54  C   UNL A   1      44.368  28.680  31.056  1.00  0.00     0.029 A 
ATOM     55  N   UNL A   1      42.864  27.473  32.128  1.00  0.00    -0.354 N 
ATOM     56  N   UNL A   1      41.347  30.441  33.423  1.00  0.00    -0.248 NA
ATOM     57  C   UNL A   1      39.814  30.827  35.095  1.00  0.00     0.031 C 
ATOM     58  C   UNL A   1      44.169  29.242  32.350  1.00  0.00     0.029 A 
ATOM     59  C   UNL A   1      43.231  28.472  33.010  1.00  0.00     0.049 A 
ATOM     60  H   UNL A   1      42.194  26.778  32.327  1.00  0.00     0.167 HD
ATOM     61  C   UNL A   1      41.598  29.520  34.408  1.00  0.00     0.074 A 
ATOM     62  C   UNL A   1      40.615  29.804  35.436  1.00  0.00     0.031 C 
ATOM     63  C   UNL A   1      42.556  28.554  34.295  1.00  0.00     0.037 A 
BRANCH  50  64
ATOM     64  C   UNL A   1      44.063  25.823  29.035  1.00  0.00     0.057 A 
ATOM     65  C   UNL A   1      43.912  24.425  29.077  1.00  0.00     0.134 A 
ATOM     66  C   UNL A   1      45.160  26.263  28.275  1.00  0.00     0.134 A 
ATOM     67  F   UNL A   1      42.845  23.848  29.645  1.00  0.00    -0.206 F 
ATOM     68  C   UNL A   1      44.857  23.541  28.540  1.00  0.00     0.040 A 
ATOM     69  C   UNL A   1      46.148  25.397  27.787  1.00  0.00     0.040 A 
ATOM     70  F   UNL A   1      45.297  27.551  27.927  1.00  0.00    -0.206 F 
ATOM     71  C   UNL A   1      46.007  24.026  27.937  1.00  0.00     0.006 A 
ENDBRANCH  50  64
BRANCH  51  72
ATOM     72  C   UNL A   1      38.188  32.529  32.905  1.00  0.00     0.057 A 
ATOM     73  C   UNL A   1      37.848  33.877  32.691  1.00  0.00     0.134 A 
ATOM     74  C   UNL A   1      37.184  31.577  32.721  1.00  0.00     0.134 A 
ATOM     75  F   UNL A   1      38.764  34.842  32.871  1.00  0.00    -0.206 F 
ATOM     76  C   UNL A   1      36.612  34.247  32.156  1.00  0.00     0.040 A 
ATOM     77  C   UNL A   1      35.937  31.940  32.205  1.00  0.00     0.040 A 
ATOM     78  F   UNL A   1      37.434  30.274  32.910  1.00  0.00    -0.206 F 
ATOM     79  C   UNL A   1      35.669  33.267  31.867  1.00  0.00     0.006 A 
ENDBRANCH  51  72
BRANCH  63  80
ATOM     80  C   UNL A   1      42.900  27.588  35.401  1.00  0.00     0.057 A 
ATOM     81  C   UNL A   1      42.176  26.408  35.627  1.00  0.00     0.134 A 
ATOM     82  C   UNL A   1      43.902  27.869  36.351  1.00  0.00     0.134 A 
ATOM     83  F   UNL A   1      41.126  26.080  34.860  1.00  0.00    -0.206 F 
ATOM     84  C   UNL A   1      42.481  25.527  36.672  1.00  0.00     0.040 A 
ATOM     85  C   UNL A   1      44.183  27.023  37.429  1.00  0.00     0.040 A 
ATOM     86  F   UNL A   1      44.666  28.967  36.272  1.00  0.00    -0.206 F 
ATOM     87  C   UNL A   1      43.486  25.835  37.581  1.00  0.00     0.006 A 
ENDBRANCH  63  80
ENDBRANCH  37  38
ENDBRANCH  29  32
ENDBRANCH  27  28
ENDBRANCH  26  27
ENDBRANCH   1  26
TORSDOF 13
ENDMDL
MODEL 3
REMARK VINA RESULT:     -12.7      3.859      9.413
REMARK SMILES Cc1cccc(NC(=O)[C@H]2C=C[C@@H]([NH3+])C2)c1C(=O)NCCCNC(=O)c1ccc(-c2c3nc(c(-c4c(F)cccc4F)c4ccc([nH]4)c(-c4c(F)cccc4F)c4nc(c(-c5c(F)cccc5F)c5ccc2[nH]5)C=C4)C=C3)cc1
REMARK SMILES IDX 20 1 19 2 17 3 18 4 16 6 1 7 2 8 3 9 4 10 6 11 5 12 7 13
REMARK SMILES IDX 8 14 9 16 10 17 11 18 15 19 12 20 13 21 14 22 21 26 22 27
REMARK SMILES IDX 23 28 24 29 25 31 26 32 27 33 79 34 28 35 78 36 29 37 30 38
REMARK SMILES IDX 31 39 72 40 32 41 77 42 71 43 73 44 33 45 76 46 70 47 69 48
REMARK SMILES IDX 34 50 60 51 43 52 59 53 44 54 47 55 58 56 74 57 45 58 46 59
REMARK SMILES IDX 57 61 75 62 48 63 35 64 36 65 41 66 37 67 38 68 40 69 42 70
REMARK SMILES IDX 39 71 61 72 62 73 67 74 63 75 64 76 66 77 68 78 65 79 49 80
REMARK SMILES IDX 50 81 55 82 51 83 52 84 54 85 56 86 53 87
REMARK H PARENT 19 5 7 15 14 23 14 24 14 25 23 30 73 49 47 60
REMARK Flexibility Score: inf
ROOT
ATOM      1  C   UNL A   1      37.729  23.097  25.800  1.00  0.00     0.118 C 
ENDROOT
BRANCH   1   2
ATOM      2  N   UNL A   1      37.398  23.071  24.385  1.00  0.00    -0.352 N 
ATOM      3  C   UNL A   1      36.346  22.756  23.566  1.00  0.00     0.253 C 
ATOM      4  O   UNL A   1      36.635  22.953  22.375  1.00  0.00    -0.269 OA
ATOM      5  H   UNL A   1      38.169  23.371  23.850  1.00  0.00     0.163 HD
BRANCH   3   6
ATOM      6  C   UNL A   1      34.945  22.240  23.877  1.00  0.00     0.066 A 
ATOM      7  C   UNL A   1      35.454  19.980  25.090  1.00  0.00     0.045 C 
ATOM      8  C   UNL A   1      34.576  21.086  24.624  1.00  0.00    -0.036 A 
ATOM      9  C   UNL A   1      33.220  20.778  24.860  1.00  0.00     0.004 A 
ATOM     10  C   UNL A   1      32.236  21.380  24.126  1.00  0.00     0.002 A 
ATOM     11  C   UNL A   1      33.858  22.952  23.254  1.00  0.00     0.054 A 
ATOM     12  C   UNL A   1      32.595  22.383  23.252  1.00  0.00     0.027 A 
BRANCH  11  13
ATOM     13  N   UNL A   1      34.021  24.212  22.630  1.00  0.00    -0.325 N 
ATOM     14  C   UNL A   1      33.652  25.501  22.869  1.00  0.00     0.231 C 
ATOM     15  H   UNL A   1      34.542  24.136  21.797  1.00  0.00     0.169 HD
ATOM     16  O   UNL A   1      34.028  26.312  22.002  1.00  0.00    -0.274 OA
BRANCH  14  17
ATOM     17  C   UNL A   1      32.791  26.088  24.015  1.00  0.00     0.107 C 
ATOM     18  C   UNL A   1      31.324  25.869  23.779  1.00  0.00    -0.012 C 
ATOM     19  C   UNL A   1      32.984  25.781  25.510  1.00  0.00     0.087 C 
ATOM     20  C   UNL A   1      30.663  25.613  24.912  1.00  0.00     0.033 C 
ATOM     21  C   UNL A   1      31.560  25.603  26.106  1.00  0.00     0.205 C 
BRANCH  21  22
ATOM     22  N   UNL A   1      31.379  24.379  26.876  1.00  0.00    -0.352 N 
ATOM     23  H   UNL A   1      30.861  23.700  26.318  1.00  0.00     0.345 HD
ATOM     24  H   UNL A   1      30.859  24.587  27.729  1.00  0.00     0.345 HD
ATOM     25  H   UNL A   1      32.292  23.992  27.120  1.00  0.00     0.345 HD
ENDBRANCH  21  22
ENDBRANCH  14  17
ENDBRANCH  11  13
ENDBRANCH   3   6
ENDBRANCH   1   2
BRANCH   1  26
ATOM     26  C   UNL A   1      39.050  22.386  26.083  1.00  0.00     0.042 C 
BRANCH  26  27
ATOM     27  C   UNL A   1      39.885  22.923  27.224  1.00  0.00     0.118 C 
BRANCH  27  28
ATOM     28  N   UNL A   1      41.193  23.425  26.790  1.00  0.00    -0.352 N 
ATOM     29  C   UNL A   1      41.556  24.738  26.523  1.00  0.00     0.251 C 
ATOM     30  H   UNL A   1      41.899  22.748  26.675  1.00  0.00     0.163 HD
ATOM     31  O   UNL A   1      42.700  25.042  26.244  1.00  0.00    -0.269 OA
BRANCH  29  32
ATOM     32  C   UNL A   1      40.515  25.768  26.731  1.00  0.00     0.039 A 
ATOM     33  C   UNL A   1      40.778  27.017  26.166  1.00  0.00     0.014 A 
ATOM     34  C   UNL A   1      39.648  25.625  27.811  1.00  0.00     0.014 A 
ATOM     35  C   UNL A   1      40.429  28.153  26.882  1.00  0.00     0.010 A 
ATOM     36  C   UNL A   1      39.379  26.753  28.567  1.00  0.00     0.010 A 
ATOM     37  C   UNL A   1      39.849  28.002  28.143  1.00  0.00    -0.014 A 
BRANCH  37  38
ATOM     38  C   UNL A   1      39.782  29.105  29.095  1.00  0.00     0.031 A 
ATOM     39  C   UNL A   1      38.726  30.119  28.941  1.00  0.00     0.074 A 
ATOM     40  C   UNL A   1      40.698  29.262  30.078  1.00  0.00     0.049 A 
ATOM     41  N   UNL A   1      38.878  31.367  29.229  1.00  0.00    -0.248 NA
ATOM     42  C   UNL A   1      37.416  29.799  28.393  1.00  0.00     0.031 C 
ATOM     43  C   UNL A   1      40.676  30.256  31.148  1.00  0.00     0.029 A 
ATOM     44  N   UNL A   1      41.974  28.691  30.163  1.00  0.00    -0.354 N 
ATOM     45  C   UNL A   1      37.641  31.959  29.162  1.00  0.00     0.074 A 
ATOM     46  C   UNL A   1      36.777  30.958  28.576  1.00  0.00     0.031 C 
ATOM     47  C   UNL A   1      41.932  30.464  31.569  1.00  0.00     0.029 A 
ATOM     48  C   UNL A   1      42.815  29.678  30.731  1.00  0.00     0.049 A 
ATOM     49  H   UNL A   1      42.234  27.783  29.883  1.00  0.00     0.167 HD
ATOM     50  C   UNL A   1      37.449  33.187  29.723  1.00  0.00     0.037 A 
ATOM     51  C   UNL A   1      43.907  30.142  30.059  1.00  0.00     0.037 A 
ATOM     52  C   UNL A   1      38.680  33.721  30.306  1.00  0.00     0.049 A 
ATOM     53  C   UNL A   1      43.833  31.607  29.686  1.00  0.00     0.074 A 
ATOM     54  C   UNL A   1      39.192  33.782  31.592  1.00  0.00     0.029 A 
ATOM     55  N   UNL A   1      39.734  34.043  29.469  1.00  0.00    -0.354 N 
ATOM     56  N   UNL A   1      42.868  32.413  30.029  1.00  0.00    -0.248 NA
ATOM     57  C   UNL A   1      44.800  32.246  28.791  1.00  0.00     0.031 C 
ATOM     58  C   UNL A   1      40.564  34.157  31.515  1.00  0.00     0.029 A 
ATOM     59  C   UNL A   1      40.887  34.323  30.181  1.00  0.00     0.049 A 
ATOM     60  H   UNL A   1      39.672  34.070  28.487  1.00  0.00     0.167 HD
ATOM     61  C   UNL A   1      43.020  33.607  29.372  1.00  0.00     0.074 A 
ATOM     62  C   UNL A   1      44.247  33.456  28.612  1.00  0.00     0.031 C 
ATOM     63  C   UNL A   1      42.107  34.620  29.449  1.00  0.00     0.037 A 
BRANCH  50  64
ATOM     64  C   UNL A   1      36.075  33.759  29.972  1.00  0.00     0.057 A 
ATOM     65  C   UNL A   1      35.270  34.205  28.908  1.00  0.00     0.134 A 
ATOM     66  C   UNL A   1      35.508  33.947  31.244  1.00  0.00     0.134 A 
ATOM     67  F   UNL A   1      35.602  33.979  27.630  1.00  0.00    -0.206 F 
ATOM     68  C   UNL A   1      34.078  34.914  29.101  1.00  0.00     0.040 A 
ATOM     69  C   UNL A   1      34.352  34.710  31.459  1.00  0.00     0.040 A 
ATOM     70  F   UNL A   1      36.023  33.357  32.332  1.00  0.00    -0.206 F 
ATOM     71  C   UNL A   1      33.641  35.215  30.382  1.00  0.00     0.006 A 
ENDBRANCH  50  64
BRANCH  51  72
ATOM     72  C   UNL A   1      44.561  29.073  29.261  1.00  0.00     0.057 A 
ATOM     73  C   UNL A   1      44.301  29.032  27.879  1.00  0.00     0.134 A 
ATOM     74  C   UNL A   1      45.707  28.421  29.719  1.00  0.00     0.134 A 
ATOM     75  F   UNL A   1      43.205  29.624  27.380  1.00  0.00    -0.206 F 
ATOM     76  C   UNL A   1      45.227  28.510  26.974  1.00  0.00     0.040 A 
ATOM     77  C   UNL A   1      46.629  27.876  28.821  1.00  0.00     0.040 A 
ATOM     78  F   UNL A   1      46.017  28.415  31.023  1.00  0.00    -0.206 F 
ATOM     79  C   UNL A   1      46.419  27.971  27.445  1.00  0.00     0.006 A 
ENDBRANCH  51  72
BRANCH  63  80
ATOM     80  C   UNL A   1      42.299  35.967  28.801  1.00  0.00     0.057 A 
ATOM     81  C   UNL A   1      41.898  36.237  27.484  1.00  0.00     0.134 A 
ATOM     82  C   UNL A   1      43.002  37.008  29.439  1.00  0.00     0.134 A 
ATOM     83  F   UNL A   1      41.317  35.294  26.729  1.00  0.00    -0.206 F 
ATOM     84  C   UNL A   1      42.103  37.482  26.876  1.00  0.00     0.040 A 
ATOM     85  C   UNL A   1      43.258  38.238  28.825  1.00  0.00     0.040 A 
ATOM     86  F   UNL A   1      43.459  36.890  30.694  1.00  0.00    -0.206 F 
ATOM     87  C   UNL A   1      42.790  38.487  27.545  1.00  0.00     0.006 A 
ENDBRANCH  63  80
ENDBRANCH  37  38
ENDBRANCH  29  32
ENDBRANCH  27  28
ENDBRANCH  26  27
ENDBRANCH   1  26
TORSDOF 13
ENDMDL
