MODEL 1
REMARK VINA RESULT:     -11.3      0.000      0.000
REMARK SMILES CC(=O)Nc1cccc(N)c1C(=O)NCCCNC(=O)c1ccc(-c2c3nc(c(-c4c(F)cccc4F)c4ccc([nH]4)c(-c4c(F)cccc4F)c4nc(c(-c5c(F)cccc5F)c5ccc2[nH]5)C=C4)C=C3)cc1
REMARK SMILES IDX 16 1 15 2 14 3 12 4 13 5 11 7 5 8 6 9 7 10 9 11 8 12 4 13
REMARK SMILES IDX 1 14 2 15 3 16 10 18 17 21 18 22 19 23 20 25 21 26 22 27
REMARK SMILES IDX 74 28 23 29 73 30 24 31 25 32 26 33 67 34 27 35 72 36 66 37
REMARK SMILES IDX 68 38 28 39 71 40 65 41 64 42 29 44 55 45 38 46 54 47 39 48
REMARK SMILES IDX 42 49 53 50 69 51 40 52 41 53 52 55 70 56 43 57 30 58 31 59
REMARK SMILES IDX 36 60 32 61 33 62 35 63 37 64 34 65 56 66 57 67 62 68 58 69
REMARK SMILES IDX 59 70 61 71 63 72 60 73 44 74 45 75 50 76 46 77 47 78 49 79
REMARK SMILES IDX 51 80 48 81
REMARK H PARENT 14 6 4 17 10 19 10 20 18 24 68 43 42 54
REMARK Flexibility Score: inf
ROOT
ATOM      1  C   UNL A   1      37.382  21.570  24.727  1.00  0.00     0.042 C 
ENDROOT
BRANCH   1   2
ATOM      2  C   UNL A   1      36.208  20.640  24.981  1.00  0.00     0.118 C 
BRANCH   2   3
ATOM      3  N   UNL A   1      35.369  21.042  26.098  1.00  0.00    -0.352 N 
ATOM      4  C   UNL A   1      34.009  21.236  26.149  1.00  0.00     0.255 C 
ATOM      5  O   UNL A   1      33.505  21.598  27.212  1.00  0.00    -0.269 OA
ATOM      6  H   UNL A   1      35.846  21.200  26.945  1.00  0.00     0.163 HD
BRANCH   4   7
ATOM      7  C   UNL A   1      33.157  21.083  24.941  1.00  0.00     0.086 A 
ATOM      8  C   UNL A   1      32.663  19.843  24.492  1.00  0.00     0.056 A 
ATOM      9  C   UNL A   1      32.186  19.748  23.176  1.00  0.00     0.027 A 
ATOM     10  C   UNL A   1      32.067  20.883  22.377  1.00  0.00     0.004 A 
ATOM     11  C   UNL A   1      32.921  22.258  24.184  1.00  0.00     0.046 A 
ATOM     12  C   UNL A   1      32.406  22.131  22.889  1.00  0.00     0.026 A 
BRANCH   8  13
ATOM     13  N   UNL A   1      32.615  18.639  25.226  1.00  0.00    -0.326 N 
ATOM     14  C   UNL A   1      34.595  17.406  24.332  1.00  0.00     0.114 C 
ATOM     15  C   UNL A   1      33.298  17.465  25.088  1.00  0.00     0.221 C 
ATOM     16  O   UNL A   1      32.856  16.463  25.655  1.00  0.00    -0.275 OA
ATOM     17  H   UNL A   1      31.973  18.648  25.973  1.00  0.00     0.169 HD
ENDBRANCH   8  13
BRANCH  11  18
ATOM     18  N   UNL A   1      33.335  23.526  24.607  1.00  0.00    -0.398 N 
ATOM     19  H   UNL A   1      34.169  23.914  24.256  1.00  0.00     0.156 HD
ATOM     20  H   UNL A   1      32.790  24.030  25.254  1.00  0.00     0.156 HD
ENDBRANCH  11  18
ENDBRANCH   4   7
ENDBRANCH   2   3
ENDBRANCH   1   2
BRANCH   1  21
ATOM     21  C   UNL A   1      38.543  21.438  25.706  1.00  0.00     0.118 C 
BRANCH  21  22
ATOM     22  N   UNL A   1      39.368  20.245  25.554  1.00  0.00    -0.352 N 
ATOM     23  C   UNL A   1      40.658  19.999  25.975  1.00  0.00     0.251 C 
ATOM     24  H   UNL A   1      38.937  19.500  25.076  1.00  0.00     0.163 HD
ATOM     25  O   UNL A   1      41.183  18.908  25.775  1.00  0.00    -0.269 OA
BRANCH  23  26
ATOM     26  C   UNL A   1      41.458  21.079  26.597  1.00  0.00     0.039 A 
ATOM     27  C   UNL A   1      42.060  22.023  25.761  1.00  0.00     0.014 A 
ATOM     28  C   UNL A   1      41.548  21.219  27.980  1.00  0.00     0.014 A 
ATOM     29  C   UNL A   1      42.616  23.180  26.310  1.00  0.00     0.010 A 
ATOM     30  C   UNL A   1      41.995  22.423  28.518  1.00  0.00     0.010 A 
ATOM     31  C   UNL A   1      42.508  23.430  27.687  1.00  0.00    -0.014 A 
BRANCH  31  32
ATOM     32  C   UNL A   1      42.865  24.753  28.268  1.00  0.00     0.031 A 
ATOM     33  C   UNL A   1      41.806  25.795  28.504  1.00  0.00     0.074 A 
ATOM     34  C   UNL A   1      44.161  25.058  28.488  1.00  0.00     0.049 A 
ATOM     35  N   UNL A   1      41.942  27.044  28.871  1.00  0.00    -0.248 NA
ATOM     36  C   UNL A   1      40.413  25.393  28.252  1.00  0.00     0.031 C 
ATOM     37  C   UNL A   1      45.300  24.171  28.236  1.00  0.00     0.029 A 
ATOM     38  N   UNL A   1      44.743  26.208  28.964  1.00  0.00    -0.354 N 
ATOM     39  C   UNL A   1      40.663  27.584  28.854  1.00  0.00     0.074 A 
ATOM     40  C   UNL A   1      39.769  26.541  28.401  1.00  0.00     0.031 C 
ATOM     41  C   UNL A   1      46.434  24.793  28.593  1.00  0.00     0.029 A 
ATOM     42  C   UNL A   1      46.113  26.138  29.057  1.00  0.00     0.049 A 
ATOM     43  H   UNL A   1      44.227  27.008  29.214  1.00  0.00     0.167 HD
ATOM     44  C   UNL A   1      40.263  28.829  29.207  1.00  0.00     0.037 A 
ATOM     45  C   UNL A   1      47.012  27.053  29.465  1.00  0.00     0.037 A 
ATOM     46  C   UNL A   1      41.139  29.850  29.719  1.00  0.00     0.049 A 
ATOM     47  C   UNL A   1      46.536  28.408  29.905  1.00  0.00     0.074 A 
ATOM     48  C   UNL A   1      40.813  31.114  30.179  1.00  0.00     0.029 A 
ATOM     49  N   UNL A   1      42.512  29.716  29.851  1.00  0.00    -0.354 N 
ATOM     50  N   UNL A   1      45.315  28.883  29.936  1.00  0.00    -0.248 NA
ATOM     51  C   UNL A   1      47.563  29.353  30.367  1.00  0.00     0.031 C 
ATOM     52  C   UNL A   1      41.994  31.754  30.570  1.00  0.00     0.029 A 
ATOM     53  C   UNL A   1      43.049  30.878  30.381  1.00  0.00     0.049 A 
ATOM     54  H   UNL A   1      43.028  28.915  29.605  1.00  0.00     0.167 HD
ATOM     55  C   UNL A   1      45.423  30.171  30.444  1.00  0.00     0.074 A 
ATOM     56  C   UNL A   1      46.827  30.399  30.717  1.00  0.00     0.031 C 
ATOM     57  C   UNL A   1      44.446  31.083  30.661  1.00  0.00     0.037 A 
BRANCH  44  58
ATOM     58  C   UNL A   1      38.804  29.151  29.067  1.00  0.00     0.057 A 
ATOM     59  C   UNL A   1      37.929  29.089  30.158  1.00  0.00     0.134 A 
ATOM     60  C   UNL A   1      38.276  29.552  27.833  1.00  0.00     0.134 A 
ATOM     61  F   UNL A   1      38.371  28.699  31.363  1.00  0.00    -0.206 F 
ATOM     62  C   UNL A   1      36.573  29.390  30.022  1.00  0.00     0.040 A 
ATOM     63  C   UNL A   1      36.927  29.880  27.692  1.00  0.00     0.040 A 
ATOM     64  F   UNL A   1      39.062  29.637  26.750  1.00  0.00    -0.206 F 
ATOM     65  C   UNL A   1      36.070  29.793  28.787  1.00  0.00     0.006 A 
ENDBRANCH  44  58
BRANCH  45  66
ATOM     66  C   UNL A   1      48.455  26.712  29.508  1.00  0.00     0.057 A 
ATOM     67  C   UNL A   1      49.297  27.025  28.435  1.00  0.00     0.134 A 
ATOM     68  C   UNL A   1      49.024  26.061  30.609  1.00  0.00     0.134 A 
ATOM     69  F   UNL A   1      48.803  27.631  27.345  1.00  0.00    -0.206 F 
ATOM     70  C   UNL A   1      50.651  26.686  28.445  1.00  0.00     0.040 A 
ATOM     71  C   UNL A   1      50.381  25.736  30.641  1.00  0.00     0.040 A 
ATOM     72  F   UNL A   1      48.271  25.742  31.671  1.00  0.00    -0.206 F 
ATOM     73  C   UNL A   1      51.197  26.041  29.553  1.00  0.00     0.006 A 
ENDBRANCH  45  66
BRANCH  57  74
ATOM     74  C   UNL A   1      44.855  32.396  31.257  1.00  0.00     0.057 A 
ATOM     75  C   UNL A   1      45.195  33.493  30.458  1.00  0.00     0.134 A 
ATOM     76  C   UNL A   1      44.871  32.572  32.646  1.00  0.00     0.134 A 
ATOM     77  F   UNL A   1      45.212  33.380  29.120  1.00  0.00    -0.206 F 
ATOM     78  C   UNL A   1      45.552  34.719  31.019  1.00  0.00     0.040 A 
ATOM     79  C   UNL A   1      45.207  33.798  33.219  1.00  0.00     0.040 A 
ATOM     80  F   UNL A   1      44.550  31.559  33.465  1.00  0.00    -0.206 F 
ATOM     81  C   UNL A   1      45.552  34.875  32.404  1.00  0.00     0.006 A 
ENDBRANCH  57  74
ENDBRANCH  31  32
ENDBRANCH  23  26
ENDBRANCH  21  22
ENDBRANCH   1  21
TORSDOF 12
ENDMDL
MODEL 2
REMARK VINA RESULT:     -11.2      5.097      8.813
REMARK SMILES CC(=O)Nc1cccc(N)c1C(=O)NCCCNC(=O)c1ccc(-c2c3nc(c(-c4c(F)cccc4F)c4ccc([nH]4)c(-c4c(F)cccc4F)c4nc(c(-c5c(F)cccc5F)c5ccc2[nH]5)C=C4)C=C3)cc1
REMARK SMILES IDX 16 1 15 2 14 3 12 4 13 5 11 7 5 8 6 9 7 10 9 11 8 12 4 13
REMARK SMILES IDX 1 14 2 15 3 16 10 18 17 21 18 22 19 23 20 25 21 26 22 27
REMARK SMILES IDX 74 28 23 29 73 30 24 31 25 32 26 33 67 34 27 35 72 36 66 37
REMARK SMILES IDX 68 38 28 39 71 40 65 41 64 42 29 44 55 45 38 46 54 47 39 48
REMARK SMILES IDX 42 49 53 50 69 51 40 52 41 53 52 55 70 56 43 57 30 58 31 59
REMARK SMILES IDX 36 60 32 61 33 62 35 63 37 64 34 65 56 66 57 67 62 68 58 69
REMARK SMILES IDX 59 70 61 71 63 72 60 73 44 74 45 75 50 76 46 77 47 78 49 79
REMARK SMILES IDX 51 80 48 81
REMARK H PARENT 14 6 4 17 10 19 10 20 18 24 68 43 42 54
REMARK Flexibility Score: inf
ROOT
ATOM      1  C   UNL A   1      31.309  31.545  26.602  1.00  0.00     0.042 C 
ENDROOT
BRANCH   1   2
ATOM      2  C   UNL A   1      32.027  30.209  26.523  1.00  0.00     0.118 C 
BRANCH   2   3
ATOM      3  N   UNL A   1      32.713  29.983  25.261  1.00  0.00    -0.352 N 
ATOM      4  C   UNL A   1      32.329  29.232  24.176  1.00  0.00     0.255 C 
ATOM      5  O   UNL A   1      33.086  29.168  23.207  1.00  0.00    -0.269 OA
ATOM      6  H   UNL A   1      33.584  30.435  25.171  1.00  0.00     0.163 HD
BRANCH   4   7
ATOM      7  C   UNL A   1      31.064  28.454  24.178  1.00  0.00     0.086 A 
ATOM      8  C   UNL A   1      30.952  27.157  24.717  1.00  0.00     0.056 A 
ATOM      9  C   UNL A   1      29.844  26.375  24.358  1.00  0.00     0.027 A 
ATOM     10  C   UNL A   1      28.805  26.914  23.602  1.00  0.00     0.004 A 
ATOM     11  C   UNL A   1      29.958  29.048  23.520  1.00  0.00     0.046 A 
ATOM     12  C   UNL A   1      28.851  28.249  23.212  1.00  0.00     0.026 A 
BRANCH   8  13
ATOM     13  N   UNL A   1      31.867  26.523  25.584  1.00  0.00    -0.326 N 
ATOM     14  C   UNL A   1      33.605  25.698  23.991  1.00  0.00     0.114 C 
ATOM     15  C   UNL A   1      32.937  25.712  25.338  1.00  0.00     0.221 C 
ATOM     16  O   UNL A   1      33.385  25.038  26.268  1.00  0.00    -0.275 OA
ATOM     17  H   UNL A   1      31.703  26.696  26.540  1.00  0.00     0.169 HD
ENDBRANCH   8  13
BRANCH  11  18
ATOM     18  N   UNL A   1      29.989  30.352  23.015  1.00  0.00    -0.398 N 
ATOM     19  H   UNL A   1      30.352  31.084  23.565  1.00  0.00     0.156 HD
ATOM     20  H   UNL A   1      29.648  30.537  22.110  1.00  0.00     0.156 HD
ENDBRANCH  11  18
ENDBRANCH   4   7
ENDBRANCH   2   3
ENDBRANCH   1   2
BRANCH   1  21
ATOM     21  C   UNL A   1      32.167  32.767  26.294  1.00  0.00     0.118 C 
BRANCH  21  22
ATOM     22  N   UNL A   1      32.137  33.831  27.291  1.00  0.00    -0.352 N 
ATOM     23  C   UNL A   1      33.063  34.166  28.257  1.00  0.00     0.251 C 
ATOM     24  H   UNL A   1      31.332  34.397  27.271  1.00  0.00     0.163 HD
ATOM     25  O   UNL A   1      32.871  35.125  28.999  1.00  0.00    -0.269 OA
BRANCH  23  26
ATOM     26  C   UNL A   1      34.258  33.319  28.471  1.00  0.00     0.039 A 
ATOM     27  C   UNL A   1      35.511  33.937  28.506  1.00  0.00     0.014 A 
ATOM     28  C   UNL A   1      34.151  31.952  28.719  1.00  0.00     0.014 A 
ATOM     29  C   UNL A   1      36.626  33.217  28.938  1.00  0.00     0.010 A 
ATOM     30  C   UNL A   1      35.236  31.268  29.260  1.00  0.00     0.010 A 
ATOM     31  C   UNL A   1      36.480  31.901  29.404  1.00  0.00    -0.014 A 
BRANCH  31  32
ATOM     32  C   UNL A   1      37.590  31.192  30.097  1.00  0.00     0.031 A 
ATOM     33  C   UNL A   1      37.879  31.459  31.548  1.00  0.00     0.074 A 
ATOM     34  C   UNL A   1      38.409  30.383  29.391  1.00  0.00     0.049 A 
ATOM     35  N   UNL A   1      38.880  31.045  32.282  1.00  0.00    -0.248 NA
ATOM     36  C   UNL A   1      36.942  32.343  32.258  1.00  0.00     0.031 C 
ATOM     37  C   UNL A   1      38.293  30.091  27.961  1.00  0.00     0.029 A 
ATOM     38  N   UNL A   1      39.514  29.666  29.782  1.00  0.00    -0.354 N 
ATOM     39  C   UNL A   1      38.715  31.648  33.522  1.00  0.00     0.074 A 
ATOM     40  C   UNL A   1      37.543  32.490  33.430  1.00  0.00     0.031 C 
ATOM     41  C   UNL A   1      39.258  29.230  27.604  1.00  0.00     0.029 A 
ATOM     42  C   UNL A   1      40.092  28.942  28.766  1.00  0.00     0.049 A 
ATOM     43  H   UNL A   1      39.860  29.670  30.704  1.00  0.00     0.167 HD
ATOM     44  C   UNL A   1      39.459  31.498  34.644  1.00  0.00     0.037 A 
ATOM     45  C   UNL A   1      41.174  28.142  28.766  1.00  0.00     0.037 A 
ATOM     46  C   UNL A   1      40.588  30.613  34.759  1.00  0.00     0.049 A 
ATOM     47  C   UNL A   1      41.947  27.948  30.038  1.00  0.00     0.074 A 
ATOM     48  C   UNL A   1      41.353  30.332  35.878  1.00  0.00     0.029 A 
ATOM     49  N   UNL A   1      41.104  29.855  33.720  1.00  0.00    -0.354 N 
ATOM     50  N   UNL A   1      41.743  28.482  31.217  1.00  0.00    -0.248 NA
ATOM     51  C   UNL A   1      43.101  27.037  29.981  1.00  0.00     0.031 C 
ATOM     52  C   UNL A   1      42.347  29.420  35.510  1.00  0.00     0.029 A 
ATOM     53  C   UNL A   1      42.181  29.111  34.170  1.00  0.00     0.049 A 
ATOM     54  H   UNL A   1      40.756  29.847  32.799  1.00  0.00     0.167 HD
ATOM     55  C   UNL A   1      42.725  27.956  32.046  1.00  0.00     0.074 A 
ATOM     56  C   UNL A   1      43.517  27.051  31.239  1.00  0.00     0.031 C 
ATOM     57  C   UNL A   1      42.950  28.203  33.359  1.00  0.00     0.037 A 
BRANCH  44  58
ATOM     58  C   UNL A   1      39.060  32.299  35.848  1.00  0.00     0.057 A 
ATOM     59  C   UNL A   1      39.467  33.628  36.016  1.00  0.00     0.134 A 
ATOM     60  C   UNL A   1      38.237  31.742  36.836  1.00  0.00     0.134 A 
ATOM     61  F   UNL A   1      40.266  34.214  35.112  1.00  0.00    -0.206 F 
ATOM     62  C   UNL A   1      39.092  34.369  37.138  1.00  0.00     0.040 A 
ATOM     63  C   UNL A   1      37.836  32.482  37.950  1.00  0.00     0.040 A 
ATOM     64  F   UNL A   1      37.808  30.476  36.733  1.00  0.00    -0.206 F 
ATOM     65  C   UNL A   1      38.269  33.798  38.106  1.00  0.00     0.006 A 
ENDBRANCH  44  58
BRANCH  45  66
ATOM     66  C   UNL A   1      41.576  27.433  27.526  1.00  0.00     0.057 A 
ATOM     67  C   UNL A   1      42.384  28.063  26.571  1.00  0.00     0.134 A 
ATOM     68  C   UNL A   1      41.159  26.124  27.258  1.00  0.00     0.134 A 
ATOM     69  F   UNL A   1      42.796  29.324  26.764  1.00  0.00    -0.206 F 
ATOM     70  C   UNL A   1      42.748  27.423  25.385  1.00  0.00     0.040 A 
ATOM     71  C   UNL A   1      41.534  25.466  26.086  1.00  0.00     0.040 A 
ATOM     72  F   UNL A   1      40.390  25.465  28.137  1.00  0.00    -0.206 F 
ATOM     73  C   UNL A   1      42.325  26.118  25.142  1.00  0.00     0.006 A 
ENDBRANCH  45  66
BRANCH  57  74
ATOM     74  C   UNL A   1      44.073  27.458  34.012  1.00  0.00     0.057 A 
ATOM     75  C   UNL A   1      43.875  26.213  34.620  1.00  0.00     0.134 A 
ATOM     76  C   UNL A   1      45.373  27.976  33.998  1.00  0.00     0.134 A 
ATOM     77  F   UNL A   1      42.648  25.672  34.678  1.00  0.00    -0.206 F 
ATOM     78  C   UNL A   1      44.930  25.513  35.206  1.00  0.00     0.040 A 
ATOM     79  C   UNL A   1      46.441  27.277  34.562  1.00  0.00     0.040 A 
ATOM     80  F   UNL A   1      45.628  29.162  33.425  1.00  0.00    -0.206 F 
ATOM     81  C   UNL A   1      46.219  26.043  35.171  1.00  0.00     0.006 A 
ENDBRANCH  57  74
ENDBRANCH  31  32
ENDBRANCH  23  26
ENDBRANCH  21  22
ENDBRANCH   1  21
TORSDOF 12
ENDMDL
MODEL 3
REMARK VINA RESULT:     -11.2      1.241      6.803
REMARK SMILES CC(=O)Nc1cccc(N)c1C(=O)NCCCNC(=O)c1ccc(-c2c3nc(c(-c4c(F)cccc4F)c4ccc([nH]4)c(-c4c(F)cccc4F)c4nc(c(-c5c(F)cccc5F)c5ccc2[nH]5)C=C4)C=C3)cc1
REMARK SMILES IDX 16 1 15 2 14 3 12 4 13 5 11 7 5 8 6 9 7 10 9 11 8 12 4 13
REMARK SMILES IDX 1 14 2 15 3 16 10 18 17 21 18 22 19 23 20 25 21 26 22 27
REMARK SMILES IDX 74 28 23 29 73 30 24 31 25 32 26 33 67 34 27 35 72 36 66 37
REMARK SMILES IDX 68 38 28 39 71 40 65 41 64 42 29 44 55 45 38 46 54 47 39 48
REMARK SMILES IDX 42 49 53 50 69 51 40 52 41 53 52 55 70 56 43 57 30 58 31 59
REMARK SMILES IDX 36 60 32 61 33 62 35 63 37 64 34 65 56 66 57 67 62 68 58 69
REMARK SMILES IDX 59 70 61 71 63 72 60 73 44 74 45 75 50 76 46 77 47 78 49 79
REMARK SMILES IDX 51 80 48 81
REMARK H PARENT 14 6 4 17 10 19 10 20 18 24 68 43 42 54
REMARK Flexibility Score: inf
ROOT
ATOM      1  C   UNL A   1      37.422  21.307  24.706  1.00  0.00     0.042 C 
ENDROOT
BRANCH   1   2
ATOM      2  C   UNL A   1      36.978  22.727  24.402  1.00  0.00     0.118 C 
BRANCH   2   3
ATOM      3  N   UNL A   1      36.023  23.263  25.357  1.00  0.00    -0.352 N 
ATOM      4  C   UNL A   1      34.660  23.098  25.423  1.00  0.00     0.255 C 
ATOM      5  O   UNL A   1      34.040  23.667  26.321  1.00  0.00    -0.269 OA
ATOM      6  H   UNL A   1      36.410  23.829  26.064  1.00  0.00     0.163 HD
BRANCH   4   7
ATOM      7  C   UNL A   1      33.923  22.310  24.402  1.00  0.00     0.086 A 
ATOM      8  C   UNL A   1      33.491  22.844  23.171  1.00  0.00     0.056 A 
ATOM      9  C   UNL A   1      32.512  22.150  22.446  1.00  0.00     0.027 A 
ATOM     10  C   UNL A   1      32.077  20.892  22.856  1.00  0.00     0.004 A 
ATOM     11  C   UNL A   1      33.583  20.980  24.757  1.00  0.00     0.046 A 
ATOM     12  C   UNL A   1      32.631  20.301  23.988  1.00  0.00     0.026 A 
BRANCH   8  13
ATOM     13  N   UNL A   1      33.925  24.048  22.577  1.00  0.00    -0.326 N 
ATOM     14  C   UNL A   1      32.409  25.726  23.638  1.00  0.00     0.114 C 
ATOM     15  C   UNL A   1      33.393  25.305  22.583  1.00  0.00     0.221 C 
ATOM     16  O   UNL A   1      33.789  26.110  21.737  1.00  0.00    -0.275 OA
ATOM     17  H   UNL A   1      34.763  23.965  22.066  1.00  0.00     0.169 HD
ENDBRANCH   8  13
BRANCH  11  18
ATOM     18  N   UNL A   1      34.030  20.375  25.936  1.00  0.00    -0.398 N 
ATOM     19  H   UNL A   1      34.527  20.902  26.603  1.00  0.00     0.156 HD
ATOM     20  H   UNL A   1      33.846  19.421  26.099  1.00  0.00     0.156 HD
ENDBRANCH  11  18
ENDBRANCH   4   7
ENDBRANCH   2   3
ENDBRANCH   1   2
BRANCH   1  21
ATOM     21  C   UNL A   1      38.529  21.177  25.746  1.00  0.00     0.118 C 
BRANCH  21  22
ATOM     22  N   UNL A   1      39.431  20.044  25.576  1.00  0.00    -0.352 N 
ATOM     23  C   UNL A   1      40.747  19.892  25.959  1.00  0.00     0.251 C 
ATOM     24  H   UNL A   1      39.038  19.267  25.116  1.00  0.00     0.163 HD
ATOM     25  O   UNL A   1      41.341  18.838  25.748  1.00  0.00    -0.269 OA
BRANCH  23  26
ATOM     26  C   UNL A   1      41.487  21.030  26.550  1.00  0.00     0.039 A 
ATOM     27  C   UNL A   1      42.081  21.954  25.686  1.00  0.00     0.014 A 
ATOM     28  C   UNL A   1      41.529  21.240  27.927  1.00  0.00     0.014 A 
ATOM     29  C   UNL A   1      42.578  23.157  26.194  1.00  0.00     0.010 A 
ATOM     30  C   UNL A   1      41.915  22.484  28.417  1.00  0.00     0.010 A 
ATOM     31  C   UNL A   1      42.417  23.469  27.553  1.00  0.00    -0.014 A 
BRANCH  31  32
ATOM     32  C   UNL A   1      42.708  24.831  28.078  1.00  0.00     0.031 A 
ATOM     33  C   UNL A   1      44.099  25.201  28.512  1.00  0.00     0.074 A 
ATOM     34  C   UNL A   1      41.696  25.704  28.265  1.00  0.00     0.049 A 
ATOM     35  N   UNL A   1      44.515  26.284  29.119  1.00  0.00    -0.248 NA
ATOM     36  C   UNL A   1      45.156  24.206  28.272  1.00  0.00     0.031 C 
ATOM     37  C   UNL A   1      40.285  25.453  27.958  1.00  0.00     0.029 A 
ATOM     38  N   UNL A   1      41.696  26.981  28.771  1.00  0.00    -0.354 N 
ATOM     39  C   UNL A   1      45.867  26.083  29.367  1.00  0.00     0.074 A 
ATOM     40  C   UNL A   1      46.193  24.759  28.885  1.00  0.00     0.031 C 
ATOM     41  C   UNL A   1      39.566  26.549  28.245  1.00  0.00     0.029 A 
ATOM     42  C   UNL A   1      40.453  27.566  28.799  1.00  0.00     0.049 A 
ATOM     43  H   UNL A   1      42.512  27.435  29.086  1.00  0.00     0.167 HD
ATOM     44  C   UNL A   1      46.762  26.932  29.925  1.00  0.00     0.037 A 
ATOM     45  C   UNL A   1      40.065  28.782  29.228  1.00  0.00     0.037 A 
ATOM     46  C   UNL A   1      46.458  28.273  30.348  1.00  0.00     0.049 A 
ATOM     47  C   UNL A   1      41.089  29.726  29.790  1.00  0.00     0.074 A 
ATOM     48  C   UNL A   1      47.317  29.236  30.849  1.00  0.00     0.029 A 
ATOM     49  N   UNL A   1      45.196  28.845  30.305  1.00  0.00    -0.354 N 
ATOM     50  N   UNL A   1      42.374  29.539  29.965  1.00  0.00    -0.248 NA
ATOM     51  C   UNL A   1      40.609  31.050  30.213  1.00  0.00     0.031 C 
ATOM     52  C   UNL A   1      46.570  30.384  31.130  1.00  0.00     0.029 A 
ATOM     53  C   UNL A   1      45.253  30.146  30.775  1.00  0.00     0.049 A 
ATOM     54  H   UNL A   1      44.381  28.393  29.987  1.00  0.00     0.167 HD
ATOM     55  C   UNL A   1      42.860  30.728  30.495  1.00  0.00     0.074 A 
ATOM     56  C   UNL A   1      41.735  31.632  30.601  1.00  0.00     0.031 C 
ATOM     57  C   UNL A   1      44.127  31.039  30.861  1.00  0.00     0.037 A 
BRANCH  44  58
ATOM     58  C   UNL A   1      48.169  26.437  30.094  1.00  0.00     0.057 A 
ATOM     59  C   UNL A   1      49.136  26.614  29.097  1.00  0.00     0.134 A 
ATOM     60  C   UNL A   1      48.565  25.801  31.277  1.00  0.00     0.134 A 
ATOM     61  F   UNL A   1      48.815  27.204  27.935  1.00  0.00    -0.206 F 
ATOM     62  C   UNL A   1      50.443  26.153  29.259  1.00  0.00     0.040 A 
ATOM     63  C   UNL A   1      49.877  25.358  31.460  1.00  0.00     0.040 A 
ATOM     64  F   UNL A   1      47.689  25.605  32.273  1.00  0.00    -0.206 F 
ATOM     65  C   UNL A   1      50.818  25.528  30.447  1.00  0.00     0.006 A 
ENDBRANCH  44  58
BRANCH  45  66
ATOM     66  C   UNL A   1      38.645  29.194  29.114  1.00  0.00     0.057 A 
ATOM     67  C   UNL A   1      38.126  29.646  27.894  1.00  0.00     0.134 A 
ATOM     68  C   UNL A   1      37.777  29.158  30.211  1.00  0.00     0.134 A 
ATOM     69  F   UNL A   1      38.915  29.720  26.813  1.00  0.00    -0.206 F 
ATOM     70  C   UNL A   1      36.800  30.065  27.774  1.00  0.00     0.040 A 
ATOM     71  C   UNL A   1      36.444  29.555  30.100  1.00  0.00     0.040 A 
ATOM     72  F   UNL A   1      38.213  28.729  31.405  1.00  0.00    -0.206 F 
ATOM     73  C   UNL A   1      35.954  30.017  28.880  1.00  0.00     0.006 A 
ENDBRANCH  45  66
BRANCH  57  74
ATOM     74  C   UNL A   1      44.369  32.425  31.375  1.00  0.00     0.057 A 
ATOM     75  C   UNL A   1      44.680  33.485  30.516  1.00  0.00     0.134 A 
ATOM     76  C   UNL A   1      44.250  32.708  32.741  1.00  0.00     0.134 A 
ATOM     77  F   UNL A   1      44.822  33.273  29.198  1.00  0.00    -0.206 F 
ATOM     78  C   UNL A   1      44.880  34.778  30.999  1.00  0.00     0.040 A 
ATOM     79  C   UNL A   1      44.428  34.000  33.235  1.00  0.00     0.040 A 
ATOM     80  F   UNL A   1      43.947  31.735  33.614  1.00  0.00    -0.206 F 
ATOM     81  C   UNL A   1      44.747  35.039  32.362  1.00  0.00     0.006 A 
ENDBRANCH  57  74
ENDBRANCH  31  32
ENDBRANCH  23  26
ENDBRANCH  21  22
ENDBRANCH   1  21
TORSDOF 12
ENDMDL
