MODEL 1
REMARK VINA RESULT:     -11.1      0.000      0.000
REMARK SMILES O=C(NCCCNC(=O)[C@@H]1[C@H](C(=O)NCc2ccncc2)[C@H]2C=C[C@@H]1O2)c1ccc(-c2c3nc(c(-c4c(F)cccc4F)c4ccc([nH]4)c(-c4c(F)cccc4F)c4nc(c(-c5c(F)cccc5F)c5ccc2[nH]5)C=C4)C=C3)cc1
REMARK SMILES IDX 5 1 4 2 3 3 1 4 2 5 27 7 28 8 80 9 29 10 79 11 30 12 31 13
REMARK SMILES IDX 32 14 73 15 33 16 78 17 72 18 74 19 34 20 77 21 71 22 70 23
REMARK SMILES IDX 35 25 61 26 44 27 60 28 45 29 48 30 59 31 75 32 46 33 47 34
REMARK SMILES IDX 58 36 76 37 49 38 36 39 37 40 42 41 38 42 39 43 41 44 43 45
REMARK SMILES IDX 40 46 62 47 63 48 68 49 64 50 65 51 67 52 69 53 66 54 50 55
REMARK SMILES IDX 51 56 56 57 52 58 53 59 55 60 57 61 54 62 6 63 7 64 8 65
REMARK SMILES IDX 9 67 10 68 11 69 25 70 22 71 24 72 26 73 23 74 12 75 13 76
REMARK SMILES IDX 14 77 15 79 16 80 17 81 21 82 18 83 20 84 19 85
REMARK H PARENT 3 6 74 24 48 35 7 66 14 78
REMARK Flexibility Score: inf
ROOT
ATOM      1  C   UNL A   1      35.840  33.237  28.829  1.00  0.00     0.042 C 
ENDROOT
BRANCH   1   2
ATOM      2  C   UNL A   1      34.869  32.364  29.607  1.00  0.00     0.118 C 
BRANCH   2   3
ATOM      3  N   UNL A   1      34.253  31.333  28.785  1.00  0.00    -0.352 N 
ATOM      4  O   UNL A   1      34.137  29.629  27.318  1.00  0.00    -0.269 OA
ATOM      5  C   UNL A   1      34.818  30.275  28.117  1.00  0.00     0.251 C 
ATOM      6  H   UNL A   1      33.276  31.406  28.693  1.00  0.00     0.163 HD
BRANCH   5   7
ATOM      7  C   UNL A   1      36.238  29.911  28.325  1.00  0.00     0.039 A 
ATOM      8  C   UNL A   1      37.196  30.161  27.343  1.00  0.00     0.014 A 
ATOM      9  C   UNL A   1      36.628  29.350  29.545  1.00  0.00     0.014 A 
ATOM     10  C   UNL A   1      38.498  29.704  27.508  1.00  0.00     0.010 A 
ATOM     11  C   UNL A   1      37.965  28.989  29.754  1.00  0.00     0.010 A 
ATOM     12  C   UNL A   1      38.907  29.136  28.725  1.00  0.00    -0.014 A 
BRANCH  12  13
ATOM     13  C   UNL A   1      40.337  28.785  28.918  1.00  0.00     0.031 A 
ATOM     14  C   UNL A   1      41.298  29.738  29.573  1.00  0.00     0.074 A 
ATOM     15  C   UNL A   1      40.762  27.571  28.514  1.00  0.00     0.049 A 
ATOM     16  N   UNL A   1      42.573  29.577  29.825  1.00  0.00    -0.248 NA
ATOM     17  C   UNL A   1      40.765  31.043  29.991  1.00  0.00     0.031 C 
ATOM     18  C   UNL A   1      39.927  26.563  27.854  1.00  0.00     0.029 A 
ATOM     19  N   UNL A   1      41.991  26.970  28.609  1.00  0.00    -0.354 N 
ATOM     20  C   UNL A   1      42.998  30.759  30.417  1.00  0.00     0.074 A 
ATOM     21  C   UNL A   1      41.852  31.643  30.457  1.00  0.00     0.031 C 
ATOM     22  C   UNL A   1      40.652  25.457  27.647  1.00  0.00     0.029 A 
ATOM     23  C   UNL A   1      42.019  25.698  28.092  1.00  0.00     0.049 A 
ATOM     24  H   UNL A   1      42.776  27.408  29.009  1.00  0.00     0.167 HD
ATOM     25  C   UNL A   1      44.230  31.074  30.888  1.00  0.00     0.037 A 
ATOM     26  C   UNL A   1      43.036  24.826  27.964  1.00  0.00     0.037 A 
ATOM     27  C   UNL A   1      45.365  30.187  30.850  1.00  0.00     0.049 A 
ATOM     28  C   UNL A   1      44.397  25.218  28.459  1.00  0.00     0.074 A 
ATOM     29  C   UNL A   1      46.644  30.401  31.335  1.00  0.00     0.029 A 
ATOM     30  N   UNL A   1      45.362  28.918  30.287  1.00  0.00    -0.354 N 
ATOM     31  N   UNL A   1      44.773  26.325  29.052  1.00  0.00    -0.248 NA
ATOM     32  C   UNL A   1      45.476  24.241  28.264  1.00  0.00     0.031 C 
ATOM     33  C   UNL A   1      47.429  29.289  31.015  1.00  0.00     0.029 A 
ATOM     34  C   UNL A   1      46.624  28.352  30.386  1.00  0.00     0.049 A 
ATOM     35  H   UNL A   1      44.579  28.484  29.877  1.00  0.00     0.167 HD
ATOM     36  C   UNL A   1      46.126  26.169  29.322  1.00  0.00     0.074 A 
ATOM     37  C   UNL A   1      46.498  24.852  28.845  1.00  0.00     0.031 C 
ATOM     38  C   UNL A   1      46.982  27.040  29.910  1.00  0.00     0.037 A 
BRANCH  25  39
ATOM     39  C   UNL A   1      44.424  32.446  31.473  1.00  0.00     0.057 A 
ATOM     40  C   UNL A   1      44.252  32.703  32.838  1.00  0.00     0.134 A 
ATOM     41  C   UNL A   1      44.842  33.512  30.664  1.00  0.00     0.134 A 
ATOM     42  F   UNL A   1      43.847  31.731  33.669  1.00  0.00    -0.206 F 
ATOM     43  C   UNL A   1      44.466  33.975  33.375  1.00  0.00     0.040 A 
ATOM     44  C   UNL A   1      45.085  34.781  31.194  1.00  0.00     0.040 A 
ATOM     45  F   UNL A   1      45.037  33.335  29.349  1.00  0.00    -0.206 F 
ATOM     46  C   UNL A   1      44.890  35.017  32.553  1.00  0.00     0.006 A 
ENDBRANCH  25  39
BRANCH  26  47
ATOM     47  C   UNL A   1      42.802  23.505  27.329  1.00  0.00     0.057 A 
ATOM     48  C   UNL A   1      42.377  22.403  28.080  1.00  0.00     0.134 A 
ATOM     49  C   UNL A   1      42.993  23.314  25.954  1.00  0.00     0.134 A 
ATOM     50  F   UNL A   1      42.192  22.520  29.403  1.00  0.00    -0.206 F 
ATOM     51  C   UNL A   1      42.168  21.155  27.492  1.00  0.00     0.040 A 
ATOM     52  C   UNL A   1      42.757  22.080  25.348  1.00  0.00     0.040 A 
ATOM     53  F   UNL A   1      43.389  24.332  25.177  1.00  0.00    -0.206 F 
ATOM     54  C   UNL A   1      42.352  20.993  26.120  1.00  0.00     0.006 A 
ENDBRANCH  26  47
BRANCH  38  55
ATOM     55  C   UNL A   1      48.398  26.579  30.104  1.00  0.00     0.057 A 
ATOM     56  C   UNL A   1      48.789  25.830  31.221  1.00  0.00     0.134 A 
ATOM     57  C   UNL A   1      49.378  26.871  29.146  1.00  0.00     0.134 A 
ATOM     58  F   UNL A   1      47.903  25.529  32.183  1.00  0.00    -0.206 F 
ATOM     59  C   UNL A   1      50.109  25.409  31.391  1.00  0.00     0.040 A 
ATOM     60  C   UNL A   1      50.694  26.431  29.291  1.00  0.00     0.040 A 
ATOM     61  F   UNL A   1      49.070  27.579  28.050  1.00  0.00    -0.206 F 
ATOM     62  C   UNL A   1      51.064  25.703  30.421  1.00  0.00     0.006 A 
ENDBRANCH  38  55
ENDBRANCH  12  13
ENDBRANCH   5   7
ENDBRANCH   2   3
ENDBRANCH   1   2
BRANCH   1  63
ATOM     63  C   UNL A   1      37.146  33.532  29.550  1.00  0.00     0.117 C 
BRANCH  63  64
ATOM     64  N   UNL A   1      37.004  34.422  30.693  1.00  0.00    -0.356 N 
ATOM     65  C   UNL A   1      37.287  34.176  32.007  1.00  0.00     0.227 C 
ATOM     66  H   UNL A   1      36.656  35.322  30.493  1.00  0.00     0.163 HD
ATOM     67  O   UNL A   1      37.506  35.128  32.751  1.00  0.00    -0.275 OA
BRANCH  65  68
ATOM     68  C   UNL A   1      37.411  32.751  32.469  1.00  0.00     0.127 C 
ATOM     69  C   UNL A   1      36.629  32.339  33.738  1.00  0.00     0.127 C 
ATOM     70  C   UNL A   1      38.852  32.356  32.859  1.00  0.00     0.155 C 
ATOM     71  C   UNL A   1      37.717  31.670  34.584  1.00  0.00     0.155 C 
ATOM     72  C   UNL A   1      38.941  30.855  32.841  1.00  0.00     0.004 C 
ATOM     73  O   UNL A   1      38.842  32.532  34.298  1.00  0.00    -0.365 OA
ATOM     74  C   UNL A   1      38.224  30.430  33.893  1.00  0.00     0.004 C 
BRANCH  69  75
ATOM     75  C   UNL A   1      35.792  33.333  34.529  1.00  0.00     0.227 C 
ATOM     76  O   UNL A   1      36.232  33.707  35.628  1.00  0.00    -0.275 OA
ATOM     77  N   UNL A   1      34.621  33.899  34.174  1.00  0.00    -0.352 N 
ATOM     78  H   UNL A   1      34.213  34.421  34.902  1.00  0.00     0.163 HD
BRANCH  77  79
ATOM     79  C   UNL A   1      33.826  33.915  32.960  1.00  0.00     0.151 C 
BRANCH  79  80
ATOM     80  C   UNL A   1      33.638  35.282  32.353  1.00  0.00    -0.026 A 
ATOM     81  C   UNL A   1      33.160  35.366  31.037  1.00  0.00     0.025 A 
ATOM     82  C   UNL A   1      33.928  36.476  33.018  1.00  0.00     0.025 A 
ATOM     83  C   UNL A   1      32.950  36.613  30.473  1.00  0.00     0.111 A 
ATOM     84  C   UNL A   1      33.694  37.677  32.362  1.00  0.00     0.111 A 
ATOM     85  N   UNL A   1      33.212  37.775  31.106  1.00  0.00    -0.265 NA
ENDBRANCH  79  80
ENDBRANCH  77  79
ENDBRANCH  69  75
ENDBRANCH  65  68
ENDBRANCH  63  64
ENDBRANCH   1  63
TORSDOF 13
ENDMDL
MODEL 2
REMARK VINA RESULT:     -11.0      0.284      6.280
REMARK SMILES O=C(NCCCNC(=O)[C@@H]1[C@H](C(=O)NCc2ccncc2)[C@H]2C=C[C@@H]1O2)c1ccc(-c2c3nc(c(-c4c(F)cccc4F)c4ccc([nH]4)c(-c4c(F)cccc4F)c4nc(c(-c5c(F)cccc5F)c5ccc2[nH]5)C=C4)C=C3)cc1
REMARK SMILES IDX 5 1 4 2 3 3 1 4 2 5 27 7 28 8 80 9 29 10 79 11 30 12 31 13
REMARK SMILES IDX 32 14 73 15 33 16 78 17 72 18 74 19 34 20 77 21 71 22 70 23
REMARK SMILES IDX 35 25 61 26 44 27 60 28 45 29 48 30 59 31 75 32 46 33 47 34
REMARK SMILES IDX 58 36 76 37 49 38 36 39 37 40 42 41 38 42 39 43 41 44 43 45
REMARK SMILES IDX 40 46 62 47 63 48 68 49 64 50 65 51 67 52 69 53 66 54 50 55
REMARK SMILES IDX 51 56 56 57 52 58 53 59 55 60 57 61 54 62 6 63 7 64 8 65
REMARK SMILES IDX 9 67 10 68 11 69 25 70 22 71 24 72 26 73 23 74 12 75 13 76
REMARK SMILES IDX 14 77 15 79 16 80 17 81 21 82 18 83 20 84 19 85
REMARK H PARENT 3 6 74 24 48 35 7 66 14 78
REMARK Flexibility Score: inf
ROOT
ATOM      1  C   UNL A   1      35.855  33.359  29.080  1.00  0.00     0.042 C 
ENDROOT
BRANCH   1   2
ATOM      2  C   UNL A   1      35.002  32.356  29.838  1.00  0.00     0.118 C 
BRANCH   2   3
ATOM      3  N   UNL A   1      34.375  31.374  28.965  1.00  0.00    -0.352 N 
ATOM      4  O   UNL A   1      34.241  29.750  27.412  1.00  0.00    -0.269 OA
ATOM      5  C   UNL A   1      34.930  30.347  28.241  1.00  0.00     0.251 C 
ATOM      6  H   UNL A   1      33.399  31.460  28.880  1.00  0.00     0.163 HD
BRANCH   5   7
ATOM      7  C   UNL A   1      36.346  29.961  28.427  1.00  0.00     0.039 A 
ATOM      8  C   UNL A   1      37.297  30.216  27.438  1.00  0.00     0.014 A 
ATOM      9  C   UNL A   1      36.743  29.374  29.633  1.00  0.00     0.014 A 
ATOM     10  C   UNL A   1      38.595  29.738  27.580  1.00  0.00     0.010 A 
ATOM     11  C   UNL A   1      38.077  28.992  29.820  1.00  0.00     0.010 A 
ATOM     12  C   UNL A   1      39.009  29.144  28.782  1.00  0.00    -0.014 A 
BRANCH  12  13
ATOM     13  C   UNL A   1      40.437  28.771  28.953  1.00  0.00     0.031 A 
ATOM     14  C   UNL A   1      40.955  27.429  28.513  1.00  0.00     0.074 A 
ATOM     15  C   UNL A   1      41.279  29.675  29.492  1.00  0.00     0.049 A 
ATOM     16  N   UNL A   1      42.175  26.956  28.582  1.00  0.00    -0.248 NA
ATOM     17  C   UNL A   1      39.981  26.494  27.931  1.00  0.00     0.031 C 
ATOM     18  C   UNL A   1      40.892  31.005  29.969  1.00  0.00     0.029 A 
ATOM     19  N   UNL A   1      42.630  29.623  29.718  1.00  0.00    -0.354 N 
ATOM     20  C   UNL A   1      42.114  25.668  28.066  1.00  0.00     0.074 A 
ATOM     21  C   UNL A   1      40.731  25.420  27.718  1.00  0.00     0.031 C 
ATOM     22  C   UNL A   1      41.984  31.659  30.386  1.00  0.00     0.029 A 
ATOM     23  C   UNL A   1      43.136  30.773  30.274  1.00  0.00     0.049 A 
ATOM     24  H   UNL A   1      43.184  28.839  29.503  1.00  0.00     0.167 HD
ATOM     25  C   UNL A   1      43.122  24.778  27.893  1.00  0.00     0.037 A 
ATOM     26  C   UNL A   1      44.384  31.077  30.675  1.00  0.00     0.037 A 
ATOM     27  C   UNL A   1      44.499  25.033  28.237  1.00  0.00     0.049 A 
ATOM     28  C   UNL A   1      45.471  30.057  30.508  1.00  0.00     0.074 A 
ATOM     29  C   UNL A   1      45.597  24.208  28.066  1.00  0.00     0.029 A 
ATOM     30  N   UNL A   1      44.966  26.198  28.829  1.00  0.00    -0.354 N 
ATOM     31  N   UNL A   1      45.405  28.858  29.982  1.00  0.00    -0.248 NA
ATOM     32  C   UNL A   1      46.806  30.430  30.993  1.00  0.00     0.031 C 
ATOM     33  C   UNL A   1      46.717  24.849  28.606  1.00  0.00     0.029 A 
ATOM     34  C   UNL A   1      46.330  26.101  29.057  1.00  0.00     0.049 A 
ATOM     35  H   UNL A   1      44.410  26.979  29.055  1.00  0.00     0.167 HD
ATOM     36  C   UNL A   1      46.692  28.342  30.051  1.00  0.00     0.074 A 
ATOM     37  C   UNL A   1      47.521  29.368  30.653  1.00  0.00     0.031 C 
ATOM     38  C   UNL A   1      47.144  27.128  29.654  1.00  0.00     0.037 A 
BRANCH  25  39
ATOM     39  C   UNL A   1      42.775  23.431  27.322  1.00  0.00     0.057 A 
ATOM     40  C   UNL A   1      42.893  23.150  25.955  1.00  0.00     0.134 A 
ATOM     41  C   UNL A   1      42.366  22.385  28.161  1.00  0.00     0.134 A 
ATOM     42  F   UNL A   1      43.272  24.106  25.094  1.00  0.00    -0.206 F 
ATOM     43  C   UNL A   1      42.596  21.886  25.440  1.00  0.00     0.040 A 
ATOM     44  C   UNL A   1      42.093  21.109  27.662  1.00  0.00     0.040 A 
ATOM     45  F   UNL A   1      42.241  22.580  29.482  1.00  0.00    -0.206 F 
ATOM     46  C   UNL A   1      42.201  20.860  26.295  1.00  0.00     0.006 A 
ENDBRANCH  25  39
BRANCH  26  47
ATOM     47  C   UNL A   1      44.663  32.402  31.283  1.00  0.00     0.057 A 
ATOM     48  C   UNL A   1      44.521  32.614  32.659  1.00  0.00     0.134 A 
ATOM     49  C   UNL A   1      45.084  33.487  30.504  1.00  0.00     0.134 A 
ATOM     50  F   UNL A   1      44.105  31.618  33.456  1.00  0.00    -0.206 F 
ATOM     51  C   UNL A   1      44.768  33.861  33.236  1.00  0.00     0.040 A 
ATOM     52  C   UNL A   1      45.366  34.729  31.071  1.00  0.00     0.040 A 
ATOM     53  F   UNL A   1      45.251  33.346  29.181  1.00  0.00    -0.206 F 
ATOM     54  C   UNL A   1      45.198  34.922  32.441  1.00  0.00     0.006 A 
ENDBRANCH  26  47
BRANCH  38  55
ATOM     55  C   UNL A   1      48.612  26.858  29.824  1.00  0.00     0.057 A 
ATOM     56  C   UNL A   1      49.554  27.246  28.863  1.00  0.00     0.134 A 
ATOM     57  C   UNL A   1      49.089  26.221  30.977  1.00  0.00     0.134 A 
ATOM     58  F   UNL A   1      49.162  27.845  27.728  1.00  0.00    -0.206 F 
ATOM     59  C   UNL A   1      50.916  26.987  29.031  1.00  0.00     0.040 A 
ATOM     60  C   UNL A   1      50.450  25.984  31.170  1.00  0.00     0.040 A 
ATOM     61  F   UNL A   1      48.241  25.830  31.940  1.00  0.00    -0.206 F 
ATOM     62  C   UNL A   1      51.367  26.360  30.190  1.00  0.00     0.006 A 
ENDBRANCH  38  55
ENDBRANCH  12  13
ENDBRANCH   5   7
ENDBRANCH   2   3
ENDBRANCH   1   2
BRANCH   1  63
ATOM     63  C   UNL A   1      37.214  33.636  29.704  1.00  0.00     0.117 C 
BRANCH  63  64
ATOM     64  N   UNL A   1      37.162  34.495  30.879  1.00  0.00    -0.356 N 
ATOM     65  C   UNL A   1      37.489  34.194  32.171  1.00  0.00     0.227 C 
ATOM     66  H   UNL A   1      36.848  35.416  30.721  1.00  0.00     0.163 HD
ATOM     67  O   UNL A   1      37.783  35.111  32.933  1.00  0.00    -0.275 OA
BRANCH  65  68
ATOM     68  C   UNL A   1      37.566  32.751  32.585  1.00  0.00     0.127 C 
ATOM     69  C   UNL A   1      36.730  32.312  33.809  1.00  0.00     0.127 C 
ATOM     70  C   UNL A   1      38.982  32.309  33.009  1.00  0.00     0.155 C 
ATOM     71  C   UNL A   1      37.772  31.588  34.668  1.00  0.00     0.155 C 
ATOM     72  C   UNL A   1      39.039  30.808  32.939  1.00  0.00     0.004 C 
ATOM     73  O   UNL A   1      38.925  32.434  34.453  1.00  0.00    -0.365 OA
ATOM     74  C   UNL A   1      38.276  30.362  33.949  1.00  0.00     0.004 C 
BRANCH  69  75
ATOM     75  C   UNL A   1      35.887  33.296  34.607  1.00  0.00     0.227 C 
ATOM     76  O   UNL A   1      36.330  33.674  35.703  1.00  0.00    -0.275 OA
ATOM     77  N   UNL A   1      34.708  33.850  34.260  1.00  0.00    -0.352 N 
ATOM     78  H   UNL A   1      34.299  34.366  34.992  1.00  0.00     0.163 HD
BRANCH  77  79
ATOM     79  C   UNL A   1      33.905  33.859  33.051  1.00  0.00     0.151 C 
BRANCH  79  80
ATOM     80  C   UNL A   1      33.697  35.225  32.447  1.00  0.00    -0.026 A 
ATOM     81  C   UNL A   1      33.130  35.308  31.168  1.00  0.00     0.025 A 
ATOM     82  C   UNL A   1      34.052  36.418  33.081  1.00  0.00     0.025 A 
ATOM     83  C   UNL A   1      32.901  36.554  30.609  1.00  0.00     0.111 A 
ATOM     84  C   UNL A   1      33.793  37.619  32.434  1.00  0.00     0.111 A 
ATOM     85  N   UNL A   1      33.225  37.716  31.214  1.00  0.00    -0.265 NA
ENDBRANCH  79  80
ENDBRANCH  77  79
ENDBRANCH  69  75
ENDBRANCH  65  68
ENDBRANCH  63  64
ENDBRANCH   1  63
TORSDOF 13
ENDMDL
MODEL 3
REMARK VINA RESULT:     -10.8      4.297      8.073
REMARK SMILES O=C(NCCCNC(=O)[C@@H]1[C@H](C(=O)NCc2ccncc2)[C@H]2C=C[C@@H]1O2)c1ccc(-c2c3nc(c(-c4c(F)cccc4F)c4ccc([nH]4)c(-c4c(F)cccc4F)c4nc(c(-c5c(F)cccc5F)c5ccc2[nH]5)C=C4)C=C3)cc1
REMARK SMILES IDX 5 1 4 2 3 3 1 4 2 5 27 7 28 8 80 9 29 10 79 11 30 12 31 13
REMARK SMILES IDX 32 14 73 15 33 16 78 17 72 18 74 19 34 20 77 21 71 22 70 23
REMARK SMILES IDX 35 25 61 26 44 27 60 28 45 29 48 30 59 31 75 32 46 33 47 34
REMARK SMILES IDX 58 36 76 37 49 38 36 39 37 40 42 41 38 42 39 43 41 44 43 45
REMARK SMILES IDX 40 46 62 47 63 48 68 49 64 50 65 51 67 52 69 53 66 54 50 55
REMARK SMILES IDX 51 56 56 57 52 58 53 59 55 60 57 61 54 62 6 63 7 64 8 65
REMARK SMILES IDX 9 67 10 68 11 69 25 70 22 71 24 72 26 73 23 74 12 75 13 76
REMARK SMILES IDX 14 77 15 79 16 80 17 81 21 82 18 83 20 84 19 85
REMARK H PARENT 3 6 74 24 48 35 7 66 14 78
REMARK Flexibility Score: inf
ROOT
ATOM      1  C   UNL A   1      33.570  28.237  25.393  1.00  0.00     0.042 C 
ENDROOT
BRANCH   1   2
ATOM      2  C   UNL A   1      33.984  28.357  26.851  1.00  0.00     0.118 C 
BRANCH   2   3
ATOM      3  N   UNL A   1      33.794  29.699  27.383  1.00  0.00    -0.352 N 
ATOM      4  O   UNL A   1      34.199  31.516  28.649  1.00  0.00    -0.269 OA
ATOM      5  C   UNL A   1      34.633  30.481  28.139  1.00  0.00     0.251 C 
ATOM      6  H   UNL A   1      32.927  30.110  27.168  1.00  0.00     0.163 HD
BRANCH   5   7
ATOM      7  C   UNL A   1      36.041  30.089  28.367  1.00  0.00     0.039 A 
ATOM      8  C   UNL A   1      37.007  30.268  27.377  1.00  0.00     0.014 A 
ATOM      9  C   UNL A   1      36.415  29.574  29.613  1.00  0.00     0.014 A 
ATOM     10  C   UNL A   1      38.297  29.784  27.565  1.00  0.00     0.010 A 
ATOM     11  C   UNL A   1      37.741  29.187  29.841  1.00  0.00     0.010 A 
ATOM     12  C   UNL A   1      38.688  29.261  28.809  1.00  0.00    -0.014 A 
BRANCH  12  13
ATOM     13  C   UNL A   1      40.108  28.880  29.021  1.00  0.00     0.031 A 
ATOM     14  C   UNL A   1      41.077  29.810  29.696  1.00  0.00     0.074 A 
ATOM     15  C   UNL A   1      40.515  27.660  28.615  1.00  0.00     0.049 A 
ATOM     16  N   UNL A   1      42.345  29.622  29.966  1.00  0.00    -0.248 NA
ATOM     17  C   UNL A   1      40.564  31.123  30.115  1.00  0.00     0.031 C 
ATOM     18  C   UNL A   1      39.670  26.674  27.936  1.00  0.00     0.029 A 
ATOM     19  N   UNL A   1      41.730  27.035  28.724  1.00  0.00    -0.354 N 
ATOM     20  C   UNL A   1      42.784  30.792  30.573  1.00  0.00     0.074 A 
ATOM     21  C   UNL A   1      41.656  31.698  30.601  1.00  0.00     0.031 C 
ATOM     22  C   UNL A   1      40.376  25.555  27.732  1.00  0.00     0.029 A 
ATOM     23  C   UNL A   1      41.741  25.766  28.200  1.00  0.00     0.049 A 
ATOM     24  H   UNL A   1      42.518  27.454  29.139  1.00  0.00     0.167 HD
ATOM     25  C   UNL A   1      44.015  31.079  31.065  1.00  0.00     0.037 A 
ATOM     26  C   UNL A   1      42.743  24.874  28.081  1.00  0.00     0.037 A 
ATOM     27  C   UNL A   1      45.133  30.170  31.037  1.00  0.00     0.049 A 
ATOM     28  C   UNL A   1      44.103  25.236  28.600  1.00  0.00     0.074 A 
ATOM     29  C   UNL A   1      46.408  30.356  31.543  1.00  0.00     0.029 A 
ATOM     30  N   UNL A   1      45.113  28.905  30.466  1.00  0.00    -0.354 N 
ATOM     31  N   UNL A   1      44.492  26.332  29.205  1.00  0.00    -0.248 NA
ATOM     32  C   UNL A   1      45.166  24.240  28.415  1.00  0.00     0.031 C 
ATOM     33  C   UNL A   1      47.175  29.230  31.228  1.00  0.00     0.029 A 
ATOM     34  C   UNL A   1      46.362  28.313  30.581  1.00  0.00     0.049 A 
ATOM     35  H   UNL A   1      44.328  28.489  30.042  1.00  0.00     0.167 HD
ATOM     36  C   UNL A   1      45.837  26.148  29.495  1.00  0.00     0.074 A 
ATOM     37  C   UNL A   1      46.191  24.827  29.014  1.00  0.00     0.031 C 
ATOM     38  C   UNL A   1      46.701  26.997  30.102  1.00  0.00     0.037 A 
BRANCH  25  39
ATOM     39  C   UNL A   1      44.227  32.443  31.661  1.00  0.00     0.057 A 
ATOM     40  C   UNL A   1      44.028  32.698  33.024  1.00  0.00     0.134 A 
ATOM     41  C   UNL A   1      44.689  33.503  30.869  1.00  0.00     0.134 A 
ATOM     42  F   UNL A   1      43.581  31.731  33.839  1.00  0.00    -0.206 F 
ATOM     43  C   UNL A   1      44.258  33.962  33.572  1.00  0.00     0.040 A 
ATOM     44  C   UNL A   1      44.949  34.764  31.411  1.00  0.00     0.040 A 
ATOM     45  F   UNL A   1      44.911  33.327  29.557  1.00  0.00    -0.206 F 
ATOM     46  C   UNL A   1      44.727  34.997  32.766  1.00  0.00     0.006 A 
ENDBRANCH  25  39
BRANCH  26  47
ATOM     47  C   UNL A   1      42.492  23.562  27.435  1.00  0.00     0.057 A 
ATOM     48  C   UNL A   1      42.615  23.400  26.050  1.00  0.00     0.134 A 
ATOM     49  C   UNL A   1      42.130  22.437  28.187  1.00  0.00     0.134 A 
ATOM     50  F   UNL A   1      42.944  24.443  25.275  1.00  0.00    -0.206 F 
ATOM     51  C   UNL A   1      42.367  22.172  25.434  1.00  0.00     0.040 A 
ATOM     52  C   UNL A   1      41.912  21.197  27.588  1.00  0.00     0.040 A 
ATOM     53  F   UNL A   1      42.007  22.524  29.519  1.00  0.00    -0.206 F 
ATOM     54  C   UNL A   1      42.021  21.064  26.206  1.00  0.00     0.006 A 
ENDBRANCH  26  47
BRANCH  38  55
ATOM     55  C   UNL A   1      48.105  26.508  30.314  1.00  0.00     0.057 A 
ATOM     56  C   UNL A   1      48.481  25.811  31.469  1.00  0.00     0.134 A 
ATOM     57  C   UNL A   1      49.086  26.717  29.336  1.00  0.00     0.134 A 
ATOM     58  F   UNL A   1      47.594  25.592  32.451  1.00  0.00    -0.206 F 
ATOM     59  C   UNL A   1      49.790  25.363  31.656  1.00  0.00     0.040 A 
ATOM     60  C   UNL A   1      50.390  26.247  29.498  1.00  0.00     0.040 A 
ATOM     61  F   UNL A   1      48.791  27.370  28.203  1.00  0.00    -0.206 F 
ATOM     62  C   UNL A   1      50.747  25.574  30.666  1.00  0.00     0.006 A 
ENDBRANCH  38  55
ENDBRANCH  12  13
ENDBRANCH   5   7
ENDBRANCH   2   3
ENDBRANCH   1   2
BRANCH   1  63
ATOM     63  C   UNL A   1      33.904  26.902  24.747  1.00  0.00     0.117 C 
BRANCH  63  64
ATOM     64  N   UNL A   1      33.221  25.765  25.348  1.00  0.00    -0.356 N 
ATOM     65  C   UNL A   1      33.749  24.575  25.763  1.00  0.00     0.227 C 
ATOM     66  H   UNL A   1      32.249  25.867  25.472  1.00  0.00     0.163 HD
ATOM     67  O   UNL A   1      33.138  23.920  26.602  1.00  0.00    -0.275 OA
BRANCH  65  68
ATOM     68  C   UNL A   1      35.098  24.158  25.247  1.00  0.00     0.127 C 
ATOM     69  C   UNL A   1      35.146  23.392  23.904  1.00  0.00     0.127 C 
ATOM     70  C   UNL A   1      35.837  23.178  26.183  1.00  0.00     0.155 C 
ATOM     71  C   UNL A   1      36.002  22.173  24.259  1.00  0.00     0.155 C 
ATOM     72  C   UNL A   1      37.297  23.209  25.825  1.00  0.00     0.004 C 
ATOM     73  O   UNL A   1      35.520  21.892  25.594  1.00  0.00    -0.365 OA
ATOM     74  C   UNL A   1      37.397  22.607  24.629  1.00  0.00     0.004 C 
BRANCH  69  75
ATOM     75  C   UNL A   1      33.883  23.026  23.138  1.00  0.00     0.227 C 
ATOM     76  O   UNL A   1      33.674  23.611  22.064  1.00  0.00    -0.275 OA
ATOM     77  N   UNL A   1      32.953  22.106  23.463  1.00  0.00    -0.352 N 
ATOM     78  H   UNL A   1      32.167  22.132  22.872  1.00  0.00     0.163 HD
BRANCH  77  79
ATOM     79  C   UNL A   1      32.849  21.084  24.489  1.00  0.00     0.151 C 
BRANCH  79  80
ATOM     80  C   UNL A   1      33.079  19.677  23.996  1.00  0.00    -0.026 A 
ATOM     81  C   UNL A   1      32.256  19.187  22.973  1.00  0.00     0.025 A 
ATOM     82  C   UNL A   1      34.056  18.822  24.513  1.00  0.00     0.025 A 
ATOM     83  C   UNL A   1      32.472  17.909  22.485  1.00  0.00     0.111 A 
ATOM     84  C   UNL A   1      34.187  17.553  23.965  1.00  0.00     0.111 A 
ATOM     85  N   UNL A   1      33.419  17.075  22.963  1.00  0.00    -0.265 NA
ENDBRANCH  79  80
ENDBRANCH  77  79
ENDBRANCH  69  75
ENDBRANCH  65  68
ENDBRANCH  63  64
ENDBRANCH   1  63
TORSDOF 13
ENDMDL
