MODEL 1
REMARK VINA RESULT:     -13.3      0.000      0.000
REMARK SMILES O=C(NCCCNC(=O)[C@H](NC(=O)[C@H]1CC[C@@H](CNC(=O)[C@@H]2Cc3ccccc3C[NH2+]2)CC1)c1ccccc1)c1ccc(-c2c3nc(c(-c4c(F)cccc4F)c4ccc([nH]4)c(-c4c(F)cccc4F)c4nc(c(-c5c(F)cccc5F)c5ccc2[nH]5)C=C4)C=C3)cc1
REMARK SMILES IDX 7 1 8 2 9 3 6 5 5 6 4 7 3 8 1 9 2 10 40 12 41 13 93 14 42 15
REMARK SMILES IDX 92 16 43 17 44 18 45 19 86 20 46 21 91 22 85 23 87 24 47 25
REMARK SMILES IDX 90 26 84 27 83 28 48 30 74 31 57 32 73 33 58 34 61 35 72 36
REMARK SMILES IDX 88 37 59 38 60 39 71 41 89 42 62 43 49 44 50 45 55 46 51 47
REMARK SMILES IDX 52 48 54 49 56 50 53 51 75 52 76 53 81 54 77 55 78 56 80 57
REMARK SMILES IDX 82 58 79 59 63 60 64 61 69 62 65 63 66 64 68 65 70 66 67 67
REMARK SMILES IDX 10 68 34 69 35 70 39 71 36 72 38 73 37 74 11 75 12 76 13 78
REMARK SMILES IDX 14 79 33 80 15 81 32 82 16 83 17 84 18 85 19 86 20 87 21 89
REMARK SMILES IDX 22 90 23 91 31 92 24 93 30 94 25 97 29 98 26 99 28 100
REMARK SMILES IDX 27 101
REMARK H PARENT 7 4 3 11 87 29 61 40 11 77 19 88 31 95 31 96
REMARK Flexibility Score: inf
ROOT
ATOM      1  N   UNL A   1      37.286  20.999  24.810  1.00  0.00    -0.354 N 
ATOM      2  C   UNL A   1      36.416  19.968  24.975  1.00  0.00     0.247 C 
ATOM      3  O   UNL A   1      36.940  18.846  24.991  1.00  0.00    -0.272 OA
ATOM      4  H   UNL A   1      38.221  20.712  24.701  1.00  0.00     0.163 HD
ENDROOT
BRANCH   1   5
ATOM      5  C   UNL A   1      37.108  22.435  24.766  1.00  0.00     0.117 C 
BRANCH   5   6
ATOM      6  C   UNL A   1      37.099  23.045  26.148  1.00  0.00     0.042 C 
BRANCH   6   7
ATOM      7  C   UNL A   1      38.071  24.202  26.251  1.00  0.00     0.118 C 
BRANCH   7   8
ATOM      8  N   UNL A   1      39.456  23.773  26.080  1.00  0.00    -0.352 N 
ATOM      9  O   UNL A   1      41.700  24.010  26.080  1.00  0.00    -0.269 OA
ATOM     10  C   UNL A   1      40.615  24.377  26.505  1.00  0.00     0.251 C 
ATOM     11  H   UNL A   1      39.577  22.929  25.588  1.00  0.00     0.163 HD
BRANCH  10  12
ATOM     12  C   UNL A   1      40.525  25.479  27.483  1.00  0.00     0.039 A 
ATOM     13  C   UNL A   1      39.685  25.351  28.589  1.00  0.00     0.014 A 
ATOM     14  C   UNL A   1      41.277  26.640  27.295  1.00  0.00     0.014 A 
ATOM     15  C   UNL A   1      39.459  26.441  29.408  1.00  0.00     0.010 A 
ATOM     16  C   UNL A   1      41.151  27.694  28.202  1.00  0.00     0.010 A 
ATOM     17  C   UNL A   1      40.226  27.606  29.254  1.00  0.00    -0.014 A 
BRANCH  17  18
ATOM     18  C   UNL A   1      40.117  28.652  30.296  1.00  0.00     0.031 A 
ATOM     19  C   UNL A   1      39.082  29.733  30.219  1.00  0.00     0.074 A 
ATOM     20  C   UNL A   1      40.958  28.571  31.347  1.00  0.00     0.049 A 
ATOM     21  N   UNL A   1      38.856  30.707  31.062  1.00  0.00    -0.248 NA
ATOM     22  C   UNL A   1      38.193  29.734  29.047  1.00  0.00     0.031 C 
ATOM     23  C   UNL A   1      42.010  27.559  31.506  1.00  0.00     0.029 A 
ATOM     24  N   UNL A   1      41.049  29.321  32.488  1.00  0.00    -0.354 N 
ATOM     25  C   UNL A   1      37.820  31.451  30.515  1.00  0.00     0.074 A 
ATOM     26  C   UNL A   1      37.467  30.825  29.259  1.00  0.00     0.031 C 
ATOM     27  C   UNL A   1      42.595  27.714  32.701  1.00  0.00     0.029 A 
ATOM     28  C   UNL A   1      42.022  28.882  33.352  1.00  0.00     0.049 A 
ATOM     29  H   UNL A   1      40.474  30.098  32.671  1.00  0.00     0.167 HD
ATOM     30  C   UNL A   1      37.225  32.557  31.023  1.00  0.00     0.037 A 
ATOM     31  C   UNL A   1      42.431  29.382  34.530  1.00  0.00     0.037 A 
ATOM     32  C   UNL A   1      37.575  33.152  32.288  1.00  0.00     0.049 A 
ATOM     33  C   UNL A   1      41.758  30.612  35.055  1.00  0.00     0.074 A 
ATOM     34  C   UNL A   1      37.004  34.248  32.911  1.00  0.00     0.029 A 
ATOM     35  N   UNL A   1      38.588  32.701  33.121  1.00  0.00    -0.354 N 
ATOM     36  N   UNL A   1      40.762  31.290  34.538  1.00  0.00    -0.248 NA
ATOM     37  C   UNL A   1      42.271  31.156  36.317  1.00  0.00     0.031 C 
ATOM     38  C   UNL A   1      37.700  34.485  34.101  1.00  0.00     0.029 A 
ATOM     39  C   UNL A   1      38.676  33.512  34.241  1.00  0.00     0.049 A 
ATOM     40  H   UNL A   1      39.161  31.920  32.943  1.00  0.00     0.167 HD
ATOM     41  C   UNL A   1      40.524  32.337  35.414  1.00  0.00     0.074 A 
ATOM     42  C   UNL A   1      41.460  32.186  36.510  1.00  0.00     0.031 C 
ATOM     43  C   UNL A   1      39.620  33.341  35.316  1.00  0.00     0.037 A 
BRANCH  30  44
ATOM     44  C   UNL A   1      36.149  33.214  30.210  1.00  0.00     0.057 A 
ATOM     45  C   UNL A   1      36.443  33.991  29.083  1.00  0.00     0.134 A 
ATOM     46  C   UNL A   1      34.799  33.002  30.516  1.00  0.00     0.134 A 
ATOM     47  F   UNL A   1      37.714  34.243  28.742  1.00  0.00    -0.206 F 
ATOM     48  C   UNL A   1      35.429  34.538  28.291  1.00  0.00     0.040 A 
ATOM     49  C   UNL A   1      33.778  33.524  29.721  1.00  0.00     0.040 A 
ATOM     50  F   UNL A   1      34.451  32.262  31.580  1.00  0.00    -0.206 F 
ATOM     51  C   UNL A   1      34.092  34.296  28.605  1.00  0.00     0.006 A 
ENDBRANCH  30  44
BRANCH  31  52
ATOM     52  C   UNL A   1      43.550  28.738  35.262  1.00  0.00     0.057 A 
ATOM     53  C   UNL A   1      43.315  27.771  36.244  1.00  0.00     0.134 A 
ATOM     54  C   UNL A   1      44.882  29.071  34.988  1.00  0.00     0.134 A 
ATOM     55  F   UNL A   1      42.059  27.419  36.559  1.00  0.00    -0.206 F 
ATOM     56  C   UNL A   1      44.365  27.171  36.941  1.00  0.00     0.040 A 
ATOM     57  C   UNL A   1      45.942  28.457  35.655  1.00  0.00     0.040 A 
ATOM     58  F   UNL A   1      45.175  29.983  34.048  1.00  0.00    -0.206 F 
ATOM     59  C   UNL A   1      45.683  27.510  36.642  1.00  0.00     0.006 A 
ENDBRANCH  31  52
BRANCH  43  60
ATOM     60  C   UNL A   1      39.598  34.334  36.436  1.00  0.00     0.057 A 
ATOM     61  C   UNL A   1      40.253  35.568  36.335  1.00  0.00     0.134 A 
ATOM     62  C   UNL A   1      38.906  34.059  37.622  1.00  0.00     0.134 A 
ATOM     63  F   UNL A   1      40.948  35.880  35.232  1.00  0.00    -0.206 F 
ATOM     64  C   UNL A   1      40.241  36.484  37.387  1.00  0.00     0.040 A 
ATOM     65  C   UNL A   1      38.866  34.978  38.669  1.00  0.00     0.040 A 
ATOM     66  F   UNL A   1      38.255  32.896  37.777  1.00  0.00    -0.206 F 
ATOM     67  C   UNL A   1      39.541  36.192  38.556  1.00  0.00     0.006 A 
ENDBRANCH  43  60
ENDBRANCH  17  18
ENDBRANCH  10  12
ENDBRANCH   7   8
ENDBRANCH   6   7
ENDBRANCH   5   6
ENDBRANCH   1   5
BRANCH   2  68
ATOM     68  C   UNL A   1      34.861  20.129  24.965  1.00  0.00     0.202 C 
BRANCH  68  69
ATOM     69  C   UNL A   1      34.184  18.769  24.831  1.00  0.00    -0.016 A 
ATOM     70  C   UNL A   1      33.134  18.416  25.695  1.00  0.00     0.006 A 
ATOM     71  C   UNL A   1      34.581  17.852  23.843  1.00  0.00     0.006 A 
ATOM     72  C   UNL A   1      32.492  17.185  25.569  1.00  0.00     0.000 A 
ATOM     73  C   UNL A   1      33.934  16.621  23.719  1.00  0.00     0.000 A 
ATOM     74  C   UNL A   1      32.891  16.288  24.581  1.00  0.00     0.000 A 
ENDBRANCH  68  69
BRANCH  68  75
ATOM     75  N   UNL A   1      34.188  20.888  26.015  1.00  0.00    -0.340 N 
ATOM     76  C   UNL A   1      33.579  22.104  26.019  1.00  0.00     0.224 C 
ATOM     77  H   UNL A   1      34.171  20.432  26.887  1.00  0.00     0.164 HD
ATOM     78  O   UNL A   1      33.097  22.475  27.095  1.00  0.00    -0.275 OA
BRANCH  76  79
ATOM     79  C   UNL A   1      33.518  23.035  24.800  1.00  0.00     0.078 C 
ATOM     80  C   UNL A   1      32.249  22.844  23.960  1.00  0.00     0.014 C 
ATOM     81  C   UNL A   1      33.841  24.490  25.148  1.00  0.00     0.014 C 
ATOM     82  C   UNL A   1      32.112  23.840  22.816  1.00  0.00     0.006 C 
ATOM     83  C   UNL A   1      33.611  25.450  23.981  1.00  0.00     0.006 C 
ATOM     84  C   UNL A   1      32.238  25.286  23.309  1.00  0.00     0.008 C 
BRANCH  84  85
ATOM     85  C   UNL A   1      31.047  25.660  24.212  1.00  0.00     0.119 C 
BRANCH  85  86
ATOM     86  N   UNL A   1      30.110  26.551  23.560  1.00  0.00    -0.351 N 
ATOM     87  C   UNL A   1      30.149  27.915  23.478  1.00  0.00     0.278 C 
ATOM     88  H   UNL A   1      29.343  26.119  23.120  1.00  0.00     0.163 HD
ATOM     89  O   UNL A   1      29.334  28.475  22.742  1.00  0.00    -0.268 OA
BRANCH  87  90
ATOM     90  C   UNL A   1      31.231  28.687  24.250  1.00  0.00     0.277 C 
ATOM     91  C   UNL A   1      31.485  28.022  25.614  1.00  0.00     0.111 C 
ATOM     92  N   UNL A   1      30.875  30.135  24.290  1.00  0.00    -0.332 N 
ATOM     93  C   UNL A   1      32.524  28.838  26.334  1.00  0.00    -0.033 A 
ATOM     94  C   UNL A   1      31.140  30.774  25.588  1.00  0.00     0.298 C 
ATOM     95  H   UNL A   1      29.881  30.228  24.081  1.00  0.00     0.347 HD
ATOM     96  H   UNL A   1      31.462  30.605  23.601  1.00  0.00     0.347 HD
ATOM     97  C   UNL A   1      33.616  28.272  26.992  1.00  0.00     0.004 A 
ATOM     98  C   UNL A   1      32.363  30.234  26.288  1.00  0.00     0.010 A 
ATOM     99  C   UNL A   1      34.554  29.102  27.604  1.00  0.00     0.000 A 
ATOM    100  C   UNL A   1      33.295  31.058  26.922  1.00  0.00     0.010 A 
ATOM    101  C   UNL A   1      34.393  30.490  27.572  1.00  0.00     0.001 A 
ENDBRANCH  87  90
ENDBRANCH  85  86
ENDBRANCH  84  85
ENDBRANCH  76  79
ENDBRANCH  68  75
ENDBRANCH   2  68
TORSDOF 16
ENDMDL
MODEL 2
REMARK VINA RESULT:     -12.8      3.958      5.753
REMARK SMILES O=C(NCCCNC(=O)[C@H](NC(=O)[C@H]1CC[C@@H](CNC(=O)[C@@H]2Cc3ccccc3C[NH2+]2)CC1)c1ccccc1)c1ccc(-c2c3nc(c(-c4c(F)cccc4F)c4ccc([nH]4)c(-c4c(F)cccc4F)c4nc(c(-c5c(F)cccc5F)c5ccc2[nH]5)C=C4)C=C3)cc1
REMARK SMILES IDX 7 1 8 2 9 3 6 5 5 6 4 7 3 8 1 9 2 10 40 12 41 13 93 14 42 15
REMARK SMILES IDX 92 16 43 17 44 18 45 19 86 20 46 21 91 22 85 23 87 24 47 25
REMARK SMILES IDX 90 26 84 27 83 28 48 30 74 31 57 32 73 33 58 34 61 35 72 36
REMARK SMILES IDX 88 37 59 38 60 39 71 41 89 42 62 43 49 44 50 45 55 46 51 47
REMARK SMILES IDX 52 48 54 49 56 50 53 51 75 52 76 53 81 54 77 55 78 56 80 57
REMARK SMILES IDX 82 58 79 59 63 60 64 61 69 62 65 63 66 64 68 65 70 66 67 67
REMARK SMILES IDX 10 68 34 69 35 70 39 71 36 72 38 73 37 74 11 75 12 76 13 78
REMARK SMILES IDX 14 79 33 80 15 81 32 82 16 83 17 84 18 85 19 86 20 87 21 89
REMARK SMILES IDX 22 90 23 91 31 92 24 93 30 94 25 97 29 98 26 99 28 100
REMARK SMILES IDX 27 101
REMARK H PARENT 7 4 3 11 87 29 61 40 11 77 19 88 31 95 31 96
REMARK Flexibility Score: inf
ROOT
ATOM      1  N   UNL A   1      37.052  21.384  24.253  1.00  0.00    -0.354 N 
ATOM      2  C   UNL A   1      36.233  22.437  23.996  1.00  0.00     0.247 C 
ATOM      3  O   UNL A   1      36.749  23.343  23.327  1.00  0.00    -0.272 OA
ATOM      4  H   UNL A   1      37.961  21.493  23.891  1.00  0.00     0.163 HD
ENDROOT
BRANCH   1   5
ATOM      5  C   UNL A   1      36.851  20.133  24.953  1.00  0.00     0.117 C 
BRANCH   5   6
ATOM      6  C   UNL A   1      38.108  19.295  24.983  1.00  0.00     0.042 C 
BRANCH   6   7
ATOM      7  C   UNL A   1      39.211  19.975  25.768  1.00  0.00     0.118 C 
BRANCH   7   8
ATOM      8  N   UNL A   1      40.387  19.123  25.915  1.00  0.00    -0.352 N 
ATOM      9  O   UNL A   1      42.591  18.660  26.049  1.00  0.00    -0.269 OA
ATOM     10  C   UNL A   1      41.687  19.471  26.188  1.00  0.00     0.251 C 
ATOM     11  H   UNL A   1      40.224  18.158  25.802  1.00  0.00     0.163 HD
BRANCH  10  12
ATOM     12  C   UNL A   1      41.974  20.843  26.650  1.00  0.00     0.039 A 
ATOM     13  C   UNL A   1      41.864  21.149  28.007  1.00  0.00     0.014 A 
ATOM     14  C   UNL A   1      42.352  21.824  25.731  1.00  0.00     0.014 A 
ATOM     15  C   UNL A   1      41.953  22.464  28.422  1.00  0.00     0.010 A 
ATOM     16  C   UNL A   1      42.577  23.129  26.174  1.00  0.00     0.010 A 
ATOM     17  C   UNL A   1      42.360  23.459  27.520  1.00  0.00    -0.014 A 
BRANCH  17  18
ATOM     18  C   UNL A   1      42.672  24.801  28.061  1.00  0.00     0.031 A 
ATOM     19  C   UNL A   1      41.597  25.815  28.315  1.00  0.00     0.074 A 
ATOM     20  C   UNL A   1      43.959  25.066  28.361  1.00  0.00     0.049 A 
ATOM     21  N   UNL A   1      41.715  27.024  28.799  1.00  0.00    -0.248 NA
ATOM     22  C   UNL A   1      40.217  25.435  27.976  1.00  0.00     0.031 C 
ATOM     23  C   UNL A   1      45.082  24.146  28.139  1.00  0.00     0.029 A 
ATOM     24  N   UNL A   1      44.543  26.160  28.941  1.00  0.00    -0.354 N 
ATOM     25  C   UNL A   1      40.435  27.560  28.800  1.00  0.00     0.074 A 
ATOM     26  C   UNL A   1      39.553  26.550  28.257  1.00  0.00     0.031 C 
ATOM     27  C   UNL A   1      46.202  24.687  28.632  1.00  0.00     0.029 A 
ATOM     28  C   UNL A   1      45.897  26.021  29.126  1.00  0.00     0.049 A 
ATOM     29  H   UNL A   1      44.042  26.966  29.200  1.00  0.00     0.167 HD
ATOM     30  C   UNL A   1      40.042  28.787  29.218  1.00  0.00     0.037 A 
ATOM     31  C   UNL A   1      46.803  26.885  29.614  1.00  0.00     0.037 A 
ATOM     32  C   UNL A   1      40.933  29.772  29.779  1.00  0.00     0.049 A 
ATOM     33  C   UNL A   1      46.333  28.237  30.056  1.00  0.00     0.074 A 
ATOM     34  C   UNL A   1      40.626  31.028  30.272  1.00  0.00     0.029 A 
ATOM     35  N   UNL A   1      42.303  29.610  29.920  1.00  0.00    -0.354 N 
ATOM     36  N   UNL A   1      45.115  28.719  30.074  1.00  0.00    -0.248 NA
ATOM     37  C   UNL A   1      47.362  29.169  30.531  1.00  0.00     0.031 C 
ATOM     38  C   UNL A   1      41.818  31.643  30.671  1.00  0.00     0.029 A 
ATOM     39  C   UNL A   1      42.860  30.753  30.469  1.00  0.00     0.049 A 
ATOM     40  H   UNL A   1      42.806  28.802  29.668  1.00  0.00     0.167 HD
ATOM     41  C   UNL A   1      45.228  30.009  30.568  1.00  0.00     0.074 A 
ATOM     42  C   UNL A   1      46.630  30.221  30.866  1.00  0.00     0.031 C 
ATOM     43  C   UNL A   1      44.260  30.939  30.751  1.00  0.00     0.037 A 
BRANCH  30  44
ATOM     44  C   UNL A   1      38.594  29.151  29.071  1.00  0.00     0.057 A 
ATOM     45  C   UNL A   1      37.702  29.092  30.148  1.00  0.00     0.134 A 
ATOM     46  C   UNL A   1      38.107  29.642  27.853  1.00  0.00     0.134 A 
ATOM     47  F   UNL A   1      38.101  28.621  31.338  1.00  0.00    -0.206 F 
ATOM     48  C   UNL A   1      36.373  29.504  30.017  1.00  0.00     0.040 A 
ATOM     49  C   UNL A   1      36.788  30.077  27.714  1.00  0.00     0.040 A 
ATOM     50  F   UNL A   1      38.913  29.729  26.783  1.00  0.00    -0.206 F 
ATOM     51  C   UNL A   1      35.916  30.007  28.799  1.00  0.00     0.006 A 
ENDBRANCH  30  44
BRANCH  31  52
ATOM     52  C   UNL A   1      48.236  26.505  29.672  1.00  0.00     0.057 A 
ATOM     53  C   UNL A   1      49.111  26.806  28.624  1.00  0.00     0.134 A 
ATOM     54  C   UNL A   1      48.764  25.838  30.784  1.00  0.00     0.134 A 
ATOM     55  F   UNL A   1      48.661  27.433  27.527  1.00  0.00    -0.206 F 
ATOM     56  C   UNL A   1      50.457  26.441  28.672  1.00  0.00     0.040 A 
ATOM     57  C   UNL A   1      50.114  25.495  30.858  1.00  0.00     0.040 A 
ATOM     58  F   UNL A   1      47.979  25.531  31.828  1.00  0.00    -0.206 F 
ATOM     59  C   UNL A   1      50.963  25.789  29.794  1.00  0.00     0.006 A 
ENDBRANCH  31  52
BRANCH  43  60
ATOM     60  C   UNL A   1      44.696  32.257  31.313  1.00  0.00     0.057 A 
ATOM     61  C   UNL A   1      45.075  33.320  30.482  1.00  0.00     0.134 A 
ATOM     62  C   UNL A   1      44.726  32.469  32.697  1.00  0.00     0.134 A 
ATOM     63  F   UNL A   1      45.085  33.170  29.149  1.00  0.00    -0.206 F 
ATOM     64  C   UNL A   1      45.494  34.540  31.011  1.00  0.00     0.040 A 
ATOM     65  C   UNL A   1      45.117  33.694  33.235  1.00  0.00     0.040 A 
ATOM     66  F   UNL A   1      44.369  31.492  33.544  1.00  0.00    -0.206 F 
ATOM     67  C   UNL A   1      45.510  34.731  32.392  1.00  0.00     0.006 A 
ENDBRANCH  43  60
ENDBRANCH  17  18
ENDBRANCH  10  12
ENDBRANCH   7   8
ENDBRANCH   6   7
ENDBRANCH   5   6
ENDBRANCH   1   5
BRANCH   2  68
ATOM     68  C   UNL A   1      34.814  22.613  24.628  1.00  0.00     0.202 C 
BRANCH  68  69
ATOM     69  C   UNL A   1      33.747  22.013  23.717  1.00  0.00    -0.016 A 
ATOM     70  C   UNL A   1      33.301  22.724  22.591  1.00  0.00     0.006 A 
ATOM     71  C   UNL A   1      33.202  20.743  23.973  1.00  0.00     0.006 A 
ATOM     72  C   UNL A   1      32.343  22.177  21.738  1.00  0.00     0.000 A 
ATOM     73  C   UNL A   1      32.244  20.199  23.115  1.00  0.00     0.000 A 
ATOM     74  C   UNL A   1      31.815  20.916  21.999  1.00  0.00     0.000 A 
ENDBRANCH  68  69
BRANCH  68  75
ATOM     75  N   UNL A   1      34.556  22.184  25.999  1.00  0.00    -0.340 N 
ATOM     76  C   UNL A   1      33.828  22.733  27.009  1.00  0.00     0.224 C 
ATOM     77  H   UNL A   1      34.992  21.334  26.240  1.00  0.00     0.164 HD
ATOM     78  O   UNL A   1      33.811  22.111  28.076  1.00  0.00    -0.275 OA
BRANCH  76  79
ATOM     79  C   UNL A   1      33.098  24.079  26.903  1.00  0.00     0.078 C 
ATOM     80  C   UNL A   1      33.978  25.198  26.333  1.00  0.00     0.014 C 
ATOM     81  C   UNL A   1      31.719  23.955  26.250  1.00  0.00     0.014 C 
ATOM     82  C   UNL A   1      33.238  26.510  26.107  1.00  0.00     0.006 C 
ATOM     83  C   UNL A   1      31.061  25.308  25.979  1.00  0.00     0.006 C 
ATOM     84  C   UNL A   1      31.978  26.307  25.256  1.00  0.00     0.008 C 
BRANCH  84  85
ATOM     85  C   UNL A   1      32.353  25.891  23.820  1.00  0.00     0.119 C 
BRANCH  85  86
ATOM     86  N   UNL A   1      33.371  26.741  23.239  1.00  0.00    -0.351 N 
ATOM     87  C   UNL A   1      33.232  27.992  22.706  1.00  0.00     0.278 C 
ATOM     88  H   UNL A   1      34.282  26.371  23.226  1.00  0.00     0.163 HD
ATOM     89  O   UNL A   1      34.255  28.610  22.404  1.00  0.00    -0.268 OA
BRANCH  87  90
ATOM     90  C   UNL A   1      31.827  28.598  22.557  1.00  0.00     0.277 C 
ATOM     91  C   UNL A   1      31.421  29.318  23.855  1.00  0.00     0.111 C 
ATOM     92  N   UNL A   1      30.883  27.550  22.073  1.00  0.00    -0.332 N 
ATOM     93  C   UNL A   1      30.030  29.859  23.661  1.00  0.00    -0.033 A 
ATOM     94  C   UNL A   1      29.564  27.595  22.724  1.00  0.00     0.298 C 
ATOM     95  H   UNL A   1      31.299  26.636  22.249  1.00  0.00     0.347 HD
ATOM     96  H   UNL A   1      30.731  27.723  21.079  1.00  0.00     0.347 HD
ATOM     97  C   UNL A   1      29.659  31.154  24.023  1.00  0.00     0.004 A 
ATOM     98  C   UNL A   1      29.102  28.992  23.055  1.00  0.00     0.010 A 
ATOM     99  C   UNL A   1      28.358  31.589  23.775  1.00  0.00     0.000 A 
ATOM    100  C   UNL A   1      27.795  29.429  22.832  1.00  0.00     0.010 A 
ATOM    101  C   UNL A   1      27.429  30.729  23.184  1.00  0.00     0.001 A 
ENDBRANCH  87  90
ENDBRANCH  85  86
ENDBRANCH  84  85
ENDBRANCH  76  79
ENDBRANCH  68  75
ENDBRANCH   2  68
TORSDOF 16
ENDMDL
MODEL 3
REMARK VINA RESULT:     -12.8      0.585      5.820
REMARK SMILES O=C(NCCCNC(=O)[C@H](NC(=O)[C@H]1CC[C@@H](CNC(=O)[C@@H]2Cc3ccccc3C[NH2+]2)CC1)c1ccccc1)c1ccc(-c2c3nc(c(-c4c(F)cccc4F)c4ccc([nH]4)c(-c4c(F)cccc4F)c4nc(c(-c5c(F)cccc5F)c5ccc2[nH]5)C=C4)C=C3)cc1
REMARK SMILES IDX 7 1 8 2 9 3 6 5 5 6 4 7 3 8 1 9 2 10 40 12 41 13 93 14 42 15
REMARK SMILES IDX 92 16 43 17 44 18 45 19 86 20 46 21 91 22 85 23 87 24 47 25
REMARK SMILES IDX 90 26 84 27 83 28 48 30 74 31 57 32 73 33 58 34 61 35 72 36
REMARK SMILES IDX 88 37 59 38 60 39 71 41 89 42 62 43 49 44 50 45 55 46 51 47
REMARK SMILES IDX 52 48 54 49 56 50 53 51 75 52 76 53 81 54 77 55 78 56 80 57
REMARK SMILES IDX 82 58 79 59 63 60 64 61 69 62 65 63 66 64 68 65 70 66 67 67
REMARK SMILES IDX 10 68 34 69 35 70 39 71 36 72 38 73 37 74 11 75 12 76 13 78
REMARK SMILES IDX 14 79 33 80 15 81 32 82 16 83 17 84 18 85 19 86 20 87 21 89
REMARK SMILES IDX 22 90 23 91 31 92 24 93 30 94 25 97 29 98 26 99 28 100
REMARK SMILES IDX 27 101
REMARK H PARENT 7 4 3 11 87 29 61 40 11 77 19 88 31 95 31 96
REMARK Flexibility Score: inf
ROOT
ATOM      1  N   UNL A   1      37.255  21.167  24.834  1.00  0.00    -0.354 N 
ATOM      2  C   UNL A   1      36.376  20.137  24.950  1.00  0.00     0.247 C 
ATOM      3  O   UNL A   1      36.895  19.013  24.976  1.00  0.00    -0.272 OA
ATOM      4  H   UNL A   1      38.193  20.879  24.761  1.00  0.00     0.163 HD
ENDROOT
BRANCH   1   5
ATOM      5  C   UNL A   1      37.083  22.604  24.797  1.00  0.00     0.117 C 
BRANCH   5   6
ATOM      6  C   UNL A   1      37.114  23.211  26.179  1.00  0.00     0.042 C 
BRANCH   6   7
ATOM      7  C   UNL A   1      38.002  24.438  26.228  1.00  0.00     0.118 C 
BRANCH   7   8
ATOM      8  N   UNL A   1      39.393  24.124  25.917  1.00  0.00    -0.352 N 
ATOM      9  O   UNL A   1      41.616  24.498  25.816  1.00  0.00    -0.269 OA
ATOM     10  C   UNL A   1      40.543  24.737  26.351  1.00  0.00     0.251 C 
ATOM     11  H   UNL A   1      39.526  23.361  25.308  1.00  0.00     0.163 HD
BRANCH  10  12
ATOM     12  C   UNL A   1      40.461  25.691  27.474  1.00  0.00     0.039 A 
ATOM     13  C   UNL A   1      41.270  26.827  27.473  1.00  0.00     0.014 A 
ATOM     14  C   UNL A   1      39.578  25.451  28.529  1.00  0.00     0.014 A 
ATOM     15  C   UNL A   1      41.330  27.627  28.598  1.00  0.00     0.010 A 
ATOM     16  C   UNL A   1      39.541  26.337  29.608  1.00  0.00     0.010 A 
ATOM     17  C   UNL A   1      40.431  27.420  29.656  1.00  0.00    -0.014 A 
BRANCH  17  18
ATOM     18  C   UNL A   1      40.372  28.440  30.727  1.00  0.00     0.031 A 
ATOM     19  C   UNL A   1      41.322  28.418  31.886  1.00  0.00     0.074 A 
ATOM     20  C   UNL A   1      39.458  29.423  30.599  1.00  0.00     0.049 A 
ATOM     21  N   UNL A   1      41.402  29.251  32.891  1.00  0.00    -0.248 NA
ATOM     22  C   UNL A   1      42.301  27.321  31.935  1.00  0.00     0.031 C 
ATOM     23  C   UNL A   1      38.479  29.524  29.509  1.00  0.00     0.029 A 
ATOM     24  N   UNL A   1      39.215  30.533  31.361  1.00  0.00    -0.354 N 
ATOM     25  C   UNL A   1      42.417  28.769  33.705  1.00  0.00     0.074 A 
ATOM     26  C   UNL A   1      42.919  27.562  33.085  1.00  0.00     0.031 C 
ATOM     27  C   UNL A   1      37.789  30.664  29.639  1.00  0.00     0.029 A 
ATOM     28  C   UNL A   1      38.213  31.328  30.862  1.00  0.00     0.049 A 
ATOM     29  H   UNL A   1      39.711  30.742  32.186  1.00  0.00     0.167 HD
ATOM     30  C   UNL A   1      42.880  29.294  34.865  1.00  0.00     0.037 A 
ATOM     31  C   UNL A   1      37.672  32.457  31.351  1.00  0.00     0.037 A 
ATOM     32  C   UNL A   1      42.383  30.512  35.454  1.00  0.00     0.049 A 
ATOM     33  C   UNL A   1      38.202  33.002  32.641  1.00  0.00     0.074 A 
ATOM     34  C   UNL A   1      42.814  31.150  36.604  1.00  0.00     0.029 A 
ATOM     35  N   UNL A   1      41.344  31.273  34.940  1.00  0.00    -0.354 N 
ATOM     36  N   UNL A   1      39.179  32.549  33.386  1.00  0.00    -0.248 NA
ATOM     37  C   UNL A   1      37.547  34.205  33.166  1.00  0.00     0.031 C 
ATOM     38  C   UNL A   1      42.007  32.274  36.808  1.00  0.00     0.029 A 
ATOM     39  C   UNL A   1      41.103  32.361  35.762  1.00  0.00     0.049 A 
ATOM     40  H   UNL A   1      40.851  31.070  34.112  1.00  0.00     0.167 HD
ATOM     41  C   UNL A   1      39.263  33.413  34.466  1.00  0.00     0.074 A 
ATOM     42  C   UNL A   1      38.256  34.435  34.262  1.00  0.00     0.031 C 
ATOM     43  C   UNL A   1      40.091  33.361  35.537  1.00  0.00     0.037 A 
BRANCH  30  44
ATOM     44  C   UNL A   1      43.964  28.553  35.591  1.00  0.00     0.057 A 
ATOM     45  C   UNL A   1      45.320  28.822  35.373  1.00  0.00     0.134 A 
ATOM     46  C   UNL A   1      43.641  27.612  36.578  1.00  0.00     0.134 A 
ATOM     47  F   UNL A   1      45.697  29.703  34.435  1.00  0.00    -0.206 F 
ATOM     48  C   UNL A   1      46.318  28.178  36.108  1.00  0.00     0.040 A 
ATOM     49  C   UNL A   1      44.628  26.978  37.333  1.00  0.00     0.040 A 
ATOM     50  F   UNL A   1      42.360  27.313  36.838  1.00  0.00    -0.206 F 
ATOM     51  C   UNL A   1      45.972  27.259  37.098  1.00  0.00     0.006 A 
ENDBRANCH  30  44
BRANCH  31  52
ATOM     52  C   UNL A   1      36.552  33.114  30.633  1.00  0.00     0.057 A 
ATOM     53  C   UNL A   1      36.776  33.902  29.501  1.00  0.00     0.134 A 
ATOM     54  C   UNL A   1      35.227  32.960  31.062  1.00  0.00     0.134 A 
ATOM     55  F   UNL A   1      38.024  34.097  29.050  1.00  0.00    -0.206 F 
ATOM     56  C   UNL A   1      35.725  34.530  28.830  1.00  0.00     0.040 A 
ATOM     57  C   UNL A   1      34.164  33.556  30.382  1.00  0.00     0.040 A 
ATOM     58  F   UNL A   1      34.944  32.206  32.135  1.00  0.00    -0.206 F 
ATOM     59  C   UNL A   1      34.414  34.352  29.268  1.00  0.00     0.006 A 
ENDBRANCH  31  52
BRANCH  43  60
ATOM     60  C   UNL A   1      39.944  34.454  36.550  1.00  0.00     0.057 A 
ATOM     61  C   UNL A   1      40.627  35.670  36.423  1.00  0.00     0.134 A 
ATOM     62  C   UNL A   1      39.102  34.292  37.658  1.00  0.00     0.134 A 
ATOM     63  F   UNL A   1      41.463  35.875  35.394  1.00  0.00    -0.206 F 
ATOM     64  C   UNL A   1      40.498  36.678  37.378  1.00  0.00     0.040 A 
ATOM     65  C   UNL A   1      38.945  35.304  38.604  1.00  0.00     0.040 A 
ATOM     66  F   UNL A   1      38.416  33.152  37.832  1.00  0.00    -0.206 F 
ATOM     67  C   UNL A   1      39.650  36.498  38.469  1.00  0.00     0.006 A 
ENDBRANCH  43  60
ENDBRANCH  17  18
ENDBRANCH  10  12
ENDBRANCH   7   8
ENDBRANCH   6   7
ENDBRANCH   5   6
ENDBRANCH   1   5
BRANCH   2  68
ATOM     68  C   UNL A   1      34.823  20.303  24.874  1.00  0.00     0.202 C 
BRANCH  68  69
ATOM     69  C   UNL A   1      34.143  18.940  24.796  1.00  0.00    -0.016 A 
ATOM     70  C   UNL A   1      33.129  18.605  25.707  1.00  0.00     0.006 A 
ATOM     71  C   UNL A   1      34.502  18.004  23.811  1.00  0.00     0.006 A 
ATOM     72  C   UNL A   1      32.483  17.371  25.631  1.00  0.00     0.000 A 
ATOM     73  C   UNL A   1      33.852  16.770  23.738  1.00  0.00     0.000 A 
ATOM     74  C   UNL A   1      32.844  16.454  24.647  1.00  0.00     0.000 A 
ENDBRANCH  68  69
BRANCH  68  75
ATOM     75  N   UNL A   1      34.117  21.124  25.854  1.00  0.00    -0.340 N 
ATOM     76  C   UNL A   1      33.219  22.137  25.724  1.00  0.00     0.224 C 
ATOM     77  H   UNL A   1      34.333  20.902  26.789  1.00  0.00     0.164 HD
ATOM     78  O   UNL A   1      32.800  22.640  26.771  1.00  0.00    -0.275 OA
BRANCH  76  79
ATOM     79  C   UNL A   1      32.760  22.705  24.373  1.00  0.00     0.078 C 
ATOM     80  C   UNL A   1      31.297  23.163  24.378  1.00  0.00     0.014 C 
ATOM     81  C   UNL A   1      33.746  23.723  23.793  1.00  0.00     0.014 C 
ATOM     82  C   UNL A   1      30.859  23.839  23.086  1.00  0.00     0.006 C 
ATOM     83  C   UNL A   1      33.217  24.423  22.541  1.00  0.00     0.006 C 
ATOM     84  C   UNL A   1      31.798  24.990  22.705  1.00  0.00     0.008 C 
BRANCH  84  85
ATOM     85  C   UNL A   1      31.694  26.139  23.728  1.00  0.00     0.119 C 
BRANCH  85  86
ATOM     86  N   UNL A   1      30.506  26.946  23.542  1.00  0.00    -0.351 N 
ATOM     87  C   UNL A   1      30.318  28.265  23.848  1.00  0.00     0.278 C 
ATOM     88  H   UNL A   1      29.733  26.486  23.145  1.00  0.00     0.163 HD
ATOM     89  O   UNL A   1      29.279  28.806  23.467  1.00  0.00    -0.268 OA
BRANCH  87  90
ATOM     90  C   UNL A   1      31.421  29.031  24.597  1.00  0.00     0.277 C 
ATOM     91  C   UNL A   1      31.783  28.298  25.901  1.00  0.00     0.111 C 
ATOM     92  N   UNL A   1      31.020  30.460  24.745  1.00  0.00    -0.332 N 
ATOM     93  C   UNL A   1      32.837  29.110  26.604  1.00  0.00    -0.033 A 
ATOM     94  C   UNL A   1      31.345  31.033  26.061  1.00  0.00     0.298 C 
ATOM     95  H   UNL A   1      30.012  30.528  24.604  1.00  0.00     0.347 HD
ATOM     96  H   UNL A   1      31.546  30.991  24.051  1.00  0.00     0.347 HD
ATOM     97  C   UNL A   1      33.986  28.548  27.159  1.00  0.00     0.004 A 
ATOM     98  C   UNL A   1      32.627  30.500  26.651  1.00  0.00     0.010 A 
ATOM     99  C   UNL A   1      34.933  29.375  27.761  1.00  0.00     0.000 A 
ATOM    100  C   UNL A   1      33.569  31.319  27.275  1.00  0.00     0.010 A 
ATOM    101  C   UNL A   1      34.724  30.756  27.821  1.00  0.00     0.001 A 
ENDBRANCH  87  90
ENDBRANCH  85  86
ENDBRANCH  84  85
ENDBRANCH  76  79
ENDBRANCH  68  75
ENDBRANCH   2  68
TORSDOF 16
ENDMDL
