MODEL 1
REMARK VINA RESULT:      -8.9      0.000      0.000
REMARK SMILES C[C@H](Cc1ccc(N)cc1)C(=O)NCCCNC(=O)c1ccc(-c2c3nc(c(-c4c(F)cccc4F)c4ccc([nH]4)c(-c4c(F)cccc4F)c4nc(c(-c5c(F)cccc5F)c5ccc2[nH]5)C=C4)C=C3)cc1
REMARK SMILES IDX 14 1 13 2 11 3 12 4 2 6 1 7 3 8 4 9 5 10 10 11 6 12 9 13
REMARK SMILES IDX 7 14 8 15 15 18 16 19 17 20 18 21 19 23 20 24 21 25 73 26
REMARK SMILES IDX 22 27 72 28 23 29 24 30 25 31 66 32 26 33 71 34 65 35 67 36
REMARK SMILES IDX 27 37 70 38 64 39 63 40 28 42 54 43 37 44 53 45 38 46 41 47
REMARK SMILES IDX 52 48 68 49 39 50 40 51 51 53 69 54 42 55 29 56 30 57 35 58
REMARK SMILES IDX 31 59 32 60 34 61 36 62 33 63 55 64 56 65 61 66 57 67 58 68
REMARK SMILES IDX 60 69 62 70 59 71 43 72 44 73 49 74 45 75 46 76 48 77 50 78
REMARK SMILES IDX 47 79
REMARK H PARENT 13 5 8 16 8 17 17 22 67 41 41 52
REMARK Flexibility Score: inf
ROOT
ATOM      1  C   UNL A   1      45.209  22.030  24.073  1.00  0.00     0.117 C 
ENDROOT
BRANCH   1   2
ATOM      2  N   UNL A   1      45.868  22.326  25.331  1.00  0.00    -0.356 N 
ATOM      3  C   UNL A   1      46.444  23.472  25.788  1.00  0.00     0.223 C 
ATOM      4  O   UNL A   1      46.949  23.437  26.914  1.00  0.00    -0.275 OA
ATOM      5  H   UNL A   1      45.904  21.571  25.960  1.00  0.00     0.163 HD
BRANCH   3   6
ATOM      6  C   UNL A   1      46.473  24.761  24.969  1.00  0.00     0.079 C 
ATOM      7  C   UNL A   1      47.535  24.697  23.869  1.00  0.00     0.018 C 
BRANCH   6   8
ATOM      8  C   UNL A   1      46.442  26.004  25.878  1.00  0.00     0.048 C 
BRANCH   8   9
ATOM      9  C   UNL A   1      45.137  26.754  25.951  1.00  0.00    -0.047 A 
ATOM     10  C   UNL A   1      45.021  27.907  26.737  1.00  0.00     0.006 A 
ATOM     11  C   UNL A   1      44.028  26.332  25.214  1.00  0.00     0.006 A 
ATOM     12  C   UNL A   1      43.833  28.639  26.759  1.00  0.00     0.026 A 
ATOM     13  C   UNL A   1      42.834  27.061  25.252  1.00  0.00     0.026 A 
ATOM     14  C   UNL A   1      42.723  28.216  26.028  1.00  0.00     0.031 A 
BRANCH  14  15
ATOM     15  N   UNL A   1      41.574  28.985  25.994  1.00  0.00    -0.399 N 
ATOM     16  H   UNL A   1      41.368  29.599  26.735  1.00  0.00     0.156 HD
ATOM     17  H   UNL A   1      40.960  28.919  25.226  1.00  0.00     0.156 HD
ENDBRANCH  14  15
ENDBRANCH   8   9
ENDBRANCH   6   8
ENDBRANCH   3   6
ENDBRANCH   1   2
BRANCH   1  18
ATOM     18  C   UNL A   1      44.902  20.545  23.904  1.00  0.00     0.042 C 
BRANCH  18  19
ATOM     19  C   UNL A   1      44.517  19.837  25.195  1.00  0.00     0.118 C 
BRANCH  19  20
ATOM     20  N   UNL A   1      43.129  19.403  25.190  1.00  0.00    -0.352 N 
ATOM     21  C   UNL A   1      42.034  19.903  25.844  1.00  0.00     0.251 C 
ATOM     22  H   UNL A   1      42.946  18.619  24.623  1.00  0.00     0.163 HD
ATOM     23  O   UNL A   1      40.994  19.243  25.849  1.00  0.00    -0.269 OA
BRANCH  21  24
ATOM     24  C   UNL A   1      42.069  21.210  26.543  1.00  0.00     0.039 A 
ATOM     25  C   UNL A   1      42.204  22.370  25.772  1.00  0.00     0.014 A 
ATOM     26  C   UNL A   1      42.058  21.307  27.937  1.00  0.00     0.014 A 
ATOM     27  C   UNL A   1      42.309  23.616  26.394  1.00  0.00     0.010 A 
ATOM     28  C   UNL A   1      42.078  22.557  28.554  1.00  0.00     0.010 A 
ATOM     29  C   UNL A   1      42.237  23.722  27.791  1.00  0.00    -0.014 A 
BRANCH  29  30
ATOM     30  C   UNL A   1      42.393  25.036  28.464  1.00  0.00     0.031 A 
ATOM     31  C   UNL A   1      43.713  25.415  29.079  1.00  0.00     0.074 A 
ATOM     32  C   UNL A   1      41.345  25.878  28.545  1.00  0.00     0.049 A 
ATOM     33  N   UNL A   1      44.046  26.509  29.719  1.00  0.00    -0.248 NA
ATOM     34  C   UNL A   1      44.797  24.423  28.990  1.00  0.00     0.031 C 
ATOM     35  C   UNL A   1      40.000  25.608  28.036  1.00  0.00     0.029 A 
ATOM     36  N   UNL A   1      41.252  27.135  29.086  1.00  0.00    -0.354 N 
ATOM     37  C   UNL A   1      45.363  26.325  30.124  1.00  0.00     0.074 A 
ATOM     38  C   UNL A   1      45.753  24.997  29.703  1.00  0.00     0.031 C 
ATOM     39  C   UNL A   1      39.223  26.679  28.263  1.00  0.00     0.029 A 
ATOM     40  C   UNL A   1      40.008  27.700  28.949  1.00  0.00     0.049 A 
ATOM     41  H   UNL A   1      42.003  27.588  29.531  1.00  0.00     0.167 HD
ATOM     42  C   UNL A   1      46.182  27.192  30.765  1.00  0.00     0.037 A 
ATOM     43  C   UNL A   1      39.558  28.913  29.323  1.00  0.00     0.037 A 
ATOM     44  C   UNL A   1      45.809  28.527  31.146  1.00  0.00     0.049 A 
ATOM     45  C   UNL A   1      40.502  29.878  29.982  1.00  0.00     0.074 A 
ATOM     46  C   UNL A   1      46.581  29.501  31.756  1.00  0.00     0.029 A 
ATOM     47  N   UNL A   1      44.555  29.081  30.942  1.00  0.00    -0.354 N 
ATOM     48  N   UNL A   1      41.762  29.712  30.305  1.00  0.00    -0.248 NA
ATOM     49  C   UNL A   1      39.967  31.207  30.310  1.00  0.00     0.031 C 
ATOM     50  C   UNL A   1      45.786  30.638  31.939  1.00  0.00     0.029 A 
ATOM     51  C   UNL A   1      44.531  30.383  31.413  1.00  0.00     0.049 A 
ATOM     52  H   UNL A   1      43.793  28.617  30.523  1.00  0.00     0.167 HD
ATOM     53  C   UNL A   1      42.177  30.922  30.845  1.00  0.00     0.074 A 
ATOM     54  C   UNL A   1      41.039  31.816  30.794  1.00  0.00     0.031 C 
ATOM     55  C   UNL A   1      43.393  31.263  31.337  1.00  0.00     0.037 A 
BRANCH  42  56
ATOM     56  C   UNL A   1      47.571  26.718  31.082  1.00  0.00     0.057 A 
ATOM     57  C   UNL A   1      47.876  26.094  32.299  1.00  0.00     0.134 A 
ATOM     58  C   UNL A   1      48.610  26.872  30.157  1.00  0.00     0.134 A 
ATOM     59  F   UNL A   1      46.929  25.928  33.235  1.00  0.00    -0.206 F 
ATOM     60  C   UNL A   1      49.171  25.665  32.596  1.00  0.00     0.040 A 
ATOM     61  C   UNL A   1      49.903  26.426  30.432  1.00  0.00     0.040 A 
ATOM     62  F   UNL A   1      48.385  27.458  28.971  1.00  0.00    -0.206 F 
ATOM     63  C   UNL A   1      50.189  25.827  31.658  1.00  0.00     0.006 A 
ENDBRANCH  42  56
BRANCH  43  64
ATOM     64  C   UNL A   1      38.157  29.304  29.031  1.00  0.00     0.057 A 
ATOM     65  C   UNL A   1      37.782  29.726  27.750  1.00  0.00     0.134 A 
ATOM     66  C   UNL A   1      37.165  29.270  30.017  1.00  0.00     0.134 A 
ATOM     67  F   UNL A   1      38.694  29.796  26.768  1.00  0.00    -0.206 F 
ATOM     68  C   UNL A   1      36.474  30.120  27.464  1.00  0.00     0.040 A 
ATOM     69  C   UNL A   1      35.849  29.639  29.739  1.00  0.00     0.040 A 
ATOM     70  F   UNL A   1      37.461  28.865  31.261  1.00  0.00    -0.206 F 
ATOM     71  C   UNL A   1      35.502  30.072  28.461  1.00  0.00     0.006 A 
ENDBRANCH  43  64
BRANCH  55  72
ATOM     72  C   UNL A   1      43.565  32.673  31.814  1.00  0.00     0.057 A 
ATOM     73  C   UNL A   1      43.996  33.696  30.960  1.00  0.00     0.134 A 
ATOM     74  C   UNL A   1      43.275  33.014  33.141  1.00  0.00     0.134 A 
ATOM     75  F   UNL A   1      44.302  33.430  29.681  1.00  0.00    -0.206 F 
ATOM     76  C   UNL A   1      44.157  35.005  31.415  1.00  0.00     0.040 A 
ATOM     77  C   UNL A   1      43.410  34.323  33.603  1.00  0.00     0.040 A 
ATOM     78  F   UNL A   1      42.851  32.081  34.007  1.00  0.00    -0.206 F 
ATOM     79  C   UNL A   1      43.859  35.322  32.741  1.00  0.00     0.006 A 
ENDBRANCH  55  72
ENDBRANCH  29  30
ENDBRANCH  21  24
ENDBRANCH  19  20
ENDBRANCH  18  19
ENDBRANCH   1  18
TORSDOF 13
ENDMDL
MODEL 2
REMARK VINA RESULT:      -8.8      2.923      8.163
REMARK SMILES C[C@H](Cc1ccc(N)cc1)C(=O)NCCCNC(=O)c1ccc(-c2c3nc(c(-c4c(F)cccc4F)c4ccc([nH]4)c(-c4c(F)cccc4F)c4nc(c(-c5c(F)cccc5F)c5ccc2[nH]5)C=C4)C=C3)cc1
REMARK SMILES IDX 14 1 13 2 11 3 12 4 2 6 1 7 3 8 4 9 5 10 10 11 6 12 9 13
REMARK SMILES IDX 7 14 8 15 15 18 16 19 17 20 18 21 19 23 20 24 21 25 73 26
REMARK SMILES IDX 22 27 72 28 23 29 24 30 25 31 66 32 26 33 71 34 65 35 67 36
REMARK SMILES IDX 27 37 70 38 64 39 63 40 28 42 54 43 37 44 53 45 38 46 41 47
REMARK SMILES IDX 52 48 68 49 39 50 40 51 51 53 69 54 42 55 29 56 30 57 35 58
REMARK SMILES IDX 31 59 32 60 34 61 36 62 33 63 55 64 56 65 61 66 57 67 58 68
REMARK SMILES IDX 60 69 62 70 59 71 43 72 44 73 49 74 45 75 46 76 48 77 50 78
REMARK SMILES IDX 47 79
REMARK H PARENT 13 5 8 16 8 17 17 22 67 41 41 52
REMARK Flexibility Score: inf
ROOT
ATOM      1  C   UNL A   1      36.587  20.838  24.605  1.00  0.00     0.117 C 
ENDROOT
BRANCH   1   2
ATOM      2  N   UNL A   1      35.642  20.922  25.703  1.00  0.00    -0.356 N 
ATOM      3  C   UNL A   1      35.003  21.992  26.252  1.00  0.00     0.223 C 
ATOM      4  O   UNL A   1      34.248  21.769  27.203  1.00  0.00    -0.275 OA
ATOM      5  H   UNL A   1      35.428  20.058  26.123  1.00  0.00     0.163 HD
BRANCH   3   6
ATOM      6  C   UNL A   1      35.188  23.415  25.729  1.00  0.00     0.079 C 
ATOM      7  C   UNL A   1      36.584  23.950  26.055  1.00  0.00     0.018 C 
BRANCH   6   8
ATOM      8  C   UNL A   1      33.973  24.300  26.069  1.00  0.00     0.048 C 
BRANCH   8   9
ATOM      9  C   UNL A   1      33.914  25.649  25.401  1.00  0.00    -0.047 A 
ATOM     10  C   UNL A   1      33.850  25.750  24.006  1.00  0.00     0.006 A 
ATOM     11  C   UNL A   1      33.892  26.822  26.159  1.00  0.00     0.006 A 
ATOM     12  C   UNL A   1      33.732  26.996  23.386  1.00  0.00     0.026 A 
ATOM     13  C   UNL A   1      33.790  28.068  25.532  1.00  0.00     0.026 A 
ATOM     14  C   UNL A   1      33.716  28.168  24.141  1.00  0.00     0.031 A 
BRANCH  14  15
ATOM     15  N   UNL A   1      33.524  29.393  23.528  1.00  0.00    -0.399 N 
ATOM     16  H   UNL A   1      34.252  29.804  23.008  1.00  0.00     0.156 HD
ATOM     17  H   UNL A   1      32.658  29.855  23.611  1.00  0.00     0.156 HD
ENDBRANCH  14  15
ENDBRANCH   8   9
ENDBRANCH   6   8
ENDBRANCH   3   6
ENDBRANCH   1   2
BRANCH   1  18
ATOM     18  C   UNL A   1      37.694  19.819  24.856  1.00  0.00     0.042 C 
BRANCH  18  19
ATOM     19  C   UNL A   1      38.773  20.294  25.818  1.00  0.00     0.118 C 
BRANCH  19  20
ATOM     20  N   UNL A   1      39.904  19.381  25.868  1.00  0.00    -0.352 N 
ATOM     21  C   UNL A   1      41.235  19.619  26.093  1.00  0.00     0.251 C 
ATOM     22  H   UNL A   1      39.677  18.436  25.716  1.00  0.00     0.163 HD
ATOM     23  O   UNL A   1      42.042  18.713  25.884  1.00  0.00    -0.269 OA
BRANCH  21  24
ATOM     24  C   UNL A   1      41.724  20.932  26.576  1.00  0.00     0.039 A 
ATOM     25  C   UNL A   1      41.683  21.190  27.950  1.00  0.00     0.014 A 
ATOM     26  C   UNL A   1      42.140  21.938  25.699  1.00  0.00     0.014 A 
ATOM     27  C   UNL A   1      42.072  22.439  28.442  1.00  0.00     0.010 A 
ATOM     28  C   UNL A   1      42.607  23.154  26.196  1.00  0.00     0.010 A 
ATOM     29  C   UNL A   1      42.547  23.429  27.569  1.00  0.00    -0.014 A 
BRANCH  29  30
ATOM     30  C   UNL A   1      42.919  24.774  28.075  1.00  0.00     0.031 A 
ATOM     31  C   UNL A   1      41.854  25.812  28.309  1.00  0.00     0.074 A 
ATOM     32  C   UNL A   1      44.212  25.073  28.301  1.00  0.00     0.049 A 
ATOM     33  N   UNL A   1      41.977  27.045  28.736  1.00  0.00    -0.248 NA
ATOM     34  C   UNL A   1      40.469  25.425  27.996  1.00  0.00     0.031 C 
ATOM     35  C   UNL A   1      45.343  24.174  28.064  1.00  0.00     0.029 A 
ATOM     36  N   UNL A   1      44.791  26.219  28.783  1.00  0.00    -0.354 N 
ATOM     37  C   UNL A   1      40.696  27.581  28.720  1.00  0.00     0.074 A 
ATOM     38  C   UNL A   1      39.816  26.560  28.195  1.00  0.00     0.031 C 
ATOM     39  C   UNL A   1      46.478  24.793  28.430  1.00  0.00     0.029 A 
ATOM     40  C   UNL A   1      46.156  26.134  28.906  1.00  0.00     0.049 A 
ATOM     41  H   UNL A   1      44.278  27.025  29.018  1.00  0.00     0.167 HD
ATOM     42  C   UNL A   1      40.282  28.804  29.130  1.00  0.00     0.037 A 
ATOM     43  C   UNL A   1      47.046  27.035  29.365  1.00  0.00     0.037 A 
ATOM     44  C   UNL A   1      41.149  29.805  29.691  1.00  0.00     0.049 A 
ATOM     45  C   UNL A   1      46.556  28.364  29.867  1.00  0.00     0.074 A 
ATOM     46  C   UNL A   1      40.821  31.057  30.182  1.00  0.00     0.029 A 
ATOM     47  N   UNL A   1      42.518  29.660  29.848  1.00  0.00    -0.354 N 
ATOM     48  N   UNL A   1      45.333  28.835  29.901  1.00  0.00    -0.248 NA
ATOM     49  C   UNL A   1      47.568  29.278  30.413  1.00  0.00     0.031 C 
ATOM     50  C   UNL A   1      41.997  31.678  30.617  1.00  0.00     0.029 A 
ATOM     51  C   UNL A   1      43.051  30.800  30.428  1.00  0.00     0.049 A 
ATOM     52  H   UNL A   1      43.037  28.864  29.586  1.00  0.00     0.167 HD
ATOM     53  C   UNL A   1      45.425  30.085  30.498  1.00  0.00     0.074 A 
ATOM     54  C   UNL A   1      46.821  30.293  30.821  1.00  0.00     0.031 C 
ATOM     55  C   UNL A   1      44.441  30.980  30.758  1.00  0.00     0.037 A 
BRANCH  42  56
ATOM     56  C   UNL A   1      38.821  29.117  28.993  1.00  0.00     0.057 A 
ATOM     57  C   UNL A   1      37.939  29.002  30.076  1.00  0.00     0.134 A 
ATOM     58  C   UNL A   1      38.292  29.553  27.772  1.00  0.00     0.134 A 
ATOM     59  F   UNL A   1      38.379  28.576  31.269  1.00  0.00    -0.206 F 
ATOM     60  C   UNL A   1      36.578  29.282  29.941  1.00  0.00     0.040 A 
ATOM     61  C   UNL A   1      36.938  29.859  27.632  1.00  0.00     0.040 A 
ATOM     62  F   UNL A   1      39.082  29.688  26.696  1.00  0.00    -0.206 F 
ATOM     63  C   UNL A   1      36.074  29.717  28.717  1.00  0.00     0.006 A 
ENDBRANCH  42  56
BRANCH  43  64
ATOM     64  C   UNL A   1      48.486  26.687  29.426  1.00  0.00     0.057 A 
ATOM     65  C   UNL A   1      49.355  27.037  28.385  1.00  0.00     0.134 A 
ATOM     66  C   UNL A   1      49.029  25.998  30.516  1.00  0.00     0.134 A 
ATOM     67  F   UNL A   1      48.888  27.684  27.306  1.00  0.00    -0.206 F 
ATOM     68  C   UNL A   1      50.707  26.697  28.416  1.00  0.00     0.040 A 
ATOM     69  C   UNL A   1      50.384  25.671  30.570  1.00  0.00     0.040 A 
ATOM     70  F   UNL A   1      48.249  25.644  31.549  1.00  0.00    -0.206 F 
ATOM     71  C   UNL A   1      51.226  26.016  29.515  1.00  0.00     0.006 A 
ENDBRANCH  43  64
BRANCH  55  72
ATOM     72  C   UNL A   1      44.835  32.241  31.465  1.00  0.00     0.057 A 
ATOM     73  C   UNL A   1      44.830  32.339  32.861  1.00  0.00     0.134 A 
ATOM     74  C   UNL A   1      45.244  33.365  30.737  1.00  0.00     0.134 A 
ATOM     75  F   UNL A   1      44.435  31.301  33.615  1.00  0.00    -0.206 F 
ATOM     76  C   UNL A   1      45.195  33.520  33.510  1.00  0.00     0.040 A 
ATOM     77  C   UNL A   1      45.633  34.544  31.373  1.00  0.00     0.040 A 
ATOM     78  F   UNL A   1      45.278  33.333  29.396  1.00  0.00    -0.206 F 
ATOM     79  C   UNL A   1      45.602  34.626  32.764  1.00  0.00     0.006 A 
ENDBRANCH  55  72
ENDBRANCH  29  30
ENDBRANCH  21  24
ENDBRANCH  19  20
ENDBRANCH  18  19
ENDBRANCH   1  18
TORSDOF 13
ENDMDL
MODEL 3
REMARK VINA RESULT:      -8.8      3.020      5.174
REMARK SMILES C[C@H](Cc1ccc(N)cc1)C(=O)NCCCNC(=O)c1ccc(-c2c3nc(c(-c4c(F)cccc4F)c4ccc([nH]4)c(-c4c(F)cccc4F)c4nc(c(-c5c(F)cccc5F)c5ccc2[nH]5)C=C4)C=C3)cc1
REMARK SMILES IDX 14 1 13 2 11 3 12 4 2 6 1 7 3 8 4 9 5 10 10 11 6 12 9 13
REMARK SMILES IDX 7 14 8 15 15 18 16 19 17 20 18 21 19 23 20 24 21 25 73 26
REMARK SMILES IDX 22 27 72 28 23 29 24 30 25 31 66 32 26 33 71 34 65 35 67 36
REMARK SMILES IDX 27 37 70 38 64 39 63 40 28 42 54 43 37 44 53 45 38 46 41 47
REMARK SMILES IDX 52 48 68 49 39 50 40 51 51 53 69 54 42 55 29 56 30 57 35 58
REMARK SMILES IDX 31 59 32 60 34 61 36 62 33 63 55 64 56 65 61 66 57 67 58 68
REMARK SMILES IDX 60 69 62 70 59 71 43 72 44 73 49 74 45 75 46 76 48 77 50 78
REMARK SMILES IDX 47 79
REMARK H PARENT 13 5 8 16 8 17 17 22 67 41 41 52
REMARK Flexibility Score: inf
ROOT
ATOM      1  C   UNL A   1      36.614  20.509  24.587  1.00  0.00     0.117 C 
ENDROOT
BRANCH   1   2
ATOM      2  N   UNL A   1      35.744  20.714  25.729  1.00  0.00    -0.356 N 
ATOM      3  C   UNL A   1      35.211  21.854  26.252  1.00  0.00     0.223 C 
ATOM      4  O   UNL A   1      34.500  21.733  27.254  1.00  0.00    -0.275 OA
ATOM      5  H   UNL A   1      35.496  19.891  26.207  1.00  0.00     0.163 HD
BRANCH   3   6
ATOM      6  C   UNL A   1      35.460  23.231  25.642  1.00  0.00     0.079 C 
ATOM      7  C   UNL A   1      36.891  23.705  25.904  1.00  0.00     0.018 C 
BRANCH   6   8
ATOM      8  C   UNL A   1      34.305  24.201  25.958  1.00  0.00     0.048 C 
BRANCH   8   9
ATOM      9  C   UNL A   1      34.020  25.266  24.931  1.00  0.00    -0.047 A 
ATOM     10  C   UNL A   1      33.951  24.943  23.570  1.00  0.00     0.006 A 
ATOM     11  C   UNL A   1      33.788  26.589  25.317  1.00  0.00     0.006 A 
ATOM     12  C   UNL A   1      33.626  25.915  22.622  1.00  0.00     0.026 A 
ATOM     13  C   UNL A   1      33.478  27.561  24.360  1.00  0.00     0.026 A 
ATOM     14  C   UNL A   1      33.401  27.236  23.005  1.00  0.00     0.031 A 
BRANCH  14  15
ATOM     15  N   UNL A   1      33.006  28.178  22.071  1.00  0.00    -0.399 N 
ATOM     16  H   UNL A   1      32.256  28.784  22.269  1.00  0.00     0.156 HD
ATOM     17  H   UNL A   1      33.475  28.241  21.208  1.00  0.00     0.156 HD
ENDBRANCH  14  15
ENDBRANCH   8   9
ENDBRANCH   6   8
ENDBRANCH   3   6
ENDBRANCH   1   2
BRANCH   1  18
ATOM     18  C   UNL A   1      37.765  19.553  24.888  1.00  0.00     0.042 C 
BRANCH  18  19
ATOM     19  C   UNL A   1      38.882  20.165  25.720  1.00  0.00     0.118 C 
BRANCH  19  20
ATOM     20  N   UNL A   1      40.067  19.322  25.753  1.00  0.00    -0.352 N 
ATOM     21  C   UNL A   1      41.377  19.632  26.008  1.00  0.00     0.251 C 
ATOM     22  H   UNL A   1      39.900  18.371  25.561  1.00  0.00     0.163 HD
ATOM     23  O   UNL A   1      42.241  18.785  25.777  1.00  0.00    -0.269 OA
BRANCH  21  24
ATOM     24  C   UNL A   1      41.778  20.952  26.549  1.00  0.00     0.039 A 
ATOM     25  C   UNL A   1      41.686  21.158  27.930  1.00  0.00     0.014 A 
ATOM     26  C   UNL A   1      42.158  22.010  25.719  1.00  0.00     0.014 A 
ATOM     27  C   UNL A   1      41.989  22.408  28.474  1.00  0.00     0.010 A 
ATOM     28  C   UNL A   1      42.542  23.232  26.270  1.00  0.00     0.010 A 
ATOM     29  C   UNL A   1      42.430  23.454  27.650  1.00  0.00    -0.014 A 
BRANCH  29  30
ATOM     30  C   UNL A   1      42.711  24.800  28.211  1.00  0.00     0.031 A 
ATOM     31  C   UNL A   1      44.116  25.176  28.598  1.00  0.00     0.074 A 
ATOM     32  C   UNL A   1      41.703  25.673  28.398  1.00  0.00     0.049 A 
ATOM     33  N   UNL A   1      44.562  26.295  29.113  1.00  0.00    -0.248 NA
ATOM     34  C   UNL A   1      45.155  24.151  28.407  1.00  0.00     0.031 C 
ATOM     35  C   UNL A   1      40.292  25.413  28.113  1.00  0.00     0.029 A 
ATOM     36  N   UNL A   1      41.717  26.961  28.870  1.00  0.00    -0.354 N 
ATOM     37  C   UNL A   1      45.921  26.098  29.327  1.00  0.00     0.074 A 
ATOM     38  C   UNL A   1      46.218  24.738  28.933  1.00  0.00     0.031 C 
ATOM     39  C   UNL A   1      39.578  26.516  28.389  1.00  0.00     0.029 A 
ATOM     40  C   UNL A   1      40.477  27.552  28.886  1.00  0.00     0.049 A 
ATOM     41  H   UNL A   1      42.535  27.418  29.168  1.00  0.00     0.167 HD
ATOM     42  C   UNL A   1      46.845  26.976  29.784  1.00  0.00     0.037 A 
ATOM     43  C   UNL A   1      40.112  28.797  29.250  1.00  0.00     0.037 A 
ATOM     44  C   UNL A   1      46.559  28.341  30.136  1.00  0.00     0.049 A 
ATOM     45  C   UNL A   1      41.163  29.771  29.701  1.00  0.00     0.074 A 
ATOM     46  C   UNL A   1      47.432  29.326  30.563  1.00  0.00     0.029 A 
ATOM     47  N   UNL A   1      45.299  28.917  30.088  1.00  0.00    -0.354 N 
ATOM     48  N   UNL A   1      42.454  29.589  29.841  1.00  0.00    -0.248 NA
ATOM     49  C   UNL A   1      40.709  31.130  30.024  1.00  0.00     0.031 C 
ATOM     50  C   UNL A   1      46.696  30.494  30.794  1.00  0.00     0.029 A 
ATOM     51  C   UNL A   1      45.371  30.244  30.478  1.00  0.00     0.049 A 
ATOM     52  H   UNL A   1      44.474  28.452  29.817  1.00  0.00     0.167 HD
ATOM     53  C   UNL A   1      42.969  30.815  30.238  1.00  0.00     0.074 A 
ATOM     54  C   UNL A   1      41.853  31.736  30.305  1.00  0.00     0.031 C 
ATOM     55  C   UNL A   1      44.252  31.150  30.521  1.00  0.00     0.037 A 
BRANCH  42  56
ATOM     56  C   UNL A   1      48.256  26.483  29.917  1.00  0.00     0.057 A 
ATOM     57  C   UNL A   1      49.192  26.643  28.886  1.00  0.00     0.134 A 
ATOM     58  C   UNL A   1      48.689  25.857  31.092  1.00  0.00     0.134 A 
ATOM     59  F   UNL A   1      48.838  27.222  27.729  1.00  0.00    -0.206 F 
ATOM     60  C   UNL A   1      50.500  26.172  29.009  1.00  0.00     0.040 A 
ATOM     61  C   UNL A   1      50.001  25.404  31.236  1.00  0.00     0.040 A 
ATOM     62  F   UNL A   1      47.845  25.676  32.119  1.00  0.00    -0.206 F 
ATOM     63  C   UNL A   1      50.910  25.554  30.189  1.00  0.00     0.006 A 
ENDBRANCH  42  56
BRANCH  43  64
ATOM     64  C   UNL A   1      38.691  29.209  29.148  1.00  0.00     0.057 A 
ATOM     65  C   UNL A   1      37.845  29.156  30.262  1.00  0.00     0.134 A 
ATOM     66  C   UNL A   1      38.144  29.662  27.942  1.00  0.00     0.134 A 
ATOM     67  F   UNL A   1      38.309  28.715  31.441  1.00  0.00    -0.206 F 
ATOM     68  C   UNL A   1      36.501  29.519  30.178  1.00  0.00     0.040 A 
ATOM     69  C   UNL A   1      36.807  30.049  27.848  1.00  0.00     0.040 A 
ATOM     70  F   UNL A   1      38.907  29.744  26.842  1.00  0.00    -0.206 F 
ATOM     71  C   UNL A   1      35.979  29.972  28.967  1.00  0.00     0.006 A 
ENDBRANCH  43  64
BRANCH  55  72
ATOM     72  C   UNL A   1      44.520  32.579  30.881  1.00  0.00     0.057 A 
ATOM     73  C   UNL A   1      44.803  33.546  29.908  1.00  0.00     0.134 A 
ATOM     74  C   UNL A   1      44.474  32.996  32.217  1.00  0.00     0.134 A 
ATOM     75  F   UNL A   1      44.874  33.207  28.612  1.00  0.00    -0.206 F 
ATOM     76  C   UNL A   1      45.056  34.874  30.255  1.00  0.00     0.040 A 
ATOM     77  C   UNL A   1      44.703  34.324  32.574  1.00  0.00     0.040 A 
ATOM     78  F   UNL A   1      44.201  32.118  33.194  1.00  0.00    -0.206 F 
ATOM     79  C   UNL A   1      45.002  35.267  31.592  1.00  0.00     0.006 A 
ENDBRANCH  55  72
ENDBRANCH  29  30
ENDBRANCH  21  24
ENDBRANCH  19  20
ENDBRANCH  18  19
ENDBRANCH   1  18
TORSDOF 13
ENDMDL
