MODEL 1
REMARK VINA RESULT:     -11.4      0.000      0.000
REMARK SMILES O=C(COc1ccccc1/C=N/NC(=O)C1CC1)NCCCNC(=O)c1ccc(-c2c3nc(c(-c4c(F)cccc4F)c4ccc([nH]4)c(-c4c(F)cccc4F)c4nc(c(-c5c(F)cccc5F)c5ccc2[nH]5)C=C4)C=C3)cc1
REMARK SMILES IDX 1 1 2 2 19 3 3 5 4 6 5 7 6 8 10 9 7 10 9 11 8 12 11 13 12 14
REMARK SMILES IDX 13 15 14 16 15 18 16 19 17 20 18 21 20 22 21 23 22 24 23 25
REMARK SMILES IDX 24 26 25 28 26 29 27 30 79 31 28 32 78 33 29 34 30 35 31 36
REMARK SMILES IDX 72 37 32 38 77 39 71 40 73 41 33 42 76 43 70 44 69 45 34 47
REMARK SMILES IDX 60 48 43 49 59 50 44 51 47 52 58 53 74 54 45 55 46 56 57 58
REMARK SMILES IDX 75 59 48 60 35 61 36 62 41 63 37 64 38 65 40 66 42 67 39 68
REMARK SMILES IDX 61 69 62 70 67 71 63 72 64 73 66 74 68 75 65 76 49 77 50 78
REMARK SMILES IDX 55 79 51 80 52 81 54 82 56 83 53 84
REMARK H PARENT 19 4 13 17 23 27 73 46 47 57
REMARK Flexibility Score: inf
ROOT
ATOM      1  O   UNL A   1      31.620  27.893  27.658  1.00  0.00    -0.271 OA
ATOM      2  C   UNL A   1      32.508  28.639  27.261  1.00  0.00     0.257 C 
ATOM      3  N   UNL A   1      32.426  30.027  27.296  1.00  0.00    -0.353 N 
ATOM      4  H   UNL A   1      32.968  30.533  27.942  1.00  0.00     0.163 HD
ENDROOT
BRANCH   2   5
ATOM      5  C   UNL A   1      33.848  28.138  26.727  1.00  0.00     0.329 C 
BRANCH   5   6
ATOM      6  O   UNL A   1      33.808  28.407  25.322  1.00  0.00    -0.483 OA
BRANCH   6   7
ATOM      7  C   UNL A   1      33.484  27.339  24.540  1.00  0.00     0.128 A 
ATOM      8  C   UNL A   1      34.079  26.117  24.880  1.00  0.00     0.047 A 
ATOM      9  C   UNL A   1      32.888  27.498  23.285  1.00  0.00     0.037 A 
ATOM     10  C   UNL A   1      34.121  25.076  23.951  1.00  0.00     0.004 A 
ATOM     11  C   UNL A   1      32.977  26.464  22.343  1.00  0.00     0.013 A 
ATOM     12  C   UNL A   1      33.597  25.261  22.674  1.00  0.00     0.001 A 
BRANCH   9  13
ATOM     13  C   UNL A   1      32.181  28.696  22.790  1.00  0.00     0.145 C 
ATOM     14  N   UNL A   1      30.950  28.716  22.370  1.00  0.00    -0.181 NA
BRANCH  14  15
ATOM     15  N   UNL A   1      30.612  29.912  21.769  1.00  0.00    -0.247 N 
ATOM     16  C   UNL A   1      29.510  30.690  22.071  1.00  0.00     0.243 C 
ATOM     17  H   UNL A   1      31.211  30.242  21.060  1.00  0.00     0.193 HD
ATOM     18  O   UNL A   1      29.255  31.694  21.411  1.00  0.00    -0.273 OA
BRANCH  16  19
ATOM     19  C   UNL A   1      28.702  30.326  23.256  1.00  0.00     0.080 C 
ATOM     20  C   UNL A   1      27.487  31.132  23.664  1.00  0.00     0.014 C 
ATOM     21  C   UNL A   1      27.324  29.737  23.134  1.00  0.00     0.014 C 
ENDBRANCH  16  19
ENDBRANCH  14  15
ENDBRANCH   9  13
ENDBRANCH   6   7
ENDBRANCH   5   6
ENDBRANCH   2   5
BRANCH   3  22
ATOM     22  C   UNL A   1      31.546  30.728  26.386  1.00  0.00     0.117 C 
BRANCH  22  23
ATOM     23  C   UNL A   1      31.375  32.207  26.630  1.00  0.00     0.042 C 
BRANCH  23  24
ATOM     24  C   UNL A   1      32.646  32.863  27.106  1.00  0.00     0.118 C 
BRANCH  24  25
ATOM     25  N   UNL A   1      32.422  34.173  27.699  1.00  0.00    -0.352 N 
ATOM     26  C   UNL A   1      33.108  34.793  28.709  1.00  0.00     0.251 C 
ATOM     27  H   UNL A   1      31.671  34.686  27.320  1.00  0.00     0.163 HD
ATOM     28  O   UNL A   1      32.689  35.845  29.181  1.00  0.00    -0.269 OA
BRANCH  26  29
ATOM     29  C   UNL A   1      34.345  34.178  29.237  1.00  0.00     0.039 A 
ATOM     30  C   UNL A   1      35.555  34.430  28.588  1.00  0.00     0.014 A 
ATOM     31  C   UNL A   1      34.311  33.345  30.358  1.00  0.00     0.014 A 
ATOM     32  C   UNL A   1      36.729  33.857  29.075  1.00  0.00     0.010 A 
ATOM     33  C   UNL A   1      35.491  32.883  30.918  1.00  0.00     0.010 A 
ATOM     34  C   UNL A   1      36.703  33.085  30.248  1.00  0.00    -0.014 A 
BRANCH  34  35
ATOM     35  C   UNL A   1      37.909  32.375  30.732  1.00  0.00     0.031 A 
ATOM     36  C   UNL A   1      38.612  32.884  31.964  1.00  0.00     0.074 A 
ATOM     37  C   UNL A   1      38.388  31.319  30.053  1.00  0.00     0.049 A 
ATOM     38  N   UNL A   1      39.711  32.454  32.528  1.00  0.00    -0.248 NA
ATOM     39  C   UNL A   1      38.024  34.063  32.627  1.00  0.00     0.031 C 
ATOM     40  C   UNL A   1      37.823  30.777  28.817  1.00  0.00     0.029 A 
ATOM     41  N   UNL A   1      39.464  30.512  30.311  1.00  0.00    -0.354 N 
ATOM     42  C   UNL A   1      39.956  33.324  33.583  1.00  0.00     0.074 A 
ATOM     43  C   UNL A   1      38.936  34.345  33.542  1.00  0.00     0.031 C 
ATOM     44  C   UNL A   1      38.538  29.703  28.443  1.00  0.00     0.029 A 
ATOM     45  C   UNL A   1      39.625  29.502  29.396  1.00  0.00     0.049 A 
ATOM     46  H   UNL A   1      40.066  30.646  31.079  1.00  0.00     0.167 HD
ATOM     47  C   UNL A   1      40.922  33.257  34.527  1.00  0.00     0.037 A 
ATOM     48  C   UNL A   1      40.543  28.520  29.345  1.00  0.00     0.037 A 
ATOM     49  C   UNL A   1      41.898  32.205  34.595  1.00  0.00     0.049 A 
ATOM     50  C   UNL A   1      41.580  28.437  30.432  1.00  0.00     0.074 A 
ATOM     51  C   UNL A   1      42.883  31.999  35.542  1.00  0.00     0.029 A 
ATOM     52  N   UNL A   1      41.999  31.171  33.676  1.00  0.00    -0.354 N 
ATOM     53  N   UNL A   1      41.763  29.228  31.463  1.00  0.00    -0.248 NA
ATOM     54  C   UNL A   1      42.527  27.317  30.358  1.00  0.00     0.031 C 
ATOM     55  C   UNL A   1      43.600  30.853  35.180  1.00  0.00     0.029 A 
ATOM     56  C   UNL A   1      43.034  30.324  34.031  1.00  0.00     0.049 A 
ATOM     57  H   UNL A   1      41.418  31.055  32.888  1.00  0.00     0.167 HD
ATOM     58  C   UNL A   1      42.824  28.686  32.175  1.00  0.00     0.074 A 
ATOM     59  C   UNL A   1      43.234  27.492  31.465  1.00  0.00     0.031 C 
ATOM     60  C   UNL A   1      43.407  29.133  33.314  1.00  0.00     0.037 A 
BRANCH  47  61
ATOM     61  C   UNL A   1      40.951  34.342  35.565  1.00  0.00     0.057 A 
ATOM     62  C   UNL A   1      40.232  34.238  36.765  1.00  0.00     0.134 A 
ATOM     63  C   UNL A   1      41.709  35.502  35.367  1.00  0.00     0.134 A 
ATOM     64  F   UNL A   1      39.471  33.160  37.010  1.00  0.00    -0.206 F 
ATOM     65  C   UNL A   1      40.241  35.261  37.714  1.00  0.00     0.040 A 
ATOM     66  C   UNL A   1      41.750  36.519  36.323  1.00  0.00     0.040 A 
ATOM     67  F   UNL A   1      42.422  35.667  34.243  1.00  0.00    -0.206 F 
ATOM     68  C   UNL A   1      41.008  36.404  37.497  1.00  0.00     0.006 A 
ENDBRANCH  47  61
BRANCH  48  69
ATOM     69  C   UNL A   1      40.491  27.509  28.261  1.00  0.00     0.057 A 
ATOM     70  C   UNL A   1      41.154  27.721  27.048  1.00  0.00     0.134 A 
ATOM     71  C   UNL A   1      39.783  26.311  28.410  1.00  0.00     0.134 A 
ATOM     72  F   UNL A   1      41.837  28.856  26.841  1.00  0.00    -0.206 F 
ATOM     73  C   UNL A   1      41.100  26.787  26.011  1.00  0.00     0.040 A 
ATOM     74  C   UNL A   1      39.739  25.357  27.390  1.00  0.00     0.040 A 
ATOM     75  F   UNL A   1      39.135  26.044  29.553  1.00  0.00    -0.206 F 
ATOM     76  C   UNL A   1      40.394  25.599  26.184  1.00  0.00     0.006 A 
ENDBRANCH  48  69
BRANCH  60  77
ATOM     77  C   UNL A   1      44.518  28.302  33.883  1.00  0.00     0.057 A 
ATOM     78  C   UNL A   1      45.858  28.526  33.542  1.00  0.00     0.134 A 
ATOM     79  C   UNL A   1      44.244  27.294  34.815  1.00  0.00     0.134 A 
ATOM     80  F   UNL A   1      46.183  29.470  32.647  1.00  0.00    -0.206 F 
ATOM     81  C   UNL A   1      46.885  27.758  34.091  1.00  0.00     0.040 A 
ATOM     82  C   UNL A   1      45.263  26.536  35.389  1.00  0.00     0.040 A 
ATOM     83  F   UNL A   1      42.981  27.039  35.191  1.00  0.00    -0.206 F 
ATOM     84  C   UNL A   1      46.588  26.764  35.022  1.00  0.00     0.006 A 
ENDBRANCH  60  77
ENDBRANCH  34  35
ENDBRANCH  26  29
ENDBRANCH  24  25
ENDBRANCH  23  24
ENDBRANCH  22  23
ENDBRANCH   3  22
TORSDOF 15
ENDMDL
MODEL 2
REMARK VINA RESULT:     -11.3      0.981      6.392
REMARK SMILES O=C(COc1ccccc1/C=N/NC(=O)C1CC1)NCCCNC(=O)c1ccc(-c2c3nc(c(-c4c(F)cccc4F)c4ccc([nH]4)c(-c4c(F)cccc4F)c4nc(c(-c5c(F)cccc5F)c5ccc2[nH]5)C=C4)C=C3)cc1
REMARK SMILES IDX 1 1 2 2 19 3 3 5 4 6 5 7 6 8 10 9 7 10 9 11 8 12 11 13 12 14
REMARK SMILES IDX 13 15 14 16 15 18 16 19 17 20 18 21 20 22 21 23 22 24 23 25
REMARK SMILES IDX 24 26 25 28 26 29 27 30 79 31 28 32 78 33 29 34 30 35 31 36
REMARK SMILES IDX 72 37 32 38 77 39 71 40 73 41 33 42 76 43 70 44 69 45 34 47
REMARK SMILES IDX 60 48 43 49 59 50 44 51 47 52 58 53 74 54 45 55 46 56 57 58
REMARK SMILES IDX 75 59 48 60 35 61 36 62 41 63 37 64 38 65 40 66 42 67 39 68
REMARK SMILES IDX 61 69 62 70 67 71 63 72 64 73 66 74 68 75 65 76 49 77 50 78
REMARK SMILES IDX 55 79 51 80 52 81 54 82 56 83 53 84
REMARK H PARENT 19 4 13 17 23 27 73 46 47 57
REMARK Flexibility Score: inf
ROOT
ATOM      1  O   UNL A   1      31.877  27.838  27.675  1.00  0.00    -0.271 OA
ATOM      2  C   UNL A   1      32.661  28.660  27.213  1.00  0.00     0.257 C 
ATOM      3  N   UNL A   1      32.467  30.036  27.277  1.00  0.00    -0.353 N 
ATOM      4  H   UNL A   1      33.021  30.581  27.881  1.00  0.00     0.163 HD
ENDROOT
BRANCH   2   5
ATOM      5  C   UNL A   1      33.985  28.278  26.557  1.00  0.00     0.329 C 
BRANCH   5   6
ATOM      6  O   UNL A   1      33.789  28.528  25.160  1.00  0.00    -0.483 OA
BRANCH   6   7
ATOM      7  C   UNL A   1      33.374  27.451  24.436  1.00  0.00     0.128 A 
ATOM      8  C   UNL A   1      33.972  26.224  24.748  1.00  0.00     0.047 A 
ATOM      9  C   UNL A   1      32.671  27.598  23.235  1.00  0.00     0.037 A 
ATOM     10  C   UNL A   1      33.909  25.163  23.843  1.00  0.00     0.004 A 
ATOM     11  C   UNL A   1      32.654  26.543  22.313  1.00  0.00     0.013 A 
ATOM     12  C   UNL A   1      33.276  25.333  22.614  1.00  0.00     0.001 A 
BRANCH   9  13
ATOM     13  C   UNL A   1      31.947  28.801  22.779  1.00  0.00     0.145 C 
ATOM     14  N   UNL A   1      30.837  28.792  22.101  1.00  0.00    -0.181 NA
BRANCH  14  15
ATOM     15  N   UNL A   1      30.494  30.042  21.625  1.00  0.00    -0.247 N 
ATOM     16  C   UNL A   1      29.442  30.820  22.070  1.00  0.00     0.243 C 
ATOM     17  H   UNL A   1      31.050  30.413  20.901  1.00  0.00     0.193 HD
ATOM     18  O   UNL A   1      29.171  31.882  21.514  1.00  0.00    -0.273 OA
BRANCH  16  19
ATOM     19  C   UNL A   1      28.711  30.382  23.280  1.00  0.00     0.080 C 
ATOM     20  C   UNL A   1      27.446  31.075  23.737  1.00  0.00     0.014 C 
ATOM     21  C   UNL A   1      27.388  29.673  23.203  1.00  0.00     0.014 C 
ENDBRANCH  16  19
ENDBRANCH  14  15
ENDBRANCH   9  13
ENDBRANCH   6   7
ENDBRANCH   5   6
ENDBRANCH   2   5
BRANCH   3  22
ATOM     22  C   UNL A   1      31.454  30.668  26.459  1.00  0.00     0.117 C 
BRANCH  22  23
ATOM     23  C   UNL A   1      31.410  32.175  26.498  1.00  0.00     0.042 C 
BRANCH  23  24
ATOM     24  C   UNL A   1      32.555  32.764  27.281  1.00  0.00     0.118 C 
BRANCH  24  25
ATOM     25  N   UNL A   1      32.358  34.170  27.605  1.00  0.00    -0.352 N 
ATOM     26  C   UNL A   1      32.994  34.937  28.544  1.00  0.00     0.251 C 
ATOM     27  H   UNL A   1      31.670  34.634  27.074  1.00  0.00     0.163 HD
ATOM     28  O   UNL A   1      32.598  36.075  28.778  1.00  0.00    -0.269 OA
BRANCH  26  29
ATOM     29  C   UNL A   1      34.148  34.382  29.283  1.00  0.00     0.039 A 
ATOM     30  C   UNL A   1      35.433  34.568  28.770  1.00  0.00     0.014 A 
ATOM     31  C   UNL A   1      33.963  33.666  30.469  1.00  0.00     0.014 A 
ATOM     32  C   UNL A   1      36.529  34.049  29.457  1.00  0.00     0.010 A 
ATOM     33  C   UNL A   1      35.058  33.266  31.217  1.00  0.00     0.010 A 
ATOM     34  C   UNL A   1      36.347  33.400  30.689  1.00  0.00    -0.014 A 
BRANCH  34  35
ATOM     35  C   UNL A   1      37.474  32.745  31.391  1.00  0.00     0.031 A 
ATOM     36  C   UNL A   1      38.165  31.578  30.735  1.00  0.00     0.074 A 
ATOM     37  C   UNL A   1      37.842  33.164  32.614  1.00  0.00     0.049 A 
ATOM     38  N   UNL A   1      39.131  30.823  31.191  1.00  0.00    -0.248 NA
ATOM     39  C   UNL A   1      37.675  31.178  29.403  1.00  0.00     0.031 C 
ATOM     40  C   UNL A   1      37.206  34.244  33.369  1.00  0.00     0.029 A 
ATOM     41  N   UNL A   1      38.844  32.725  33.438  1.00  0.00    -0.354 N 
ATOM     42  C   UNL A   1      39.338  29.851  30.220  1.00  0.00     0.074 A 
ATOM     43  C   UNL A   1      38.355  30.064  29.184  1.00  0.00     0.031 C 
ATOM     44  C   UNL A   1      37.858  34.408  34.532  1.00  0.00     0.029 A 
ATOM     45  C   UNL A   1      38.935  33.427  34.614  1.00  0.00     0.049 A 
ATOM     46  H   UNL A   1      39.442  31.976  33.209  1.00  0.00     0.167 HD
ATOM     47  C   UNL A   1      40.287  28.888  30.176  1.00  0.00     0.037 A 
ATOM     48  C   UNL A   1      39.801  33.294  35.635  1.00  0.00     0.037 A 
ATOM     49  C   UNL A   1      41.297  28.720  31.184  1.00  0.00     0.049 A 
ATOM     50  C   UNL A   1      40.878  32.247  35.543  1.00  0.00     0.074 A 
ATOM     51  C   UNL A   1      42.347  27.821  31.213  1.00  0.00     0.029 A 
ATOM     52  N   UNL A   1      41.386  29.482  32.339  1.00  0.00    -0.354 N 
ATOM     53  N   UNL A   1      41.104  31.375  34.590  1.00  0.00    -0.248 NA
ATOM     54  C   UNL A   1      41.828  32.178  36.661  1.00  0.00     0.031 C 
ATOM     55  C   UNL A   1      43.056  28.022  32.403  1.00  0.00     0.029 A 
ATOM     56  C   UNL A   1      42.471  29.072  33.092  1.00  0.00     0.049 A 
ATOM     57  H   UNL A   1      40.768  30.209  32.586  1.00  0.00     0.167 HD
ATOM     58  C   UNL A   1      42.239  30.674  34.978  1.00  0.00     0.074 A 
ATOM     59  C   UNL A   1      42.660  31.233  36.245  1.00  0.00     0.031 C 
ATOM     60  C   UNL A   1      42.876  29.660  34.342  1.00  0.00     0.037 A 
BRANCH  47  61
ATOM     61  C   UNL A   1      40.280  27.965  28.993  1.00  0.00     0.057 A 
ATOM     62  C   UNL A   1      40.997  28.254  27.823  1.00  0.00     0.134 A 
ATOM     63  C   UNL A   1      39.553  26.768  29.023  1.00  0.00     0.134 A 
ATOM     64  F   UNL A   1      41.699  29.394  27.721  1.00  0.00    -0.206 F 
ATOM     65  C   UNL A   1      40.966  27.405  26.716  1.00  0.00     0.040 A 
ATOM     66  C   UNL A   1      39.539  25.896  27.933  1.00  0.00     0.040 A 
ATOM     67  F   UNL A   1      38.847  26.427  30.110  1.00  0.00    -0.206 F 
ATOM     68  C   UNL A   1      40.239  26.218  26.772  1.00  0.00     0.006 A 
ENDBRANCH  47  61
BRANCH  48  69
ATOM     69  C   UNL A   1      39.719  34.206  36.801  1.00  0.00     0.057 A 
ATOM     70  C   UNL A   1      39.010  33.842  37.951  1.00  0.00     0.134 A 
ATOM     71  C   UNL A   1      40.348  35.457  36.799  1.00  0.00     0.134 A 
ATOM     72  F   UNL A   1      38.375  32.662  38.007  1.00  0.00    -0.206 F 
ATOM     73  C   UNL A   1      38.909  34.697  39.050  1.00  0.00     0.040 A 
ATOM     74  C   UNL A   1      40.276  36.312  37.901  1.00  0.00     0.040 A 
ATOM     75  F   UNL A   1      41.053  35.859  35.731  1.00  0.00    -0.206 F 
ATOM     76  C   UNL A   1      39.549  35.934  39.028  1.00  0.00     0.006 A 
ENDBRANCH  48  69
BRANCH  60  77
ATOM     77  C   UNL A   1      44.119  29.125  34.989  1.00  0.00     0.057 A 
ATOM     78  C   UNL A   1      45.384  29.653  34.707  1.00  0.00     0.134 A 
ATOM     79  C   UNL A   1      44.039  28.096  35.935  1.00  0.00     0.134 A 
ATOM     80  F   UNL A   1      45.527  30.632  33.801  1.00  0.00    -0.206 F 
ATOM     81  C   UNL A   1      46.532  29.159  35.327  1.00  0.00     0.040 A 
ATOM     82  C   UNL A   1      45.176  27.611  36.581  1.00  0.00     0.040 A 
ATOM     83  F   UNL A   1      42.853  27.556  36.257  1.00  0.00    -0.206 F 
ATOM     84  C   UNL A   1      46.427  28.138  36.272  1.00  0.00     0.006 A 
ENDBRANCH  60  77
ENDBRANCH  34  35
ENDBRANCH  26  29
ENDBRANCH  24  25
ENDBRANCH  23  24
ENDBRANCH  22  23
ENDBRANCH   3  22
TORSDOF 15
ENDMDL
MODEL 3
REMARK VINA RESULT:     -11.3      6.030     10.751
REMARK SMILES O=C(COc1ccccc1/C=N/NC(=O)C1CC1)NCCCNC(=O)c1ccc(-c2c3nc(c(-c4c(F)cccc4F)c4ccc([nH]4)c(-c4c(F)cccc4F)c4nc(c(-c5c(F)cccc5F)c5ccc2[nH]5)C=C4)C=C3)cc1
REMARK SMILES IDX 1 1 2 2 19 3 3 5 4 6 5 7 6 8 10 9 7 10 9 11 8 12 11 13 12 14
REMARK SMILES IDX 13 15 14 16 15 18 16 19 17 20 18 21 20 22 21 23 22 24 23 25
REMARK SMILES IDX 24 26 25 28 26 29 27 30 79 31 28 32 78 33 29 34 30 35 31 36
REMARK SMILES IDX 72 37 32 38 77 39 71 40 73 41 33 42 76 43 70 44 69 45 34 47
REMARK SMILES IDX 60 48 43 49 59 50 44 51 47 52 58 53 74 54 45 55 46 56 57 58
REMARK SMILES IDX 75 59 48 60 35 61 36 62 41 63 37 64 38 65 40 66 42 67 39 68
REMARK SMILES IDX 61 69 62 70 67 71 63 72 64 73 66 74 68 75 65 76 49 77 50 78
REMARK SMILES IDX 55 79 51 80 52 81 54 82 56 83 53 84
REMARK H PARENT 19 4 13 17 23 27 73 46 47 57
REMARK Flexibility Score: inf
ROOT
ATOM      1  O   UNL A   1      37.936  23.158  26.023  1.00  0.00    -0.271 OA
ATOM      2  C   UNL A   1      36.857  22.629  25.781  1.00  0.00     0.257 C 
ATOM      3  N   UNL A   1      36.662  21.254  25.734  1.00  0.00    -0.353 N 
ATOM      4  H   UNL A   1      36.162  20.805  26.453  1.00  0.00     0.163 HD
ENDROOT
BRANCH   2   5
ATOM      5  C   UNL A   1      35.569  23.418  25.556  1.00  0.00     0.329 C 
BRANCH   5   6
ATOM      6  O   UNL A   1      34.592  22.434  25.201  1.00  0.00    -0.483 OA
BRANCH   6   7
ATOM      7  C   UNL A   1      33.298  22.802  25.423  1.00  0.00     0.128 A 
ATOM      8  C   UNL A   1      33.099  23.880  26.293  1.00  0.00     0.047 A 
ATOM      9  C   UNL A   1      32.228  21.961  25.098  1.00  0.00     0.037 A 
ATOM     10  C   UNL A   1      31.848  24.089  26.875  1.00  0.00     0.004 A 
ATOM     11  C   UNL A   1      30.988  22.152  25.724  1.00  0.00     0.013 A 
ATOM     12  C   UNL A   1      30.802  23.208  26.613  1.00  0.00     0.001 A 
BRANCH   9  13
ATOM     13  C   UNL A   1      32.256  20.817  24.166  1.00  0.00     0.145 C 
ATOM     14  N   UNL A   1      32.156  19.568  24.514  1.00  0.00    -0.181 NA
BRANCH  14  15
ATOM     15  N   UNL A   1      32.427  18.702  23.474  1.00  0.00    -0.247 N 
ATOM     16  C   UNL A   1      33.350  17.673  23.492  1.00  0.00     0.243 C 
ATOM     17  H   UNL A   1      31.915  18.828  22.641  1.00  0.00     0.193 HD
ATOM     18  O   UNL A   1      33.574  17.017  22.478  1.00  0.00    -0.273 OA
BRANCH  16  19
ATOM     19  C   UNL A   1      33.992  17.333  24.782  1.00  0.00     0.080 C 
ATOM     20  C   UNL A   1      33.405  16.289  25.708  1.00  0.00     0.014 C 
ATOM     21  C   UNL A   1      34.703  16.027  25.001  1.00  0.00     0.014 C 
ENDBRANCH  16  19
ENDBRANCH  14  15
ENDBRANCH   9  13
ENDBRANCH   6   7
ENDBRANCH   5   6
ENDBRANCH   2   5
BRANCH   3  22
ATOM     22  C   UNL A   1      37.193  20.479  24.632  1.00  0.00     0.117 C 
BRANCH  22  23
ATOM     23  C   UNL A   1      38.120  19.347  24.998  1.00  0.00     0.042 C 
BRANCH  23  24
ATOM     24  C   UNL A   1      39.277  19.802  25.849  1.00  0.00     0.118 C 
BRANCH  24  25
ATOM     25  N   UNL A   1      40.402  18.878  25.819  1.00  0.00    -0.352 N 
ATOM     26  C   UNL A   1      41.740  19.142  25.947  1.00  0.00     0.251 C 
ATOM     27  H   UNL A   1      40.167  17.930  25.689  1.00  0.00     0.163 HD
ATOM     28  O   UNL A   1      42.562  18.251  25.754  1.00  0.00    -0.269 OA
BRANCH  26  29
ATOM     29  C   UNL A   1      42.186  20.505  26.304  1.00  0.00     0.039 A 
ATOM     30  C   UNL A   1      42.279  20.856  27.652  1.00  0.00     0.014 A 
ATOM     31  C   UNL A   1      42.496  21.441  25.313  1.00  0.00     0.014 A 
ATOM     32  C   UNL A   1      42.698  22.139  28.001  1.00  0.00     0.010 A 
ATOM     33  C   UNL A   1      43.037  22.668  25.660  1.00  0.00     0.010 A 
ATOM     34  C   UNL A   1      43.086  23.050  27.005  1.00  0.00    -0.014 A 
BRANCH  34  35
ATOM     35  C   UNL A   1      43.433  24.451  27.333  1.00  0.00     0.031 A 
ATOM     36  C   UNL A   1      44.866  24.899  27.206  1.00  0.00     0.074 A 
ATOM     37  C   UNL A   1      42.485  25.294  27.780  1.00  0.00     0.049 A 
ATOM     38  N   UNL A   1      45.401  26.057  27.494  1.00  0.00    -0.248 NA
ATOM     39  C   UNL A   1      45.837  23.897  26.730  1.00  0.00     0.031 C 
ATOM     40  C   UNL A   1      41.079  24.952  27.998  1.00  0.00     0.029 A 
ATOM     41  N   UNL A   1      42.567  26.615  28.130  1.00  0.00    -0.354 N 
ATOM     42  C   UNL A   1      46.763  25.909  27.263  1.00  0.00     0.074 A 
ATOM     43  C   UNL A   1      46.986  24.534  26.882  1.00  0.00     0.031 C 
ATOM     44  C   UNL A   1      40.422  26.048  28.412  1.00  0.00     0.029 A 
ATOM     45  C   UNL A   1      41.365  27.156  28.515  1.00  0.00     0.049 A 
ATOM     46  H   UNL A   1      43.408  27.128  28.110  1.00  0.00     0.167 HD
ATOM     47  C   UNL A   1      47.739  26.844  27.328  1.00  0.00     0.037 A 
ATOM     48  C   UNL A   1      41.066  28.411  28.896  1.00  0.00     0.037 A 
ATOM     49  C   UNL A   1      47.499  28.223  27.653  1.00  0.00     0.049 A 
ATOM     50  C   UNL A   1      42.158  29.446  28.915  1.00  0.00     0.074 A 
ATOM     51  C   UNL A   1      48.399  29.271  27.686  1.00  0.00     0.029 A 
ATOM     52  N   UNL A   1      46.259  28.744  27.990  1.00  0.00    -0.354 N 
ATOM     53  N   UNL A   1      43.432  29.309  28.633  1.00  0.00    -0.248 NA
ATOM     54  C   UNL A   1      41.767  30.812  29.289  1.00  0.00     0.031 C 
ATOM     55  C   UNL A   1      47.707  30.425  28.072  1.00  0.00     0.029 A 
ATOM     56  C   UNL A   1      46.369  30.100  28.238  1.00  0.00     0.049 A 
ATOM     57  H   UNL A   1      45.423  28.225  28.044  1.00  0.00     0.167 HD
ATOM     58  C   UNL A   1      43.988  30.575  28.765  1.00  0.00     0.074 A 
ATOM     59  C   UNL A   1      42.910  31.466  29.140  1.00  0.00     0.031 C 
ATOM     60  C   UNL A   1      45.275  30.966  28.592  1.00  0.00     0.037 A 
BRANCH  47  61
ATOM     61  C   UNL A   1      49.140  26.402  27.022  1.00  0.00     0.057 A 
ATOM     62  C   UNL A   1      49.644  26.390  25.714  1.00  0.00     0.134 A 
ATOM     63  C   UNL A   1      50.000  25.989  28.047  1.00  0.00     0.134 A 
ATOM     64  F   UNL A   1      48.867  26.756  24.682  1.00  0.00    -0.206 F 
ATOM     65  C   UNL A   1      50.939  25.953  25.432  1.00  0.00     0.040 A 
ATOM     66  C   UNL A   1      51.308  25.579  27.781  1.00  0.00     0.040 A 
ATOM     67  F   UNL A   1      49.585  25.977  29.322  1.00  0.00    -0.206 F 
ATOM     68  C   UNL A   1      51.778  25.551  26.469  1.00  0.00     0.006 A 
ENDBRANCH  47  61
BRANCH  48  69
ATOM     69  C   UNL A   1      39.668  28.769  29.237  1.00  0.00     0.057 A 
ATOM     70  C   UNL A   1      38.784  29.233  28.257  1.00  0.00     0.134 A 
ATOM     71  C   UNL A   1      39.180  28.654  30.544  1.00  0.00     0.134 A 
ATOM     72  F   UNL A   1      39.198  29.378  26.989  1.00  0.00    -0.206 F 
ATOM     73  C   UNL A   1      37.470  29.591  28.565  1.00  0.00     0.040 A 
ATOM     74  C   UNL A   1      37.860  28.985  30.862  1.00  0.00     0.040 A 
ATOM     75  F   UNL A   1      39.974  28.205  31.527  1.00  0.00    -0.206 F 
ATOM     76  C   UNL A   1      37.004  29.462  29.871  1.00  0.00     0.006 A 
ENDBRANCH  48  69
BRANCH  60  77
ATOM     77  C   UNL A   1      45.573  32.425  28.762  1.00  0.00     0.057 A 
ATOM     78  C   UNL A   1      45.468  33.330  27.699  1.00  0.00     0.134 A 
ATOM     79  C   UNL A   1      45.928  32.934  30.016  1.00  0.00     0.134 A 
ATOM     80  F   UNL A   1      45.142  32.901  26.470  1.00  0.00    -0.206 F 
ATOM     81  C   UNL A   1      45.731  34.689  27.872  1.00  0.00     0.040 A 
ATOM     82  C   UNL A   1      46.169  34.294  30.209  1.00  0.00     0.040 A 
ATOM     83  F   UNL A   1      46.034  32.120  31.078  1.00  0.00    -0.206 F 
ATOM     84  C   UNL A   1      46.077  35.174  29.133  1.00  0.00     0.006 A 
ENDBRANCH  60  77
ENDBRANCH  34  35
ENDBRANCH  26  29
ENDBRANCH  24  25
ENDBRANCH  23  24
ENDBRANCH  22  23
ENDBRANCH   3  22
TORSDOF 15
ENDMDL
