MODEL 1
REMARK VINA RESULT:     -13.5      0.000      0.000
REMARK SMILES Cc1ccccc1OC1(C(=O)NCCCNC(=O)c2ccc(-c3c4nc(c(-c5c(F)cccc5F)c5ccc([nH]5)c(-c5c(F)cccc5F)c5nc(c(-c6c(F)cccc6F)c6ccc3[nH]6)C=C5)C=C4)cc2)CCN(C(=O)[C@H]2CCCCO2)CC1
REMARK SMILES IDX 14 1 13 2 12 3 10 4 11 5 9 7 73 8 85 9 74 10 84 11 75 12
REMARK SMILES IDX 76 13 77 14 8 15 7 16 1 17 2 18 3 19 4 20 6 21 5 22 78 23
REMARK SMILES IDX 79 24 83 25 80 26 82 27 81 28 15 29 16 30 17 31 18 33 19 34
REMARK SMILES IDX 20 35 72 36 21 37 71 38 22 39 23 40 24 41 65 42 25 43 70 44
REMARK SMILES IDX 64 45 66 46 26 47 69 48 63 49 62 50 27 52 53 53 36 54 52 55
REMARK SMILES IDX 37 56 40 57 51 58 67 59 38 60 39 61 50 63 68 64 41 65 28 66
REMARK SMILES IDX 29 67 34 68 30 69 31 70 33 71 35 72 32 73 54 74 55 75 60 76
REMARK SMILES IDX 56 77 57 78 59 79 61 80 58 81 42 82 43 83 48 84 44 85 45 86
REMARK SMILES IDX 47 87 49 88 46 89
REMARK H PARENT 12 6 16 32 66 51 40 62
REMARK Flexibility Score: inf
ROOT
ATOM      1  C   UNL A   1      33.724  31.041  27.234  1.00  0.00     0.042 C 
ENDROOT
BRANCH   1   2
ATOM      2  C   UNL A   1      33.082  29.929  26.413  1.00  0.00     0.118 C 
BRANCH   2   3
ATOM      3  N   UNL A   1      33.744  29.685  25.139  1.00  0.00    -0.353 N 
ATOM      4  C   UNL A   1      33.565  28.792  24.117  1.00  0.00     0.264 C 
ATOM      5  O   UNL A   1      34.279  29.020  23.130  1.00  0.00    -0.270 OA
ATOM      6  H   UNL A   1      34.491  30.305  24.975  1.00  0.00     0.163 HD
BRANCH   4   7
ATOM      7  C   UNL A   1      32.586  27.547  24.164  1.00  0.00     0.190 C 
ATOM      8  C   UNL A   1      32.404  27.072  22.731  1.00  0.00     0.080 C 
ATOM      9  C   UNL A   1      33.066  26.578  25.241  1.00  0.00     0.080 C 
ATOM     10  C   UNL A   1      32.994  25.727  22.372  1.00  0.00     0.124 C 
ATOM     11  C   UNL A   1      33.596  25.227  24.785  1.00  0.00     0.124 C 
ATOM     12  N   UNL A   1      33.244  24.778  23.445  1.00  0.00    -0.340 N 
ATOM     13  C   UNL A   1      33.394  23.445  23.029  1.00  0.00     0.251 C 
ATOM     14  O   UNL A   1      33.410  23.164  21.827  1.00  0.00    -0.272 OA
BRANCH   7  15
ATOM     15  O   UNL A   1      31.342  28.165  24.613  1.00  0.00    -0.477 OA
BRANCH  15  16
ATOM     16  C   UNL A   1      30.178  28.470  23.968  1.00  0.00     0.123 A 
ATOM     17  C   UNL A   1      28.808  26.265  23.863  1.00  0.00     0.048 C 
ATOM     18  C   UNL A   1      29.043  27.717  23.621  1.00  0.00    -0.009 A 
ATOM     19  C   UNL A   1      27.986  28.334  22.905  1.00  0.00     0.007 A 
ATOM     20  C   UNL A   1      28.022  29.674  22.549  1.00  0.00     0.001 A 
ATOM     21  C   UNL A   1      30.188  29.827  23.585  1.00  0.00     0.047 A 
ATOM     22  C   UNL A   1      29.131  30.426  22.891  1.00  0.00     0.004 A 
ENDBRANCH  15  16
ENDBRANCH   7  15
BRANCH  13  23
ATOM     23  C   UNL A   1      33.465  22.344  24.112  1.00  0.00     0.207 C 
ATOM     24  C   UNL A   1      32.571  21.178  23.663  1.00  0.00     0.042 C 
ATOM     25  O   UNL A   1      34.827  21.927  24.247  1.00  0.00    -0.368 OA
ATOM     26  C   UNL A   1      32.777  19.929  24.507  1.00  0.00     0.006 C 
ATOM     27  C   UNL A   1      35.008  20.831  25.133  1.00  0.00     0.161 C 
ATOM     28  C   UNL A   1      34.259  19.611  24.621  1.00  0.00     0.029 C 
ENDBRANCH  13  23
ENDBRANCH   4   7
ENDBRANCH   2   3
ENDBRANCH   1   2
BRANCH   1  29
ATOM     29  C   UNL A   1      34.498  30.577  28.456  1.00  0.00     0.118 C 
BRANCH  29  30
ATOM     30  N   UNL A   1      35.546  31.504  28.890  1.00  0.00    -0.352 N 
ATOM     31  C   UNL A   1      36.895  31.235  29.101  1.00  0.00     0.251 C 
ATOM     32  H   UNL A   1      35.261  32.432  29.051  1.00  0.00     0.163 HD
ATOM     33  O   UNL A   1      37.679  32.110  29.397  1.00  0.00    -0.269 OA
BRANCH  31  34
ATOM     34  C   UNL A   1      37.364  29.858  28.814  1.00  0.00     0.039 A 
ATOM     35  C   UNL A   1      37.634  29.040  29.912  1.00  0.00     0.014 A 
ATOM     36  C   UNL A   1      37.872  29.563  27.552  1.00  0.00     0.014 A 
ATOM     37  C   UNL A   1      38.660  28.108  29.811  1.00  0.00     0.010 A 
ATOM     38  C   UNL A   1      38.957  28.713  27.478  1.00  0.00     0.010 A 
ATOM     39  C   UNL A   1      39.400  28.050  28.629  1.00  0.00    -0.014 A 
BRANCH  39  40
ATOM     40  C   UNL A   1      40.712  27.418  28.563  1.00  0.00     0.031 A 
ATOM     41  C   UNL A   1      40.822  25.976  28.273  1.00  0.00     0.074 A 
ATOM     42  C   UNL A   1      41.836  28.142  28.763  1.00  0.00     0.049 A 
ATOM     43  N   UNL A   1      41.759  25.216  28.732  1.00  0.00    -0.248 NA
ATOM     44  C   UNL A   1      39.844  25.265  27.460  1.00  0.00     0.031 C 
ATOM     45  C   UNL A   1      43.214  27.706  28.545  1.00  0.00     0.029 A 
ATOM     46  N   UNL A   1      41.962  29.376  29.411  1.00  0.00    -0.354 N 
ATOM     47  C   UNL A   1      41.675  24.012  28.073  1.00  0.00     0.074 A 
ATOM     48  C   UNL A   1      40.430  24.071  27.342  1.00  0.00     0.031 C 
ATOM     49  C   UNL A   1      44.034  28.477  29.276  1.00  0.00     0.029 A 
ATOM     50  C   UNL A   1      43.208  29.364  30.073  1.00  0.00     0.049 A 
ATOM     51  H   UNL A   1      41.306  30.111  29.405  1.00  0.00     0.167 HD
ATOM     52  C   UNL A   1      42.733  23.152  28.102  1.00  0.00     0.037 A 
ATOM     53  C   UNL A   1      43.300  29.527  31.423  1.00  0.00     0.037 A 
ATOM     54  C   UNL A   1      43.831  23.680  28.908  1.00  0.00     0.049 A 
ATOM     55  C   UNL A   1      43.885  28.334  32.143  1.00  0.00     0.074 A 
ATOM     56  C   UNL A   1      44.982  24.373  28.569  1.00  0.00     0.029 A 
ATOM     57  N   UNL A   1      43.684  23.816  30.285  1.00  0.00    -0.354 N 
ATOM     58  N   UNL A   1      44.048  27.166  31.588  1.00  0.00    -0.248 NA
ATOM     59  C   UNL A   1      44.293  28.343  33.546  1.00  0.00     0.031 C 
ATOM     60  C   UNL A   1      45.498  24.977  29.741  1.00  0.00     0.029 A 
ATOM     61  C   UNL A   1      44.672  24.636  30.797  1.00  0.00     0.049 A 
ATOM     62  H   UNL A   1      42.976  23.390  30.819  1.00  0.00     0.167 HD
ATOM     63  C   UNL A   1      44.521  26.277  32.517  1.00  0.00     0.074 A 
ATOM     64  C   UNL A   1      44.688  27.069  33.721  1.00  0.00     0.031 C 
ATOM     65  C   UNL A   1      44.721  24.961  32.214  1.00  0.00     0.037 A 
BRANCH  52  66
ATOM     66  C   UNL A   1      42.877  22.006  27.125  1.00  0.00     0.057 A 
ATOM     67  C   UNL A   1      42.100  20.837  27.250  1.00  0.00     0.134 A 
ATOM     68  C   UNL A   1      43.812  21.970  26.077  1.00  0.00     0.134 A 
ATOM     69  F   UNL A   1      41.078  20.756  28.111  1.00  0.00    -0.206 F 
ATOM     70  C   UNL A   1      42.335  19.682  26.494  1.00  0.00     0.040 A 
ATOM     71  C   UNL A   1      44.098  20.804  25.351  1.00  0.00     0.040 A 
ATOM     72  F   UNL A   1      44.456  23.077  25.681  1.00  0.00    -0.206 F 
ATOM     73  C   UNL A   1      43.370  19.646  25.573  1.00  0.00     0.006 A 
ENDBRANCH  52  66
BRANCH  53  74
ATOM     74  C   UNL A   1      42.264  30.447  31.957  1.00  0.00     0.057 A 
ATOM     75  C   UNL A   1      42.463  31.827  31.779  1.00  0.00     0.134 A 
ATOM     76  C   UNL A   1      40.958  30.013  32.199  1.00  0.00     0.134 A 
ATOM     77  F   UNL A   1      43.697  32.307  31.556  1.00  0.00    -0.206 F 
ATOM     78  C   UNL A   1      41.393  32.720  31.685  1.00  0.00     0.040 A 
ATOM     79  C   UNL A   1      39.880  30.904  32.125  1.00  0.00     0.040 A 
ATOM     80  F   UNL A   1      40.692  28.712  32.373  1.00  0.00    -0.206 F 
ATOM     81  C   UNL A   1      40.091  32.248  31.815  1.00  0.00     0.006 A 
ENDBRANCH  53  74
BRANCH  65  82
ATOM     82  C   UNL A   1      45.077  23.877  33.198  1.00  0.00     0.057 A 
ATOM     83  C   UNL A   1      46.327  23.757  33.820  1.00  0.00     0.134 A 
ATOM     84  C   UNL A   1      44.088  22.977  33.653  1.00  0.00     0.134 A 
ATOM     85  F   UNL A   1      47.323  24.616  33.561  1.00  0.00    -0.206 F 
ATOM     86  C   UNL A   1      46.595  22.771  34.781  1.00  0.00     0.040 A 
ATOM     87  C   UNL A   1      44.329  22.024  34.647  1.00  0.00     0.040 A 
ATOM     88  F   UNL A   1      42.839  22.998  33.165  1.00  0.00    -0.206 F 
ATOM     89  C   UNL A   1      45.592  21.907  35.204  1.00  0.00     0.006 A 
ENDBRANCH  65  82
ENDBRANCH  39  40
ENDBRANCH  31  34
ENDBRANCH  29  30
ENDBRANCH   1  29
TORSDOF 13
ENDMDL
MODEL 2
REMARK VINA RESULT:     -13.2      3.447      9.544
REMARK SMILES Cc1ccccc1OC1(C(=O)NCCCNC(=O)c2ccc(-c3c4nc(c(-c5c(F)cccc5F)c5ccc([nH]5)c(-c5c(F)cccc5F)c5nc(c(-c6c(F)cccc6F)c6ccc3[nH]6)C=C5)C=C4)cc2)CCN(C(=O)[C@H]2CCCCO2)CC1
REMARK SMILES IDX 14 1 13 2 12 3 10 4 11 5 9 7 73 8 85 9 74 10 84 11 75 12
REMARK SMILES IDX 76 13 77 14 8 15 7 16 1 17 2 18 3 19 4 20 6 21 5 22 78 23
REMARK SMILES IDX 79 24 83 25 80 26 82 27 81 28 15 29 16 30 17 31 18 33 19 34
REMARK SMILES IDX 20 35 72 36 21 37 71 38 22 39 23 40 24 41 65 42 25 43 70 44
REMARK SMILES IDX 64 45 66 46 26 47 69 48 63 49 62 50 27 52 53 53 36 54 52 55
REMARK SMILES IDX 37 56 40 57 51 58 67 59 38 60 39 61 50 63 68 64 41 65 28 66
REMARK SMILES IDX 29 67 34 68 30 69 31 70 33 71 35 72 32 73 54 74 55 75 60 76
REMARK SMILES IDX 56 77 57 78 59 79 61 80 58 81 42 82 43 83 48 84 44 85 45 86
REMARK SMILES IDX 47 87 49 88 46 89
REMARK H PARENT 12 6 16 32 66 51 40 62
REMARK Flexibility Score: inf
ROOT
ATOM      1  C   UNL A   1      38.651  22.041  25.754  1.00  0.00     0.042 C 
ENDROOT
BRANCH   1   2
ATOM      2  C   UNL A   1      37.220  22.390  25.365  1.00  0.00     0.118 C 
BRANCH   2   3
ATOM      3  N   UNL A   1      36.323  22.533  26.503  1.00  0.00    -0.353 N 
ATOM      4  C   UNL A   1      34.969  22.681  26.649  1.00  0.00     0.264 C 
ATOM      5  O   UNL A   1      34.591  22.631  27.827  1.00  0.00    -0.270 OA
ATOM      6  H   UNL A   1      36.798  22.520  27.365  1.00  0.00     0.163 HD
BRANCH   4   7
ATOM      7  C   UNL A   1      33.954  22.940  25.460  1.00  0.00     0.190 C 
ATOM      8  C   UNL A   1      32.562  22.637  25.992  1.00  0.00     0.080 C 
ATOM      9  C   UNL A   1      34.259  24.296  24.832  1.00  0.00     0.080 C 
ATOM     10  C   UNL A   1      31.616  23.806  26.147  1.00  0.00     0.124 C 
ATOM     11  C   UNL A   1      33.223  25.397  24.996  1.00  0.00     0.124 C 
ATOM     12  N   UNL A   1      31.868  25.002  25.360  1.00  0.00    -0.340 N 
ATOM     13  C   UNL A   1      30.768  25.866  25.231  1.00  0.00     0.251 C 
ATOM     14  O   UNL A   1      29.720  25.637  25.843  1.00  0.00    -0.272 OA
BRANCH   7  15
ATOM     15  O   UNL A   1      34.331  21.892  24.516  1.00  0.00    -0.477 OA
BRANCH  15  16
ATOM     16  C   UNL A   1      33.709  20.744  24.114  1.00  0.00     0.123 A 
ATOM     17  C   UNL A   1      31.843  21.471  22.459  1.00  0.00     0.048 C 
ATOM     18  C   UNL A   1      32.649  20.482  23.231  1.00  0.00    -0.009 A 
ATOM     19  C   UNL A   1      32.204  19.148  23.048  1.00  0.00     0.007 A 
ATOM     20  C   UNL A   1      32.797  18.078  23.702  1.00  0.00     0.001 A 
ATOM     21  C   UNL A   1      34.286  19.637  24.770  1.00  0.00     0.047 A 
ATOM     22  C   UNL A   1      33.846  18.324  24.569  1.00  0.00     0.004 A 
ENDBRANCH  15  16
ENDBRANCH   7  15
BRANCH  13  23
ATOM     23  C   UNL A   1      30.884  27.058  24.254  1.00  0.00     0.207 C 
ATOM     24  C   UNL A   1      29.535  27.215  23.535  1.00  0.00     0.042 C 
ATOM     25  O   UNL A   1      31.207  28.232  25.005  1.00  0.00    -0.368 OA
ATOM     26  C   UNL A   1      29.439  28.519  22.758  1.00  0.00     0.006 C 
ATOM     27  C   UNL A   1      31.226  29.423  24.231  1.00  0.00     0.161 C 
ATOM     28  C   UNL A   1      29.851  29.688  23.638  1.00  0.00     0.029 C 
ENDBRANCH  13  23
ENDBRANCH   4   7
ENDBRANCH   2   3
ENDBRANCH   1   2
BRANCH   1  29
ATOM     29  C   UNL A   1      39.236  22.876  26.880  1.00  0.00     0.118 C 
BRANCH  29  30
ATOM     30  N   UNL A   1      40.660  23.183  26.722  1.00  0.00    -0.352 N 
ATOM     31  C   UNL A   1      41.265  24.435  26.657  1.00  0.00     0.251 C 
ATOM     32  H   UNL A   1      41.263  22.409  26.653  1.00  0.00     0.163 HD
ATOM     33  O   UNL A   1      42.469  24.556  26.591  1.00  0.00    -0.269 OA
BRANCH  31  34
ATOM     34  C   UNL A   1      40.388  25.620  26.813  1.00  0.00     0.039 A 
ATOM     35  C   UNL A   1      40.812  26.804  26.211  1.00  0.00     0.014 A 
ATOM     36  C   UNL A   1      39.429  25.626  27.822  1.00  0.00     0.014 A 
ATOM     37  C   UNL A   1      40.508  28.011  26.829  1.00  0.00     0.010 A 
ATOM     38  C   UNL A   1      39.211  26.811  28.495  1.00  0.00     0.010 A 
ATOM     39  C   UNL A   1      39.820  27.989  28.043  1.00  0.00    -0.014 A 
BRANCH  39  40
ATOM     40  C   UNL A   1      39.807  29.130  28.951  1.00  0.00     0.031 A 
ATOM     41  C   UNL A   1      38.742  30.144  28.845  1.00  0.00     0.074 A 
ATOM     42  C   UNL A   1      40.763  29.268  29.898  1.00  0.00     0.049 A 
ATOM     43  N   UNL A   1      38.904  31.393  29.128  1.00  0.00    -0.248 NA
ATOM     44  C   UNL A   1      37.404  29.826  28.366  1.00  0.00     0.031 C 
ATOM     45  C   UNL A   1      40.784  30.236  30.992  1.00  0.00     0.029 A 
ATOM     46  N   UNL A   1      42.031  28.677  29.932  1.00  0.00    -0.354 N 
ATOM     47  C   UNL A   1      37.660  31.979  29.139  1.00  0.00     0.074 A 
ATOM     48  C   UNL A   1      36.770  30.978  28.596  1.00  0.00     0.031 C 
ATOM     49  C   UNL A   1      42.050  30.392  31.409  1.00  0.00     0.029 A 
ATOM     50  C   UNL A   1      42.902  29.615  30.528  1.00  0.00     0.049 A 
ATOM     51  H   UNL A   1      42.270  27.780  29.605  1.00  0.00     0.167 HD
ATOM     52  C   UNL A   1      37.491  33.193  29.738  1.00  0.00     0.037 A 
ATOM     53  C   UNL A   1      43.998  30.089  29.870  1.00  0.00     0.037 A 
ATOM     54  C   UNL A   1      38.751  33.708  30.268  1.00  0.00     0.049 A 
ATOM     55  C   UNL A   1      43.963  31.579  29.621  1.00  0.00     0.074 A 
ATOM     56  C   UNL A   1      39.311  33.666  31.535  1.00  0.00     0.029 A 
ATOM     57  N   UNL A   1      39.772  34.086  29.401  1.00  0.00    -0.354 N 
ATOM     58  N   UNL A   1      42.896  32.311  29.775  1.00  0.00    -0.248 NA
ATOM     59  C   UNL A   1      45.104  32.356  29.143  1.00  0.00     0.031 C 
ATOM     60  C   UNL A   1      40.689  33.964  31.421  1.00  0.00     0.029 A 
ATOM     61  C   UNL A   1      40.966  34.207  30.087  1.00  0.00     0.049 A 
ATOM     62  H   UNL A   1      39.659  34.244  28.437  1.00  0.00     0.167 HD
ATOM     63  C   UNL A   1      43.163  33.600  29.395  1.00  0.00     0.074 A 
ATOM     64  C   UNL A   1      44.568  33.586  29.035  1.00  0.00     0.031 C 
ATOM     65  C   UNL A   1      42.196  34.564  29.398  1.00  0.00     0.037 A 
BRANCH  52  66
ATOM     66  C   UNL A   1      36.129  33.728  30.123  1.00  0.00     0.057 A 
ATOM     67  C   UNL A   1      35.234  34.216  29.151  1.00  0.00     0.134 A 
ATOM     68  C   UNL A   1      35.669  33.846  31.445  1.00  0.00     0.134 A 
ATOM     69  F   UNL A   1      35.461  34.062  27.841  1.00  0.00    -0.206 F 
ATOM     70  C   UNL A   1      34.053  34.896  29.475  1.00  0.00     0.040 A 
ATOM     71  C   UNL A   1      34.520  34.573  31.789  1.00  0.00     0.040 A 
ATOM     72  F   UNL A   1      36.290  33.223  32.456  1.00  0.00    -0.206 F 
ATOM     73  C   UNL A   1      33.715  35.119  30.801  1.00  0.00     0.006 A 
ENDBRANCH  52  66
BRANCH  53  74
ATOM     74  C   UNL A   1      44.613  29.070  28.982  1.00  0.00     0.057 A 
ATOM     75  C   UNL A   1      45.395  28.068  29.584  1.00  0.00     0.134 A 
ATOM     76  C   UNL A   1      44.102  28.806  27.710  1.00  0.00     0.134 A 
ATOM     77  F   UNL A   1      45.925  28.266  30.801  1.00  0.00    -0.206 F 
ATOM     78  C   UNL A   1      45.529  26.799  29.017  1.00  0.00     0.040 A 
ATOM     79  C   UNL A   1      44.247  27.543  27.125  1.00  0.00     0.040 A 
ATOM     80  F   UNL A   1      43.344  29.712  27.077  1.00  0.00    -0.206 F 
ATOM     81  C   UNL A   1      44.915  26.521  27.801  1.00  0.00     0.006 A 
ENDBRANCH  53  74
BRANCH  65  82
ATOM     82  C   UNL A   1      42.343  35.958  28.846  1.00  0.00     0.057 A 
ATOM     83  C   UNL A   1      43.044  36.989  29.487  1.00  0.00     0.134 A 
ATOM     84  C   UNL A   1      41.875  36.263  27.549  1.00  0.00     0.134 A 
ATOM     85  F   UNL A   1      43.635  36.800  30.675  1.00  0.00    -0.206 F 
ATOM     86  C   UNL A   1      43.214  38.254  28.906  1.00  0.00     0.040 A 
ATOM     87  C   UNL A   1      42.082  37.504  26.940  1.00  0.00     0.040 A 
ATOM     88  F   UNL A   1      41.212  35.361  26.810  1.00  0.00    -0.206 F 
ATOM     89  C   UNL A   1      42.740  38.512  27.625  1.00  0.00     0.006 A 
ENDBRANCH  65  82
ENDBRANCH  39  40
ENDBRANCH  31  34
ENDBRANCH  29  30
ENDBRANCH   1  29
TORSDOF 13
ENDMDL
MODEL 3
REMARK VINA RESULT:     -12.7      2.746      4.328
REMARK SMILES Cc1ccccc1OC1(C(=O)NCCCNC(=O)c2ccc(-c3c4nc(c(-c5c(F)cccc5F)c5ccc([nH]5)c(-c5c(F)cccc5F)c5nc(c(-c6c(F)cccc6F)c6ccc3[nH]6)C=C5)C=C4)cc2)CCN(C(=O)[C@H]2CCCCO2)CC1
REMARK SMILES IDX 14 1 13 2 12 3 10 4 11 5 9 7 73 8 85 9 74 10 84 11 75 12
REMARK SMILES IDX 76 13 77 14 8 15 7 16 1 17 2 18 3 19 4 20 6 21 5 22 78 23
REMARK SMILES IDX 79 24 83 25 80 26 82 27 81 28 15 29 16 30 17 31 18 33 19 34
REMARK SMILES IDX 20 35 72 36 21 37 71 38 22 39 23 40 24 41 65 42 25 43 70 44
REMARK SMILES IDX 64 45 66 46 26 47 69 48 63 49 62 50 27 52 53 53 36 54 52 55
REMARK SMILES IDX 37 56 40 57 51 58 67 59 38 60 39 61 50 63 68 64 41 65 28 66
REMARK SMILES IDX 29 67 34 68 30 69 31 70 33 71 35 72 32 73 54 74 55 75 60 76
REMARK SMILES IDX 56 77 57 78 59 79 61 80 58 81 42 82 43 83 48 84 44 85 45 86
REMARK SMILES IDX 47 87 49 88 46 89
REMARK H PARENT 12 6 16 32 66 51 40 62
REMARK Flexibility Score: inf
ROOT
ATOM      1  C   UNL A   1      32.170  28.769  27.320  1.00  0.00     0.042 C 
ENDROOT
BRANCH   1   2
ATOM      2  C   UNL A   1      32.365  27.332  26.854  1.00  0.00     0.118 C 
BRANCH   2   3
ATOM      3  N   UNL A   1      31.130  26.562  26.796  1.00  0.00    -0.353 N 
ATOM      4  C   UNL A   1      30.747  25.403  26.175  1.00  0.00     0.264 C 
ATOM      5  O   UNL A   1      29.617  25.017  26.505  1.00  0.00    -0.270 OA
ATOM      6  H   UNL A   1      30.406  26.968  27.325  1.00  0.00     0.163 HD
BRANCH   4   7
ATOM      7  C   UNL A   1      31.611  24.625  25.099  1.00  0.00     0.190 C 
ATOM      8  C   UNL A   1      33.063  24.733  25.534  1.00  0.00     0.080 C 
ATOM      9  C   UNL A   1      30.981  23.257  24.851  1.00  0.00     0.080 C 
ATOM     10  C   UNL A   1      33.739  23.461  25.994  1.00  0.00     0.124 C 
ATOM     11  C   UNL A   1      31.760  22.032  25.302  1.00  0.00     0.124 C 
ATOM     12  N   UNL A   1      33.188  22.191  25.551  1.00  0.00    -0.340 N 
ATOM     13  C   UNL A   1      34.063  21.098  25.657  1.00  0.00     0.251 C 
ATOM     14  O   UNL A   1      35.169  21.235  26.189  1.00  0.00    -0.272 OA
BRANCH   7  15
ATOM     15  O   UNL A   1      31.417  25.450  23.910  1.00  0.00    -0.477 OA
BRANCH  15  16
ATOM     16  C   UNL A   1      31.882  26.685  23.558  1.00  0.00     0.123 A 
ATOM     17  C   UNL A   1      29.811  28.253  23.509  1.00  0.00     0.048 C 
ATOM     18  C   UNL A   1      31.262  27.933  23.377  1.00  0.00    -0.009 A 
ATOM     19  C   UNL A   1      32.037  29.047  22.967  1.00  0.00     0.007 A 
ATOM     20  C   UNL A   1      33.404  28.954  22.754  1.00  0.00     0.001 A 
ATOM     21  C   UNL A   1      33.272  26.621  23.326  1.00  0.00     0.047 A 
ATOM     22  C   UNL A   1      34.026  27.732  22.936  1.00  0.00     0.004 A 
ENDBRANCH  15  16
ENDBRANCH   7  15
BRANCH  13  23
ATOM     23  C   UNL A   1      33.634  19.752  25.030  1.00  0.00     0.207 C 
ATOM     24  C   UNL A   1      34.906  18.991  24.624  1.00  0.00     0.042 C 
ATOM     25  O   UNL A   1      32.881  19.018  26.001  1.00  0.00    -0.368 OA
ATOM     26  C   UNL A   1      34.622  17.543  24.253  1.00  0.00     0.006 C 
ATOM     27  C   UNL A   1      32.528  17.707  25.583  1.00  0.00     0.161 C 
ATOM     28  C   UNL A   1      33.778  16.880  25.329  1.00  0.00     0.029 C 
ENDBRANCH  13  23
ENDBRANCH   4   7
ENDBRANCH   2   3
ENDBRANCH   1   2
BRANCH   1  29
ATOM     29  C   UNL A   1      32.930  29.816  26.523  1.00  0.00     0.118 C 
BRANCH  29  30
ATOM     30  N   UNL A   1      33.200  31.052  27.261  1.00  0.00    -0.352 N 
ATOM     31  C   UNL A   1      34.298  31.351  28.062  1.00  0.00     0.251 C 
ATOM     32  H   UNL A   1      32.521  31.760  27.179  1.00  0.00     0.163 HD
ATOM     33  O   UNL A   1      34.438  32.443  28.568  1.00  0.00    -0.269 OA
BRANCH  31  34
ATOM     34  C   UNL A   1      35.364  30.324  28.159  1.00  0.00     0.039 A 
ATOM     35  C   UNL A   1      35.534  29.705  29.398  1.00  0.00     0.014 A 
ATOM     36  C   UNL A   1      36.364  30.290  27.192  1.00  0.00     0.014 A 
ATOM     37  C   UNL A   1      36.814  29.324  29.781  1.00  0.00     0.010 A 
ATOM     38  C   UNL A   1      37.650  30.008  27.606  1.00  0.00     0.010 A 
ATOM     39  C   UNL A   1      37.881  29.604  28.927  1.00  0.00    -0.014 A 
BRANCH  39  40
ATOM     40  C   UNL A   1      39.265  29.617  29.389  1.00  0.00     0.031 A 
ATOM     41  C   UNL A   1      40.110  28.421  29.220  1.00  0.00     0.074 A 
ATOM     42  C   UNL A   1      39.786  30.721  29.970  1.00  0.00     0.049 A 
ATOM     43  N   UNL A   1      41.057  28.086  30.030  1.00  0.00    -0.248 NA
ATOM     44  C   UNL A   1      39.920  27.477  28.126  1.00  0.00     0.031 C 
ATOM     45  C   UNL A   1      41.187  30.959  30.309  1.00  0.00     0.029 A 
ATOM     46  N   UNL A   1      39.100  31.785  30.567  1.00  0.00    -0.354 N 
ATOM     47  C   UNL A   1      41.767  27.068  29.438  1.00  0.00     0.074 A 
ATOM     48  C   UNL A   1      40.981  26.683  28.287  1.00  0.00     0.031 C 
ATOM     49  C   UNL A   1      41.249  31.899  31.264  1.00  0.00     0.029 A 
ATOM     50  C   UNL A   1      39.889  32.222  31.652  1.00  0.00     0.049 A 
ATOM     51  H   UNL A   1      38.233  32.157  30.284  1.00  0.00     0.167 HD
ATOM     52  C   UNL A   1      43.012  26.755  29.900  1.00  0.00     0.037 A 
ATOM     53  C   UNL A   1      39.412  32.219  32.930  1.00  0.00     0.037 A 
ATOM     54  C   UNL A   1      43.384  27.589  31.040  1.00  0.00     0.049 A 
ATOM     55  C   UNL A   1      40.174  31.310  33.864  1.00  0.00     0.074 A 
ATOM     56  C   UNL A   1      44.133  28.751  31.135  1.00  0.00     0.029 A 
ATOM     57  N   UNL A   1      42.713  27.456  32.252  1.00  0.00    -0.354 N 
ATOM     58  N   UNL A   1      41.033  30.417  33.460  1.00  0.00    -0.248 NA
ATOM     59  C   UNL A   1      40.006  31.300  35.316  1.00  0.00     0.031 C 
ATOM     60  C   UNL A   1      43.866  29.350  32.390  1.00  0.00     0.029 A 
ATOM     61  C   UNL A   1      42.970  28.542  33.067  1.00  0.00     0.049 A 
ATOM     62  H   UNL A   1      42.138  26.695  32.494  1.00  0.00     0.167 HD
ATOM     63  C   UNL A   1      41.493  29.701  34.534  1.00  0.00     0.074 A 
ATOM     64  C   UNL A   1      40.843  30.311  35.678  1.00  0.00     0.031 C 
ATOM     65  C   UNL A   1      42.360  28.656  34.383  1.00  0.00     0.037 A 
BRANCH  52  66
ATOM     66  C   UNL A   1      43.995  25.932  29.098  1.00  0.00     0.057 A 
ATOM     67  C   UNL A   1      44.673  26.479  27.991  1.00  0.00     0.134 A 
ATOM     68  C   UNL A   1      44.267  24.573  29.330  1.00  0.00     0.134 A 
ATOM     69  F   UNL A   1      44.628  27.787  27.709  1.00  0.00    -0.206 F 
ATOM     70  C   UNL A   1      45.437  25.706  27.107  1.00  0.00     0.040 A 
ATOM     71  C   UNL A   1      44.980  23.774  28.424  1.00  0.00     0.040 A 
ATOM     72  F   UNL A   1      43.890  23.973  30.467  1.00  0.00    -0.206 F 
ATOM     73  C   UNL A   1      45.554  24.337  27.295  1.00  0.00     0.006 A 
ENDBRANCH  52  66
BRANCH  53  74
ATOM     74  C   UNL A   1      37.958  32.516  32.993  1.00  0.00     0.057 A 
ATOM     75  C   UNL A   1      37.557  33.851  32.809  1.00  0.00     0.134 A 
ATOM     76  C   UNL A   1      37.000  31.524  32.777  1.00  0.00     0.134 A 
ATOM     77  F   UNL A   1      38.428  34.852  33.015  1.00  0.00    -0.206 F 
ATOM     78  C   UNL A   1      36.308  34.179  32.278  1.00  0.00     0.040 A 
ATOM     79  C   UNL A   1      35.738  31.843  32.262  1.00  0.00     0.040 A 
ATOM     80  F   UNL A   1      37.312  30.229  32.927  1.00  0.00    -0.206 F 
ATOM     81  C   UNL A   1      35.409  33.166  31.961  1.00  0.00     0.006 A 
ENDBRANCH  53  74
BRANCH  65  82
ATOM     82  C   UNL A   1      42.791  27.708  35.470  1.00  0.00     0.057 A 
ATOM     83  C   UNL A   1      43.831  27.967  36.374  1.00  0.00     0.134 A 
ATOM     84  C   UNL A   1      42.056  26.529  35.720  1.00  0.00     0.134 A 
ATOM     85  F   UNL A   1      44.540  29.104  36.318  1.00  0.00    -0.206 F 
ATOM     86  C   UNL A   1      44.157  27.085  37.414  1.00  0.00     0.040 A 
ATOM     87  C   UNL A   1      42.339  25.669  36.784  1.00  0.00     0.040 A 
ATOM     88  F   UNL A   1      41.016  26.172  34.951  1.00  0.00    -0.206 F 
ATOM     89  C   UNL A   1      43.405  25.937  37.628  1.00  0.00     0.006 A 
ENDBRANCH  65  82
ENDBRANCH  39  40
ENDBRANCH  31  34
ENDBRANCH  29  30
ENDBRANCH   1  29
TORSDOF 13
ENDMDL
