MODEL 1
REMARK VINA RESULT:     -10.6      0.000      0.000
REMARK SMILES O=C(C[NH+]1CCC2(CC1)CC(=O)N2)NCCCNC(=O)c1ccc(-c2c3nc(c(-c4c(F)cccc4F)c4ccc([nH]4)c(-c4c(F)cccc4F)c4nc(c(-c5c(F)cccc5F)c5ccc2[nH]5)C=C4)C=C3)cc1
REMARK SMILES IDX 16 1 15 2 14 3 1 4 2 5 3 7 4 8 5 9 9 10 6 12 8 13 7 14 10 15
REMARK SMILES IDX 13 16 11 17 12 19 17 20 18 21 19 22 20 24 21 25 22 26 74 27
REMARK SMILES IDX 23 28 73 29 24 30 25 31 26 32 67 33 27 34 72 35 66 36 68 37
REMARK SMILES IDX 28 38 71 39 65 40 64 41 29 43 55 44 38 45 54 46 39 47 42 48
REMARK SMILES IDX 53 49 69 50 40 51 41 52 52 54 70 55 43 56 30 57 31 58 36 59
REMARK SMILES IDX 32 60 33 61 35 62 37 63 34 64 56 65 57 66 62 67 58 68 59 69
REMARK SMILES IDX 61 70 63 71 60 72 44 73 45 74 50 75 46 76 47 77 49 78 51 79
REMARK SMILES IDX 48 80
REMARK H PARENT 14 6 4 11 13 18 18 23 68 42 42 53
REMARK Flexibility Score: inf
ROOT
ATOM      1  C   UNL A   1      34.237  33.836  28.027  1.00  0.00     0.042 C 
ENDROOT
BRANCH   1   2
ATOM      2  C   UNL A   1      33.645  34.929  28.904  1.00  0.00     0.118 C 
BRANCH   2   3
ATOM      3  N   UNL A   1      34.380  35.130  30.135  1.00  0.00    -0.351 N 
ATOM      4  O   UNL A   1      32.516  35.322  31.461  1.00  0.00    -0.269 OA
ATOM      5  C   UNL A   1      33.737  35.236  31.348  1.00  0.00     0.275 C 
ATOM      6  H   UNL A   1      35.362  35.192  30.104  1.00  0.00     0.163 HD
BRANCH   5   7
ATOM      7  C   UNL A   1      34.652  35.284  32.571  1.00  0.00     0.363 C 
BRANCH   7   8
ATOM      8  N   UNL A   1      34.490  34.138  33.506  1.00  0.00    -0.327 N 
ATOM      9  C   UNL A   1      34.556  32.868  32.747  1.00  0.00     0.265 C 
ATOM     10  C   UNL A   1      35.468  34.088  34.609  1.00  0.00     0.265 C 
ATOM     11  H   UNL A   1      33.580  34.273  33.945  1.00  0.00     0.348 HD
ATOM     12  C   UNL A   1      35.955  32.519  32.210  1.00  0.00     0.090 C 
ATOM     13  C   UNL A   1      36.907  33.847  34.167  1.00  0.00     0.090 C 
ATOM     14  C   UNL A   1      36.993  32.579  33.328  1.00  0.00     0.059 C 
ATOM     15  C   UNL A   1      38.447  32.191  32.928  1.00  0.00     0.128 C 
ATOM     16  N   UNL A   1      36.981  31.362  34.138  1.00  0.00    -0.350 N 
ATOM     17  C   UNL A   1      38.169  30.892  33.696  1.00  0.00     0.222 C 
ATOM     18  H   UNL A   1      36.329  31.005  34.784  1.00  0.00     0.164 HD
ATOM     19  O   UNL A   1      38.703  29.818  33.869  1.00  0.00    -0.275 OA
ENDBRANCH   7   8
ENDBRANCH   5   7
ENDBRANCH   2   3
ENDBRANCH   1   2
BRANCH   1  20
ATOM     20  C   UNL A   1      34.697  32.600  28.789  1.00  0.00     0.118 C 
BRANCH  20  21
ATOM     21  N   UNL A   1      34.053  31.374  28.333  1.00  0.00    -0.352 N 
ATOM     22  C   UNL A   1      34.592  30.142  28.058  1.00  0.00     0.251 C 
ATOM     23  H   UNL A   1      33.080  31.441  28.201  1.00  0.00     0.163 HD
ATOM     24  O   UNL A   1      33.891  29.269  27.553  1.00  0.00    -0.269 OA
BRANCH  22  25
ATOM     25  C   UNL A   1      36.017  29.861  28.344  1.00  0.00     0.039 A 
ATOM     26  C   UNL A   1      36.368  29.382  29.610  1.00  0.00     0.014 A 
ATOM     27  C   UNL A   1      37.005  30.086  27.384  1.00  0.00     0.014 A 
ATOM     28  C   UNL A   1      37.698  29.058  29.888  1.00  0.00     0.010 A 
ATOM     29  C   UNL A   1      38.319  29.702  27.638  1.00  0.00     0.010 A 
ATOM     30  C   UNL A   1      38.678  29.182  28.891  1.00  0.00    -0.014 A 
BRANCH  30  31
ATOM     31  C   UNL A   1      40.088  28.781  29.128  1.00  0.00     0.031 A 
ATOM     32  C   UNL A   1      41.063  29.768  29.704  1.00  0.00     0.074 A 
ATOM     33  C   UNL A   1      40.513  27.564  28.740  1.00  0.00     0.049 A 
ATOM     34  N   UNL A   1      42.361  29.669  29.838  1.00  0.00    -0.248 NA
ATOM     35  C   UNL A   1      40.506  31.050  30.164  1.00  0.00     0.031 C 
ATOM     36  C   UNL A   1      39.676  26.523  28.138  1.00  0.00     0.029 A 
ATOM     37  N   UNL A   1      41.765  27.004  28.772  1.00  0.00    -0.354 N 
ATOM     38  C   UNL A   1      42.778  30.883  30.368  1.00  0.00     0.074 A 
ATOM     39  C   UNL A   1      41.601  31.715  30.501  1.00  0.00     0.031 C 
ATOM     40  C   UNL A   1      40.436  25.450  27.866  1.00  0.00     0.029 A 
ATOM     41  C   UNL A   1      41.819  25.740  28.236  1.00  0.00     0.049 A 
ATOM     42  H   UNL A   1      42.552  27.465  29.145  1.00  0.00     0.167 HD
ATOM     43  C   UNL A   1      44.028  31.266  30.723  1.00  0.00     0.037 A 
ATOM     44  C   UNL A   1      42.866  24.916  28.046  1.00  0.00     0.037 A 
ATOM     45  C   UNL A   1      45.193  30.427  30.628  1.00  0.00     0.049 A 
ATOM     46  C   UNL A   1      44.241  25.359  28.461  1.00  0.00     0.074 A 
ATOM     47  C   UNL A   1      46.492  30.707  31.013  1.00  0.00     0.029 A 
ATOM     48  N   UNL A   1      45.195  29.139  30.115  1.00  0.00    -0.354 N 
ATOM     49  N   UNL A   1      44.616  26.496  28.992  1.00  0.00    -0.248 NA
ATOM     50  C   UNL A   1      45.336  24.402  28.250  1.00  0.00     0.031 C 
ATOM     51  C   UNL A   1      47.287  29.596  30.712  1.00  0.00     0.029 A 
ATOM     52  C   UNL A   1      46.476  28.613  30.168  1.00  0.00     0.049 A 
ATOM     53  H   UNL A   1      44.405  28.666  29.767  1.00  0.00     0.167 HD
ATOM     54  C   UNL A   1      45.983  26.384  29.203  1.00  0.00     0.074 A 
ATOM     55  C   UNL A   1      46.371  25.064  28.749  1.00  0.00     0.031 C 
ATOM     56  C   UNL A   1      46.841  27.293  29.727  1.00  0.00     0.037 A 
BRANCH  43  57
ATOM     57  C   UNL A   1      44.197  32.660  31.249  1.00  0.00     0.057 A 
ATOM     58  C   UNL A   1      44.106  32.947  32.617  1.00  0.00     0.134 A 
ATOM     59  C   UNL A   1      44.481  33.722  30.382  1.00  0.00     0.134 A 
ATOM     60  F   UNL A   1      43.821  31.976  33.498  1.00  0.00    -0.206 F 
ATOM     61  C   UNL A   1      44.268  34.246  33.101  1.00  0.00     0.040 A 
ATOM     62  C   UNL A   1      44.669  35.021  30.856  1.00  0.00     0.040 A 
ATOM     63  F   UNL A   1      44.586  33.513  29.060  1.00  0.00    -0.206 F 
ATOM     64  C   UNL A   1      44.556  35.287  32.219  1.00  0.00     0.006 A 
ENDBRANCH  43  57
BRANCH  44  65
ATOM     65  C   UNL A   1      42.653  23.576  27.447  1.00  0.00     0.057 A 
ATOM     66  C   UNL A   1      42.738  23.389  26.062  1.00  0.00     0.134 A 
ATOM     67  C   UNL A   1      42.358  22.459  28.235  1.00  0.00     0.134 A 
ATOM     68  F   UNL A   1      42.999  24.428  25.255  1.00  0.00    -0.206 F 
ATOM     69  C   UNL A   1      42.520  22.138  25.481  1.00  0.00     0.040 A 
ATOM     70  C   UNL A   1      42.158  21.199  27.669  1.00  0.00     0.040 A 
ATOM     71  F   UNL A   1      42.268  22.575  29.568  1.00  0.00    -0.206 F 
ATOM     72  C   UNL A   1      42.234  21.038  26.286  1.00  0.00     0.006 A 
ENDBRANCH  44  65
BRANCH  56  73
ATOM     73  C   UNL A   1      48.273  26.875  29.878  1.00  0.00     0.057 A 
ATOM     74  C   UNL A   1      48.711  26.130  30.979  1.00  0.00     0.134 A 
ATOM     75  C   UNL A   1      49.212  27.187  28.887  1.00  0.00     0.134 A 
ATOM     76  F   UNL A   1      47.861  25.811  31.967  1.00  0.00    -0.206 F 
ATOM     77  C   UNL A   1      50.040  25.722  31.097  1.00  0.00     0.040 A 
ATOM     78  C   UNL A   1      50.539  26.768  28.986  1.00  0.00     0.040 A 
ATOM     79  F   UNL A   1      48.852  27.894  27.805  1.00  0.00    -0.206 F 
ATOM     80  C   UNL A   1      50.956  26.035  30.095  1.00  0.00     0.006 A 
ENDBRANCH  56  73
ENDBRANCH  30  31
ENDBRANCH  22  25
ENDBRANCH  20  21
ENDBRANCH   1  20
TORSDOF 11
ENDMDL
MODEL 2
REMARK VINA RESULT:     -10.6      0.089      1.361
REMARK SMILES O=C(C[NH+]1CCC2(CC1)CC(=O)N2)NCCCNC(=O)c1ccc(-c2c3nc(c(-c4c(F)cccc4F)c4ccc([nH]4)c(-c4c(F)cccc4F)c4nc(c(-c5c(F)cccc5F)c5ccc2[nH]5)C=C4)C=C3)cc1
REMARK SMILES IDX 16 1 15 2 14 3 1 4 2 5 3 7 4 8 5 9 9 10 6 12 8 13 7 14 10 15
REMARK SMILES IDX 13 16 11 17 12 19 17 20 18 21 19 22 20 24 21 25 22 26 74 27
REMARK SMILES IDX 23 28 73 29 24 30 25 31 26 32 67 33 27 34 72 35 66 36 68 37
REMARK SMILES IDX 28 38 71 39 65 40 64 41 29 43 55 44 38 45 54 46 39 47 42 48
REMARK SMILES IDX 53 49 69 50 40 51 41 52 52 54 70 55 43 56 30 57 31 58 36 59
REMARK SMILES IDX 32 60 33 61 35 62 37 63 34 64 56 65 57 66 62 67 58 68 59 69
REMARK SMILES IDX 61 70 63 71 60 72 44 73 45 74 50 75 46 76 47 77 49 78 51 79
REMARK SMILES IDX 48 80
REMARK H PARENT 14 6 4 11 13 18 18 23 68 42 42 53
REMARK Flexibility Score: inf
ROOT
ATOM      1  C   UNL A   1      34.242  33.834  28.079  1.00  0.00     0.042 C 
ENDROOT
BRANCH   1   2
ATOM      2  C   UNL A   1      33.602  34.887  28.971  1.00  0.00     0.118 C 
BRANCH   2   3
ATOM      3  N   UNL A   1      34.350  35.131  30.188  1.00  0.00    -0.351 N 
ATOM      4  O   UNL A   1      32.500  35.340  31.530  1.00  0.00    -0.269 OA
ATOM      5  C   UNL A   1      33.720  35.265  31.405  1.00  0.00     0.275 C 
ATOM      6  H   UNL A   1      35.331  35.203  30.142  1.00  0.00     0.163 HD
BRANCH   5   7
ATOM      7  C   UNL A   1      34.649  35.357  32.615  1.00  0.00     0.363 C 
BRANCH   7   8
ATOM      8  N   UNL A   1      34.506  34.242  33.588  1.00  0.00    -0.327 N 
ATOM      9  C   UNL A   1      34.578  32.948  32.870  1.00  0.00     0.265 C 
ATOM     10  C   UNL A   1      35.493  34.238  34.684  1.00  0.00     0.265 C 
ATOM     11  H   UNL A   1      33.598  34.382  34.029  1.00  0.00     0.348 HD
ATOM     12  C   UNL A   1      35.976  32.595  32.334  1.00  0.00     0.090 C 
ATOM     13  C   UNL A   1      36.931  33.995  34.238  1.00  0.00     0.090 C 
ATOM     14  C   UNL A   1      37.023  32.701  33.441  1.00  0.00     0.059 C 
ATOM     15  C   UNL A   1      38.477  32.315  33.042  1.00  0.00     0.128 C 
ATOM     16  N   UNL A   1      37.029  31.512  34.290  1.00  0.00    -0.350 N 
ATOM     17  C   UNL A   1      38.217  31.039  33.854  1.00  0.00     0.222 C 
ATOM     18  H   UNL A   1      36.386  31.171  34.953  1.00  0.00     0.164 HD
ATOM     19  O   UNL A   1      38.763  29.976  34.058  1.00  0.00    -0.275 OA
ENDBRANCH   7   8
ENDBRANCH   5   7
ENDBRANCH   2   3
ENDBRANCH   1   2
BRANCH   1  20
ATOM     20  C   UNL A   1      34.713  32.588  28.816  1.00  0.00     0.118 C 
BRANCH  20  21
ATOM     21  N   UNL A   1      34.071  31.367  28.344  1.00  0.00    -0.352 N 
ATOM     22  C   UNL A   1      34.613  30.138  28.058  1.00  0.00     0.251 C 
ATOM     23  H   UNL A   1      33.099  31.434  28.209  1.00  0.00     0.163 HD
ATOM     24  O   UNL A   1      33.915  29.270  27.540  1.00  0.00    -0.269 OA
BRANCH  22  25
ATOM     25  C   UNL A   1      36.037  29.855  28.347  1.00  0.00     0.039 A 
ATOM     26  C   UNL A   1      36.384  29.374  29.614  1.00  0.00     0.014 A 
ATOM     27  C   UNL A   1      37.027  30.079  27.389  1.00  0.00     0.014 A 
ATOM     28  C   UNL A   1      37.714  29.049  29.894  1.00  0.00     0.010 A 
ATOM     29  C   UNL A   1      38.340  29.693  27.646  1.00  0.00     0.010 A 
ATOM     30  C   UNL A   1      38.696  29.172  28.900  1.00  0.00    -0.014 A 
BRANCH  30  31
ATOM     31  C   UNL A   1      40.105  28.769  29.139  1.00  0.00     0.031 A 
ATOM     32  C   UNL A   1      41.077  29.752  29.727  1.00  0.00     0.074 A 
ATOM     33  C   UNL A   1      40.531  27.555  28.743  1.00  0.00     0.049 A 
ATOM     34  N   UNL A   1      42.374  29.652  29.866  1.00  0.00    -0.248 NA
ATOM     35  C   UNL A   1      40.518  31.030  30.195  1.00  0.00     0.031 C 
ATOM     36  C   UNL A   1      39.697  26.520  28.129  1.00  0.00     0.029 A 
ATOM     37  N   UNL A   1      41.784  26.995  28.776  1.00  0.00    -0.354 N 
ATOM     38  C   UNL A   1      42.790  30.861  30.408  1.00  0.00     0.074 A 
ATOM     39  C   UNL A   1      41.612  31.692  30.543  1.00  0.00     0.031 C 
ATOM     40  C   UNL A   1      40.458  25.449  27.851  1.00  0.00     0.029 A 
ATOM     41  C   UNL A   1      41.840  25.736  28.230  1.00  0.00     0.049 A 
ATOM     42  H   UNL A   1      42.569  27.452  29.156  1.00  0.00     0.167 HD
ATOM     43  C   UNL A   1      44.038  31.241  30.771  1.00  0.00     0.037 A 
ATOM     44  C   UNL A   1      42.887  24.913  28.037  1.00  0.00     0.037 A 
ATOM     45  C   UNL A   1      45.203  30.402  30.674  1.00  0.00     0.049 A 
ATOM     46  C   UNL A   1      44.260  25.352  28.461  1.00  0.00     0.074 A 
ATOM     47  C   UNL A   1      46.501  30.679  31.068  1.00  0.00     0.029 A 
ATOM     48  N   UNL A   1      45.208  29.118  30.151  1.00  0.00    -0.354 N 
ATOM     49  N   UNL A   1      44.633  26.486  29.003  1.00  0.00    -0.248 NA
ATOM     50  C   UNL A   1      45.356  24.398  28.247  1.00  0.00     0.031 C 
ATOM     51  C   UNL A   1      47.297  29.570  30.760  1.00  0.00     0.029 A 
ATOM     52  C   UNL A   1      46.488  28.592  30.205  1.00  0.00     0.049 A 
ATOM     53  H   UNL A   1      44.419  28.649  29.796  1.00  0.00     0.167 HD
ATOM     54  C   UNL A   1      45.999  26.371  29.220  1.00  0.00     0.074 A 
ATOM     55  C   UNL A   1      46.389  25.055  28.757  1.00  0.00     0.031 C 
ATOM     56  C   UNL A   1      46.855  27.275  29.755  1.00  0.00     0.037 A 
BRANCH  43  57
ATOM     57  C   UNL A   1      44.204  32.630  31.310  1.00  0.00     0.057 A 
ATOM     58  C   UNL A   1      44.114  32.904  32.680  1.00  0.00     0.134 A 
ATOM     59  C   UNL A   1      44.486  33.700  30.452  1.00  0.00     0.134 A 
ATOM     60  F   UNL A   1      43.833  31.925  33.553  1.00  0.00    -0.206 F 
ATOM     61  C   UNL A   1      44.274  34.200  33.176  1.00  0.00     0.040 A 
ATOM     62  C   UNL A   1      44.672  34.995  30.938  1.00  0.00     0.040 A 
ATOM     63  F   UNL A   1      44.590  33.503  29.128  1.00  0.00    -0.206 F 
ATOM     64  C   UNL A   1      44.560  35.249  32.303  1.00  0.00     0.006 A 
ENDBRANCH  43  57
BRANCH  44  65
ATOM     65  C   UNL A   1      42.677  23.578  27.426  1.00  0.00     0.057 A 
ATOM     66  C   UNL A   1      42.375  22.465  28.220  1.00  0.00     0.134 A 
ATOM     67  C   UNL A   1      42.778  23.380  26.045  1.00  0.00     0.134 A 
ATOM     68  F   UNL A   1      42.286  22.591  29.552  1.00  0.00    -0.206 F 
ATOM     69  C   UNL A   1      42.195  21.199  27.662  1.00  0.00     0.040 A 
ATOM     70  C   UNL A   1      42.580  22.123  25.471  1.00  0.00     0.040 A 
ATOM     71  F   UNL A   1      43.060  24.410  25.232  1.00  0.00    -0.206 F 
ATOM     72  C   UNL A   1      42.293  21.026  26.283  1.00  0.00     0.006 A 
ENDBRANCH  44  65
BRANCH  56  73
ATOM     73  C   UNL A   1      48.286  26.857  29.909  1.00  0.00     0.057 A 
ATOM     74  C   UNL A   1      49.255  27.176  28.949  1.00  0.00     0.134 A 
ATOM     75  C   UNL A   1      48.705  26.165  31.051  1.00  0.00     0.134 A 
ATOM     76  F   UNL A   1      48.912  27.827  27.827  1.00  0.00    -0.206 F 
ATOM     77  C   UNL A   1      50.590  26.806  29.115  1.00  0.00     0.040 A 
ATOM     78  C   UNL A   1      50.040  25.807  31.236  1.00  0.00     0.040 A 
ATOM     79  F   UNL A   1      47.825  25.835  32.009  1.00  0.00    -0.206 F 
ATOM     80  C   UNL A   1      50.986  26.125  30.265  1.00  0.00     0.006 A 
ENDBRANCH  56  73
ENDBRANCH  30  31
ENDBRANCH  22  25
ENDBRANCH  20  21
ENDBRANCH   1  20
TORSDOF 11
ENDMDL
MODEL 3
REMARK VINA RESULT:     -10.5      4.350      7.665
REMARK SMILES O=C(C[NH+]1CCC2(CC1)CC(=O)N2)NCCCNC(=O)c1ccc(-c2c3nc(c(-c4c(F)cccc4F)c4ccc([nH]4)c(-c4c(F)cccc4F)c4nc(c(-c5c(F)cccc5F)c5ccc2[nH]5)C=C4)C=C3)cc1
REMARK SMILES IDX 16 1 15 2 14 3 1 4 2 5 3 7 4 8 5 9 9 10 6 12 8 13 7 14 10 15
REMARK SMILES IDX 13 16 11 17 12 19 17 20 18 21 19 22 20 24 21 25 22 26 74 27
REMARK SMILES IDX 23 28 73 29 24 30 25 31 26 32 67 33 27 34 72 35 66 36 68 37
REMARK SMILES IDX 28 38 71 39 65 40 64 41 29 43 55 44 38 45 54 46 39 47 42 48
REMARK SMILES IDX 53 49 69 50 40 51 41 52 52 54 70 55 43 56 30 57 31 58 36 59
REMARK SMILES IDX 32 60 33 61 35 62 37 63 34 64 56 65 57 66 62 67 58 68 59 69
REMARK SMILES IDX 61 70 63 71 60 72 44 73 45 74 50 75 46 76 47 77 49 78 51 79
REMARK SMILES IDX 48 80
REMARK H PARENT 14 6 4 11 13 18 18 23 68 42 42 53
REMARK Flexibility Score: inf
ROOT
ATOM      1  C   UNL A   1      33.123  34.685  28.695  1.00  0.00     0.042 C 
ENDROOT
BRANCH   1   2
ATOM      2  C   UNL A   1      34.196  33.623  28.876  1.00  0.00     0.118 C 
BRANCH   2   3
ATOM      3  N   UNL A   1      33.843  32.350  28.281  1.00  0.00    -0.351 N 
ATOM      4  O   UNL A   1      36.001  31.754  27.772  1.00  0.00    -0.269 OA
ATOM      5  C   UNL A   1      34.806  31.471  27.838  1.00  0.00     0.275 C 
ATOM      6  H   UNL A   1      32.893  32.109  28.191  1.00  0.00     0.163 HD
BRANCH   5   7
ATOM      7  C   UNL A   1      34.287  30.107  27.384  1.00  0.00     0.363 C 
BRANCH   7   8
ATOM      8  N   UNL A   1      33.154  30.169  26.423  1.00  0.00    -0.327 N 
ATOM      9  C   UNL A   1      33.455  29.318  25.249  1.00  0.00     0.265 C 
ATOM     10  C   UNL A   1      31.844  29.777  26.975  1.00  0.00     0.265 C 
ATOM     11  H   UNL A   1      33.068  31.153  26.169  1.00  0.00     0.348 HD
ATOM     12  C   UNL A   1      33.422  27.806  25.533  1.00  0.00     0.090 C 
ATOM     13  C   UNL A   1      31.743  28.311  27.384  1.00  0.00     0.090 C 
ATOM     14  C   UNL A   1      32.112  27.412  26.211  1.00  0.00     0.059 C 
ATOM     15  C   UNL A   1      31.927  25.895  26.504  1.00  0.00     0.128 C 
ATOM     16  N   UNL A   1      31.027  27.272  25.242  1.00  0.00    -0.350 N 
ATOM     17  C   UNL A   1      30.935  25.927  25.333  1.00  0.00     0.222 C 
ATOM     18  H   UNL A   1      30.531  27.933  24.705  1.00  0.00     0.164 HD
ATOM     19  O   UNL A   1      30.306  25.135  24.665  1.00  0.00    -0.275 OA
ENDBRANCH   7   8
ENDBRANCH   5   7
ENDBRANCH   2   3
ENDBRANCH   1   2
BRANCH   1  20
ATOM     20  C   UNL A   1      33.425  36.008  29.386  1.00  0.00     0.118 C 
BRANCH  20  21
ATOM     21  N   UNL A   1      32.528  36.289  30.500  1.00  0.00    -0.352 N 
ATOM     22  C   UNL A   1      32.585  35.873  31.807  1.00  0.00     0.251 C 
ATOM     23  H   UNL A   1      31.763  36.868  30.281  1.00  0.00     0.163 HD
ATOM     24  O   UNL A   1      31.649  36.114  32.565  1.00  0.00    -0.269 OA
BRANCH  22  25
ATOM     25  C   UNL A   1      33.753  35.113  32.307  1.00  0.00     0.039 A 
ATOM     26  C   UNL A   1      33.550  33.830  32.825  1.00  0.00     0.014 A 
ATOM     27  C   UNL A   1      35.035  35.664  32.288  1.00  0.00     0.014 A 
ATOM     28  C   UNL A   1      34.642  33.071  33.253  1.00  0.00     0.010 A 
ATOM     29  C   UNL A   1      36.130  34.883  32.653  1.00  0.00     0.010 A 
ATOM     30  C   UNL A   1      35.945  33.579  33.137  1.00  0.00    -0.014 A 
BRANCH  30  31
ATOM     31  C   UNL A   1      37.134  32.775  33.515  1.00  0.00     0.031 A 
ATOM     32  C   UNL A   1      37.860  33.067  34.798  1.00  0.00     0.074 A 
ATOM     33  C   UNL A   1      37.615  31.849  32.665  1.00  0.00     0.049 A 
ATOM     34  N   UNL A   1      39.000  32.593  35.231  1.00  0.00    -0.248 NA
ATOM     35  C   UNL A   1      37.232  34.045  35.701  1.00  0.00     0.031 C 
ATOM     36  C   UNL A   1      37.023  31.491  31.374  1.00  0.00     0.029 A 
ATOM     37  N   UNL A   1      38.730  31.053  32.751  1.00  0.00    -0.354 N 
ATOM     38  C   UNL A   1      39.241  33.236  36.438  1.00  0.00     0.074 A 
ATOM     39  C   UNL A   1      38.145  34.156  36.655  1.00  0.00     0.031 C 
ATOM     40  C   UNL A   1      37.776  30.543  30.793  1.00  0.00     0.029 A 
ATOM     41  C   UNL A   1      38.923  30.255  31.650  1.00  0.00     0.049 A 
ATOM     42  H   UNL A   1      39.335  31.054  33.528  1.00  0.00     0.167 HD
ATOM     43  C   UNL A   1      40.276  33.065  37.296  1.00  0.00     0.037 A 
ATOM     44  C   UNL A   1      39.921  29.400  31.355  1.00  0.00     0.037 A 
ATOM     45  C   UNL A   1      41.345  32.122  37.101  1.00  0.00     0.049 A 
ATOM     46  C   UNL A   1      41.051  29.219  32.329  1.00  0.00     0.074 A 
ATOM     47  C   UNL A   1      42.408  31.838  37.940  1.00  0.00     0.029 A 
ATOM     48  N   UNL A   1      41.481  31.303  35.990  1.00  0.00    -0.354 N 
ATOM     49  N   UNL A   1      41.249  29.808  33.482  1.00  0.00    -0.248 NA
ATOM     50  C   UNL A   1      42.095  28.253  31.959  1.00  0.00     0.031 C 
ATOM     51  C   UNL A   1      43.203  30.864  37.325  1.00  0.00     0.029 A 
ATOM     52  C   UNL A   1      42.615  30.520  36.118  1.00  0.00     0.049 A 
ATOM     53  H   UNL A   1      40.863  31.282  35.224  1.00  0.00     0.167 HD
ATOM     54  C   UNL A   1      42.422  29.267  33.988  1.00  0.00     0.074 A 
ATOM     55  C   UNL A   1      42.890  28.297  33.019  1.00  0.00     0.031 C 
ATOM     56  C   UNL A   1      43.057  29.548  35.152  1.00  0.00     0.037 A 
BRANCH  43  57
ATOM     57  C   UNL A   1      40.297  33.921  38.526  1.00  0.00     0.057 A 
ATOM     58  C   UNL A   1      39.624  33.546  39.696  1.00  0.00     0.134 A 
ATOM     59  C   UNL A   1      41.022  35.119  38.551  1.00  0.00     0.134 A 
ATOM     60  F   UNL A   1      38.900  32.418  39.732  1.00  0.00    -0.206 F 
ATOM     61  C   UNL A   1      39.652  34.346  40.840  1.00  0.00     0.040 A 
ATOM     62  C   UNL A   1      41.077  35.914  39.696  1.00  0.00     0.040 A 
ATOM     63  F   UNL A   1      41.693  35.532  37.464  1.00  0.00    -0.206 F 
ATOM     64  C   UNL A   1      40.385  35.532  40.843  1.00  0.00     0.006 A 
ENDBRANCH  43  57
BRANCH  44  65
ATOM     65  C   UNL A   1      39.890  28.636  30.084  1.00  0.00     0.057 A 
ATOM     66  C   UNL A   1      39.220  27.409  30.002  1.00  0.00     0.134 A 
ATOM     67  C   UNL A   1      40.527  29.106  28.931  1.00  0.00     0.134 A 
ATOM     68  F   UNL A   1      38.609  26.901  31.081  1.00  0.00    -0.206 F 
ATOM     69  C   UNL A   1      39.199  26.669  28.819  1.00  0.00     0.040 A 
ATOM     70  C   UNL A   1      40.496  28.385  27.736  1.00  0.00     0.040 A 
ATOM     71  F   UNL A   1      41.180  30.277  28.947  1.00  0.00    -0.206 F 
ATOM     72  C   UNL A   1      39.835  27.159  27.681  1.00  0.00     0.006 A 
ENDBRANCH  44  65
BRANCH  56  73
ATOM     73  C   UNL A   1      44.298  28.767  35.462  1.00  0.00     0.057 A 
ATOM     74  C   UNL A   1      45.567  29.218  35.079  1.00  0.00     0.134 A 
ATOM     75  C   UNL A   1      44.224  27.573  36.189  1.00  0.00     0.134 A 
ATOM     76  F   UNL A   1      45.702  30.349  34.370  1.00  0.00    -0.206 F 
ATOM     77  C   UNL A   1      46.720  28.498  35.396  1.00  0.00     0.040 A 
ATOM     78  C   UNL A   1      45.371  26.855  36.528  1.00  0.00     0.040 A 
ATOM     79  F   UNL A   1      43.037  27.093  36.589  1.00  0.00    -0.206 F 
ATOM     80  C   UNL A   1      46.623  27.317  36.129  1.00  0.00     0.006 A 
ENDBRANCH  56  73
ENDBRANCH  30  31
ENDBRANCH  22  25
ENDBRANCH  20  21
ENDBRANCH   1  20
TORSDOF 11
ENDMDL
