MODEL 1
REMARK VINA RESULT:     -11.0      0.000      0.000
REMARK SMILES CCC(C)(C)c1cccc(C(=O)NCCCNC(=O)c2ccc(-c3c4nc(c(-c5c(F)cccc5F)c5ccc([nH]5)c(-c5c(F)cccc5F)c5nc(c(-c6c(F)cccc6F)c6ccc3[nH]6)C=C5)C=C4)cc2)c1
REMARK SMILES IDX 15 1 14 2 13 3 11 4 12 5 10 7 6 8 7 9 74 10 8 11 9 12 3 13
REMARK SMILES IDX 4 14 5 15 2 16 1 17 16 18 17 19 18 20 19 22 20 23 21 24
REMARK SMILES IDX 73 25 22 26 72 27 23 28 24 29 25 30 66 31 26 32 71 33 65 34
REMARK SMILES IDX 67 35 27 36 70 37 64 38 63 39 28 41 54 42 37 43 53 44 38 45
REMARK SMILES IDX 41 46 52 47 68 48 39 49 40 50 51 52 69 53 42 54 29 55 30 56
REMARK SMILES IDX 35 57 31 58 32 59 34 60 36 61 33 62 55 63 56 64 61 65 57 66
REMARK SMILES IDX 58 67 60 68 62 69 59 70 43 71 44 72 49 73 45 74 46 75 48 76
REMARK SMILES IDX 50 77 47 78
REMARK H PARENT 13 6 17 21 67 40 41 51
REMARK Flexibility Score: inf
ROOT
ATOM      1  C   UNL A   1      32.365  28.065  26.821  1.00  0.00     0.042 C 
ENDROOT
BRANCH   1   2
ATOM      2  C   UNL A   1      32.348  26.741  26.079  1.00  0.00     0.118 C 
BRANCH   2   3
ATOM      3  N   UNL A   1      31.582  25.687  26.732  1.00  0.00    -0.352 N 
ATOM      4  C   UNL A   1      31.475  24.328  26.523  1.00  0.00     0.251 C 
ATOM      5  O   UNL A   1      30.717  23.697  27.259  1.00  0.00    -0.269 OA
ATOM      6  H   UNL A   1      31.025  26.013  27.475  1.00  0.00     0.163 HD
BRANCH   4   7
ATOM      7  C   UNL A   1      32.169  23.614  25.416  1.00  0.00     0.040 A 
ATOM      8  C   UNL A   1      34.214  22.703  24.434  1.00  0.00    -0.042 A 
ATOM      9  C   UNL A   1      33.553  22.626  23.200  1.00  0.00     0.004 A 
ATOM     10  C   UNL A   1      33.439  23.055  25.551  1.00  0.00     0.018 A 
ATOM     11  C   UNL A   1      32.212  23.005  23.076  1.00  0.00     0.001 A 
ATOM     12  C   UNL A   1      31.537  23.543  24.171  1.00  0.00     0.014 A 
BRANCH   8  13
ATOM     13  C   UNL A   1      35.751  22.615  24.551  1.00  0.00    -0.011 C 
ATOM     14  C   UNL A   1      36.470  22.980  23.238  1.00  0.00     0.016 C 
ATOM     15  C   UNL A   1      36.238  21.188  24.925  1.00  0.00     0.016 C 
BRANCH  13  16
ATOM     16  C   UNL A   1      36.216  23.550  25.720  1.00  0.00     0.008 C 
ATOM     17  C   UNL A   1      37.719  23.752  25.895  1.00  0.00     0.005 C 
ENDBRANCH  13  16
ENDBRANCH   8  13
ENDBRANCH   4   7
ENDBRANCH   2   3
ENDBRANCH   1   2
BRANCH   1  18
ATOM     18  C   UNL A   1      33.745  28.568  27.204  1.00  0.00     0.118 C 
BRANCH  18  19
ATOM     19  N   UNL A   1      33.734  29.932  27.714  1.00  0.00    -0.352 N 
ATOM     20  C   UNL A   1      34.678  30.666  28.391  1.00  0.00     0.251 C 
ATOM     21  H   UNL A   1      32.896  30.418  27.542  1.00  0.00     0.163 HD
ATOM     22  O   UNL A   1      34.353  31.747  28.874  1.00  0.00    -0.269 OA
BRANCH  20  23
ATOM     23  C   UNL A   1      36.067  30.178  28.571  1.00  0.00     0.039 A 
ATOM     24  C   UNL A   1      36.943  30.234  27.481  1.00  0.00     0.014 A 
ATOM     25  C   UNL A   1      36.506  29.617  29.771  1.00  0.00     0.014 A 
ATOM     26  C   UNL A   1      38.262  29.791  27.618  1.00  0.00     0.010 A 
ATOM     27  C   UNL A   1      37.846  29.283  29.942  1.00  0.00     0.010 A 
ATOM     28  C   UNL A   1      38.736  29.348  28.863  1.00  0.00    -0.014 A 
BRANCH  28  29
ATOM     29  C   UNL A   1      40.150  28.928  29.044  1.00  0.00     0.031 A 
ATOM     30  C   UNL A   1      41.149  29.866  29.672  1.00  0.00     0.074 A 
ATOM     31  C   UNL A   1      40.550  27.723  28.595  1.00  0.00     0.049 A 
ATOM     32  N   UNL A   1      42.430  29.691  29.880  1.00  0.00    -0.248 NA
ATOM     33  C   UNL A   1      40.651  31.186  30.091  1.00  0.00     0.031 C 
ATOM     34  C   UNL A   1      39.698  26.750  27.908  1.00  0.00     0.029 A 
ATOM     35  N   UNL A   1      41.777  27.111  28.646  1.00  0.00    -0.354 N 
ATOM     36  C   UNL A   1      42.890  30.882  30.432  1.00  0.00     0.074 A 
ATOM     37  C   UNL A   1      41.767  31.791  30.469  1.00  0.00     0.031 C 
ATOM     38  C   UNL A   1      40.417  25.649  27.638  1.00  0.00     0.029 A 
ATOM     39  C   UNL A   1      41.787  25.850  28.101  1.00  0.00     0.049 A 
ATOM     40  H   UNL A   1      42.576  27.534  29.037  1.00  0.00     0.167 HD
ATOM     41  C   UNL A   1      44.127  31.181  30.894  1.00  0.00     0.037 A 
ATOM     42  C   UNL A   1      42.784  24.954  27.993  1.00  0.00     0.037 A 
ATOM     43  C   UNL A   1      45.236  30.263  30.890  1.00  0.00     0.049 A 
ATOM     44  C   UNL A   1      44.139  25.297  28.544  1.00  0.00     0.074 A 
ATOM     45  C   UNL A   1      46.512  30.447  31.392  1.00  0.00     0.029 A 
ATOM     46  N   UNL A   1      45.196  28.983  30.359  1.00  0.00    -0.354 N 
ATOM     47  N   UNL A   1      44.540  26.400  29.129  1.00  0.00    -0.248 NA
ATOM     48  C   UNL A   1      45.178  24.264  28.432  1.00  0.00     0.031 C 
ATOM     49  C   UNL A   1      47.255  29.290  31.133  1.00  0.00     0.029 A 
ATOM     50  C   UNL A   1      46.429  28.369  30.509  1.00  0.00     0.049 A 
ATOM     51  H   UNL A   1      44.407  28.571  29.937  1.00  0.00     0.167 HD
ATOM     52  C   UNL A   1      45.868  26.186  29.475  1.00  0.00     0.074 A 
ATOM     53  C   UNL A   1      46.197  24.840  29.055  1.00  0.00     0.031 C 
ATOM     54  C   UNL A   1      46.737  27.028  30.084  1.00  0.00     0.037 A 
BRANCH  41  55
ATOM     55  C   UNL A   1      44.339  32.558  31.455  1.00  0.00     0.057 A 
ATOM     56  C   UNL A   1      44.761  33.626  30.652  1.00  0.00     0.134 A 
ATOM     57  C   UNL A   1      44.096  32.827  32.808  1.00  0.00     0.134 A 
ATOM     58  F   UNL A   1      45.025  33.434  29.350  1.00  0.00    -0.206 F 
ATOM     59  C   UNL A   1      44.965  34.903  31.178  1.00  0.00     0.040 A 
ATOM     60  C   UNL A   1      44.269  34.107  33.341  1.00  0.00     0.040 A 
ATOM     61  F   UNL A   1      43.685  31.854  33.635  1.00  0.00    -0.206 F 
ATOM     62  C   UNL A   1      44.711  35.147  32.526  1.00  0.00     0.006 A 
ENDBRANCH  41  55
BRANCH  42  63
ATOM     63  C   UNL A   1      42.529  23.627  27.379  1.00  0.00     0.057 A 
ATOM     64  C   UNL A   1      42.150  22.531  28.164  1.00  0.00     0.134 A 
ATOM     65  C   UNL A   1      42.660  23.419  26.001  1.00  0.00     0.134 A 
ATOM     66  F   UNL A   1      42.025  22.664  29.492  1.00  0.00    -0.206 F 
ATOM     67  C   UNL A   1      41.931  21.272  27.604  1.00  0.00     0.040 A 
ATOM     68  C   UNL A   1      42.420  22.170  25.425  1.00  0.00     0.040 A 
ATOM     69  F   UNL A   1      43.010  24.431  25.193  1.00  0.00    -0.206 F 
ATOM     70  C   UNL A   1      42.062  21.090  26.229  1.00  0.00     0.006 A 
ENDBRANCH  42  63
BRANCH  54  71
ATOM     71  C   UNL A   1      48.116  26.502  30.355  1.00  0.00     0.057 A 
ATOM     72  C   UNL A   1      48.429  25.825  31.541  1.00  0.00     0.134 A 
ATOM     73  C   UNL A   1      49.138  26.662  29.411  1.00  0.00     0.134 A 
ATOM     74  F   UNL A   1      47.498  25.651  32.490  1.00  0.00    -0.206 F 
ATOM     75  C   UNL A   1      49.719  25.356  31.793  1.00  0.00     0.040 A 
ATOM     76  C   UNL A   1      50.425  26.174  29.640  1.00  0.00     0.040 A 
ATOM     77  F   UNL A   1      48.902  27.292  28.251  1.00  0.00    -0.206 F 
ATOM     78  C   UNL A   1      50.720  25.526  30.839  1.00  0.00     0.006 A 
ENDBRANCH  54  71
ENDBRANCH  28  29
ENDBRANCH  20  23
ENDBRANCH  18  19
ENDBRANCH   1  18
TORSDOF 12
ENDMDL
MODEL 2
REMARK VINA RESULT:     -11.0      3.643      5.253
REMARK SMILES CCC(C)(C)c1cccc(C(=O)NCCCNC(=O)c2ccc(-c3c4nc(c(-c5c(F)cccc5F)c5ccc([nH]5)c(-c5c(F)cccc5F)c5nc(c(-c6c(F)cccc6F)c6ccc3[nH]6)C=C5)C=C4)cc2)c1
REMARK SMILES IDX 15 1 14 2 13 3 11 4 12 5 10 7 6 8 7 9 74 10 8 11 9 12 3 13
REMARK SMILES IDX 4 14 5 15 2 16 1 17 16 18 17 19 18 20 19 22 20 23 21 24
REMARK SMILES IDX 73 25 22 26 72 27 23 28 24 29 25 30 66 31 26 32 71 33 65 34
REMARK SMILES IDX 67 35 27 36 70 37 64 38 63 39 28 41 54 42 37 43 53 44 38 45
REMARK SMILES IDX 41 46 52 47 68 48 39 49 40 50 51 52 69 53 42 54 29 55 30 56
REMARK SMILES IDX 35 57 31 58 32 59 34 60 36 61 33 62 55 63 56 64 61 65 57 66
REMARK SMILES IDX 58 67 60 68 62 69 59 70 43 71 44 72 49 73 45 74 46 75 48 76
REMARK SMILES IDX 50 77 47 78
REMARK H PARENT 13 6 17 21 67 40 41 51
REMARK Flexibility Score: inf
ROOT
ATOM      1  C   UNL A   1      31.413  31.909  26.903  1.00  0.00     0.042 C 
ENDROOT
BRANCH   1   2
ATOM      2  C   UNL A   1      31.720  30.423  26.876  1.00  0.00     0.118 C 
BRANCH   2   3
ATOM      3  N   UNL A   1      33.049  30.067  27.356  1.00  0.00    -0.352 N 
ATOM      4  C   UNL A   1      33.984  29.139  26.948  1.00  0.00     0.251 C 
ATOM      5  O   UNL A   1      35.038  29.076  27.582  1.00  0.00    -0.269 OA
ATOM      6  H   UNL A   1      33.339  30.599  28.132  1.00  0.00     0.163 HD
BRANCH   4   7
ATOM      7  C   UNL A   1      33.748  28.173  25.839  1.00  0.00     0.040 A 
ATOM      8  C   UNL A   1      33.768  25.884  24.982  1.00  0.00    -0.042 A 
ATOM      9  C   UNL A   1      33.681  26.402  23.681  1.00  0.00     0.004 A 
ATOM     10  C   UNL A   1      33.640  26.798  26.040  1.00  0.00     0.018 A 
ATOM     11  C   UNL A   1      33.597  27.780  23.458  1.00  0.00     0.001 A 
ATOM     12  C   UNL A   1      33.679  28.665  24.532  1.00  0.00     0.014 A 
BRANCH   8  13
ATOM     13  C   UNL A   1      34.189  24.426  25.261  1.00  0.00    -0.011 C 
ATOM     14  C   UNL A   1      33.392  23.785  26.414  1.00  0.00     0.016 C 
ATOM     15  C   UNL A   1      35.687  24.306  25.657  1.00  0.00     0.016 C 
BRANCH  13  16
ATOM     16  C   UNL A   1      34.024  23.598  23.940  1.00  0.00     0.008 C 
ATOM     17  C   UNL A   1      35.295  23.052  23.296  1.00  0.00     0.005 C 
ENDBRANCH  13  16
ENDBRANCH   8  13
ENDBRANCH   4   7
ENDBRANCH   2   3
ENDBRANCH   1   2
BRANCH   1  18
ATOM     18  C   UNL A   1      32.623  32.816  26.781  1.00  0.00     0.118 C 
BRANCH  18  19
ATOM     19  N   UNL A   1      32.466  34.076  27.495  1.00  0.00    -0.352 N 
ATOM     20  C   UNL A   1      33.102  34.590  28.600  1.00  0.00     0.251 C 
ATOM     21  H   UNL A   1      31.779  34.669  27.116  1.00  0.00     0.163 HD
ATOM     22  O   UNL A   1      32.655  35.609  29.118  1.00  0.00    -0.269 OA
BRANCH  20  23
ATOM     23  C   UNL A   1      34.293  33.936  29.191  1.00  0.00     0.039 A 
ATOM     24  C   UNL A   1      34.114  32.770  29.943  1.00  0.00     0.014 A 
ATOM     25  C   UNL A   1      35.573  34.477  29.067  1.00  0.00     0.014 A 
ATOM     26  C   UNL A   1      35.217  32.122  30.508  1.00  0.00     0.010 A 
ATOM     27  C   UNL A   1      36.682  33.774  29.530  1.00  0.00     0.010 A 
ATOM     28  C   UNL A   1      36.517  32.598  30.272  1.00  0.00    -0.014 A 
BRANCH  28  29
ATOM     29  C   UNL A   1      37.707  31.892  30.814  1.00  0.00     0.031 A 
ATOM     30  C   UNL A   1      38.226  32.218  32.190  1.00  0.00     0.074 A 
ATOM     31  C   UNL A   1      38.354  30.994  30.046  1.00  0.00     0.049 A 
ATOM     32  N   UNL A   1      39.270  31.734  32.817  1.00  0.00    -0.248 NA
ATOM     33  C   UNL A   1      37.499  33.248  32.950  1.00  0.00     0.031 C 
ATOM     34  C   UNL A   1      37.994  30.638  28.672  1.00  0.00     0.029 A 
ATOM     35  N   UNL A   1      39.453  30.217  30.312  1.00  0.00    -0.354 N 
ATOM     36  C   UNL A   1      39.332  32.413  34.028  1.00  0.00     0.074 A 
ATOM     37  C   UNL A   1      38.262  33.384  34.024  1.00  0.00     0.031 C 
ATOM     38  C   UNL A   1      38.831  29.686  28.231  1.00  0.00     0.029 A 
ATOM     39  C   UNL A   1      39.806  29.388  29.275  1.00  0.00     0.049 A 
ATOM     40  H   UNL A   1      39.944  30.250  31.166  1.00  0.00     0.167 HD
ATOM     41  C   UNL A   1      40.184  32.224  35.064  1.00  0.00     0.037 A 
ATOM     42  C   UNL A   1      40.798  28.484  29.179  1.00  0.00     0.037 A 
ATOM     43  C   UNL A   1      41.227  31.232  35.083  1.00  0.00     0.049 A 
ATOM     44  C   UNL A   1      41.709  28.270  30.354  1.00  0.00     0.074 A 
ATOM     45  C   UNL A   1      42.103  30.919  36.107  1.00  0.00     0.029 A 
ATOM     46  N   UNL A   1      41.530  30.389  34.025  1.00  0.00    -0.354 N 
ATOM     47  N   UNL A   1      41.711  28.869  31.521  1.00  0.00    -0.248 NA
ATOM     48  C   UNL A   1      42.749  27.243  30.204  1.00  0.00     0.031 C 
ATOM     49  C   UNL A   1      42.960  29.908  35.656  1.00  0.00     0.029 A 
ATOM     50  C   UNL A   1      42.589  29.563  34.366  1.00  0.00     0.049 A 
ATOM     51  H   UNL A   1      41.063  30.380  33.158  1.00  0.00     0.167 HD
ATOM     52  C   UNL A   1      42.733  28.277  32.251  1.00  0.00     0.074 A 
ATOM     53  C   UNL A   1      43.315  27.256  31.403  1.00  0.00     0.031 C 
ATOM     54  C   UNL A   1      43.154  28.554  33.509  1.00  0.00     0.037 A 
BRANCH  41  55
ATOM     55  C   UNL A   1      40.011  33.105  36.269  1.00  0.00     0.057 A 
ATOM     56  C   UNL A   1      39.132  32.770  37.308  1.00  0.00     0.134 A 
ATOM     57  C   UNL A   1      40.748  34.287  36.405  1.00  0.00     0.134 A 
ATOM     58  F   UNL A   1      38.386  31.657  37.235  1.00  0.00    -0.206 F 
ATOM     59  C   UNL A   1      38.969  33.595  38.423  1.00  0.00     0.040 A 
ATOM     60  C   UNL A   1      40.614  35.107  37.528  1.00  0.00     0.040 A 
ATOM     61  F   UNL A   1      41.612  34.667  35.451  1.00  0.00    -0.206 F 
ATOM     62  C   UNL A   1      39.717  34.764  38.538  1.00  0.00     0.006 A 
ENDBRANCH  41  55
BRANCH  42  63
ATOM     63  C   UNL A   1      40.954  27.680  27.941  1.00  0.00     0.057 A 
ATOM     64  C   UNL A   1      40.311  26.445  27.799  1.00  0.00     0.134 A 
ATOM     65  C   UNL A   1      41.749  28.120  26.876  1.00  0.00     0.134 A 
ATOM     66  F   UNL A   1      39.549  25.963  28.793  1.00  0.00    -0.206 F 
ATOM     67  C   UNL A   1      40.467  25.666  26.652  1.00  0.00     0.040 A 
ATOM     68  C   UNL A   1      41.895  27.362  25.713  1.00  0.00     0.040 A 
ATOM     69  F   UNL A   1      42.384  29.299  26.947  1.00  0.00    -0.206 F 
ATOM     70  C   UNL A   1      41.259  26.127  25.603  1.00  0.00     0.006 A 
ENDBRANCH  42  63
BRANCH  54  71
ATOM     71  C   UNL A   1      44.278  27.719  34.047  1.00  0.00     0.057 A 
ATOM     72  C   UNL A   1      45.615  28.121  33.940  1.00  0.00     0.134 A 
ATOM     73  C   UNL A   1      44.018  26.502  34.692  1.00  0.00     0.134 A 
ATOM     74  F   UNL A   1      45.932  29.269  33.321  1.00  0.00    -0.206 F 
ATOM     75  C   UNL A   1      46.656  27.328  34.425  1.00  0.00     0.040 A 
ATOM     76  C   UNL A   1      45.048  25.715  35.205  1.00  0.00     0.040 A 
ATOM     77  F   UNL A   1      42.758  26.064  34.836  1.00  0.00    -0.206 F 
ATOM     78  C   UNL A   1      46.373  26.124  35.065  1.00  0.00     0.006 A 
ENDBRANCH  54  71
ENDBRANCH  28  29
ENDBRANCH  20  23
ENDBRANCH  18  19
ENDBRANCH   1  18
TORSDOF 12
ENDMDL
MODEL 3
REMARK VINA RESULT:     -10.9      2.594      7.625
REMARK SMILES CCC(C)(C)c1cccc(C(=O)NCCCNC(=O)c2ccc(-c3c4nc(c(-c5c(F)cccc5F)c5ccc([nH]5)c(-c5c(F)cccc5F)c5nc(c(-c6c(F)cccc6F)c6ccc3[nH]6)C=C5)C=C4)cc2)c1
REMARK SMILES IDX 15 1 14 2 13 3 11 4 12 5 10 7 6 8 7 9 74 10 8 11 9 12 3 13
REMARK SMILES IDX 4 14 5 15 2 16 1 17 16 18 17 19 18 20 19 22 20 23 21 24
REMARK SMILES IDX 73 25 22 26 72 27 23 28 24 29 25 30 66 31 26 32 71 33 65 34
REMARK SMILES IDX 67 35 27 36 70 37 64 38 63 39 28 41 54 42 37 43 53 44 38 45
REMARK SMILES IDX 41 46 52 47 68 48 39 49 40 50 51 52 69 53 42 54 29 55 30 56
REMARK SMILES IDX 35 57 31 58 32 59 34 60 36 61 33 62 55 63 56 64 61 65 57 66
REMARK SMILES IDX 58 67 60 68 62 69 59 70 43 71 44 72 49 73 45 74 46 75 48 76
REMARK SMILES IDX 50 77 47 78
REMARK H PARENT 13 6 17 21 67 40 41 51
REMARK Flexibility Score: inf
ROOT
ATOM      1  C   UNL A   1      38.160  19.684  24.913  1.00  0.00     0.042 C 
ENDROOT
BRANCH   1   2
ATOM      2  C   UNL A   1      37.343  20.919  24.577  1.00  0.00     0.118 C 
BRANCH   2   3
ATOM      3  N   UNL A   1      37.889  22.169  25.090  1.00  0.00    -0.352 N 
ATOM      4  C   UNL A   1      37.318  23.290  25.653  1.00  0.00     0.251 C 
ATOM      5  O   UNL A   1      38.069  24.207  25.985  1.00  0.00    -0.269 OA
ATOM      6  H   UNL A   1      38.869  22.224  25.018  1.00  0.00     0.163 HD
BRANCH   4   7
ATOM      7  C   UNL A   1      35.847  23.469  25.805  1.00  0.00     0.040 A 
ATOM      8  C   UNL A   1      33.843  24.849  25.562  1.00  0.00    -0.042 A 
ATOM      9  C   UNL A   1      33.171  23.973  26.428  1.00  0.00     0.004 A 
ATOM     10  C   UNL A   1      35.133  24.474  25.153  1.00  0.00     0.018 A 
ATOM     11  C   UNL A   1      33.812  22.845  26.951  1.00  0.00     0.001 A 
ATOM     12  C   UNL A   1      35.160  22.621  26.678  1.00  0.00     0.014 A 
BRANCH   8  13
ATOM     13  C   UNL A   1      33.301  26.255  25.231  1.00  0.00    -0.011 C 
ATOM     14  C   UNL A   1      33.592  26.679  23.778  1.00  0.00     0.016 C 
ATOM     15  C   UNL A   1      33.922  27.359  26.131  1.00  0.00     0.016 C 
BRANCH  13  16
ATOM     16  C   UNL A   1      31.761  26.277  25.520  1.00  0.00     0.008 C 
ATOM     17  C   UNL A   1      30.869  26.972  24.495  1.00  0.00     0.005 C 
ENDBRANCH  13  16
ENDBRANCH   8  13
ENDBRANCH   4   7
ENDBRANCH   2   3
ENDBRANCH   1   2
BRANCH   1  18
ATOM     18  C   UNL A   1      39.136  19.855  26.062  1.00  0.00     0.118 C 
BRANCH  18  19
ATOM     19  N   UNL A   1      40.414  19.198  25.827  1.00  0.00    -0.352 N 
ATOM     20  C   UNL A   1      41.709  19.649  25.920  1.00  0.00     0.251 C 
ATOM     21  H   UNL A   1      40.337  18.257  25.550  1.00  0.00     0.163 HD
ATOM     22  O   UNL A   1      42.615  18.941  25.488  1.00  0.00    -0.269 OA
BRANCH  20  23
ATOM     23  C   UNL A   1      42.036  20.970  26.506  1.00  0.00     0.039 A 
ATOM     24  C   UNL A   1      42.356  22.025  25.644  1.00  0.00     0.014 A 
ATOM     25  C   UNL A   1      42.089  21.177  27.885  1.00  0.00     0.014 A 
ATOM     26  C   UNL A   1      42.661  23.287  26.163  1.00  0.00     0.010 A 
ATOM     27  C   UNL A   1      42.280  22.457  28.398  1.00  0.00     0.010 A 
ATOM     28  C   UNL A   1      42.587  23.524  27.545  1.00  0.00    -0.014 A 
BRANCH  28  29
ATOM     29  C   UNL A   1      42.850  24.872  28.112  1.00  0.00     0.031 A 
ATOM     30  C   UNL A   1      44.245  25.268  28.522  1.00  0.00     0.074 A 
ATOM     31  C   UNL A   1      41.824  25.723  28.309  1.00  0.00     0.049 A 
ATOM     32  N   UNL A   1      44.661  26.384  29.067  1.00  0.00    -0.248 NA
ATOM     33  C   UNL A   1      45.306  24.268  28.326  1.00  0.00     0.031 C 
ATOM     34  C   UNL A   1      40.417  25.436  28.018  1.00  0.00     0.029 A 
ATOM     35  N   UNL A   1      41.805  27.002  28.803  1.00  0.00    -0.354 N 
ATOM     36  C   UNL A   1      46.021  26.209  29.294  1.00  0.00     0.074 A 
ATOM     37  C   UNL A   1      46.348  24.862  28.888  1.00  0.00     0.031 C 
ATOM     38  C   UNL A   1      39.679  26.520  28.302  1.00  0.00     0.029 A 
ATOM     39  C   UNL A   1      40.552  27.567  28.824  1.00  0.00     0.049 A 
ATOM     40  H   UNL A   1      42.613  27.474  29.113  1.00  0.00     0.167 HD
ATOM     41  C   UNL A   1      46.924  27.101  29.771  1.00  0.00     0.037 A 
ATOM     42  C   UNL A   1      40.153  28.791  29.214  1.00  0.00     0.037 A 
ATOM     43  C   UNL A   1      46.605  28.454  30.141  1.00  0.00     0.049 A 
ATOM     44  C   UNL A   1      41.179  29.773  29.707  1.00  0.00     0.074 A 
ATOM     45  C   UNL A   1      47.457  29.454  30.575  1.00  0.00     0.029 A 
ATOM     46  N   UNL A   1      45.329  28.998  30.117  1.00  0.00    -0.354 N 
ATOM     47  N   UNL A   1      42.473  29.617  29.848  1.00  0.00    -0.248 NA
ATOM     48  C   UNL A   1      40.689  31.106  30.081  1.00  0.00     0.031 C 
ATOM     49  C   UNL A   1      46.691  30.594  30.847  1.00  0.00     0.029 A 
ATOM     50  C   UNL A   1      45.368  30.316  30.540  1.00  0.00     0.049 A 
ATOM     51  H   UNL A   1      44.516  28.516  29.840  1.00  0.00     0.167 HD
ATOM     52  C   UNL A   1      42.955  30.837  30.305  1.00  0.00     0.074 A 
ATOM     53  C   UNL A   1      41.817  31.728  30.395  1.00  0.00     0.031 C 
ATOM     54  C   UNL A   1      44.225  31.187  30.623  1.00  0.00     0.037 A 
BRANCH  41  55
ATOM     55  C   UNL A   1      48.346  26.637  29.904  1.00  0.00     0.057 A 
ATOM     56  C   UNL A   1      48.794  25.941  31.035  1.00  0.00     0.134 A 
ATOM     57  C   UNL A   1      49.274  26.866  28.880  1.00  0.00     0.134 A 
ATOM     58  F   UNL A   1      47.959  25.700  32.058  1.00  0.00    -0.206 F 
ATOM     59  C   UNL A   1      50.118  25.518  31.159  1.00  0.00     0.040 A 
ATOM     60  C   UNL A   1      50.596  26.424  28.980  1.00  0.00     0.040 A 
ATOM     61  F   UNL A   1      48.914  27.521  27.766  1.00  0.00    -0.206 F 
ATOM     62  C   UNL A   1      51.022  25.754  30.125  1.00  0.00     0.006 A 
ENDBRANCH  41  55
BRANCH  42  63
ATOM     63  C   UNL A   1      38.724  29.175  29.111  1.00  0.00     0.057 A 
ATOM     64  C   UNL A   1      37.878  29.107  30.224  1.00  0.00     0.134 A 
ATOM     65  C   UNL A   1      38.168  29.615  27.903  1.00  0.00     0.134 A 
ATOM     66  F   UNL A   1      38.349  28.677  31.403  1.00  0.00    -0.206 F 
ATOM     67  C   UNL A   1      36.526  29.442  30.136  1.00  0.00     0.040 A 
ATOM     68  C   UNL A   1      36.823  29.976  27.808  1.00  0.00     0.040 A 
ATOM     69  F   UNL A   1      38.929  29.712  26.803  1.00  0.00    -0.206 F 
ATOM     70  C   UNL A   1      35.996  29.882  28.925  1.00  0.00     0.006 A 
ENDBRANCH  42  63
BRANCH  54  71
ATOM     71  C   UNL A   1      44.447  32.603  31.069  1.00  0.00     0.057 A 
ATOM     72  C   UNL A   1      44.387  32.970  32.419  1.00  0.00     0.134 A 
ATOM     73  C   UNL A   1      44.735  33.607  30.136  1.00  0.00     0.134 A 
ATOM     74  F   UNL A   1      44.101  32.058  33.360  1.00  0.00    -0.206 F 
ATOM     75  C   UNL A   1      44.574  34.293  32.823  1.00  0.00     0.040 A 
ATOM     76  C   UNL A   1      44.951  34.928  30.531  1.00  0.00     0.040 A 
ATOM     77  F   UNL A   1      44.816  33.320  28.828  1.00  0.00    -0.206 F 
ATOM     78  C   UNL A   1      44.862  35.275  31.878  1.00  0.00     0.006 A 
ENDBRANCH  54  71
ENDBRANCH  28  29
ENDBRANCH  20  23
ENDBRANCH  18  19
ENDBRANCH   1  18
TORSDOF 12
ENDMDL
