MODEL 1
REMARK VINA RESULT:     -13.1      0.000      0.000
REMARK SMILES Cc1nnc(SCC(=O)Nc2cccc(C(=O)NCCCNC(=O)c3ccc(-c4c5nc(c(-c6c(F)cccc6F)c6ccc([nH]6)c(-c6c(F)cccc6F)c6nc(c(-c7c(F)cccc7F)c7ccc4[nH]7)C=C6)C=C5)cc3)c2)n1-c1ccccc1
REMARK SMILES IDX 16 1 17 2 18 3 15 5 11 6 12 7 79 8 13 9 14 10 10 11 8 12
REMARK SMILES IDX 9 13 7 15 6 16 5 17 1 18 2 19 3 20 80 21 4 22 81 23 82 24
REMARK SMILES IDX 86 25 83 26 85 27 84 28 19 29 20 30 21 31 22 32 23 33 24 35
REMARK SMILES IDX 25 36 26 37 78 38 27 39 77 40 28 41 29 42 30 43 71 44 31 45
REMARK SMILES IDX 76 46 70 47 72 48 32 49 75 50 69 51 68 52 33 54 59 55 42 56
REMARK SMILES IDX 58 57 43 58 46 59 57 60 73 61 44 62 45 63 56 65 74 66 47 67
REMARK SMILES IDX 34 68 35 69 40 70 36 71 37 72 39 73 41 74 38 75 60 76 61 77
REMARK SMILES IDX 66 78 62 79 63 80 65 81 67 82 64 83 48 84 49 85 54 86 50 87
REMARK SMILES IDX 51 88 53 89 55 90 52 91
REMARK H PARENT 18 4 10 14 22 34 72 53 46 64
REMARK Flexibility Score: inf
ROOT
ATOM      1  C   UNL A   1      34.852  22.090  25.950  1.00  0.00     0.251 C 
ATOM      2  O   UNL A   1      34.288  22.166  27.045  1.00  0.00    -0.269 OA
ATOM      3  N   UNL A   1      36.215  22.019  25.989  1.00  0.00    -0.352 N 
ATOM      4  H   UNL A   1      36.570  22.018  26.909  1.00  0.00     0.163 HD
ENDROOT
BRANCH   1   5
ATOM      5  C   UNL A   1      34.013  22.082  24.710  1.00  0.00     0.041 A 
ATOM      6  C   UNL A   1      33.101  22.959  22.640  1.00  0.00     0.041 A 
ATOM      7  C   UNL A   1      32.223  21.874  22.556  1.00  0.00     0.026 A 
ATOM      8  C   UNL A   1      33.972  23.074  23.722  1.00  0.00     0.040 A 
ATOM      9  C   UNL A   1      32.270  20.864  23.504  1.00  0.00     0.003 A 
ATOM     10  C   UNL A   1      33.162  20.968  24.567  1.00  0.00     0.014 A 
BRANCH   6  11
ATOM     11  N   UNL A   1      32.984  23.912  21.632  1.00  0.00    -0.325 N 
ATOM     12  C   UNL A   1      33.045  25.265  21.602  1.00  0.00     0.234 C 
ATOM     13  O   UNL A   1      33.025  25.723  20.454  1.00  0.00    -0.274 OA
ATOM     14  H   UNL A   1      32.822  23.515  20.745  1.00  0.00     0.169 HD
BRANCH  12  15
ATOM     15  C   UNL A   1      33.410  26.142  22.773  1.00  0.00     0.178 C 
BRANCH  15  16
ATOM     16  S   UNL A   1      33.066  27.896  22.824  1.00  0.00    -0.076 SA
BRANCH  16  17
ATOM     17  C   UNL A   1      31.388  28.299  22.875  1.00  0.00     0.196 A 
ATOM     18  C   UNL A   1      27.830  27.849  23.489  1.00  0.00     0.090 C 
ATOM     19  C   UNL A   1      29.200  28.158  23.034  1.00  0.00     0.135 A 
ATOM     20  N   UNL A   1      29.484  28.947  22.021  1.00  0.00    -0.134 NA
ATOM     21  N   UNL A   1      30.378  27.694  23.589  1.00  0.00    -0.274 N 
ATOM     22  N   UNL A   1      30.838  29.001  21.914  1.00  0.00    -0.123 NA
BRANCH  21  23
ATOM     23  C   UNL A   1      30.537  26.716  24.566  1.00  0.00     0.049 A 
ATOM     24  C   UNL A   1      31.213  27.068  25.727  1.00  0.00     0.027 A 
ATOM     25  C   UNL A   1      30.304  25.386  24.220  1.00  0.00     0.027 A 
ATOM     26  C   UNL A   1      31.781  26.063  26.501  1.00  0.00     0.002 A 
ATOM     27  C   UNL A   1      30.838  24.388  25.027  1.00  0.00     0.002 A 
ATOM     28  C   UNL A   1      31.608  24.726  26.142  1.00  0.00     0.000 A 
ENDBRANCH  21  23
ENDBRANCH  16  17
ENDBRANCH  15  16
ENDBRANCH  12  15
ENDBRANCH   6  11
ENDBRANCH   1   5
BRANCH   3  29
ATOM     29  C   UNL A   1      37.255  21.946  24.986  1.00  0.00     0.118 C 
BRANCH  29  30
ATOM     30  C   UNL A   1      38.024  20.631  25.086  1.00  0.00     0.042 C 
BRANCH  30  31
ATOM     31  C   UNL A   1      39.257  20.722  25.978  1.00  0.00     0.118 C 
BRANCH  31  32
ATOM     32  N   UNL A   1      40.190  19.578  25.920  1.00  0.00    -0.352 N 
ATOM     33  C   UNL A   1      41.586  19.582  25.961  1.00  0.00     0.251 C 
ATOM     34  H   UNL A   1      39.770  18.690  25.843  1.00  0.00     0.163 HD
ATOM     35  O   UNL A   1      42.255  18.648  25.572  1.00  0.00    -0.269 OA
BRANCH  33  36
ATOM     36  C   UNL A   1      42.234  20.790  26.504  1.00  0.00     0.039 A 
ATOM     37  C   UNL A   1      42.628  21.872  25.706  1.00  0.00     0.014 A 
ATOM     38  C   UNL A   1      42.228  20.882  27.882  1.00  0.00     0.014 A 
ATOM     39  C   UNL A   1      42.880  23.094  26.329  1.00  0.00     0.010 A 
ATOM     40  C   UNL A   1      42.135  22.129  28.417  1.00  0.00     0.010 A 
ATOM     41  C   UNL A   1      42.583  23.222  27.692  1.00  0.00    -0.014 A 
BRANCH  41  42
ATOM     42  C   UNL A   1      42.617  24.486  28.415  1.00  0.00     0.031 A 
ATOM     43  C   UNL A   1      41.459  25.383  28.159  1.00  0.00     0.074 A 
ATOM     44  C   UNL A   1      43.477  24.682  29.444  1.00  0.00     0.049 A 
ATOM     45  N   UNL A   1      41.465  26.519  27.545  1.00  0.00    -0.248 NA
ATOM     46  C   UNL A   1      40.108  24.900  28.495  1.00  0.00     0.031 C 
ATOM     47  C   UNL A   1      44.445  23.736  30.027  1.00  0.00     0.029 A 
ATOM     48  N   UNL A   1      43.586  25.748  30.278  1.00  0.00    -0.354 N 
ATOM     49  C   UNL A   1      40.162  27.005  27.628  1.00  0.00     0.074 A 
ATOM     50  C   UNL A   1      39.346  25.888  28.018  1.00  0.00     0.031 C 
ATOM     51  C   UNL A   1      44.842  24.170  31.242  1.00  0.00     0.029 A 
ATOM     52  C   UNL A   1      44.329  25.510  31.432  1.00  0.00     0.049 A 
ATOM     53  H   UNL A   1      43.173  26.620  30.084  1.00  0.00     0.167 HD
ATOM     54  C   UNL A   1      39.921  28.347  27.638  1.00  0.00     0.037 A 
ATOM     55  C   UNL A   1      44.503  26.359  32.474  1.00  0.00     0.037 A 
ATOM     56  C   UNL A   1      41.090  29.078  27.208  1.00  0.00     0.049 A 
ATOM     57  C   UNL A   1      44.158  27.716  31.984  1.00  0.00     0.074 A 
ATOM     58  C   UNL A   1      41.864  29.090  26.064  1.00  0.00     0.029 A 
ATOM     59  N   UNL A   1      41.862  29.664  28.183  1.00  0.00    -0.354 N 
ATOM     60  N   UNL A   1      44.856  28.359  31.089  1.00  0.00    -0.248 NA
ATOM     61  C   UNL A   1      42.774  28.142  32.124  1.00  0.00     0.031 C 
ATOM     62  C   UNL A   1      43.208  29.215  26.530  1.00  0.00     0.029 A 
ATOM     63  C   UNL A   1      43.172  29.363  27.918  1.00  0.00     0.049 A 
ATOM     64  H   UNL A   1      41.531  30.204  28.937  1.00  0.00     0.167 HD
ATOM     65  C   UNL A   1      43.910  28.947  30.260  1.00  0.00     0.074 A 
ATOM     66  C   UNL A   1      42.649  28.844  30.994  1.00  0.00     0.031 C 
ATOM     67  C   UNL A   1      44.178  29.182  28.940  1.00  0.00     0.037 A 
BRANCH  54  68
ATOM     68  C   UNL A   1      38.809  29.022  28.413  1.00  0.00     0.057 A 
ATOM     69  C   UNL A   1      38.680  28.745  29.788  1.00  0.00     0.134 A 
ATOM     70  C   UNL A   1      37.702  29.675  27.835  1.00  0.00     0.134 A 
ATOM     71  F   UNL A   1      39.663  28.130  30.464  1.00  0.00    -0.206 F 
ATOM     72  C   UNL A   1      37.503  29.002  30.503  1.00  0.00     0.040 A 
ATOM     73  C   UNL A   1      36.542  29.982  28.552  1.00  0.00     0.040 A 
ATOM     74  F   UNL A   1      37.631  29.963  26.532  1.00  0.00    -0.206 F 
ATOM     75  C   UNL A   1      36.422  29.612  29.880  1.00  0.00     0.006 A 
ENDBRANCH  54  68
BRANCH  55  76
ATOM     76  C   UNL A   1      44.655  26.046  33.912  1.00  0.00     0.057 A 
ATOM     77  C   UNL A   1      43.544  25.751  34.714  1.00  0.00     0.134 A 
ATOM     78  C   UNL A   1      45.912  25.749  34.469  1.00  0.00     0.134 A 
ATOM     79  F   UNL A   1      42.302  25.964  34.256  1.00  0.00    -0.206 F 
ATOM     80  C   UNL A   1      43.672  25.167  35.981  1.00  0.00     0.040 A 
ATOM     81  C   UNL A   1      46.055  25.170  35.734  1.00  0.00     0.040 A 
ATOM     82  F   UNL A   1      47.040  25.928  33.763  1.00  0.00    -0.206 F 
ATOM     83  C   UNL A   1      44.931  24.862  36.490  1.00  0.00     0.006 A 
ENDBRANCH  55  76
BRANCH  67  84
ATOM     84  C   UNL A   1      45.600  29.019  28.466  1.00  0.00     0.057 A 
ATOM     85  C   UNL A   1      46.132  27.831  27.942  1.00  0.00     0.134 A 
ATOM     86  C   UNL A   1      46.410  30.156  28.389  1.00  0.00     0.134 A 
ATOM     87  F   UNL A   1      45.405  26.711  27.881  1.00  0.00    -0.206 F 
ATOM     88  C   UNL A   1      47.421  27.770  27.402  1.00  0.00     0.040 A 
ATOM     89  C   UNL A   1      47.687  30.117  27.824  1.00  0.00     0.040 A 
ATOM     90  F   UNL A   1      45.951  31.342  28.819  1.00  0.00    -0.206 F 
ATOM     91  C   UNL A   1      48.201  28.920  27.336  1.00  0.00     0.006 A 
ENDBRANCH  67  84
ENDBRANCH  41  42
ENDBRANCH  33  36
ENDBRANCH  31  32
ENDBRANCH  30  31
ENDBRANCH  29  30
ENDBRANCH   3  29
TORSDOF 15
ENDMDL
MODEL 2
REMARK VINA RESULT:     -13.1      3.921      8.981
REMARK SMILES Cc1nnc(SCC(=O)Nc2cccc(C(=O)NCCCNC(=O)c3ccc(-c4c5nc(c(-c6c(F)cccc6F)c6ccc([nH]6)c(-c6c(F)cccc6F)c6nc(c(-c7c(F)cccc7F)c7ccc4[nH]7)C=C6)C=C5)cc3)c2)n1-c1ccccc1
REMARK SMILES IDX 16 1 17 2 18 3 15 5 11 6 12 7 79 8 13 9 14 10 10 11 8 12
REMARK SMILES IDX 9 13 7 15 6 16 5 17 1 18 2 19 3 20 80 21 4 22 81 23 82 24
REMARK SMILES IDX 86 25 83 26 85 27 84 28 19 29 20 30 21 31 22 32 23 33 24 35
REMARK SMILES IDX 25 36 26 37 78 38 27 39 77 40 28 41 29 42 30 43 71 44 31 45
REMARK SMILES IDX 76 46 70 47 72 48 32 49 75 50 69 51 68 52 33 54 59 55 42 56
REMARK SMILES IDX 58 57 43 58 46 59 57 60 73 61 44 62 45 63 56 65 74 66 47 67
REMARK SMILES IDX 34 68 35 69 40 70 36 71 37 72 39 73 41 74 38 75 60 76 61 77
REMARK SMILES IDX 66 78 62 79 63 80 65 81 67 82 64 83 48 84 49 85 54 86 50 87
REMARK SMILES IDX 51 88 53 89 55 90 52 91
REMARK H PARENT 18 4 10 14 22 34 72 53 46 64
REMARK Flexibility Score: inf
ROOT
ATOM      1  C   UNL A   1      32.745  28.390  24.959  1.00  0.00     0.251 C 
ATOM      2  O   UNL A   1      33.606  28.200  24.096  1.00  0.00    -0.269 OA
ATOM      3  N   UNL A   1      33.031  29.360  25.877  1.00  0.00    -0.352 N 
ATOM      4  H   UNL A   1      33.896  29.799  25.710  1.00  0.00     0.163 HD
ENDROOT
BRANCH   1   5
ATOM      5  C   UNL A   1      31.498  27.564  24.922  1.00  0.00     0.041 A 
ATOM      6  C   UNL A   1      29.973  25.811  25.622  1.00  0.00     0.041 A 
ATOM      7  C   UNL A   1      29.152  26.072  24.521  1.00  0.00     0.026 A 
ATOM      8  C   UNL A   1      31.150  26.535  25.807  1.00  0.00     0.040 A 
ATOM      9  C   UNL A   1      29.459  27.107  23.652  1.00  0.00     0.003 A 
ATOM     10  C   UNL A   1      30.619  27.847  23.857  1.00  0.00     0.014 A 
BRANCH   6  11
ATOM     11  N   UNL A   1      29.571  24.760  26.442  1.00  0.00    -0.325 N 
ATOM     12  C   UNL A   1      30.143  23.595  26.831  1.00  0.00     0.234 C 
ATOM     13  O   UNL A   1      29.487  23.000  27.693  1.00  0.00    -0.274 OA
ATOM     14  H   UNL A   1      28.673  24.893  26.824  1.00  0.00     0.169 HD
BRANCH  12  15
ATOM     15  C   UNL A   1      31.558  23.178  26.519  1.00  0.00     0.178 C 
BRANCH  15  16
ATOM     16  S   UNL A   1      32.056  22.528  24.930  1.00  0.00    -0.076 SA
BRANCH  16  17
ATOM     17  C   UNL A   1      32.781  20.962  24.987  1.00  0.00     0.196 A 
ATOM     18  C   UNL A   1      35.361  18.426  24.601  1.00  0.00     0.090 C 
ATOM     19  C   UNL A   1      34.155  19.274  24.682  1.00  0.00     0.135 A 
ATOM     20  N   UNL A   1      32.927  18.833  24.518  1.00  0.00    -0.134 NA
ATOM     21  N   UNL A   1      34.116  20.630  24.949  1.00  0.00    -0.274 N 
ATOM     22  N   UNL A   1      32.090  19.892  24.679  1.00  0.00    -0.123 NA
BRANCH  21  23
ATOM     23  C   UNL A   1      35.185  21.518  25.027  1.00  0.00     0.049 A 
ATOM     24  C   UNL A   1      35.426  22.132  26.249  1.00  0.00     0.027 A 
ATOM     25  C   UNL A   1      35.750  21.983  23.841  1.00  0.00     0.027 A 
ATOM     26  C   UNL A   1      36.150  23.319  26.269  1.00  0.00     0.002 A 
ATOM     27  C   UNL A   1      36.513  23.144  23.880  1.00  0.00     0.002 A 
ATOM     28  C   UNL A   1      36.678  23.832  25.085  1.00  0.00     0.000 A 
ENDBRANCH  21  23
ENDBRANCH  16  17
ENDBRANCH  15  16
ENDBRANCH  12  15
ENDBRANCH   6  11
ENDBRANCH   1   5
BRANCH   3  29
ATOM     29  C   UNL A   1      32.349  29.886  27.040  1.00  0.00     0.118 C 
BRANCH  29  30
ATOM     30  C   UNL A   1      32.014  31.364  26.858  1.00  0.00     0.042 C 
BRANCH  30  31
ATOM     31  C   UNL A   1      33.112  32.296  27.359  1.00  0.00     0.118 C 
BRANCH  31  32
ATOM     32  N   UNL A   1      32.702  33.683  27.662  1.00  0.00    -0.352 N 
ATOM     33  C   UNL A   1      33.138  34.520  28.691  1.00  0.00     0.251 C 
ATOM     34  H   UNL A   1      32.031  34.071  27.054  1.00  0.00     0.163 HD
ATOM     35  O   UNL A   1      32.509  35.493  29.053  1.00  0.00    -0.269 OA
BRANCH  33  36
ATOM     36  C   UNL A   1      34.416  34.173  29.339  1.00  0.00     0.039 A 
ATOM     37  C   UNL A   1      34.512  33.274  30.408  1.00  0.00     0.014 A 
ATOM     38  C   UNL A   1      35.542  34.622  28.678  1.00  0.00     0.014 A 
ATOM     39  C   UNL A   1      35.763  32.731  30.704  1.00  0.00     0.010 A 
ATOM     40  C   UNL A   1      36.653  33.840  28.748  1.00  0.00     0.010 A 
ATOM     41  C   UNL A   1      36.826  32.989  29.829  1.00  0.00    -0.014 A 
BRANCH  41  42
ATOM     42  C   UNL A   1      38.124  32.335  29.913  1.00  0.00     0.031 A 
ATOM     43  C   UNL A   1      38.149  30.932  29.422  1.00  0.00     0.074 A 
ATOM     44  C   UNL A   1      39.254  33.046  30.142  1.00  0.00     0.049 A 
ATOM     45  N   UNL A   1      38.326  29.858  30.117  1.00  0.00    -0.248 NA
ATOM     46  C   UNL A   1      37.790  30.673  28.016  1.00  0.00     0.031 C 
ATOM     47  C   UNL A   1      39.408  34.503  30.300  1.00  0.00     0.029 A 
ATOM     48  N   UNL A   1      40.545  32.622  30.163  1.00  0.00    -0.354 N 
ATOM     49  C   UNL A   1      38.341  28.808  29.201  1.00  0.00     0.074 A 
ATOM     50  C   UNL A   1      37.795  29.337  27.981  1.00  0.00     0.031 C 
ATOM     51  C   UNL A   1      40.703  34.852  30.147  1.00  0.00     0.029 A 
ATOM     52  C   UNL A   1      41.493  33.640  30.091  1.00  0.00     0.049 A 
ATOM     53  H   UNL A   1      40.791  31.671  30.225  1.00  0.00     0.167 HD
ATOM     54  C   UNL A   1      39.060  27.678  29.453  1.00  0.00     0.037 A 
ATOM     55  C   UNL A   1      42.836  33.490  29.986  1.00  0.00     0.037 A 
ATOM     56  C   UNL A   1      39.441  27.616  30.845  1.00  0.00     0.049 A 
ATOM     57  C   UNL A   1      43.149  32.105  30.414  1.00  0.00     0.074 A 
ATOM     58  C   UNL A   1      38.754  27.607  32.043  1.00  0.00     0.029 A 
ATOM     59  N   UNL A   1      40.733  27.967  31.162  1.00  0.00    -0.354 N 
ATOM     60  N   UNL A   1      42.999  31.675  31.636  1.00  0.00    -0.248 NA
ATOM     61  C   UNL A   1      43.152  31.076  29.385  1.00  0.00     0.031 C 
ATOM     62  C   UNL A   1      39.528  28.428  32.917  1.00  0.00     0.029 A 
ATOM     63  C   UNL A   1      40.684  28.815  32.237  1.00  0.00     0.049 A 
ATOM     64  H   UNL A   1      41.546  27.663  30.698  1.00  0.00     0.167 HD
ATOM     65  C   UNL A   1      42.452  30.406  31.500  1.00  0.00     0.074 A 
ATOM     66  C   UNL A   1      42.646  30.062  30.091  1.00  0.00     0.031 C 
ATOM     67  C   UNL A   1      41.629  29.886  32.459  1.00  0.00     0.037 A 
BRANCH  54  68
ATOM     68  C   UNL A   1      39.770  26.850  28.403  1.00  0.00     0.057 A 
ATOM     69  C   UNL A   1      40.640  27.500  27.506  1.00  0.00     0.134 A 
ATOM     70  C   UNL A   1      39.422  25.533  28.039  1.00  0.00     0.134 A 
ATOM     71  F   UNL A   1      41.055  28.756  27.734  1.00  0.00    -0.206 F 
ATOM     72  C   UNL A   1      41.045  26.924  26.295  1.00  0.00     0.040 A 
ATOM     73  C   UNL A   1      39.861  24.930  26.858  1.00  0.00     0.040 A 
ATOM     74  F   UNL A   1      38.563  24.791  28.744  1.00  0.00    -0.206 F 
ATOM     75  C   UNL A   1      40.644  25.637  25.961  1.00  0.00     0.006 A 
ENDBRANCH  54  68
BRANCH  55  76
ATOM     76  C   UNL A   1      43.813  34.345  29.275  1.00  0.00     0.057 A 
ATOM     77  C   UNL A   1      43.972  34.264  27.885  1.00  0.00     0.134 A 
ATOM     78  C   UNL A   1      44.407  35.456  29.901  1.00  0.00     0.134 A 
ATOM     79  F   UNL A   1      43.411  33.261  27.195  1.00  0.00    -0.206 F 
ATOM     80  C   UNL A   1      44.656  35.246  27.155  1.00  0.00     0.040 A 
ATOM     81  C   UNL A   1      45.095  36.441  29.184  1.00  0.00     0.040 A 
ATOM     82  F   UNL A   1      44.259  35.668  31.217  1.00  0.00    -0.206 F 
ATOM     83  C   UNL A   1      45.208  36.346  27.803  1.00  0.00     0.006 A 
ENDBRANCH  55  76
BRANCH  67  84
ATOM     84  C   UNL A   1      41.526  30.614  33.775  1.00  0.00     0.057 A 
ATOM     85  C   UNL A   1      40.563  31.591  34.069  1.00  0.00     0.134 A 
ATOM     86  C   UNL A   1      42.333  30.191  34.835  1.00  0.00     0.134 A 
ATOM     87  F   UNL A   1      39.680  31.997  33.151  1.00  0.00    -0.206 F 
ATOM     88  C   UNL A   1      40.435  32.146  35.348  1.00  0.00     0.040 A 
ATOM     89  C   UNL A   1      42.195  30.712  36.124  1.00  0.00     0.040 A 
ATOM     90  F   UNL A   1      43.241  29.220  34.646  1.00  0.00    -0.206 F 
ATOM     91  C   UNL A   1      41.250  31.699  36.383  1.00  0.00     0.006 A 
ENDBRANCH  67  84
ENDBRANCH  41  42
ENDBRANCH  33  36
ENDBRANCH  31  32
ENDBRANCH  30  31
ENDBRANCH  29  30
ENDBRANCH   3  29
TORSDOF 15
ENDMDL
MODEL 3
REMARK VINA RESULT:     -13.0      2.239      5.926
REMARK SMILES Cc1nnc(SCC(=O)Nc2cccc(C(=O)NCCCNC(=O)c3ccc(-c4c5nc(c(-c6c(F)cccc6F)c6ccc([nH]6)c(-c6c(F)cccc6F)c6nc(c(-c7c(F)cccc7F)c7ccc4[nH]7)C=C6)C=C5)cc3)c2)n1-c1ccccc1
REMARK SMILES IDX 16 1 17 2 18 3 15 5 11 6 12 7 79 8 13 9 14 10 10 11 8 12
REMARK SMILES IDX 9 13 7 15 6 16 5 17 1 18 2 19 3 20 80 21 4 22 81 23 82 24
REMARK SMILES IDX 86 25 83 26 85 27 84 28 19 29 20 30 21 31 22 32 23 33 24 35
REMARK SMILES IDX 25 36 26 37 78 38 27 39 77 40 28 41 29 42 30 43 71 44 31 45
REMARK SMILES IDX 76 46 70 47 72 48 32 49 75 50 69 51 68 52 33 54 59 55 42 56
REMARK SMILES IDX 58 57 43 58 46 59 57 60 73 61 44 62 45 63 56 65 74 66 47 67
REMARK SMILES IDX 34 68 35 69 40 70 36 71 37 72 39 73 41 74 38 75 60 76 61 77
REMARK SMILES IDX 66 78 62 79 63 80 65 81 67 82 64 83 48 84 49 85 54 86 50 87
REMARK SMILES IDX 51 88 53 89 55 90 52 91
REMARK H PARENT 18 4 10 14 22 34 72 53 46 64
REMARK Flexibility Score: inf
ROOT
ATOM      1  C   UNL A   1      38.407  22.879  26.058  1.00  0.00     0.251 C 
ATOM      2  O   UNL A   1      38.141  24.048  25.768  1.00  0.00    -0.269 OA
ATOM      3  N   UNL A   1      39.565  22.690  26.755  1.00  0.00    -0.352 N 
ATOM      4  H   UNL A   1      40.033  23.534  26.953  1.00  0.00     0.163 HD
ENDROOT
BRANCH   1   5
ATOM      5  C   UNL A   1      37.459  21.801  25.631  1.00  0.00     0.041 A 
ATOM      6  C   UNL A   1      35.316  20.686  25.414  1.00  0.00     0.041 A 
ATOM      7  C   UNL A   1      35.943  19.567  24.858  1.00  0.00     0.026 A 
ATOM      8  C   UNL A   1      36.072  21.785  25.820  1.00  0.00     0.040 A 
ATOM      9  C   UNL A   1      37.310  19.576  24.630  1.00  0.00     0.003 A 
ATOM     10  C   UNL A   1      38.057  20.686  25.010  1.00  0.00     0.014 A 
BRANCH   6  11
ATOM     11  N   UNL A   1      33.938  20.583  25.589  1.00  0.00    -0.325 N 
ATOM     12  C   UNL A   1      32.870  21.224  25.056  1.00  0.00     0.234 C 
ATOM     13  O   UNL A   1      31.791  20.722  25.391  1.00  0.00    -0.274 OA
ATOM     14  H   UNL A   1      33.685  19.893  26.244  1.00  0.00     0.169 HD
BRANCH  12  15
ATOM     15  C   UNL A   1      32.934  22.232  23.936  1.00  0.00     0.178 C 
BRANCH  15  16
ATOM     16  S   UNL A   1      32.132  23.828  24.014  1.00  0.00    -0.076 SA
BRANCH  16  17
ATOM     17  C   UNL A   1      32.981  25.099  23.211  1.00  0.00     0.196 A 
ATOM     18  C   UNL A   1      34.002  28.503  22.433  1.00  0.00     0.090 C 
ATOM     19  C   UNL A   1      33.603  27.084  22.499  1.00  0.00     0.135 A 
ATOM     20  N   UNL A   1      33.619  26.260  21.474  1.00  0.00    -0.134 NA
ATOM     21  N   UNL A   1      33.171  26.399  23.621  1.00  0.00    -0.274 N 
ATOM     22  N   UNL A   1      33.203  25.046  21.920  1.00  0.00    -0.123 NA
BRANCH  21  23
ATOM     23  C   UNL A   1      32.854  26.921  24.872  1.00  0.00     0.049 A 
ATOM     24  C   UNL A   1      31.585  27.461  25.042  1.00  0.00     0.027 A 
ATOM     25  C   UNL A   1      33.889  27.163  25.773  1.00  0.00     0.027 A 
ATOM     26  C   UNL A   1      31.379  28.369  26.074  1.00  0.00     0.002 A 
ATOM     27  C   UNL A   1      33.657  28.037  26.829  1.00  0.00     0.002 A 
ATOM     28  C   UNL A   1      32.417  28.669  26.955  1.00  0.00     0.000 A 
ENDBRANCH  21  23
ENDBRANCH  16  17
ENDBRANCH  15  16
ENDBRANCH  12  15
ENDBRANCH   6  11
ENDBRANCH   1   5
BRANCH   3  29
ATOM     29  C   UNL A   1      40.262  21.529  27.267  1.00  0.00     0.118 C 
BRANCH  29  30
ATOM     30  C   UNL A   1      41.246  20.980  26.237  1.00  0.00     0.042 C 
BRANCH  30  31
ATOM     31  C   UNL A   1      42.494  20.369  26.865  1.00  0.00     0.118 C 
BRANCH  31  32
ATOM     32  N   UNL A   1      43.526  19.883  25.925  1.00  0.00    -0.352 N 
ATOM     33  C   UNL A   1      44.287  20.609  25.008  1.00  0.00     0.251 C 
ATOM     34  H   UNL A   1      43.701  18.914  25.950  1.00  0.00     0.163 HD
ATOM     35  O   UNL A   1      44.848  20.089  24.065  1.00  0.00    -0.269 OA
BRANCH  33  36
ATOM     36  C   UNL A   1      44.388  22.064  25.226  1.00  0.00     0.039 A 
ATOM     37  C   UNL A   1      43.590  22.996  24.551  1.00  0.00     0.014 A 
ATOM     38  C   UNL A   1      45.167  22.436  26.303  1.00  0.00     0.014 A 
ATOM     39  C   UNL A   1      43.489  24.283  25.078  1.00  0.00     0.010 A 
ATOM     40  C   UNL A   1      44.791  23.554  26.981  1.00  0.00     0.010 A 
ATOM     41  C   UNL A   1      44.064  24.539  26.331  1.00  0.00    -0.014 A 
BRANCH  41  42
ATOM     42  C   UNL A   1      43.870  25.774  27.077  1.00  0.00     0.031 A 
ATOM     43  C   UNL A   1      44.826  26.862  26.742  1.00  0.00     0.074 A 
ATOM     44  C   UNL A   1      42.737  25.993  27.788  1.00  0.00     0.049 A 
ATOM     45  N   UNL A   1      45.752  27.355  27.496  1.00  0.00    -0.248 NA
ATOM     46  C   UNL A   1      44.860  27.367  25.359  1.00  0.00     0.031 C 
ATOM     47  C   UNL A   1      41.550  25.129  27.916  1.00  0.00     0.029 A 
ATOM     48  N   UNL A   1      42.350  27.107  28.461  1.00  0.00    -0.354 N 
ATOM     49  C   UNL A   1      46.325  28.395  26.767  1.00  0.00     0.074 A 
ATOM     50  C   UNL A   1      45.895  28.211  25.408  1.00  0.00     0.031 C 
ATOM     51  C   UNL A   1      40.509  25.841  28.396  1.00  0.00     0.029 A 
ATOM     52  C   UNL A   1      41.000  27.140  28.804  1.00  0.00     0.049 A 
ATOM     53  H   UNL A   1      42.974  27.834  28.690  1.00  0.00     0.167 HD
ATOM     54  C   UNL A   1      46.873  29.468  27.403  1.00  0.00     0.037 A 
ATOM     55  C   UNL A   1      40.335  28.172  29.378  1.00  0.00     0.037 A 
ATOM     56  C   UNL A   1      47.075  29.182  28.805  1.00  0.00     0.049 A 
ATOM     57  C   UNL A   1      41.358  29.059  29.983  1.00  0.00     0.074 A 
ATOM     58  C   UNL A   1      47.784  28.231  29.512  1.00  0.00     0.029 A 
ATOM     59  N   UNL A   1      46.157  29.694  29.692  1.00  0.00    -0.354 N 
ATOM     60  N   UNL A   1      42.102  28.716  30.999  1.00  0.00    -0.248 NA
ATOM     61  C   UNL A   1      41.891  30.125  29.149  1.00  0.00     0.031 C 
ATOM     62  C   UNL A   1      46.936  27.876  30.604  1.00  0.00     0.029 A 
ATOM     63  C   UNL A   1      45.803  28.691  30.554  1.00  0.00     0.049 A 
ATOM     64  H   UNL A   1      45.816  30.618  29.704  1.00  0.00     0.167 HD
ATOM     65  C   UNL A   1      43.367  29.193  30.686  1.00  0.00     0.074 A 
ATOM     66  C   UNL A   1      43.157  30.121  29.575  1.00  0.00     0.031 C 
ATOM     67  C   UNL A   1      44.491  28.567  31.148  1.00  0.00     0.037 A 
BRANCH  54  68
ATOM     68  C   UNL A   1      46.846  30.890  26.885  1.00  0.00     0.057 A 
ATOM     69  C   UNL A   1      48.033  31.648  26.926  1.00  0.00     0.134 A 
ATOM     70  C   UNL A   1      45.677  31.638  26.636  1.00  0.00     0.134 A 
ATOM     71  F   UNL A   1      49.219  31.060  27.151  1.00  0.00    -0.206 F 
ATOM     72  C   UNL A   1      48.041  33.045  26.833  1.00  0.00     0.040 A 
ATOM     73  C   UNL A   1      45.680  33.028  26.490  1.00  0.00     0.040 A 
ATOM     74  F   UNL A   1      44.457  31.090  26.618  1.00  0.00    -0.206 F 
ATOM     75  C   UNL A   1      46.858  33.742  26.628  1.00  0.00     0.006 A 
ENDBRANCH  54  68
BRANCH  55  76
ATOM     76  C   UNL A   1      38.929  28.591  29.187  1.00  0.00     0.057 A 
ATOM     77  C   UNL A   1      38.028  28.623  30.261  1.00  0.00     0.134 A 
ATOM     78  C   UNL A   1      38.510  29.241  28.013  1.00  0.00     0.134 A 
ATOM     79  F   UNL A   1      38.353  28.063  31.436  1.00  0.00    -0.206 F 
ATOM     80  C   UNL A   1      36.797  29.287  30.183  1.00  0.00     0.040 A 
ATOM     81  C   UNL A   1      37.282  29.905  27.919  1.00  0.00     0.040 A 
ATOM     82  F   UNL A   1      39.320  29.331  26.947  1.00  0.00    -0.206 F 
ATOM     83  C   UNL A   1      36.426  29.942  29.013  1.00  0.00     0.006 A 
ENDBRANCH  55  76
BRANCH  67  84
ATOM     84  C   UNL A   1      44.325  27.501  32.201  1.00  0.00     0.057 A 
ATOM     85  C   UNL A   1      44.244  26.125  31.934  1.00  0.00     0.134 A 
ATOM     86  C   UNL A   1      44.414  27.873  33.546  1.00  0.00     0.134 A 
ATOM     87  F   UNL A   1      44.249  25.659  30.681  1.00  0.00    -0.206 F 
ATOM     88  C   UNL A   1      44.215  25.171  32.957  1.00  0.00     0.040 A 
ATOM     89  C   UNL A   1      44.419  26.929  34.575  1.00  0.00     0.040 A 
ATOM     90  F   UNL A   1      44.550  29.166  33.880  1.00  0.00    -0.206 F 
ATOM     91  C   UNL A   1      44.311  25.574  34.284  1.00  0.00     0.006 A 
ENDBRANCH  67  84
ENDBRANCH  41  42
ENDBRANCH  33  36
ENDBRANCH  31  32
ENDBRANCH  30  31
ENDBRANCH  29  30
ENDBRANCH   3  29
TORSDOF 15
ENDMDL
