MODEL 1
REMARK VINA RESULT:     -11.2      0.000      0.000
REMARK SMILES CCN(Cc1ccccn1)C(=O)N1CCC[C@H](C(=O)NCCCNC(=O)c2ccc(-c3c4nc(c(-c5c(F)cccc5F)c5ccc([nH]5)c(-c5c(F)cccc5F)c5nc(c(-c6c(F)cccc6F)c6ccc3[nH]6)C=C5)C=C4)cc2)C1
REMARK SMILES IDX 21 1 20 2 18 3 19 4 17 6 13 7 14 8 81 9 15 10 16 11 11 12
REMARK SMILES IDX 12 13 3 14 2 15 1 16 4 17 5 18 6 19 10 20 7 21 9 22 8 23
REMARK SMILES IDX 22 24 23 25 24 26 25 27 26 29 27 30 28 31 80 32 29 33 79 34
REMARK SMILES IDX 30 35 31 36 32 37 73 38 33 39 78 40 72 41 74 42 34 43 77 44
REMARK SMILES IDX 71 45 70 46 35 48 61 49 44 50 60 51 45 52 48 53 59 54 75 55
REMARK SMILES IDX 46 56 47 57 58 59 76 60 49 61 36 62 37 63 42 64 38 65 39 66
REMARK SMILES IDX 41 67 43 68 40 69 62 70 63 71 68 72 64 73 65 74 67 75 69 76
REMARK SMILES IDX 66 77 50 78 51 79 56 80 52 81 53 82 55 83 57 84 54 85
REMARK H PARENT 20 5 24 28 74 47 48 58
REMARK Flexibility Score: inf
ROOT
ATOM      1  C   UNL A   1      36.594  20.862  25.080  1.00  0.00     0.117 C 
ENDROOT
BRANCH   1   2
ATOM      2  N   UNL A   1      36.590  21.874  24.053  1.00  0.00    -0.356 N 
ATOM      3  C   UNL A   1      35.639  22.788  23.732  1.00  0.00     0.224 C 
ATOM      4  O   UNL A   1      35.986  23.670  22.935  1.00  0.00    -0.275 OA
ATOM      5  H   UNL A   1      37.402  21.907  23.498  1.00  0.00     0.163 HD
BRANCH   3   6
ATOM      6  C   UNL A   1      34.191  22.780  24.262  1.00  0.00     0.098 C 
ATOM      7  N   UNL A   1      32.885  24.873  23.699  1.00  0.00    -0.324 N 
ATOM      8  C   UNL A   1      32.602  25.137  25.112  1.00  0.00     0.121 C 
ATOM      9  C   UNL A   1      33.148  23.476  23.392  1.00  0.00     0.134 C 
ATOM     10  C   UNL A   1      33.587  24.482  26.091  1.00  0.00     0.022 C 
ATOM     11  C   UNL A   1      34.009  23.058  25.747  1.00  0.00     0.017 C 
BRANCH   7  12
ATOM     12  C   UNL A   1      33.131  25.941  22.839  1.00  0.00     0.320 C 
ATOM     13  O   UNL A   1      34.030  25.837  21.998  1.00  0.00    -0.248 OA
BRANCH  12  14
ATOM     14  N   UNL A   1      32.346  27.081  22.893  1.00  0.00    -0.319 N 
BRANCH  14  15
ATOM     15  C   UNL A   1      30.969  27.016  22.380  1.00  0.00     0.118 C 
ATOM     16  C   UNL A   1      30.223  28.347  22.373  1.00  0.00     0.027 C 
ENDBRANCH  14  15
BRANCH  14  17
ATOM     17  C   UNL A   1      32.826  28.431  23.231  1.00  0.00     0.177 C 
BRANCH  17  18
ATOM     18  C   UNL A   1      32.896  28.773  24.721  1.00  0.00     0.060 A 
ATOM     19  C   UNL A   1      34.111  28.574  25.378  1.00  0.00     0.026 A 
ATOM     20  N   UNL A   1      31.741  29.013  25.403  1.00  0.00    -0.259 NA
ATOM     21  C   UNL A   1      34.117  28.472  26.767  1.00  0.00     0.004 A 
ATOM     22  C   UNL A   1      31.773  28.878  26.750  1.00  0.00     0.111 A 
ATOM     23  C   UNL A   1      32.921  28.584  27.464  1.00  0.00     0.020 A 
ENDBRANCH  17  18
ENDBRANCH  14  17
ENDBRANCH  12  14
ENDBRANCH   7  12
ENDBRANCH   3   6
ENDBRANCH   1   2
BRANCH   1  24
ATOM     24  C   UNL A   1      37.735  19.872  24.972  1.00  0.00     0.042 C 
BRANCH  24  25
ATOM     25  C   UNL A   1      38.962  20.294  25.747  1.00  0.00     0.118 C 
BRANCH  25  26
ATOM     26  N   UNL A   1      39.966  19.235  25.835  1.00  0.00    -0.352 N 
ATOM     27  C   UNL A   1      41.318  19.299  26.066  1.00  0.00     0.251 C 
ATOM     28  H   UNL A   1      39.614  18.324  25.707  1.00  0.00     0.163 HD
ATOM     29  O   UNL A   1      42.010  18.287  25.966  1.00  0.00    -0.269 OA
BRANCH  27  30
ATOM     30  C   UNL A   1      41.956  20.587  26.406  1.00  0.00     0.039 A 
ATOM     31  C   UNL A   1      42.376  21.434  25.376  1.00  0.00     0.014 A 
ATOM     32  C   UNL A   1      42.128  20.971  27.735  1.00  0.00     0.014 A 
ATOM     33  C   UNL A   1      42.894  22.693  25.684  1.00  0.00     0.010 A 
ATOM     34  C   UNL A   1      42.511  22.270  28.035  1.00  0.00     0.010 A 
ATOM     35  C   UNL A   1      42.922  23.138  27.015  1.00  0.00    -0.014 A 
BRANCH  35  36
ATOM     36  C   UNL A   1      43.413  24.491  27.377  1.00  0.00     0.031 A 
ATOM     37  C   UNL A   1      42.434  25.548  27.810  1.00  0.00     0.074 A 
ATOM     38  C   UNL A   1      44.720  24.788  27.242  1.00  0.00     0.049 A 
ATOM     39  N   UNL A   1      42.644  26.810  28.085  1.00  0.00    -0.248 NA
ATOM     40  C   UNL A   1      41.021  25.143  27.908  1.00  0.00     0.031 C 
ATOM     41  C   UNL A   1      45.756  23.867  26.771  1.00  0.00     0.029 A 
ATOM     42  N   UNL A   1      45.398  25.956  27.482  1.00  0.00    -0.354 N 
ATOM     43  C   UNL A   1      41.393  27.348  28.361  1.00  0.00     0.074 A 
ATOM     44  C   UNL A   1      40.422  26.299  28.147  1.00  0.00     0.031 C 
ATOM     45  C   UNL A   1      46.943  24.493  26.790  1.00  0.00     0.029 A 
ATOM     46  C   UNL A   1      46.746  25.870  27.230  1.00  0.00     0.049 A 
ATOM     47  H   UNL A   1      44.962  26.777  27.802  1.00  0.00     0.167 HD
ATOM     48  C   UNL A   1      41.082  28.594  28.788  1.00  0.00     0.037 A 
ATOM     49  C   UNL A   1      47.713  26.800  27.340  1.00  0.00     0.037 A 
ATOM     50  C   UNL A   1      42.058  29.622  29.030  1.00  0.00     0.049 A 
ATOM     51  C   UNL A   1      47.348  28.177  27.820  1.00  0.00     0.074 A 
ATOM     52  C   UNL A   1      41.862  30.898  29.528  1.00  0.00     0.029 A 
ATOM     53  N   UNL A   1      43.418  29.490  28.786  1.00  0.00    -0.354 N 
ATOM     54  N   UNL A   1      46.171  28.652  28.150  1.00  0.00    -0.248 NA
ATOM     55  C   UNL A   1      48.445  29.145  27.950  1.00  0.00     0.031 C 
ATOM     56  C   UNL A   1      43.097  31.555  29.535  1.00  0.00     0.029 A 
ATOM     57  C   UNL A   1      44.070  30.670  29.099  1.00  0.00     0.049 A 
ATOM     58  H   UNL A   1      43.854  28.677  28.443  1.00  0.00     0.167 HD
ATOM     59  C   UNL A   1      46.388  29.964  28.552  1.00  0.00     0.074 A 
ATOM     60  C   UNL A   1      47.813  30.203  28.438  1.00  0.00     0.031 C 
ATOM     61  C   UNL A   1      45.491  30.887  28.978  1.00  0.00     0.037 A 
BRANCH  48  62
ATOM     62  C   UNL A   1      39.629  28.902  29.018  1.00  0.00     0.057 A 
ATOM     63  C   UNL A   1      39.027  28.754  30.276  1.00  0.00     0.134 A 
ATOM     64  C   UNL A   1      38.819  29.355  27.968  1.00  0.00     0.134 A 
ATOM     65  F   UNL A   1      39.739  28.312  31.323  1.00  0.00    -0.206 F 
ATOM     66  C   UNL A   1      37.667  29.004  30.471  1.00  0.00     0.040 A 
ATOM     67  C   UNL A   1      37.467  29.640  28.159  1.00  0.00     0.040 A 
ATOM     68  F   UNL A   1      39.329  29.526  26.739  1.00  0.00    -0.206 F 
ATOM     69  C   UNL A   1      36.884  29.454  29.411  1.00  0.00     0.006 A 
ENDBRANCH  48  62
BRANCH  49  70
ATOM     70  C   UNL A   1      49.119  26.447  27.018  1.00  0.00     0.057 A 
ATOM     71  C   UNL A   1      49.648  26.678  25.743  1.00  0.00     0.134 A 
ATOM     72  C   UNL A   1      49.973  25.887  27.977  1.00  0.00     0.134 A 
ATOM     73  F   UNL A   1      48.877  27.199  24.777  1.00  0.00    -0.206 F 
ATOM     74  C   UNL A   1      50.969  26.352  25.427  1.00  0.00     0.040 A 
ATOM     75  C   UNL A   1      51.302  25.581  27.683  1.00  0.00     0.040 A 
ATOM     76  F   UNL A   1      49.531  25.649  29.220  1.00  0.00    -0.206 F 
ATOM     77  C   UNL A   1      51.802  25.808  26.402  1.00  0.00     0.006 A 
ENDBRANCH  49  70
BRANCH  61  78
ATOM     78  C   UNL A   1      46.026  32.229  29.383  1.00  0.00     0.057 A 
ATOM     79  C   UNL A   1      46.115  33.295  28.479  1.00  0.00     0.134 A 
ATOM     80  C   UNL A   1      46.417  32.468  30.707  1.00  0.00     0.134 A 
ATOM     81  F   UNL A   1      45.767  33.129  27.194  1.00  0.00    -0.206 F 
ATOM     82  C   UNL A   1      46.596  34.546  28.873  1.00  0.00     0.040 A 
ATOM     83  C   UNL A   1      46.870  33.722  31.119  1.00  0.00     0.040 A 
ATOM     84  F   UNL A   1      46.348  31.493  31.625  1.00  0.00    -0.206 F 
ATOM     85  C   UNL A   1      46.967  34.763  30.199  1.00  0.00     0.006 A 
ENDBRANCH  61  78
ENDBRANCH  35  36
ENDBRANCH  27  30
ENDBRANCH  25  26
ENDBRANCH  24  25
ENDBRANCH   1  24
TORSDOF 15
ENDMDL
MODEL 2
REMARK VINA RESULT:     -11.2      1.757      6.396
REMARK SMILES CCN(Cc1ccccn1)C(=O)N1CCC[C@H](C(=O)NCCCNC(=O)c2ccc(-c3c4nc(c(-c5c(F)cccc5F)c5ccc([nH]5)c(-c5c(F)cccc5F)c5nc(c(-c6c(F)cccc6F)c6ccc3[nH]6)C=C5)C=C4)cc2)C1
REMARK SMILES IDX 21 1 20 2 18 3 19 4 17 6 13 7 14 8 81 9 15 10 16 11 11 12
REMARK SMILES IDX 12 13 3 14 2 15 1 16 4 17 5 18 6 19 10 20 7 21 9 22 8 23
REMARK SMILES IDX 22 24 23 25 24 26 25 27 26 29 27 30 28 31 80 32 29 33 79 34
REMARK SMILES IDX 30 35 31 36 32 37 73 38 33 39 78 40 72 41 74 42 34 43 77 44
REMARK SMILES IDX 71 45 70 46 35 48 61 49 44 50 60 51 45 52 48 53 59 54 75 55
REMARK SMILES IDX 46 56 47 57 58 59 76 60 49 61 36 62 37 63 42 64 38 65 39 66
REMARK SMILES IDX 41 67 43 68 40 69 62 70 63 71 68 72 64 73 65 74 67 75 69 76
REMARK SMILES IDX 66 77 50 78 51 79 56 80 52 81 53 82 55 83 57 84 54 85
REMARK H PARENT 20 5 24 28 74 47 48 58
REMARK Flexibility Score: inf
ROOT
ATOM      1  C   UNL A   1      37.233  21.010  24.592  1.00  0.00     0.117 C 
ENDROOT
BRANCH   1   2
ATOM      2  N   UNL A   1      36.456  21.537  25.687  1.00  0.00    -0.356 N 
ATOM      3  C   UNL A   1      35.112  21.675  25.816  1.00  0.00     0.224 C 
ATOM      4  O   UNL A   1      34.706  21.970  26.949  1.00  0.00    -0.275 OA
ATOM      5  H   UNL A   1      36.982  21.845  26.460  1.00  0.00     0.163 HD
BRANCH   3   6
ATOM      6  C   UNL A   1      34.093  21.518  24.669  1.00  0.00     0.098 C 
ATOM      7  N   UNL A   1      33.079  23.703  23.898  1.00  0.00    -0.324 N 
ATOM      8  C   UNL A   1      31.720  23.224  24.162  1.00  0.00     0.121 C 
ATOM      9  C   UNL A   1      34.048  22.649  23.645  1.00  0.00     0.134 C 
ATOM     10  C   UNL A   1      31.637  22.078  25.180  1.00  0.00     0.022 C 
ATOM     11  C   UNL A   1      32.713  21.005  25.052  1.00  0.00     0.017 C 
BRANCH   7  12
ATOM     12  C   UNL A   1      33.396  25.037  24.149  1.00  0.00     0.320 C 
ATOM     13  O   UNL A   1      34.300  25.296  24.949  1.00  0.00    -0.248 OA
BRANCH  12  14
ATOM     14  N   UNL A   1      32.740  26.054  23.473  1.00  0.00    -0.319 N 
BRANCH  14  15
ATOM     15  C   UNL A   1      33.249  26.471  22.158  1.00  0.00     0.118 C 
ATOM     16  C   UNL A   1      32.662  25.711  20.972  1.00  0.00     0.027 C 
ENDBRANCH  14  15
BRANCH  14  17
ATOM     17  C   UNL A   1      31.689  26.913  24.041  1.00  0.00     0.177 C 
BRANCH  17  18
ATOM     18  C   UNL A   1      32.108  27.825  25.197  1.00  0.00     0.060 A 
ATOM     19  C   UNL A   1      31.698  27.474  26.485  1.00  0.00     0.026 A 
ATOM     20  N   UNL A   1      32.635  29.051  24.920  1.00  0.00    -0.259 NA
ATOM     21  C   UNL A   1      31.691  28.450  27.478  1.00  0.00     0.004 A 
ATOM     22  C   UNL A   1      32.589  29.986  25.899  1.00  0.00     0.111 A 
ATOM     23  C   UNL A   1      32.103  29.740  27.171  1.00  0.00     0.020 A 
ENDBRANCH  17  18
ENDBRANCH  14  17
ENDBRANCH  12  14
ENDBRANCH   7  12
ENDBRANCH   3   6
ENDBRANCH   1   2
BRANCH   1  24
ATOM     24  C   UNL A   1      38.079  19.807  24.954  1.00  0.00     0.042 C 
BRANCH  24  25
ATOM     25  C   UNL A   1      39.139  20.117  25.986  1.00  0.00     0.118 C 
BRANCH  25  26
ATOM     26  N   UNL A   1      40.331  19.283  25.839  1.00  0.00    -0.352 N 
ATOM     27  C   UNL A   1      41.661  19.583  26.009  1.00  0.00     0.251 C 
ATOM     28  H   UNL A   1      40.150  18.352  25.574  1.00  0.00     0.163 HD
ATOM     29  O   UNL A   1      42.522  18.760  25.701  1.00  0.00    -0.269 OA
BRANCH  27  30
ATOM     30  C   UNL A   1      42.066  20.903  26.532  1.00  0.00     0.039 A 
ATOM     31  C   UNL A   1      42.427  21.911  25.634  1.00  0.00     0.014 A 
ATOM     32  C   UNL A   1      42.078  21.155  27.903  1.00  0.00     0.014 A 
ATOM     33  C   UNL A   1      42.721  23.190  26.113  1.00  0.00     0.010 A 
ATOM     34  C   UNL A   1      42.235  22.453  28.365  1.00  0.00     0.010 A 
ATOM     35  C   UNL A   1      42.583  23.482  27.479  1.00  0.00    -0.014 A 
BRANCH  35  36
ATOM     36  C   UNL A   1      42.832  24.841  28.017  1.00  0.00     0.031 A 
ATOM     37  C   UNL A   1      44.221  25.229  28.449  1.00  0.00     0.074 A 
ATOM     38  C   UNL A   1      41.803  25.694  28.187  1.00  0.00     0.049 A 
ATOM     39  N   UNL A   1      44.632  26.331  29.022  1.00  0.00    -0.248 NA
ATOM     40  C   UNL A   1      45.282  24.227  28.249  1.00  0.00     0.031 C 
ATOM     41  C   UNL A   1      40.403  25.411  27.865  1.00  0.00     0.029 A 
ATOM     42  N   UNL A   1      41.777  26.973  28.683  1.00  0.00    -0.354 N 
ATOM     43  C   UNL A   1      45.987  26.141  29.270  1.00  0.00     0.074 A 
ATOM     44  C   UNL A   1      46.310  24.795  28.857  1.00  0.00     0.031 C 
ATOM     45  C   UNL A   1      39.661  26.495  28.138  1.00  0.00     0.029 A 
ATOM     46  C   UNL A   1      40.522  27.532  28.696  1.00  0.00     0.049 A 
ATOM     47  H   UNL A   1      42.580  27.444  29.001  1.00  0.00     0.167 HD
ATOM     48  C   UNL A   1      46.888  27.021  29.765  1.00  0.00     0.037 A 
ATOM     49  C   UNL A   1      40.114  28.745  29.114  1.00  0.00     0.037 A 
ATOM     50  C   UNL A   1      46.564  28.370  30.143  1.00  0.00     0.049 A 
ATOM     51  C   UNL A   1      41.132  29.708  29.656  1.00  0.00     0.074 A 
ATOM     52  C   UNL A   1      47.411  29.367  30.593  1.00  0.00     0.029 A 
ATOM     53  N   UNL A   1      45.285  28.908  30.119  1.00  0.00    -0.354 N 
ATOM     54  N   UNL A   1      42.423  29.544  29.816  1.00  0.00    -0.248 NA
ATOM     55  C   UNL A   1      40.638  31.029  30.071  1.00  0.00     0.031 C 
ATOM     56  C   UNL A   1      46.635  30.492  30.890  1.00  0.00     0.029 A 
ATOM     57  C   UNL A   1      45.315  30.217  30.570  1.00  0.00     0.049 A 
ATOM     58  H   UNL A   1      44.477  28.431  29.823  1.00  0.00     0.167 HD
ATOM     59  C   UNL A   1      42.901  30.746  30.323  1.00  0.00     0.074 A 
ATOM     60  C   UNL A   1      41.761  31.634  30.429  1.00  0.00     0.031 C 
ATOM     61  C   UNL A   1      44.168  31.085  30.667  1.00  0.00     0.037 A 
BRANCH  48  62
ATOM     62  C   UNL A   1      48.305  26.542  29.921  1.00  0.00     0.057 A 
ATOM     63  C   UNL A   1      49.267  26.727  28.918  1.00  0.00     0.134 A 
ATOM     64  C   UNL A   1      48.714  25.889  31.091  1.00  0.00     0.134 A 
ATOM     65  F   UNL A   1      48.942  27.332  27.766  1.00  0.00    -0.206 F 
ATOM     66  C   UNL A   1      50.570  26.244  29.055  1.00  0.00     0.040 A 
ATOM     67  C   UNL A   1      50.023  25.432  31.253  1.00  0.00     0.040 A 
ATOM     68  F   UNL A   1      47.849  25.683  32.095  1.00  0.00    -0.206 F 
ATOM     69  C   UNL A   1      50.952  25.598  30.228  1.00  0.00     0.006 A 
ENDBRANCH  48  62
BRANCH  49  70
ATOM     70  C   UNL A   1      38.682  29.121  29.004  1.00  0.00     0.057 A 
ATOM     71  C   UNL A   1      38.138  29.543  27.785  1.00  0.00     0.134 A 
ATOM     72  C   UNL A   1      37.819  29.054  30.105  1.00  0.00     0.134 A 
ATOM     73  F   UNL A   1      38.916  29.643  26.697  1.00  0.00    -0.206 F 
ATOM     74  C   UNL A   1      36.792  29.899  27.668  1.00  0.00     0.040 A 
ATOM     75  C   UNL A   1      36.466  29.380  29.996  1.00  0.00     0.040 A 
ATOM     76  F   UNL A   1      38.275  28.648  31.299  1.00  0.00    -0.206 F 
ATOM     77  C   UNL A   1      35.951  29.810  28.775  1.00  0.00     0.006 A 
ENDBRANCH  49  70
BRANCH  61  78
ATOM     78  C   UNL A   1      44.394  32.484  31.162  1.00  0.00     0.057 A 
ATOM     79  C   UNL A   1      44.663  33.545  30.289  1.00  0.00     0.134 A 
ATOM     80  C   UNL A   1      44.299  32.777  32.529  1.00  0.00     0.134 A 
ATOM     81  F   UNL A   1      44.778  33.329  28.970  1.00  0.00    -0.206 F 
ATOM     82  C   UNL A   1      44.852  34.846  30.760  1.00  0.00     0.040 A 
ATOM     83  C   UNL A   1      44.456  34.078  33.008  1.00  0.00     0.040 A 
ATOM     84  F   UNL A   1      44.035  31.808  33.418  1.00  0.00    -0.206 F 
ATOM     85  C   UNL A   1      44.740  35.116  32.123  1.00  0.00     0.006 A 
ENDBRANCH  61  78
ENDBRANCH  35  36
ENDBRANCH  27  30
ENDBRANCH  25  26
ENDBRANCH  24  25
ENDBRANCH   1  24
TORSDOF 15
ENDMDL
MODEL 3
REMARK VINA RESULT:     -11.1      4.586      9.048
REMARK SMILES CCN(Cc1ccccn1)C(=O)N1CCC[C@H](C(=O)NCCCNC(=O)c2ccc(-c3c4nc(c(-c5c(F)cccc5F)c5ccc([nH]5)c(-c5c(F)cccc5F)c5nc(c(-c6c(F)cccc6F)c6ccc3[nH]6)C=C5)C=C4)cc2)C1
REMARK SMILES IDX 21 1 20 2 18 3 19 4 17 6 13 7 14 8 81 9 15 10 16 11 11 12
REMARK SMILES IDX 12 13 3 14 2 15 1 16 4 17 5 18 6 19 10 20 7 21 9 22 8 23
REMARK SMILES IDX 22 24 23 25 24 26 25 27 26 29 27 30 28 31 80 32 29 33 79 34
REMARK SMILES IDX 30 35 31 36 32 37 73 38 33 39 78 40 72 41 74 42 34 43 77 44
REMARK SMILES IDX 71 45 70 46 35 48 61 49 44 50 60 51 45 52 48 53 59 54 75 55
REMARK SMILES IDX 46 56 47 57 58 59 76 60 49 61 36 62 37 63 42 64 38 65 39 66
REMARK SMILES IDX 41 67 43 68 40 69 62 70 63 71 68 72 64 73 65 74 67 75 69 76
REMARK SMILES IDX 66 77 50 78 51 79 56 80 52 81 53 82 55 83 57 84 54 85
REMARK H PARENT 20 5 24 28 74 47 48 58
REMARK Flexibility Score: inf
ROOT
ATOM      1  C   UNL A   1      31.448  30.631  26.390  1.00  0.00     0.117 C 
ENDROOT
BRANCH   1   2
ATOM      2  N   UNL A   1      31.329  30.120  25.047  1.00  0.00    -0.356 N 
ATOM      3  C   UNL A   1      32.066  29.178  24.403  1.00  0.00     0.224 C 
ATOM      4  O   UNL A   1      31.614  28.788  23.318  1.00  0.00    -0.275 OA
ATOM      5  H   UNL A   1      30.603  30.515  24.513  1.00  0.00     0.163 HD
BRANCH   3   6
ATOM      6  C   UNL A   1      33.403  28.603  24.912  1.00  0.00     0.098 C 
ATOM      7  N   UNL A   1      34.063  26.424  23.808  1.00  0.00    -0.324 N 
ATOM      8  C   UNL A   1      34.140  25.735  25.099  1.00  0.00     0.121 C 
ATOM      9  C   UNL A   1      34.255  27.863  23.884  1.00  0.00     0.134 C 
ATOM     10  C   UNL A   1      33.321  26.392  26.220  1.00  0.00     0.022 C 
ATOM     11  C   UNL A   1      33.374  27.915  26.269  1.00  0.00     0.017 C 
BRANCH   7  12
ATOM     12  C   UNL A   1      33.578  25.739  22.696  1.00  0.00     0.320 C 
ATOM     13  O   UNL A   1      33.595  26.299  21.595  1.00  0.00    -0.248 OA
BRANCH  12  14
ATOM     14  N   UNL A   1      33.131  24.433  22.815  1.00  0.00    -0.319 N 
BRANCH  14  15
ATOM     15  C   UNL A   1      34.121  23.346  22.827  1.00  0.00     0.118 C 
ATOM     16  C   UNL A   1      33.724  22.125  23.653  1.00  0.00     0.027 C 
ENDBRANCH  14  15
BRANCH  14  17
ATOM     17  C   UNL A   1      31.726  24.002  22.723  1.00  0.00     0.177 C 
BRANCH  17  18
ATOM     18  C   UNL A   1      30.818  24.397  23.889  1.00  0.00     0.060 A 
ATOM     19  C   UNL A   1      30.144  25.617  23.805  1.00  0.00     0.026 A 
ATOM     20  N   UNL A   1      30.885  23.693  25.053  1.00  0.00    -0.259 NA
ATOM     21  C   UNL A   1      29.656  26.199  24.972  1.00  0.00     0.004 A 
ATOM     22  C   UNL A   1      30.428  24.297  26.176  1.00  0.00     0.111 A 
ATOM     23  C   UNL A   1      29.838  25.549  26.186  1.00  0.00     0.020 A 
ENDBRANCH  17  18
ENDBRANCH  14  17
ENDBRANCH  12  14
ENDBRANCH   7  12
ENDBRANCH   3   6
ENDBRANCH   1   2
BRANCH   1  24
ATOM     24  C   UNL A   1      31.414  32.143  26.483  1.00  0.00     0.042 C 
BRANCH  24  25
ATOM     25  C   UNL A   1      32.670  32.728  27.089  1.00  0.00     0.118 C 
BRANCH  25  26
ATOM     26  N   UNL A   1      32.460  34.066  27.640  1.00  0.00    -0.352 N 
ATOM     27  C   UNL A   1      33.134  34.744  28.625  1.00  0.00     0.251 C 
ATOM     28  H   UNL A   1      31.712  34.563  27.237  1.00  0.00     0.163 HD
ATOM     29  O   UNL A   1      32.707  35.822  29.034  1.00  0.00    -0.269 OA
BRANCH  27  30
ATOM     30  C   UNL A   1      34.358  34.171  29.222  1.00  0.00     0.039 A 
ATOM     31  C   UNL A   1      34.253  33.385  30.372  1.00  0.00     0.014 A 
ATOM     32  C   UNL A   1      35.607  34.394  28.643  1.00  0.00     0.014 A 
ATOM     33  C   UNL A   1      35.390  32.761  30.890  1.00  0.00     0.010 A 
ATOM     34  C   UNL A   1      36.706  33.667  29.074  1.00  0.00     0.010 A 
ATOM     35  C   UNL A   1      36.618  32.861  30.217  1.00  0.00    -0.014 A 
BRANCH  35  36
ATOM     36  C   UNL A   1      37.835  32.168  30.705  1.00  0.00     0.031 A 
ATOM     37  C   UNL A   1      38.590  32.726  31.882  1.00  0.00     0.074 A 
ATOM     38  C   UNL A   1      38.302  31.090  30.047  1.00  0.00     0.049 A 
ATOM     39  N   UNL A   1      39.717  32.324  32.409  1.00  0.00    -0.248 NA
ATOM     40  C   UNL A   1      38.022  33.922  32.528  1.00  0.00     0.031 C 
ATOM     41  C   UNL A   1      37.694  30.493  28.856  1.00  0.00     0.029 A 
ATOM     42  N   UNL A   1      39.404  30.308  30.284  1.00  0.00    -0.354 N 
ATOM     43  C   UNL A   1      40.001  33.230  33.424  1.00  0.00     0.074 A 
ATOM     44  C   UNL A   1      38.972  34.243  33.391  1.00  0.00     0.031 C 
ATOM     45  C   UNL A   1      38.409  29.419  28.488  1.00  0.00     0.029 A 
ATOM     46  C   UNL A   1      39.550  29.278  29.387  1.00  0.00     0.049 A 
ATOM     47  H   UNL A   1      40.030  30.470  31.025  1.00  0.00     0.167 HD
ATOM     48  C   UNL A   1      41.010  33.202  34.327  1.00  0.00     0.037 A 
ATOM     49  C   UNL A   1      40.500  28.328  29.300  1.00  0.00     0.037 A 
ATOM     50  C   UNL A   1      42.012  32.172  34.373  1.00  0.00     0.049 A 
ATOM     51  C   UNL A   1      41.609  28.312  30.314  1.00  0.00     0.074 A 
ATOM     52  C   UNL A   1      43.039  32.008  35.285  1.00  0.00     0.029 A 
ATOM     53  N   UNL A   1      42.113  31.130  33.462  1.00  0.00    -0.354 N 
ATOM     54  N   UNL A   1      41.825  29.130  31.316  1.00  0.00    -0.248 NA
ATOM     55  C   UNL A   1      42.603  27.237  30.191  1.00  0.00     0.031 C 
ATOM     56  C   UNL A   1      43.793  30.896  34.894  1.00  0.00     0.029 A 
ATOM     57  C   UNL A   1      43.202  30.334  33.774  1.00  0.00     0.049 A 
ATOM     58  H   UNL A   1      41.501  30.979  32.706  1.00  0.00     0.167 HD
ATOM     59  C   UNL A   1      42.961  28.656  31.959  1.00  0.00     0.074 A 
ATOM     60  C   UNL A   1      43.379  27.468  31.240  1.00  0.00     0.031 C 
ATOM     61  C   UNL A   1      43.600  29.155  33.045  1.00  0.00     0.037 A 
BRANCH  48  62
ATOM     62  C   UNL A   1      41.069  34.320  35.330  1.00  0.00     0.057 A 
ATOM     63  C   UNL A   1      40.403  34.249  36.562  1.00  0.00     0.134 A 
ATOM     64  C   UNL A   1      41.802  35.483  35.062  1.00  0.00     0.134 A 
ATOM     65  F   UNL A   1      39.671  33.171  36.879  1.00  0.00    -0.206 F 
ATOM     66  C   UNL A   1      40.430  35.309  37.471  1.00  0.00     0.040 A 
ATOM     67  C   UNL A   1      41.865  36.535  35.978  1.00  0.00     0.040 A 
ATOM     68  F   UNL A   1      42.470  35.618  33.906  1.00  0.00    -0.206 F 
ATOM     69  C   UNL A   1      41.167  36.454  37.181  1.00  0.00     0.006 A 
ENDBRANCH  48  62
BRANCH  49  70
ATOM     70  C   UNL A   1      40.422  27.300  28.231  1.00  0.00     0.057 A 
ATOM     71  C   UNL A   1      41.096  27.470  27.015  1.00  0.00     0.134 A 
ATOM     72  C   UNL A   1      39.689  26.119  28.401  1.00  0.00     0.134 A 
ATOM     73  F   UNL A   1      41.802  28.587  26.786  1.00  0.00    -0.206 F 
ATOM     74  C   UNL A   1      41.032  26.510  26.002  1.00  0.00     0.040 A 
ATOM     75  C   UNL A   1      39.639  25.140  27.408  1.00  0.00     0.040 A 
ATOM     76  F   UNL A   1      39.030  25.890  29.545  1.00  0.00    -0.206 F 
ATOM     77  C   UNL A   1      40.307  25.338  26.201  1.00  0.00     0.006 A 
ENDBRANCH  49  70
BRANCH  61  78
ATOM     78  C   UNL A   1      44.800  28.402  33.543  1.00  0.00     0.057 A 
ATOM     79  C   UNL A   1      44.687  27.345  34.454  1.00  0.00     0.134 A 
ATOM     80  C   UNL A   1      46.081  28.715  33.068  1.00  0.00     0.134 A 
ATOM     81  F   UNL A   1      43.490  27.003  34.955  1.00  0.00    -0.206 F 
ATOM     82  C   UNL A   1      45.809  26.640  34.894  1.00  0.00     0.040 A 
ATOM     83  C   UNL A   1      47.205  27.997  33.477  1.00  0.00     0.040 A 
ATOM     84  F   UNL A   1      46.257  29.710  32.186  1.00  0.00    -0.206 F 
ATOM     85  C   UNL A   1      47.072  26.961  34.398  1.00  0.00     0.006 A 
ENDBRANCH  61  78
ENDBRANCH  35  36
ENDBRANCH  27  30
ENDBRANCH  25  26
ENDBRANCH  24  25
ENDBRANCH   1  24
TORSDOF 15
ENDMDL
