MODEL 1
REMARK VINA RESULT:     -10.8      0.000      0.000
REMARK SMILES C[C@@H](C(=O)NCCCNC(=O)c1ccc(-c2c3nc(c(-c4c(F)cccc4F)c4ccc([nH]4)c(-c4c(F)cccc4F)c4nc(c(-c5c(F)cccc5F)c5ccc2[nH]5)C=C4)C=C3)cc1)c1ccc(C[C@H]2CCCC2=O)cc1
REMARK SMILES IDX 6 1 5 2 3 3 4 4 2 6 1 7 66 8 67 9 78 10 68 11 77 12 69 13
REMARK SMILES IDX 70 14 71 15 72 16 75 17 73 18 74 19 76 20 7 21 8 22 9 23
REMARK SMILES IDX 10 24 11 26 12 27 13 28 65 29 14 30 64 31 15 32 16 33 17 34
REMARK SMILES IDX 58 35 18 36 63 37 57 38 59 39 19 40 62 41 56 42 55 43 20 45
REMARK SMILES IDX 46 46 29 47 45 48 30 49 33 50 44 51 60 52 31 53 32 54 43 56
REMARK SMILES IDX 61 57 34 58 21 59 22 60 27 61 23 62 24 63 26 64 28 65 25 66
REMARK SMILES IDX 47 67 48 68 53 69 49 70 50 71 52 72 54 73 51 74 35 75 36 76
REMARK SMILES IDX 41 77 37 78 38 79 40 80 42 81 39 82
REMARK H PARENT 5 5 9 25 59 44 33 55
REMARK Flexibility Score: inf
ROOT
ATOM      1  C   UNL A   1      33.587  34.744  28.952  1.00  0.00     0.117 C 
ENDROOT
BRANCH   1   2
ATOM      2  N   UNL A   1      33.604  36.055  29.567  1.00  0.00    -0.356 N 
ATOM      3  C   UNL A   1      33.085  36.475  30.757  1.00  0.00     0.227 C 
ATOM      4  O   UNL A   1      33.128  37.688  30.973  1.00  0.00    -0.274 OA
ATOM      5  H   UNL A   1      34.060  36.752  29.044  1.00  0.00     0.163 HD
BRANCH   3   6
ATOM      6  C   UNL A   1      32.522  35.451  31.757  1.00  0.00     0.105 C 
ATOM      7  C   UNL A   1      31.463  36.057  32.684  1.00  0.00     0.023 C 
BRANCH   6   8
ATOM      8  C   UNL A   1      33.634  34.806  32.577  1.00  0.00    -0.036 A 
ATOM      9  C   UNL A   1      34.440  35.575  33.427  1.00  0.00     0.005 A 
ATOM     10  C   UNL A   1      33.893  33.433  32.467  1.00  0.00     0.005 A 
ATOM     11  C   UNL A   1      35.468  34.989  34.159  1.00  0.00     0.004 A 
ATOM     12  C   UNL A   1      34.946  32.850  33.178  1.00  0.00     0.004 A 
ATOM     13  C   UNL A   1      35.754  33.627  34.018  1.00  0.00    -0.047 A 
BRANCH  13  14
ATOM     14  C   UNL A   1      36.933  33.021  34.739  1.00  0.00     0.047 C 
BRANCH  14  15
ATOM     15  C   UNL A   1      38.269  33.032  33.984  1.00  0.00     0.060 C 
ATOM     16  C   UNL A   1      38.312  32.248  32.669  1.00  0.00     0.012 C 
ATOM     17  C   UNL A   1      38.685  34.416  33.540  1.00  0.00     0.136 C 
ATOM     18  C   UNL A   1      38.103  33.265  31.551  1.00  0.00     0.009 C 
ATOM     19  C   UNL A   1      38.740  34.558  32.042  1.00  0.00     0.076 C 
ATOM     20  O   UNL A   1      38.963  35.323  34.317  1.00  0.00    -0.299 OA
ENDBRANCH  14  15
ENDBRANCH  13  14
ENDBRANCH   6   8
ENDBRANCH   3   6
ENDBRANCH   1   2
BRANCH   1  21
ATOM     21  C   UNL A   1      35.004  34.227  28.720  1.00  0.00     0.042 C 
BRANCH  21  22
ATOM     22  C   UNL A   1      35.263  32.856  29.334  1.00  0.00     0.118 C 
BRANCH  22  23
ATOM     23  N   UNL A   1      34.422  31.817  28.755  1.00  0.00    -0.352 N 
ATOM     24  C   UNL A   1      34.773  30.590  28.251  1.00  0.00     0.251 C 
ATOM     25  H   UNL A   1      33.461  32.027  28.718  1.00  0.00     0.163 HD
ATOM     26  O   UNL A   1      33.952  29.928  27.621  1.00  0.00    -0.269 OA
BRANCH  24  27
ATOM     27  C   UNL A   1      36.139  30.071  28.454  1.00  0.00     0.039 A 
ATOM     28  C   UNL A   1      37.054  30.130  27.400  1.00  0.00     0.014 A 
ATOM     29  C   UNL A   1      36.513  29.516  29.681  1.00  0.00     0.014 A 
ATOM     30  C   UNL A   1      38.365  29.688  27.596  1.00  0.00     0.010 A 
ATOM     31  C   UNL A   1      37.838  29.156  29.899  1.00  0.00     0.010 A 
ATOM     32  C   UNL A   1      38.774  29.227  28.856  1.00  0.00    -0.014 A 
BRANCH  32  33
ATOM     33  C   UNL A   1      40.166  28.782  29.116  1.00  0.00     0.031 A 
ATOM     34  C   UNL A   1      41.156  29.744  29.711  1.00  0.00     0.074 A 
ATOM     35  C   UNL A   1      40.564  27.555  28.730  1.00  0.00     0.049 A 
ATOM     36  N   UNL A   1      42.446  29.611  29.876  1.00  0.00    -0.248 NA
ATOM     37  C   UNL A   1      40.623  31.046  30.145  1.00  0.00     0.031 C 
ATOM     38  C   UNL A   1      39.709  26.541  28.113  1.00  0.00     0.029 A 
ATOM     39  N   UNL A   1      41.801  26.963  28.780  1.00  0.00    -0.354 N 
ATOM     40  C   UNL A   1      42.882  30.819  30.409  1.00  0.00     0.074 A 
ATOM     41  C   UNL A   1      41.730  31.689  30.485  1.00  0.00     0.031 C 
ATOM     42  C   UNL A   1      40.445  25.449  27.847  1.00  0.00     0.029 A 
ATOM     43  C   UNL A   1      41.831  25.703  28.232  1.00  0.00     0.049 A 
ATOM     44  H   UNL A   1      42.593  27.398  29.170  1.00  0.00     0.167 HD
ATOM     45  C   UNL A   1      44.127  31.164  30.814  1.00  0.00     0.037 A 
ATOM     46  C   UNL A   1      42.861  24.859  28.040  1.00  0.00     0.037 A 
ATOM     47  C   UNL A   1      45.266  30.287  30.751  1.00  0.00     0.049 A 
ATOM     48  C   UNL A   1      44.240  25.267  28.480  1.00  0.00     0.074 A 
ATOM     49  C   UNL A   1      46.560  30.520  31.183  1.00  0.00     0.029 A 
ATOM     50  N   UNL A   1      45.248  29.007  30.216  1.00  0.00    -0.354 N 
ATOM     51  N   UNL A   1      44.632  26.391  29.031  1.00  0.00    -0.248 NA
ATOM     52  C   UNL A   1      45.318  24.290  28.278  1.00  0.00     0.031 C 
ATOM     53  C   UNL A   1      47.336  29.402  30.862  1.00  0.00     0.029 A 
ATOM     54  C   UNL A   1      46.512  28.447  30.286  1.00  0.00     0.049 A 
ATOM     55  H   UNL A   1      44.453  28.563  29.841  1.00  0.00     0.167 HD
ATOM     56  C   UNL A   1      45.991  26.242  29.274  1.00  0.00     0.074 A 
ATOM     57  C   UNL A   1      46.356  24.918  28.812  1.00  0.00     0.031 C 
ATOM     58  C   UNL A   1      46.857  27.121  29.836  1.00  0.00     0.037 A 
BRANCH  45  59
ATOM     59  C   UNL A   1      44.316  32.556  31.348  1.00  0.00     0.057 A 
ATOM     60  C   UNL A   1      44.110  32.868  32.700  1.00  0.00     0.134 A 
ATOM     61  C   UNL A   1      44.708  33.600  30.500  1.00  0.00     0.134 A 
ATOM     62  F   UNL A   1      43.721  31.920  33.566  1.00  0.00    -0.206 F 
ATOM     63  C   UNL A   1      44.246  34.173  33.179  1.00  0.00     0.040 A 
ATOM     64  C   UNL A   1      44.881  34.901  30.975  1.00  0.00     0.040 A 
ATOM     65  F   UNL A   1      44.930  33.373  29.197  1.00  0.00    -0.206 F 
ATOM     66  C   UNL A   1      44.638  35.193  32.315  1.00  0.00     0.006 A 
ENDBRANCH  45  59
BRANCH  46  67
ATOM     67  C   UNL A   1      42.619  23.532  27.417  1.00  0.00     0.057 A 
ATOM     68  C   UNL A   1      42.281  22.420  28.196  1.00  0.00     0.134 A 
ATOM     69  C   UNL A   1      42.703  23.348  26.031  1.00  0.00     0.134 A 
ATOM     70  F   UNL A   1      42.202  22.530  29.530  1.00  0.00    -0.206 F 
ATOM     71  C   UNL A   1      42.049  21.169  27.622  1.00  0.00     0.040 A 
ATOM     72  C   UNL A   1      42.448  22.108  25.441  1.00  0.00     0.040 A 
ATOM     73  F   UNL A   1      43.013  24.376  25.228  1.00  0.00    -0.206 F 
ATOM     74  C   UNL A   1      42.125  21.013  26.239  1.00  0.00     0.006 A 
ENDBRANCH  46  67
BRANCH  58  75
ATOM     75  C   UNL A   1      48.274  26.666  30.040  1.00  0.00     0.057 A 
ATOM     76  C   UNL A   1      49.286  26.940  29.113  1.00  0.00     0.134 A 
ATOM     77  C   UNL A   1      48.638  25.999  31.218  1.00  0.00     0.134 A 
ATOM     78  F   UNL A   1      49.003  27.565  27.960  1.00  0.00    -0.206 F 
ATOM     79  C   UNL A   1      50.608  26.553  29.343  1.00  0.00     0.040 A 
ATOM     80  C   UNL A   1      49.959  25.632  31.471  1.00  0.00     0.040 A 
ATOM     81  F   UNL A   1      47.718  25.713  32.152  1.00  0.00    -0.206 F 
ATOM     82  C   UNL A   1      50.949  25.905  30.529  1.00  0.00     0.006 A 
ENDBRANCH  58  75
ENDBRANCH  32  33
ENDBRANCH  24  27
ENDBRANCH  22  23
ENDBRANCH  21  22
ENDBRANCH   1  21
TORSDOF 13
ENDMDL
MODEL 2
REMARK VINA RESULT:     -10.7      4.312      9.988
REMARK SMILES C[C@@H](C(=O)NCCCNC(=O)c1ccc(-c2c3nc(c(-c4c(F)cccc4F)c4ccc([nH]4)c(-c4c(F)cccc4F)c4nc(c(-c5c(F)cccc5F)c5ccc2[nH]5)C=C4)C=C3)cc1)c1ccc(C[C@H]2CCCC2=O)cc1
REMARK SMILES IDX 6 1 5 2 3 3 4 4 2 6 1 7 66 8 67 9 78 10 68 11 77 12 69 13
REMARK SMILES IDX 70 14 71 15 72 16 75 17 73 18 74 19 76 20 7 21 8 22 9 23
REMARK SMILES IDX 10 24 11 26 12 27 13 28 65 29 14 30 64 31 15 32 16 33 17 34
REMARK SMILES IDX 58 35 18 36 63 37 57 38 59 39 19 40 62 41 56 42 55 43 20 45
REMARK SMILES IDX 46 46 29 47 45 48 30 49 33 50 44 51 60 52 31 53 32 54 43 56
REMARK SMILES IDX 61 57 34 58 21 59 22 60 27 61 23 62 24 63 26 64 28 65 25 66
REMARK SMILES IDX 47 67 48 68 53 69 49 70 50 71 52 72 54 73 51 74 35 75 36 76
REMARK SMILES IDX 41 77 37 78 38 79 40 80 42 81 39 82
REMARK H PARENT 5 5 9 25 59 44 33 55
REMARK Flexibility Score: inf
ROOT
ATOM      1  C   UNL A   1      31.716  30.744  25.958  1.00  0.00     0.117 C 
ENDROOT
BRANCH   1   2
ATOM      2  N   UNL A   1      31.690  29.749  27.010  1.00  0.00    -0.356 N 
ATOM      3  C   UNL A   1      31.687  28.387  26.934  1.00  0.00     0.227 C 
ATOM      4  O   UNL A   1      31.525  27.781  27.995  1.00  0.00    -0.274 OA
ATOM      5  H   UNL A   1      31.669  30.113  27.924  1.00  0.00     0.163 HD
BRANCH   3   6
ATOM      6  C   UNL A   1      31.916  27.691  25.581  1.00  0.00     0.105 C 
ATOM      7  C   UNL A   1      30.616  27.504  24.791  1.00  0.00     0.023 C 
BRANCH   6   8
ATOM      8  C   UNL A   1      32.623  26.352  25.758  1.00  0.00    -0.036 A 
ATOM      9  C   UNL A   1      31.900  25.193  26.073  1.00  0.00     0.005 A 
ATOM     10  C   UNL A   1      34.017  26.263  25.642  1.00  0.00     0.005 A 
ATOM     11  C   UNL A   1      32.549  23.976  26.254  1.00  0.00     0.004 A 
ATOM     12  C   UNL A   1      34.670  25.046  25.855  1.00  0.00     0.004 A 
ATOM     13  C   UNL A   1      33.943  23.895  26.181  1.00  0.00    -0.047 A 
BRANCH  13  14
ATOM     14  C   UNL A   1      34.644  22.591  26.477  1.00  0.00     0.047 C 
BRANCH  14  15
ATOM     15  C   UNL A   1      35.105  21.778  25.260  1.00  0.00     0.060 C 
ATOM     16  C   UNL A   1      34.350  22.028  23.951  1.00  0.00     0.012 C 
ATOM     17  C   UNL A   1      36.534  22.071  24.861  1.00  0.00     0.136 C 
ATOM     18  C   UNL A   1      35.195  23.007  23.143  1.00  0.00     0.009 C 
ATOM     19  C   UNL A   1      36.643  22.695  23.495  1.00  0.00     0.076 C 
ATOM     20  O   UNL A   1      37.502  21.815  25.568  1.00  0.00    -0.299 OA
ENDBRANCH  14  15
ENDBRANCH  13  14
ENDBRANCH   6   8
ENDBRANCH   3   6
ENDBRANCH   1   2
BRANCH   1  21
ATOM     21  C   UNL A   1      31.424  32.136  26.510  1.00  0.00     0.042 C 
BRANCH  21  22
ATOM     22  C   UNL A   1      32.584  32.740  27.293  1.00  0.00     0.118 C 
BRANCH  22  23
ATOM     23  N   UNL A   1      32.372  34.145  27.611  1.00  0.00    -0.352 N 
ATOM     24  C   UNL A   1      32.982  34.928  28.558  1.00  0.00     0.251 C 
ATOM     25  H   UNL A   1      31.689  34.600  27.066  1.00  0.00     0.163 HD
ATOM     26  O   UNL A   1      32.532  36.042  28.816  1.00  0.00    -0.269 OA
BRANCH  24  27
ATOM     27  C   UNL A   1      34.170  34.428  29.276  1.00  0.00     0.039 A 
ATOM     28  C   UNL A   1      34.003  33.793  30.509  1.00  0.00     0.014 A 
ATOM     29  C   UNL A   1      35.449  34.596  28.738  1.00  0.00     0.014 A 
ATOM     30  C   UNL A   1      35.115  33.271  31.176  1.00  0.00     0.010 A 
ATOM     31  C   UNL A   1      36.541  34.003  29.360  1.00  0.00     0.010 A 
ATOM     32  C   UNL A   1      36.388  33.344  30.589  1.00  0.00    -0.014 A 
BRANCH  32  33
ATOM     33  C   UNL A   1      37.589  32.771  31.246  1.00  0.00     0.031 A 
ATOM     34  C   UNL A   1      38.272  31.579  30.636  1.00  0.00     0.074 A 
ATOM     35  C   UNL A   1      38.004  33.255  32.432  1.00  0.00     0.049 A 
ATOM     36  N   UNL A   1      39.233  30.835  31.121  1.00  0.00    -0.248 NA
ATOM     37  C   UNL A   1      37.781  31.146  29.318  1.00  0.00     0.031 C 
ATOM     38  C   UNL A   1      37.407  34.386  33.142  1.00  0.00     0.029 A 
ATOM     39  N   UNL A   1      39.016  32.838  33.260  1.00  0.00    -0.354 N 
ATOM     40  C   UNL A   1      39.442  29.835  30.180  1.00  0.00     0.074 A 
ATOM     41  C   UNL A   1      38.472  30.033  29.126  1.00  0.00     0.031 C 
ATOM     42  C   UNL A   1      38.067  34.577  34.296  1.00  0.00     0.029 A 
ATOM     43  C   UNL A   1      39.101  33.555  34.429  1.00  0.00     0.049 A 
ATOM     44  H   UNL A   1      39.622  32.094  33.039  1.00  0.00     0.167 HD
ATOM     45  C   UNL A   1      40.372  28.850  30.185  1.00  0.00     0.037 A 
ATOM     46  C   UNL A   1      39.906  33.393  35.495  1.00  0.00     0.037 A 
ATOM     47  C   UNL A   1      41.346  28.669  31.229  1.00  0.00     0.049 A 
ATOM     48  C   UNL A   1      40.920  32.282  35.491  1.00  0.00     0.074 A 
ATOM     49  C   UNL A   1      42.364  27.735  31.305  1.00  0.00     0.029 A 
ATOM     50  N   UNL A   1      41.418  29.435  32.383  1.00  0.00    -0.354 N 
ATOM     51  N   UNL A   1      41.145  31.373  34.573  1.00  0.00    -0.248 NA
ATOM     52  C   UNL A   1      41.795  32.178  36.666  1.00  0.00     0.031 C 
ATOM     53  C   UNL A   1      43.019  27.902  32.530  1.00  0.00     0.029 A 
ATOM     54  C   UNL A   1      42.449  28.982  33.187  1.00  0.00     0.049 A 
ATOM     55  H   UNL A   1      40.824  30.190  32.597  1.00  0.00     0.167 HD
ATOM     56  C   UNL A   1      42.209  30.613  35.042  1.00  0.00     0.074 A 
ATOM     57  C   UNL A   1      42.585  31.169  36.326  1.00  0.00     0.031 C 
ATOM     58  C   UNL A   1      42.822  29.555  34.458  1.00  0.00     0.037 A 
BRANCH  45  59
ATOM     59  C   UNL A   1      40.364  27.889  29.029  1.00  0.00     0.057 A 
ATOM     60  C   UNL A   1      39.621  26.700  29.057  1.00  0.00     0.134 A 
ATOM     61  C   UNL A   1      41.107  28.157  27.873  1.00  0.00     0.134 A 
ATOM     62  F   UNL A   1      38.896  26.375  30.137  1.00  0.00    -0.206 F 
ATOM     63  C   UNL A   1      39.653  25.793  27.995  1.00  0.00     0.040 A 
ATOM     64  C   UNL A   1      41.119  27.273  26.792  1.00  0.00     0.040 A 
ATOM     65  F   UNL A   1      41.834  29.280  27.774  1.00  0.00    -0.206 F 
ATOM     66  C   UNL A   1      40.400  26.082  26.856  1.00  0.00     0.006 A 
ENDBRANCH  45  59
BRANCH  46  67
ATOM     67  C   UNL A   1      39.796  34.322  36.649  1.00  0.00     0.057 A 
ATOM     68  C   UNL A   1      39.014  33.999  37.763  1.00  0.00     0.134 A 
ATOM     69  C   UNL A   1      40.479  35.545  36.672  1.00  0.00     0.134 A 
ATOM     70  F   UNL A   1      38.323  32.850  37.792  1.00  0.00    -0.206 F 
ATOM     71  C   UNL A   1      38.904  34.863  38.855  1.00  0.00     0.040 A 
ATOM     72  C   UNL A   1      40.398  36.407  37.768  1.00  0.00     0.040 A 
ATOM     73  F   UNL A   1      41.252  35.909  35.639  1.00  0.00    -0.206 F 
ATOM     74  C   UNL A   1      39.604  36.068  38.861  1.00  0.00     0.006 A 
ENDBRANCH  46  67
BRANCH  58  75
ATOM     75  C   UNL A   1      44.003  28.958  35.168  1.00  0.00     0.057 A 
ATOM     76  C   UNL A   1      43.866  27.941  36.119  1.00  0.00     0.134 A 
ATOM     77  C   UNL A   1      45.304  29.367  34.841  1.00  0.00     0.134 A 
ATOM     78  F   UNL A   1      42.649  27.512  36.486  1.00  0.00    -0.206 F 
ATOM     79  C   UNL A   1      44.979  27.363  36.733  1.00  0.00     0.040 A 
ATOM     80  C   UNL A   1      46.424  28.779  35.427  1.00  0.00     0.040 A 
ATOM     81  F   UNL A   1      45.506  30.332  33.930  1.00  0.00    -0.206 F 
ATOM     82  C   UNL A   1      46.263  27.776  36.380  1.00  0.00     0.006 A 
ENDBRANCH  58  75
ENDBRANCH  32  33
ENDBRANCH  24  27
ENDBRANCH  22  23
ENDBRANCH  21  22
ENDBRANCH   1  21
TORSDOF 13
ENDMDL
MODEL 3
REMARK VINA RESULT:     -10.6      4.072      9.434
REMARK SMILES C[C@@H](C(=O)NCCCNC(=O)c1ccc(-c2c3nc(c(-c4c(F)cccc4F)c4ccc([nH]4)c(-c4c(F)cccc4F)c4nc(c(-c5c(F)cccc5F)c5ccc2[nH]5)C=C4)C=C3)cc1)c1ccc(C[C@H]2CCCC2=O)cc1
REMARK SMILES IDX 6 1 5 2 3 3 4 4 2 6 1 7 66 8 67 9 78 10 68 11 77 12 69 13
REMARK SMILES IDX 70 14 71 15 72 16 75 17 73 18 74 19 76 20 7 21 8 22 9 23
REMARK SMILES IDX 10 24 11 26 12 27 13 28 65 29 14 30 64 31 15 32 16 33 17 34
REMARK SMILES IDX 58 35 18 36 63 37 57 38 59 39 19 40 62 41 56 42 55 43 20 45
REMARK SMILES IDX 46 46 29 47 45 48 30 49 33 50 44 51 60 52 31 53 32 54 43 56
REMARK SMILES IDX 61 57 34 58 21 59 22 60 27 61 23 62 24 63 26 64 28 65 25 66
REMARK SMILES IDX 47 67 48 68 53 69 49 70 50 71 52 72 54 73 51 74 35 75 36 76
REMARK SMILES IDX 41 77 37 78 38 79 40 80 42 81 39 82
REMARK H PARENT 5 5 9 25 59 44 33 55
REMARK Flexibility Score: inf
ROOT
ATOM      1  C   UNL A   1      36.401  21.233  24.654  1.00  0.00     0.117 C 
ENDROOT
BRANCH   1   2
ATOM      2  N   UNL A   1      35.027  20.796  24.794  1.00  0.00    -0.356 N 
ATOM      3  C   UNL A   1      34.050  21.223  25.644  1.00  0.00     0.227 C 
ATOM      4  O   UNL A   1      33.000  20.577  25.637  1.00  0.00    -0.274 OA
ATOM      5  H   UNL A   1      34.757  20.076  24.179  1.00  0.00     0.163 HD
BRANCH   3   6
ATOM      6  C   UNL A   1      34.278  22.469  26.517  1.00  0.00     0.105 C 
ATOM      7  C   UNL A   1      34.005  22.204  28.001  1.00  0.00     0.023 C 
BRANCH   6   8
ATOM      8  C   UNL A   1      33.444  23.649  26.029  1.00  0.00    -0.036 A 
ATOM      9  C   UNL A   1      33.931  24.513  25.039  1.00  0.00     0.005 A 
ATOM     10  C   UNL A   1      32.186  23.909  26.590  1.00  0.00     0.005 A 
ATOM     11  C   UNL A   1      33.177  25.601  24.611  1.00  0.00     0.004 A 
ATOM     12  C   UNL A   1      31.444  25.021  26.180  1.00  0.00     0.004 A 
ATOM     13  C   UNL A   1      31.941  25.887  25.198  1.00  0.00    -0.047 A 
BRANCH  13  14
ATOM     14  C   UNL A   1      31.177  27.125  24.796  1.00  0.00     0.047 C 
BRANCH  14  15
ATOM     15  C   UNL A   1      31.588  28.431  25.490  1.00  0.00     0.060 C 
ATOM     16  C   UNL A   1      31.778  28.362  27.009  1.00  0.00     0.012 C 
ATOM     17  C   UNL A   1      32.931  28.948  25.028  1.00  0.00     0.136 C 
ATOM     18  C   UNL A   1      33.275  28.203  27.251  1.00  0.00     0.009 C 
ATOM     19  C   UNL A   1      33.962  28.964  26.125  1.00  0.00     0.076 C 
ATOM     20  O   UNL A   1      33.154  29.328  23.883  1.00  0.00    -0.299 OA
ENDBRANCH  14  15
ENDBRANCH  13  14
ENDBRANCH   6   8
ENDBRANCH   3   6
ENDBRANCH   1   2
BRANCH   1  21
ATOM     21  C   UNL A   1      37.373  20.098  24.961  1.00  0.00     0.042 C 
BRANCH  21  22
ATOM     22  C   UNL A   1      38.600  20.539  25.751  1.00  0.00     0.118 C 
BRANCH  22  23
ATOM     23  N   UNL A   1      39.635  19.515  25.792  1.00  0.00    -0.352 N 
ATOM     24  C   UNL A   1      40.977  19.641  26.044  1.00  0.00     0.251 C 
ATOM     25  H   UNL A   1      39.326  18.598  25.610  1.00  0.00     0.163 HD
ATOM     26  O   UNL A   1      41.732  18.694  25.840  1.00  0.00    -0.269 OA
BRANCH  24  27
ATOM     27  C   UNL A   1      41.518  20.919  26.549  1.00  0.00     0.039 A 
ATOM     28  C   UNL A   1      41.971  21.875  25.636  1.00  0.00     0.014 A 
ATOM     29  C   UNL A   1      41.587  21.168  27.922  1.00  0.00     0.014 A 
ATOM     30  C   UNL A   1      42.438  23.107  26.099  1.00  0.00     0.010 A 
ATOM     31  C   UNL A   1      41.973  22.424  28.376  1.00  0.00     0.010 A 
ATOM     32  C   UNL A   1      42.412  23.403  27.471  1.00  0.00    -0.014 A 
BRANCH  32  33
ATOM     33  C   UNL A   1      42.865  24.712  28.001  1.00  0.00     0.031 A 
ATOM     34  C   UNL A   1      41.853  25.777  28.317  1.00  0.00     0.074 A 
ATOM     35  C   UNL A   1      44.181  24.979  28.106  1.00  0.00     0.049 A 
ATOM     36  N   UNL A   1      42.040  27.031  28.641  1.00  0.00    -0.248 NA
ATOM     37  C   UNL A   1      40.437  25.385  28.219  1.00  0.00     0.031 C 
ATOM     38  C   UNL A   1      45.262  24.041  27.800  1.00  0.00     0.029 A 
ATOM     39  N   UNL A   1      44.831  26.129  28.476  1.00  0.00    -0.354 N 
ATOM     40  C   UNL A   1      40.769  27.580  28.760  1.00  0.00     0.074 A 
ATOM     41  C   UNL A   1      39.824  26.541  28.418  1.00  0.00     0.031 C 
ATOM     42  C   UNL A   1      46.442  24.652  28.002  1.00  0.00     0.029 A 
ATOM     43  C   UNL A   1      46.200  26.034  28.405  1.00  0.00     0.049 A 
ATOM     44  H   UNL A   1      44.362  26.945  28.765  1.00  0.00     0.167 HD
ATOM     45  C   UNL A   1      40.422  28.833  29.138  1.00  0.00     0.037 A 
ATOM     46  C   UNL A   1      47.151  26.963  28.618  1.00  0.00     0.037 A 
ATOM     47  C   UNL A   1      41.368  29.858  29.493  1.00  0.00     0.049 A 
ATOM     48  C   UNL A   1      46.745  28.354  29.019  1.00  0.00     0.074 A 
ATOM     49  C   UNL A   1      41.119  31.144  29.939  1.00  0.00     0.029 A 
ATOM     50  N   UNL A   1      42.746  29.713  29.436  1.00  0.00    -0.354 N 
ATOM     51  N   UNL A   1      45.542  28.850  29.180  1.00  0.00    -0.248 NA
ATOM     52  C   UNL A   1      47.828  29.314  29.274  1.00  0.00     0.031 C 
ATOM     53  C   UNL A   1      42.347  31.795  30.102  1.00  0.00     0.029 A 
ATOM     54  C   UNL A   1      43.361  30.894  29.818  1.00  0.00     0.049 A 
ATOM     55  H   UNL A   1      43.217  28.893  29.165  1.00  0.00     0.167 HD
ATOM     56  C   UNL A   1      45.722  30.165  29.589  1.00  0.00     0.074 A 
ATOM     57  C   UNL A   1      47.152  30.389  29.653  1.00  0.00     0.031 C 
ATOM     58  C   UNL A   1      44.787  31.099  29.891  1.00  0.00     0.037 A 
BRANCH  45  59
ATOM     59  C   UNL A   1      38.955  29.161  29.171  1.00  0.00     0.057 A 
ATOM     60  C   UNL A   1      38.198  29.063  30.347  1.00  0.00     0.134 A 
ATOM     61  C   UNL A   1      38.290  29.579  28.011  1.00  0.00     0.134 A 
ATOM     62  F   UNL A   1      38.768  28.656  31.492  1.00  0.00    -0.206 F 
ATOM     63  C   UNL A   1      36.827  29.328  30.359  1.00  0.00     0.040 A 
ATOM     64  C   UNL A   1      36.927  29.880  28.019  1.00  0.00     0.040 A 
ATOM     65  F   UNL A   1      38.953  29.703  26.852  1.00  0.00    -0.206 F 
ATOM     66  C   UNL A   1      36.189  29.743  29.193  1.00  0.00     0.006 A 
ENDBRANCH  45  59
BRANCH  46  67
ATOM     67  C   UNL A   1      48.583  26.596  28.474  1.00  0.00     0.057 A 
ATOM     68  C   UNL A   1      49.268  26.821  27.275  1.00  0.00     0.134 A 
ATOM     69  C   UNL A   1      49.303  26.028  29.532  1.00  0.00     0.134 A 
ATOM     70  F   UNL A   1      48.628  27.347  26.221  1.00  0.00    -0.206 F 
ATOM     71  C   UNL A   1      50.615  26.483  27.128  1.00  0.00     0.040 A 
ATOM     72  C   UNL A   1      50.657  25.708  29.408  1.00  0.00     0.040 A 
ATOM     73  F   UNL A   1      48.707  25.795  30.711  1.00  0.00    -0.206 F 
ATOM     74  C   UNL A   1      51.315  25.931  28.200  1.00  0.00     0.006 A 
ENDBRANCH  46  67
BRANCH  58  75
ATOM     75  C   UNL A   1      45.272  32.435  30.375  1.00  0.00     0.057 A 
ATOM     76  C   UNL A   1      45.460  33.519  29.510  1.00  0.00     0.134 A 
ATOM     77  C   UNL A   1      45.489  32.654  31.743  1.00  0.00     0.134 A 
ATOM     78  F   UNL A   1      45.281  33.373  28.188  1.00  0.00    -0.206 F 
ATOM     79  C   UNL A   1      45.864  34.768  29.985  1.00  0.00     0.040 A 
ATOM     80  C   UNL A   1      45.865  33.904  32.232  1.00  0.00     0.040 A 
ATOM     81  F   UNL A   1      45.318  31.659  32.628  1.00  0.00    -0.206 F 
ATOM     82  C   UNL A   1      46.058  34.966  31.351  1.00  0.00     0.006 A 
ENDBRANCH  58  75
ENDBRANCH  32  33
ENDBRANCH  24  27
ENDBRANCH  22  23
ENDBRANCH  21  22
ENDBRANCH   1  21
TORSDOF 13
ENDMDL
