MODEL 1
REMARK VINA RESULT:     -10.2      0.000      0.000
REMARK SMILES N#C/C(=C\c1ccc(-c2cc(C(=O)NCCCNC(=O)c3ccc(-c4c5nc(c(-c6c(F)cccc6F)c6ccc([nH]6)c(-c6c(F)cccc6F)c6nc(c(-c7c(F)cccc7F)c7ccc4[nH]7)C=C6)C=C5)cc3)ccc2Cl)o1)C(=O)N1CCOCC1
REMARK SMILES IDX 15 1 14 2 12 3 13 4 11 6 9 7 10 8 77 9 76 10 78 11 75 12
REMARK SMILES IDX 8 13 5 14 6 15 79 16 7 17 4 18 3 19 2 20 1 21 80 22 81 23
REMARK SMILES IDX 82 24 83 25 87 26 84 27 86 28 85 29 16 30 17 31 18 32 19 33
REMARK SMILES IDX 20 35 21 36 22 37 74 38 23 39 73 40 24 41 25 42 26 43 67 44
REMARK SMILES IDX 27 45 72 46 66 47 68 48 28 49 71 50 65 51 64 52 29 54 55 55
REMARK SMILES IDX 38 56 54 57 39 58 42 59 53 60 69 61 40 62 41 63 52 65 70 66
REMARK SMILES IDX 43 67 30 68 31 69 36 70 32 71 33 72 35 73 37 74 34 75 56 76
REMARK SMILES IDX 57 77 62 78 58 79 59 80 61 81 63 82 60 83 44 84 45 85 50 86
REMARK SMILES IDX 46 87 47 88 49 89 51 90 48 91
REMARK H PARENT 14 5 18 34 68 53 42 64
REMARK Flexibility Score: inf
ROOT
ATOM      1  C   UNL A   1      34.825  34.345  30.175  1.00  0.00     0.118 C 
ENDROOT
BRANCH   1   2
ATOM      2  N   UNL A   1      34.040  33.797  31.268  1.00  0.00    -0.352 N 
ATOM      3  C   UNL A   1      34.369  33.254  32.484  1.00  0.00     0.251 C 
ATOM      4  O   UNL A   1      33.438  32.945  33.229  1.00  0.00    -0.269 OA
ATOM      5  H   UNL A   1      33.070  33.821  31.101  1.00  0.00     0.163 HD
BRANCH   3   6
ATOM      6  C   UNL A   1      35.767  33.046  32.964  1.00  0.00     0.040 A 
ATOM      7  C   UNL A   1      37.646  31.474  33.195  1.00  0.00     0.037 A 
ATOM      8  C   UNL A   1      36.333  31.768  32.778  1.00  0.00     0.027 A 
ATOM      9  C   UNL A   1      38.393  32.488  33.815  1.00  0.00     0.052 A 
ATOM     10  C   UNL A   1      37.854  33.766  33.970  1.00  0.00     0.022 A 
ATOM     11  Cl  UNL A   1      40.011  32.247  34.381  1.00  0.00    -0.084 Cl
ATOM     12  C   UNL A   1      36.559  34.048  33.526  1.00  0.00     0.015 A 
BRANCH   7  13
ATOM     13  C   UNL A   1      38.184  30.134  33.007  1.00  0.00     0.136 A 
ATOM     14  C   UNL A   1      39.856  28.655  32.917  1.00  0.00     0.129 A 
ATOM     15  C   UNL A   1      38.648  27.965  32.820  1.00  0.00     0.051 A 
ATOM     16  O   UNL A   1      39.541  29.995  33.060  1.00  0.00    -0.457 OA
ATOM     17  C   UNL A   1      37.596  28.905  32.829  1.00  0.00     0.051 A 
BRANCH  14  18
ATOM     18  C   UNL A   1      41.209  28.172  32.907  1.00  0.00     0.072 C 
ATOM     19  C   UNL A   1      42.069  28.303  33.950  1.00  0.00     0.121 C 
BRANCH  19  20
ATOM     20  C   UNL A   1      41.395  28.657  35.265  1.00  0.00     0.105 C 
ATOM     21  N   UNL A   1      40.835  28.951  36.357  1.00  0.00    -0.192 NA
ENDBRANCH  19  20
BRANCH  19  22
ATOM     22  C   UNL A   1      43.400  27.643  33.941  1.00  0.00     0.264 C 
ATOM     23  O   UNL A   1      44.333  28.217  33.377  1.00  0.00    -0.268 OA
ATOM     24  N   UNL A   1      43.583  26.445  34.614  1.00  0.00    -0.333 N 
ATOM     25  C   UNL A   1      42.572  25.474  35.064  1.00  0.00     0.148 C 
ATOM     26  C   UNL A   1      44.945  26.036  34.970  1.00  0.00     0.148 C 
ATOM     27  C   UNL A   1      42.721  25.217  36.573  1.00  0.00     0.181 C 
ATOM     28  C   UNL A   1      45.022  25.795  36.483  1.00  0.00     0.181 C 
ATOM     29  O   UNL A   1      44.061  24.806  36.895  1.00  0.00    -0.378 OA
ENDBRANCH  19  22
ENDBRANCH  14  18
ENDBRANCH   7  13
ENDBRANCH   3   6
ENDBRANCH   1   2
BRANCH   1  30
ATOM     30  C   UNL A   1      35.585  33.248  29.424  1.00  0.00     0.042 C 
BRANCH  30  31
ATOM     31  C   UNL A   1      35.100  33.034  27.990  1.00  0.00     0.118 C 
BRANCH  31  32
ATOM     32  N   UNL A   1      34.255  31.854  27.868  1.00  0.00    -0.352 N 
ATOM     33  C   UNL A   1      34.587  30.524  27.797  1.00  0.00     0.251 C 
ATOM     34  H   UNL A   1      33.289  32.041  27.831  1.00  0.00     0.163 HD
ATOM     35  O   UNL A   1      33.734  29.708  27.464  1.00  0.00    -0.269 OA
BRANCH  33  36
ATOM     36  C   UNL A   1      35.958  30.059  28.108  1.00  0.00     0.039 A 
ATOM     37  C   UNL A   1      36.932  30.118  27.105  1.00  0.00     0.014 A 
ATOM     38  C   UNL A   1      36.276  29.506  29.352  1.00  0.00     0.014 A 
ATOM     39  C   UNL A   1      38.234  29.682  27.366  1.00  0.00     0.010 A 
ATOM     40  C   UNL A   1      37.588  29.126  29.631  1.00  0.00     0.010 A 
ATOM     41  C   UNL A   1      38.580  29.212  28.643  1.00  0.00    -0.014 A 
BRANCH  41  42
ATOM     42  C   UNL A   1      39.975  28.817  28.968  1.00  0.00     0.031 A 
ATOM     43  C   UNL A   1      40.906  29.792  29.631  1.00  0.00     0.074 A 
ATOM     44  C   UNL A   1      40.424  27.604  28.597  1.00  0.00     0.049 A 
ATOM     45  N   UNL A   1      42.184  29.671  29.892  1.00  0.00    -0.248 NA
ATOM     46  C   UNL A   1      40.332  31.086  30.032  1.00  0.00     0.031 C 
ATOM     47  C   UNL A   1      39.629  26.579  27.916  1.00  0.00     0.029 A 
ATOM     48  N   UNL A   1      41.666  27.032  28.720  1.00  0.00    -0.354 N 
ATOM     49  C   UNL A   1      42.568  30.872  30.472  1.00  0.00     0.074 A 
ATOM     50  C   UNL A   1      41.400  31.726  30.487  1.00  0.00     0.031 C 
ATOM     51  C   UNL A   1      40.399  25.503  27.690  1.00  0.00     0.029 A 
ATOM     52  C   UNL A   1      41.749  25.776  28.171  1.00  0.00     0.049 A 
ATOM     53  H   UNL A   1      42.424  27.480  29.161  1.00  0.00     0.167 HD
ATOM     54  C   UNL A   1      43.781  31.225  30.962  1.00  0.00     0.037 A 
ATOM     55  C   UNL A   1      42.801  24.943  28.051  1.00  0.00     0.037 A 
ATOM     56  C   UNL A   1      44.937  30.367  30.967  1.00  0.00     0.049 A 
ATOM     57  C   UNL A   1      44.140  25.366  28.585  1.00  0.00     0.074 A 
ATOM     58  C   UNL A   1      46.191  30.609  31.499  1.00  0.00     0.029 A 
ATOM     59  N   UNL A   1      44.980  29.098  30.406  1.00  0.00    -0.354 N 
ATOM     60  N   UNL A   1      44.475  26.483  29.182  1.00  0.00    -0.248 NA
ATOM     61  C   UNL A   1      45.248  24.413  28.425  1.00  0.00     0.031 C 
ATOM     62  C   UNL A   1      47.005  29.505  31.226  1.00  0.00     0.029 A 
ATOM     63  C   UNL A   1      46.246  28.558  30.557  1.00  0.00     0.049 A 
ATOM     64  H   UNL A   1      44.222  28.649  29.967  1.00  0.00     0.167 HD
ATOM     65  C   UNL A   1      45.826  26.364  29.481  1.00  0.00     0.074 A 
ATOM     66  C   UNL A   1      46.244  25.056  29.018  1.00  0.00     0.031 C 
ATOM     67  C   UNL A   1      46.647  27.258  30.084  1.00  0.00     0.037 A 
BRANCH  54  68
ATOM     68  C   UNL A   1      43.918  32.604  31.540  1.00  0.00     0.057 A 
ATOM     69  C   UNL A   1      44.320  33.694  30.757  1.00  0.00     0.134 A 
ATOM     70  C   UNL A   1      43.613  32.852  32.884  1.00  0.00     0.134 A 
ATOM     71  F   UNL A   1      44.635  33.523  29.465  1.00  0.00    -0.206 F 
ATOM     72  C   UNL A   1      44.439  34.976  31.297  1.00  0.00     0.040 A 
ATOM     73  C   UNL A   1      43.705  34.134  33.429  1.00  0.00     0.040 A 
ATOM     74  F   UNL A   1      43.215  31.854  33.687  1.00  0.00    -0.206 F 
ATOM     75  C   UNL A   1      44.126  35.199  32.636  1.00  0.00     0.006 A 
ENDBRANCH  54  68
BRANCH  55  76
ATOM     76  C   UNL A   1      42.627  23.621  27.399  1.00  0.00     0.057 A 
ATOM     77  C   UNL A   1      42.762  23.478  26.014  1.00  0.00     0.134 A 
ATOM     78  C   UNL A   1      42.322  22.475  28.142  1.00  0.00     0.134 A 
ATOM     79  F   UNL A   1      43.034  24.545  25.249  1.00  0.00    -0.206 F 
ATOM     80  C   UNL A   1      42.588  22.243  25.387  1.00  0.00     0.040 A 
ATOM     81  C   UNL A   1      42.169  21.229  27.530  1.00  0.00     0.040 A 
ATOM     82  F   UNL A   1      42.186  22.546  29.474  1.00  0.00    -0.206 F 
ATOM     83  C   UNL A   1      42.296  21.112  26.148  1.00  0.00     0.006 A 
ENDBRANCH  55  76
BRANCH  67  84
ATOM     84  C   UNL A   1      48.075  26.848  30.283  1.00  0.00     0.057 A 
ATOM     85  C   UNL A   1      48.475  26.095  31.394  1.00  0.00     0.134 A 
ATOM     86  C   UNL A   1      49.054  27.177  29.337  1.00  0.00     0.134 A 
ATOM     87  F   UNL A   1      47.587  25.762  32.344  1.00  0.00    -0.206 F 
ATOM     88  C   UNL A   1      49.801  25.695  31.565  1.00  0.00     0.040 A 
ATOM     89  C   UNL A   1      50.378  26.764  29.484  1.00  0.00     0.040 A 
ATOM     90  F   UNL A   1      48.734  27.892  28.248  1.00  0.00    -0.206 F 
ATOM     91  C   UNL A   1      50.756  26.023  30.603  1.00  0.00     0.006 A 
ENDBRANCH  67  84
ENDBRANCH  41  42
ENDBRANCH  33  36
ENDBRANCH  31  32
ENDBRANCH  30  31
ENDBRANCH   1  30
TORSDOF 14
ENDMDL
MODEL 2
REMARK VINA RESULT:     -10.1      3.679      9.977
REMARK SMILES N#C/C(=C\c1ccc(-c2cc(C(=O)NCCCNC(=O)c3ccc(-c4c5nc(c(-c6c(F)cccc6F)c6ccc([nH]6)c(-c6c(F)cccc6F)c6nc(c(-c7c(F)cccc7F)c7ccc4[nH]7)C=C6)C=C5)cc3)ccc2Cl)o1)C(=O)N1CCOCC1
REMARK SMILES IDX 15 1 14 2 12 3 13 4 11 6 9 7 10 8 77 9 76 10 78 11 75 12
REMARK SMILES IDX 8 13 5 14 6 15 79 16 7 17 4 18 3 19 2 20 1 21 80 22 81 23
REMARK SMILES IDX 82 24 83 25 87 26 84 27 86 28 85 29 16 30 17 31 18 32 19 33
REMARK SMILES IDX 20 35 21 36 22 37 74 38 23 39 73 40 24 41 25 42 26 43 67 44
REMARK SMILES IDX 27 45 72 46 66 47 68 48 28 49 71 50 65 51 64 52 29 54 55 55
REMARK SMILES IDX 38 56 54 57 39 58 42 59 53 60 69 61 40 62 41 63 52 65 70 66
REMARK SMILES IDX 43 67 30 68 31 69 36 70 32 71 33 72 35 73 37 74 34 75 56 76
REMARK SMILES IDX 57 77 62 78 58 79 59 80 61 81 63 82 60 83 44 84 45 85 50 86
REMARK SMILES IDX 46 87 47 88 49 89 51 90 48 91
REMARK H PARENT 14 5 18 34 68 53 42 64
REMARK Flexibility Score: inf
ROOT
ATOM      1  C   UNL A   1      43.040  21.072  26.191  1.00  0.00     0.118 C 
ENDROOT
BRANCH   1   2
ATOM      2  N   UNL A   1      43.467  21.407  24.842  1.00  0.00    -0.352 N 
ATOM      3  C   UNL A   1      44.229  22.421  24.320  1.00  0.00     0.251 C 
ATOM      4  O   UNL A   1      44.472  22.374  23.113  1.00  0.00    -0.269 OA
ATOM      5  H   UNL A   1      43.141  20.774  24.163  1.00  0.00     0.163 HD
BRANCH   3   6
ATOM      6  C   UNL A   1      44.798  23.545  25.120  1.00  0.00     0.040 A 
ATOM      7  C   UNL A   1      44.514  25.864  25.894  1.00  0.00     0.037 A 
ATOM      8  C   UNL A   1      44.061  24.747  25.165  1.00  0.00     0.027 A 
ATOM      9  C   UNL A   1      45.734  25.763  26.581  1.00  0.00     0.052 A 
ATOM     10  C   UNL A   1      46.452  24.566  26.571  1.00  0.00     0.022 A 
ATOM     11  Cl  UNL A   1      46.402  27.068  27.501  1.00  0.00    -0.084 Cl
ATOM     12  C   UNL A   1      45.975  23.459  25.864  1.00  0.00     0.015 A 
BRANCH   7  13
ATOM     13  C   UNL A   1      43.735  27.095  25.895  1.00  0.00     0.136 A 
ATOM     14  C   UNL A   1      43.274  29.157  26.617  1.00  0.00     0.129 A 
ATOM     15  C   UNL A   1      42.447  28.873  25.532  1.00  0.00     0.051 A 
ATOM     16  O   UNL A   1      44.083  28.050  26.807  1.00  0.00    -0.457 OA
ATOM     17  C   UNL A   1      42.707  27.553  25.107  1.00  0.00     0.051 A 
BRANCH  14  18
ATOM     18  C   UNL A   1      43.369  30.336  27.433  1.00  0.00     0.072 C 
ATOM     19  C   UNL A   1      44.505  31.064  27.585  1.00  0.00     0.121 C 
BRANCH  19  20
ATOM     20  C   UNL A   1      45.571  30.769  26.542  1.00  0.00     0.105 C 
ATOM     21  N   UNL A   1      46.456  30.525  25.677  1.00  0.00    -0.192 NA
ENDBRANCH  19  20
BRANCH  19  22
ATOM     22  C   UNL A   1      44.502  32.360  28.312  1.00  0.00     0.264 C 
ATOM     23  O   UNL A   1      44.566  32.341  29.541  1.00  0.00    -0.268 OA
ATOM     24  N   UNL A   1      44.494  33.550  27.601  1.00  0.00    -0.333 N 
ATOM     25  C   UNL A   1      44.116  33.788  26.199  1.00  0.00     0.148 C 
ATOM     26  C   UNL A   1      44.926  34.778  28.277  1.00  0.00     0.148 C 
ATOM     27  C   UNL A   1      45.265  34.484  25.451  1.00  0.00     0.181 C 
ATOM     28  C   UNL A   1      46.069  35.419  27.479  1.00  0.00     0.181 C 
ATOM     29  O   UNL A   1      45.662  35.689  26.125  1.00  0.00    -0.378 OA
ENDBRANCH  19  22
ENDBRANCH  14  18
ENDBRANCH   7  13
ENDBRANCH   3   6
ENDBRANCH   1   2
BRANCH   1  30
ATOM     30  C   UNL A   1      42.077  22.122  26.752  1.00  0.00     0.042 C 
BRANCH  30  31
ATOM     31  C   UNL A   1      40.756  21.537  27.255  1.00  0.00     0.118 C 
BRANCH  31  32
ATOM     32  N   UNL A   1      39.647  21.843  26.361  1.00  0.00    -0.352 N 
ATOM     33  C   UNL A   1      38.866  22.968  26.262  1.00  0.00     0.251 C 
ATOM     34  H   UNL A   1      39.420  21.126  25.725  1.00  0.00     0.163 HD
ATOM     35  O   UNL A   1      37.836  22.928  25.598  1.00  0.00    -0.269 OA
BRANCH  33  36
ATOM     36  C   UNL A   1      39.242  24.224  26.949  1.00  0.00     0.039 A 
ATOM     37  C   UNL A   1      38.777  24.443  28.251  1.00  0.00     0.014 A 
ATOM     38  C   UNL A   1      39.989  25.213  26.304  1.00  0.00     0.014 A 
ATOM     39  C   UNL A   1      39.111  25.622  28.924  1.00  0.00     0.010 A 
ATOM     40  C   UNL A   1      40.371  26.362  26.995  1.00  0.00     0.010 A 
ATOM     41  C   UNL A   1      39.938  26.577  28.312  1.00  0.00    -0.014 A 
BRANCH  41  42
ATOM     42  C   UNL A   1      40.372  27.800  29.035  1.00  0.00     0.031 A 
ATOM     43  C   UNL A   1      41.732  27.866  29.671  1.00  0.00     0.074 A 
ATOM     44  C   UNL A   1      39.509  28.823  29.184  1.00  0.00     0.049 A 
ATOM     45  N   UNL A   1      42.244  28.798  30.434  1.00  0.00    -0.248 NA
ATOM     46  C   UNL A   1      42.626  26.721  29.438  1.00  0.00     0.031 C 
ATOM     47  C   UNL A   1      38.148  28.867  28.645  1.00  0.00     0.029 A 
ATOM     48  N   UNL A   1      39.640  30.015  29.851  1.00  0.00    -0.354 N 
ATOM     49  C   UNL A   1      43.511  28.348  30.783  1.00  0.00     0.074 A 
ATOM     50  C   UNL A   1      43.673  27.040  30.185  1.00  0.00     0.031 C 
ATOM     51  C   UNL A   1      37.574  30.029  28.995  1.00  0.00     0.029 A 
ATOM     52  C   UNL A   1      38.508  30.792  29.815  1.00  0.00     0.049 A 
ATOM     53  H   UNL A   1      40.467  30.287  30.311  1.00  0.00     0.167 HD
ATOM     54  C   UNL A   1      44.457  28.975  31.523  1.00  0.00     0.037 A 
ATOM     55  C   UNL A   1      38.245  31.979  30.395  1.00  0.00     0.037 A 
ATOM     56  C   UNL A   1      44.303  30.285  32.100  1.00  0.00     0.049 A 
ATOM     57  C   UNL A   1      39.304  32.644  31.227  1.00  0.00     0.074 A 
ATOM     58  C   UNL A   1      45.228  31.031  32.809  1.00  0.00     0.029 A 
ATOM     59  N   UNL A   1      43.143  31.043  32.036  1.00  0.00    -0.354 N 
ATOM     60  N   UNL A   1      40.518  32.232  31.502  1.00  0.00    -0.248 NA
ATOM     61  C   UNL A   1      38.956  33.939  31.831  1.00  0.00     0.031 C 
ATOM     62  C   UNL A   1      44.615  32.223  33.210  1.00  0.00     0.029 A 
ATOM     63  C   UNL A   1      43.320  32.236  32.716  1.00  0.00     0.049 A 
ATOM     64  H   UNL A   1      42.316  30.772  31.575  1.00  0.00     0.167 HD
ATOM     65  C   UNL A   1      41.083  33.219  32.298  1.00  0.00     0.074 A 
ATOM     66  C   UNL A   1      40.086  34.260  32.445  1.00  0.00     0.031 C 
ATOM     67  C   UNL A   1      42.316  33.259  32.859  1.00  0.00     0.037 A 
BRANCH  54  68
ATOM     68  C   UNL A   1      45.752  28.248  31.747  1.00  0.00     0.057 A 
ATOM     69  C   UNL A   1      46.863  28.449  30.919  1.00  0.00     0.134 A 
ATOM     70  C   UNL A   1      45.899  27.363  32.823  1.00  0.00     0.134 A 
ATOM     71  F   UNL A   1      46.786  29.276  29.866  1.00  0.00    -0.206 F 
ATOM     72  C   UNL A   1      48.067  27.776  31.136  1.00  0.00     0.040 A 
ATOM     73  C   UNL A   1      47.105  26.702  33.064  1.00  0.00     0.040 A 
ATOM     74  F   UNL A   1      44.877  27.130  33.659  1.00  0.00    -0.206 F 
ATOM     75  C   UNL A   1      48.191  26.903  32.215  1.00  0.00     0.006 A 
ENDBRANCH  54  68
BRANCH  55  76
ATOM     76  C   UNL A   1      36.918  32.616  30.204  1.00  0.00     0.057 A 
ATOM     77  C   UNL A   1      35.853  32.334  31.066  1.00  0.00     0.134 A 
ATOM     78  C   UNL A   1      36.684  33.519  29.160  1.00  0.00     0.134 A 
ATOM     79  F   UNL A   1      36.012  31.462  32.072  1.00  0.00    -0.206 F 
ATOM     80  C   UNL A   1      34.597  32.917  30.890  1.00  0.00     0.040 A 
ATOM     81  C   UNL A   1      35.440  34.127  28.987  1.00  0.00     0.040 A 
ATOM     82  F   UNL A   1      37.667  33.836  28.304  1.00  0.00    -0.206 F 
ATOM     83  C   UNL A   1      34.390  33.822  29.850  1.00  0.00     0.006 A 
ENDBRANCH  55  76
BRANCH  67  84
ATOM     84  C   UNL A   1      42.657  34.469  33.675  1.00  0.00     0.057 A 
ATOM     85  C   UNL A   1      42.462  34.498  35.061  1.00  0.00     0.134 A 
ATOM     86  C   UNL A   1      43.221  35.602  33.075  1.00  0.00     0.134 A 
ATOM     87  F   UNL A   1      41.911  33.450  35.692  1.00  0.00    -0.206 F 
ATOM     88  C   UNL A   1      42.803  35.618  35.821  1.00  0.00     0.040 A 
ATOM     89  C   UNL A   1      43.586  36.720  33.827  1.00  0.00     0.040 A 
ATOM     90  F   UNL A   1      43.438  35.635  31.751  1.00  0.00    -0.206 F 
ATOM     91  C   UNL A   1      43.374  36.731  35.205  1.00  0.00     0.006 A 
ENDBRANCH  67  84
ENDBRANCH  41  42
ENDBRANCH  33  36
ENDBRANCH  31  32
ENDBRANCH  30  31
ENDBRANCH   1  30
TORSDOF 14
ENDMDL
MODEL 3
REMARK VINA RESULT:     -10.0      5.482     10.763
REMARK SMILES N#C/C(=C\c1ccc(-c2cc(C(=O)NCCCNC(=O)c3ccc(-c4c5nc(c(-c6c(F)cccc6F)c6ccc([nH]6)c(-c6c(F)cccc6F)c6nc(c(-c7c(F)cccc7F)c7ccc4[nH]7)C=C6)C=C5)cc3)ccc2Cl)o1)C(=O)N1CCOCC1
REMARK SMILES IDX 15 1 14 2 12 3 13 4 11 6 9 7 10 8 77 9 76 10 78 11 75 12
REMARK SMILES IDX 8 13 5 14 6 15 79 16 7 17 4 18 3 19 2 20 1 21 80 22 81 23
REMARK SMILES IDX 82 24 83 25 87 26 84 27 86 28 85 29 16 30 17 31 18 32 19 33
REMARK SMILES IDX 20 35 21 36 22 37 74 38 23 39 73 40 24 41 25 42 26 43 67 44
REMARK SMILES IDX 27 45 72 46 66 47 68 48 28 49 71 50 65 51 64 52 29 54 55 55
REMARK SMILES IDX 38 56 54 57 39 58 42 59 53 60 69 61 40 62 41 63 52 65 70 66
REMARK SMILES IDX 43 67 30 68 31 69 36 70 32 71 33 72 35 73 37 74 34 75 56 76
REMARK SMILES IDX 57 77 62 78 58 79 59 80 61 81 63 82 60 83 44 84 45 85 50 86
REMARK SMILES IDX 46 87 47 88 49 89 51 90 48 91
REMARK H PARENT 14 5 18 34 68 53 42 64
REMARK Flexibility Score: inf
ROOT
ATOM      1  C   UNL A   1      31.401  31.015  25.983  1.00  0.00     0.118 C 
ENDROOT
BRANCH   1   2
ATOM      2  N   UNL A   1      32.665  30.422  26.386  1.00  0.00    -0.352 N 
ATOM      3  C   UNL A   1      33.264  29.214  26.132  1.00  0.00     0.251 C 
ATOM      4  O   UNL A   1      34.401  29.048  26.576  1.00  0.00    -0.269 OA
ATOM      5  H   UNL A   1      33.205  31.011  26.962  1.00  0.00     0.163 HD
BRANCH   3   6
ATOM      6  C   UNL A   1      32.640  28.116  25.338  1.00  0.00     0.040 A 
ATOM      7  C   UNL A   1      32.041  25.730  25.248  1.00  0.00     0.037 A 
ATOM      8  C   UNL A   1      32.610  26.830  25.918  1.00  0.00     0.027 A 
ATOM      9  C   UNL A   1      31.501  25.934  23.969  1.00  0.00     0.052 A 
ATOM     10  C   UNL A   1      31.493  27.209  23.401  1.00  0.00     0.022 A 
ATOM     11  Cl  UNL A   1      30.786  24.660  23.041  1.00  0.00    -0.084 Cl
ATOM     12  C   UNL A   1      32.037  28.296  24.092  1.00  0.00     0.015 A 
BRANCH   7  13
ATOM     13  C   UNL A   1      32.054  24.414  25.873  1.00  0.00     0.136 A 
ATOM     14  C   UNL A   1      32.910  22.379  26.207  1.00  0.00     0.129 A 
ATOM     15  C   UNL A   1      31.868  22.575  27.112  1.00  0.00     0.051 A 
ATOM     16  O   UNL A   1      33.025  23.543  25.468  1.00  0.00    -0.457 OA
ATOM     17  C   UNL A   1      31.298  23.842  26.867  1.00  0.00     0.051 A 
BRANCH  14  18
ATOM     18  C   UNL A   1      33.773  21.247  26.010  1.00  0.00     0.072 C 
ATOM     19  C   UNL A   1      33.667  20.386  24.965  1.00  0.00     0.121 C 
BRANCH  19  20
ATOM     20  C   UNL A   1      32.819  20.909  23.817  1.00  0.00     0.105 C 
ATOM     21  N   UNL A   1      32.116  21.343  22.864  1.00  0.00    -0.192 NA
ENDBRANCH  19  20
BRANCH  19  22
ATOM     22  C   UNL A   1      34.685  19.329  24.727  1.00  0.00     0.264 C 
ATOM     23  O   UNL A   1      35.871  19.615  24.888  1.00  0.00    -0.268 OA
ATOM     24  N   UNL A   1      34.283  18.044  24.399  1.00  0.00    -0.333 N 
ATOM     25  C   UNL A   1      32.987  17.587  23.871  1.00  0.00     0.148 C 
ATOM     26  C   UNL A   1      35.226  16.938  24.596  1.00  0.00     0.148 C 
ATOM     27  C   UNL A   1      32.405  16.487  24.774  1.00  0.00     0.181 C 
ATOM     28  C   UNL A   1      34.582  15.880  25.502  1.00  0.00     0.181 C 
ATOM     29  O   UNL A   1      33.342  15.410  24.943  1.00  0.00    -0.378 OA
ENDBRANCH  19  22
ENDBRANCH  14  18
ENDBRANCH   7  13
ENDBRANCH   3   6
ENDBRANCH   1   2
BRANCH   1  30
ATOM     30  C   UNL A   1      31.259  32.446  26.508  1.00  0.00     0.042 C 
BRANCH  30  31
ATOM     31  C   UNL A   1      32.467  32.929  27.312  1.00  0.00     0.118 C 
BRANCH  31  32
ATOM     32  N   UNL A   1      32.337  34.324  27.709  1.00  0.00    -0.352 N 
ATOM     33  C   UNL A   1      32.978  35.034  28.694  1.00  0.00     0.251 C 
ATOM     34  H   UNL A   1      31.682  34.843  27.187  1.00  0.00     0.163 HD
ATOM     35  O   UNL A   1      32.553  36.139  29.013  1.00  0.00    -0.269 OA
BRANCH  33  36
ATOM     36  C   UNL A   1      34.169  34.485  29.382  1.00  0.00     0.039 A 
ATOM     37  C   UNL A   1      33.998  33.846  30.614  1.00  0.00     0.014 A 
ATOM     38  C   UNL A   1      35.455  34.651  28.858  1.00  0.00     0.014 A 
ATOM     39  C   UNL A   1      35.104  33.322  31.291  1.00  0.00     0.010 A 
ATOM     40  C   UNL A   1      36.550  34.077  29.503  1.00  0.00     0.010 A 
ATOM     41  C   UNL A   1      36.386  33.405  30.724  1.00  0.00    -0.014 A 
BRANCH  41  42
ATOM     42  C   UNL A   1      37.564  32.787  31.384  1.00  0.00     0.031 A 
ATOM     43  C   UNL A   1      38.243  31.596  30.768  1.00  0.00     0.074 A 
ATOM     44  C   UNL A   1      37.975  33.254  32.578  1.00  0.00     0.049 A 
ATOM     45  N   UNL A   1      39.210  30.855  31.248  1.00  0.00    -0.248 NA
ATOM     46  C   UNL A   1      37.754  31.166  29.450  1.00  0.00     0.031 C 
ATOM     47  C   UNL A   1      37.379  34.382  33.297  1.00  0.00     0.029 A 
ATOM     48  N   UNL A   1      38.979  32.824  33.409  1.00  0.00    -0.354 N 
ATOM     49  C   UNL A   1      39.435  29.865  30.300  1.00  0.00     0.074 A 
ATOM     50  C   UNL A   1      38.474  30.074  29.237  1.00  0.00     0.031 C 
ATOM     51  C   UNL A   1      38.032  34.560  34.455  1.00  0.00     0.029 A 
ATOM     52  C   UNL A   1      39.065  33.537  34.581  1.00  0.00     0.049 A 
ATOM     53  H   UNL A   1      39.581  32.077  33.187  1.00  0.00     0.167 HD
ATOM     54  C   UNL A   1      40.366  28.882  30.308  1.00  0.00     0.037 A 
ATOM     55  C   UNL A   1      39.873  33.373  35.646  1.00  0.00     0.037 A 
ATOM     56  C   UNL A   1      41.334  28.689  31.356  1.00  0.00     0.049 A 
ATOM     57  C   UNL A   1      40.884  32.262  35.639  1.00  0.00     0.074 A 
ATOM     58  C   UNL A   1      42.360  27.762  31.424  1.00  0.00     0.029 A 
ATOM     59  N   UNL A   1      41.393  29.435  32.524  1.00  0.00    -0.354 N 
ATOM     60  N   UNL A   1      41.123  31.368  34.711  1.00  0.00    -0.248 NA
ATOM     61  C   UNL A   1      41.737  32.135  36.830  1.00  0.00     0.031 C 
ATOM     62  C   UNL A   1      43.014  27.921  32.650  1.00  0.00     0.029 A 
ATOM     63  C   UNL A   1      42.420  28.973  33.329  1.00  0.00     0.049 A 
ATOM     64  H   UNL A   1      40.792  30.183  32.746  1.00  0.00     0.167 HD
ATOM     65  C   UNL A   1      42.159  30.583  35.197  1.00  0.00     0.074 A 
ATOM     66  C   UNL A   1      42.518  31.118  36.494  1.00  0.00     0.031 C 
ATOM     67  C   UNL A   1      42.759  29.512  34.621  1.00  0.00     0.037 A 
BRANCH  54  68
ATOM     68  C   UNL A   1      40.384  27.938  29.141  1.00  0.00     0.057 A 
ATOM     69  C   UNL A   1      39.636  26.754  29.140  1.00  0.00     0.134 A 
ATOM     70  C   UNL A   1      41.131  28.231  27.993  1.00  0.00     0.134 A 
ATOM     71  F   UNL A   1      38.906  26.410  30.211  1.00  0.00    -0.206 F 
ATOM     72  C   UNL A   1      39.650  25.882  28.049  1.00  0.00     0.040 A 
ATOM     73  C   UNL A   1      41.135  27.379  26.887  1.00  0.00     0.040 A 
ATOM     74  F   UNL A   1      41.864  29.352  27.926  1.00  0.00    -0.206 F 
ATOM     75  C   UNL A   1      40.398  26.198  26.916  1.00  0.00     0.006 A 
ENDBRANCH  54  68
BRANCH  55  76
ATOM     76  C   UNL A   1      39.757  34.288  36.808  1.00  0.00     0.057 A 
ATOM     77  C   UNL A   1      39.003  33.934  37.932  1.00  0.00     0.134 A 
ATOM     78  C   UNL A   1      40.397  35.533  36.825  1.00  0.00     0.134 A 
ATOM     79  F   UNL A   1      38.351  32.762  37.965  1.00  0.00    -0.206 F 
ATOM     80  C   UNL A   1      38.876  34.791  39.026  1.00  0.00     0.040 A 
ATOM     81  C   UNL A   1      40.298  36.389  37.923  1.00  0.00     0.040 A 
ATOM     82  F   UNL A   1      41.141  35.926  35.781  1.00  0.00    -0.206 F 
ATOM     83  C   UNL A   1      39.531  36.021  39.026  1.00  0.00     0.006 A 
ENDBRANCH  55  76
BRANCH  67  84
ATOM     84  C   UNL A   1      43.869  28.857  35.387  1.00  0.00     0.057 A 
ATOM     85  C   UNL A   1      43.626  27.793  36.264  1.00  0.00     0.134 A 
ATOM     86  C   UNL A   1      45.197  29.269  35.217  1.00  0.00     0.134 A 
ATOM     87  F   UNL A   1      42.374  27.363  36.481  1.00  0.00    -0.206 F 
ATOM     88  C   UNL A   1      44.665  27.169  36.958  1.00  0.00     0.040 A 
ATOM     89  C   UNL A   1      46.246  28.639  35.888  1.00  0.00     0.040 A 
ATOM     90  F   UNL A   1      45.496  30.279  34.388  1.00  0.00    -0.206 F 
ATOM     91  C   UNL A   1      45.980  27.588  36.765  1.00  0.00     0.006 A 
ENDBRANCH  67  84
ENDBRANCH  41  42
ENDBRANCH  33  36
ENDBRANCH  31  32
ENDBRANCH  30  31
ENDBRANCH   1  30
TORSDOF 14
ENDMDL
