MODEL 1
REMARK VINA RESULT:     -11.4      0.000      0.000
REMARK SMILES Cc1nc(C(=O)NCCCNC(=O)c2ccc(-c3c4nc(c(-c5c(F)cccc5F)c5ccc([nH]5)c(-c5c(F)cccc5F)c5nc(c(-c6c(F)cccc6F)c6ccc3[nH]6)C=C5)C=C4)cc2)nn1-c1cccc(C(F)(F)F)c1
REMARK SMILES IDX 9 1 8 2 7 3 5 4 6 5 4 7 1 8 2 9 3 10 69 11 68 12 70 13 71 14
REMARK SMILES IDX 79 15 72 16 74 17 73 18 75 19 76 20 77 21 78 22 10 23 11 24
REMARK SMILES IDX 12 25 13 27 14 28 15 29 67 30 16 31 66 32 17 33 18 34 19 35
REMARK SMILES IDX 60 36 20 37 65 38 59 39 61 40 21 41 64 42 58 43 57 44 22 46
REMARK SMILES IDX 48 47 31 48 47 49 32 50 35 51 46 52 62 53 33 54 34 55 45 57
REMARK SMILES IDX 63 58 36 59 23 60 24 61 29 62 25 63 26 64 28 65 30 66 27 67
REMARK SMILES IDX 49 68 50 69 55 70 51 71 52 72 54 73 56 74 53 75 37 76 38 77
REMARK SMILES IDX 43 78 39 79 40 80 42 81 44 82 41 83
REMARK H PARENT 7 6 11 26 61 45 35 56
REMARK Flexibility Score: inf
ROOT
ATOM      1  C   UNL A   1      34.295  35.811  28.375  1.00  0.00     0.042 C 
ENDROOT
BRANCH   1   2
ATOM      2  C   UNL A   1      32.914  35.649  29.019  1.00  0.00     0.118 C 
BRANCH   2   3
ATOM      3  N   UNL A   1      32.731  36.494  30.195  1.00  0.00    -0.349 N 
ATOM      4  C   UNL A   1      33.246  36.401  31.479  1.00  0.00     0.290 C 
ATOM      5  O   UNL A   1      32.870  37.253  32.289  1.00  0.00    -0.266 OA
ATOM      6  H   UNL A   1      32.137  37.267  30.052  1.00  0.00     0.163 HD
BRANCH   4   7
ATOM      7  C   UNL A   1      34.174  35.309  31.848  1.00  0.00     0.239 A 
ATOM      8  C   UNL A   1      35.216  31.904  32.160  1.00  0.00     0.090 C 
ATOM      9  C   UNL A   1      35.043  33.364  31.977  1.00  0.00     0.130 A 
ATOM     10  N   UNL A   1      33.943  33.973  31.572  1.00  0.00    -0.207 NA
ATOM     11  N   UNL A   1      35.950  34.321  32.381  1.00  0.00    -0.217 N 
ATOM     12  N   UNL A   1      35.323  35.501  32.509  1.00  0.00    -0.140 NA
BRANCH  11  13
ATOM     13  C   UNL A   1      37.355  34.286  32.528  1.00  0.00     0.067 A 
ATOM     14  C   UNL A   1      37.899  34.477  33.807  1.00  0.00     0.028 A 
ATOM     15  C   UNL A   1      38.192  34.230  31.408  1.00  0.00     0.041 A 
ATOM     16  C   UNL A   1      39.277  34.563  33.976  1.00  0.00     0.003 A 
ATOM     17  C   UNL A   1      39.582  34.370  31.569  1.00  0.00     0.058 A 
ATOM     18  C   UNL A   1      40.114  34.511  32.862  1.00  0.00     0.013 A 
BRANCH  17  19
ATOM     19  C   UNL A   1      40.505  34.421  30.375  1.00  0.00     0.416 C 
ATOM     20  F   UNL A   1      39.960  35.099  29.327  1.00  0.00    -0.166 F 
ATOM     21  F   UNL A   1      41.683  35.043  30.655  1.00  0.00    -0.166 F 
ATOM     22  F   UNL A   1      40.834  33.191  29.893  1.00  0.00    -0.166 F 
ENDBRANCH  17  19
ENDBRANCH  11  13
ENDBRANCH   4   7
ENDBRANCH   2   3
ENDBRANCH   1   2
BRANCH   1  23
ATOM     23  C   UNL A   1      35.029  34.482  28.298  1.00  0.00     0.118 C 
BRANCH  23  24
ATOM     24  N   UNL A   1      34.123  33.328  28.305  1.00  0.00    -0.352 N 
ATOM     25  C   UNL A   1      34.419  31.992  28.098  1.00  0.00     0.251 C 
ATOM     26  H   UNL A   1      33.176  33.533  28.479  1.00  0.00     0.163 HD
ATOM     27  O   UNL A   1      33.541  31.192  27.822  1.00  0.00    -0.269 OA
BRANCH  25  28
ATOM     28  C   UNL A   1      35.821  31.552  28.214  1.00  0.00     0.039 A 
ATOM     29  C   UNL A   1      36.795  32.368  28.794  1.00  0.00     0.014 A 
ATOM     30  C   UNL A   1      36.146  30.278  27.759  1.00  0.00     0.014 A 
ATOM     31  C   UNL A   1      38.072  31.849  28.989  1.00  0.00     0.010 A 
ATOM     32  C   UNL A   1      37.336  29.707  28.119  1.00  0.00     0.010 A 
ATOM     33  C   UNL A   1      38.326  30.501  28.677  1.00  0.00    -0.014 A 
BRANCH  33  34
ATOM     34  C   UNL A   1      39.575  29.860  29.075  1.00  0.00     0.031 A 
ATOM     35  C   UNL A   1      39.800  29.875  30.543  1.00  0.00     0.074 A 
ATOM     36  C   UNL A   1      40.344  29.131  28.235  1.00  0.00     0.049 A 
ATOM     37  N   UNL A   1      40.703  30.541  31.179  1.00  0.00    -0.248 NA
ATOM     38  C   UNL A   1      38.811  29.225  31.422  1.00  0.00     0.031 C 
ATOM     39  C   UNL A   1      40.088  28.787  26.832  1.00  0.00     0.029 A 
ATOM     40  N   UNL A   1      41.489  28.440  28.496  1.00  0.00    -0.354 N 
ATOM     41  C   UNL A   1      40.558  30.192  32.517  1.00  0.00     0.074 A 
ATOM     42  C   UNL A   1      39.266  29.567  32.631  1.00  0.00     0.031 C 
ATOM     43  C   UNL A   1      40.896  27.771  26.456  1.00  0.00     0.029 A 
ATOM     44  C   UNL A   1      41.834  27.498  27.528  1.00  0.00     0.049 A 
ATOM     45  H   UNL A   1      42.029  28.594  29.305  1.00  0.00     0.167 HD
ATOM     46  C   UNL A   1      41.641  30.179  33.342  1.00  0.00     0.037 A 
ATOM     47  C   UNL A   1      42.801  26.548  27.625  1.00  0.00     0.037 A 
ATOM     48  C   UNL A   1      42.728  30.947  32.776  1.00  0.00     0.049 A 
ATOM     49  C   UNL A   1      43.731  26.980  28.699  1.00  0.00     0.074 A 
ATOM     50  C   UNL A   1      42.850  32.237  32.292  1.00  0.00     0.029 A 
ATOM     51  N   UNL A   1      43.801  30.260  32.258  1.00  0.00    -0.354 N 
ATOM     52  N   UNL A   1      44.528  28.007  28.592  1.00  0.00    -0.248 NA
ATOM     53  C   UNL A   1      43.415  26.572  30.060  1.00  0.00     0.031 C 
ATOM     54  C   UNL A   1      43.651  32.112  31.117  1.00  0.00     0.029 A 
ATOM     55  C   UNL A   1      44.056  30.783  31.016  1.00  0.00     0.049 A 
ATOM     56  H   UNL A   1      44.293  29.528  32.695  1.00  0.00     0.167 HD
ATOM     57  C   UNL A   1      44.427  28.649  29.815  1.00  0.00     0.074 A 
ATOM     58  C   UNL A   1      43.787  27.679  30.706  1.00  0.00     0.031 C 
ATOM     59  C   UNL A   1      44.578  30.002  29.919  1.00  0.00     0.037 A 
BRANCH  46  60
ATOM     60  C   UNL A   1      41.868  29.133  34.409  1.00  0.00     0.057 A 
ATOM     61  C   UNL A   1      42.361  29.542  35.661  1.00  0.00     0.134 A 
ATOM     62  C   UNL A   1      41.929  27.745  34.168  1.00  0.00     0.134 A 
ATOM     63  F   UNL A   1      42.369  30.838  36.008  1.00  0.00    -0.206 F 
ATOM     64  C   UNL A   1      42.958  28.650  36.559  1.00  0.00     0.040 A 
ATOM     65  C   UNL A   1      42.475  26.841  35.080  1.00  0.00     0.040 A 
ATOM     66  F   UNL A   1      41.570  27.194  33.003  1.00  0.00    -0.206 F 
ATOM     67  C   UNL A   1      43.026  27.295  36.265  1.00  0.00     0.006 A 
ENDBRANCH  46  60
BRANCH  47  68
ATOM     68  C   UNL A   1      42.832  25.170  27.068  1.00  0.00     0.057 A 
ATOM     69  C   UNL A   1      41.989  24.166  27.573  1.00  0.00     0.134 A 
ATOM     70  C   UNL A   1      43.469  24.873  25.850  1.00  0.00     0.134 A 
ATOM     71  F   UNL A   1      41.305  24.358  28.710  1.00  0.00    -0.206 F 
ATOM     72  C   UNL A   1      41.761  22.963  26.889  1.00  0.00     0.040 A 
ATOM     73  C   UNL A   1      43.257  23.672  25.162  1.00  0.00     0.040 A 
ATOM     74  F   UNL A   1      44.250  25.773  25.236  1.00  0.00    -0.206 F 
ATOM     75  C   UNL A   1      42.385  22.718  25.671  1.00  0.00     0.006 A 
ENDBRANCH  47  68
BRANCH  59  76
ATOM     76  C   UNL A   1      45.112  30.764  28.736  1.00  0.00     0.057 A 
ATOM     77  C   UNL A   1      44.339  31.196  27.647  1.00  0.00     0.134 A 
ATOM     78  C   UNL A   1      46.439  31.208  28.779  1.00  0.00     0.134 A 
ATOM     79  F   UNL A   1      43.032  30.915  27.562  1.00  0.00    -0.206 F 
ATOM     80  C   UNL A   1      44.876  31.991  26.628  1.00  0.00     0.040 A 
ATOM     81  C   UNL A   1      46.977  32.032  27.789  1.00  0.00     0.040 A 
ATOM     82  F   UNL A   1      47.227  30.883  29.816  1.00  0.00    -0.206 F 
ATOM     83  C   UNL A   1      46.199  32.418  26.701  1.00  0.00     0.006 A 
ENDBRANCH  59  76
ENDBRANCH  33  34
ENDBRANCH  25  28
ENDBRANCH  23  24
ENDBRANCH   1  23
TORSDOF 12
ENDMDL
MODEL 2
REMARK VINA RESULT:     -11.1      1.050      2.079
REMARK SMILES Cc1nc(C(=O)NCCCNC(=O)c2ccc(-c3c4nc(c(-c5c(F)cccc5F)c5ccc([nH]5)c(-c5c(F)cccc5F)c5nc(c(-c6c(F)cccc6F)c6ccc3[nH]6)C=C5)C=C4)cc2)nn1-c1cccc(C(F)(F)F)c1
REMARK SMILES IDX 9 1 8 2 7 3 5 4 6 5 4 7 1 8 2 9 3 10 69 11 68 12 70 13 71 14
REMARK SMILES IDX 79 15 72 16 74 17 73 18 75 19 76 20 77 21 78 22 10 23 11 24
REMARK SMILES IDX 12 25 13 27 14 28 15 29 67 30 16 31 66 32 17 33 18 34 19 35
REMARK SMILES IDX 60 36 20 37 65 38 59 39 61 40 21 41 64 42 58 43 57 44 22 46
REMARK SMILES IDX 48 47 31 48 47 49 32 50 35 51 46 52 62 53 33 54 34 55 45 57
REMARK SMILES IDX 63 58 36 59 23 60 24 61 29 62 25 63 26 64 28 65 30 66 27 67
REMARK SMILES IDX 49 68 50 69 55 70 51 71 52 72 54 73 56 74 53 75 37 76 38 77
REMARK SMILES IDX 43 78 39 79 40 80 42 81 44 82 41 83
REMARK H PARENT 7 6 11 26 61 45 35 56
REMARK Flexibility Score: inf
ROOT
ATOM      1  C   UNL A   1      34.250  36.120  28.376  1.00  0.00     0.042 C 
ENDROOT
BRANCH   1   2
ATOM      2  C   UNL A   1      32.893  35.955  29.069  1.00  0.00     0.118 C 
BRANCH   2   3
ATOM      3  N   UNL A   1      32.739  36.823  30.234  1.00  0.00    -0.349 N 
ATOM      4  C   UNL A   1      33.225  36.713  31.528  1.00  0.00     0.290 C 
ATOM      5  O   UNL A   1      32.886  37.595  32.322  1.00  0.00    -0.266 OA
ATOM      6  H   UNL A   1      32.195  37.627  30.071  1.00  0.00     0.163 HD
BRANCH   4   7
ATOM      7  C   UNL A   1      34.080  35.573  31.925  1.00  0.00     0.239 A 
ATOM      8  C   UNL A   1      35.008  32.125  32.113  1.00  0.00     0.090 C 
ATOM      9  C   UNL A   1      34.888  33.599  32.015  1.00  0.00     0.130 A 
ATOM     10  N   UNL A   1      33.857  34.265  31.528  1.00  0.00    -0.207 NA
ATOM     11  N   UNL A   1      35.759  34.499  32.592  1.00  0.00    -0.217 N 
ATOM     12  N   UNL A   1      35.145  35.686  32.729  1.00  0.00    -0.140 NA
BRANCH  11  13
ATOM     13  C   UNL A   1      37.135  34.415  32.901  1.00  0.00     0.067 A 
ATOM     14  C   UNL A   1      38.066  34.592  31.866  1.00  0.00     0.028 A 
ATOM     15  C   UNL A   1      37.561  34.003  34.169  1.00  0.00     0.041 A 
ATOM     16  C   UNL A   1      39.423  34.406  32.107  1.00  0.00     0.003 A 
ATOM     17  C   UNL A   1      38.927  33.762  34.401  1.00  0.00     0.058 A 
ATOM     18  C   UNL A   1      39.851  33.992  33.367  1.00  0.00     0.013 A 
BRANCH  17  19
ATOM     19  C   UNL A   1      39.411  33.214  35.723  1.00  0.00     0.416 C 
ATOM     20  F   UNL A   1      39.331  31.856  35.781  1.00  0.00    -0.166 F 
ATOM     21  F   UNL A   1      40.712  33.528  35.971  1.00  0.00    -0.166 F 
ATOM     22  F   UNL A   1      38.702  33.675  36.790  1.00  0.00    -0.166 F 
ENDBRANCH  17  19
ENDBRANCH  11  13
ENDBRANCH   4   7
ENDBRANCH   2   3
ENDBRANCH   1   2
BRANCH   1  23
ATOM     23  C   UNL A   1      34.963  34.786  28.229  1.00  0.00     0.118 C 
BRANCH  23  24
ATOM     24  N   UNL A   1      34.045  33.641  28.270  1.00  0.00    -0.352 N 
ATOM     25  C   UNL A   1      34.331  32.295  28.121  1.00  0.00     0.251 C 
ATOM     26  H   UNL A   1      33.098  33.861  28.423  1.00  0.00     0.163 HD
ATOM     27  O   UNL A   1      33.449  31.492  27.866  1.00  0.00    -0.269 OA
BRANCH  25  28
ATOM     28  C   UNL A   1      35.728  31.847  28.274  1.00  0.00     0.039 A 
ATOM     29  C   UNL A   1      36.687  32.653  28.891  1.00  0.00     0.014 A 
ATOM     30  C   UNL A   1      36.060  30.576  27.816  1.00  0.00     0.014 A 
ATOM     31  C   UNL A   1      37.956  32.126  29.118  1.00  0.00     0.010 A 
ATOM     32  C   UNL A   1      37.237  29.996  28.206  1.00  0.00     0.010 A 
ATOM     33  C   UNL A   1      38.213  30.780  28.801  1.00  0.00    -0.014 A 
BRANCH  33  34
ATOM     34  C   UNL A   1      39.446  30.130  29.229  1.00  0.00     0.031 A 
ATOM     35  C   UNL A   1      39.675  30.211  30.694  1.00  0.00     0.074 A 
ATOM     36  C   UNL A   1      40.196  29.341  28.425  1.00  0.00     0.049 A 
ATOM     37  N   UNL A   1      40.596  30.886  31.296  1.00  0.00    -0.248 NA
ATOM     38  C   UNL A   1      38.673  29.630  31.605  1.00  0.00     0.031 C 
ATOM     39  C   UNL A   1      39.928  28.934  27.042  1.00  0.00     0.029 A 
ATOM     40  N   UNL A   1      41.324  28.636  28.720  1.00  0.00    -0.354 N 
ATOM     41  C   UNL A   1      40.445  30.607  32.649  1.00  0.00     0.074 A 
ATOM     42  C   UNL A   1      39.138  30.020  32.795  1.00  0.00     0.031 C 
ATOM     43  C   UNL A   1      40.711  27.881  26.716  1.00  0.00     0.029 A 
ATOM     44  C   UNL A   1      41.644  27.639  27.799  1.00  0.00     0.049 A 
ATOM     45  H   UNL A   1      41.870  28.816  29.520  1.00  0.00     0.167 HD
ATOM     46  C   UNL A   1      41.529  30.609  33.472  1.00  0.00     0.037 A 
ATOM     47  C   UNL A   1      42.588  26.671  27.942  1.00  0.00     0.037 A 
ATOM     48  C   UNL A   1      42.633  31.321  32.869  1.00  0.00     0.049 A 
ATOM     49  C   UNL A   1      43.530  27.133  28.993  1.00  0.00     0.074 A 
ATOM     50  C   UNL A   1      42.785  32.582  32.321  1.00  0.00     0.029 A 
ATOM     51  N   UNL A   1      43.687  30.583  32.384  1.00  0.00    -0.354 N 
ATOM     52  N   UNL A   1      44.352  28.134  28.834  1.00  0.00    -0.248 NA
ATOM     53  C   UNL A   1      43.207  26.801  30.372  1.00  0.00     0.031 C 
ATOM     54  C   UNL A   1      43.580  32.380  31.154  1.00  0.00     0.029 A 
ATOM     55  C   UNL A   1      43.953  31.037  31.118  1.00  0.00     0.049 A 
ATOM     56  H   UNL A   1      44.163  29.862  32.857  1.00  0.00     0.167 HD
ATOM     57  C   UNL A   1      44.269  28.838  30.024  1.00  0.00     0.074 A 
ATOM     58  C   UNL A   1      43.608  27.930  30.962  1.00  0.00     0.031 C 
ATOM     59  C   UNL A   1      44.454  30.191  30.061  1.00  0.00     0.037 A 
BRANCH  46  60
ATOM     60  C   UNL A   1      41.732  29.612  34.590  1.00  0.00     0.057 A 
ATOM     61  C   UNL A   1      42.330  30.051  35.786  1.00  0.00     0.134 A 
ATOM     62  C   UNL A   1      41.666  28.212  34.435  1.00  0.00     0.134 A 
ATOM     63  F   UNL A   1      42.463  31.359  36.049  1.00  0.00    -0.206 F 
ATOM     64  C   UNL A   1      42.904  29.165  36.705  1.00  0.00     0.040 A 
ATOM     65  C   UNL A   1      42.189  27.320  35.372  1.00  0.00     0.040 A 
ATOM     66  F   UNL A   1      41.195  27.626  33.328  1.00  0.00    -0.206 F 
ATOM     67  C   UNL A   1      42.844  27.795  36.495  1.00  0.00     0.006 A 
ENDBRANCH  46  60
BRANCH  47  68
ATOM     68  C   UNL A   1      42.584  25.268  27.454  1.00  0.00     0.057 A 
ATOM     69  C   UNL A   1      43.691  24.736  26.772  1.00  0.00     0.134 A 
ATOM     70  C   UNL A   1      41.631  24.330  27.889  1.00  0.00     0.134 A 
ATOM     71  F   UNL A   1      44.677  25.536  26.343  1.00  0.00    -0.206 F 
ATOM     72  C   UNL A   1      43.860  23.358  26.573  1.00  0.00     0.040 A 
ATOM     73  C   UNL A   1      41.783  22.952  27.690  1.00  0.00     0.040 A 
ATOM     74  F   UNL A   1      40.562  24.706  28.604  1.00  0.00    -0.206 F 
ATOM     75  C   UNL A   1      42.911  22.459  27.045  1.00  0.00     0.006 A 
ENDBRANCH  47  68
BRANCH  59  76
ATOM     76  C   UNL A   1      45.003  30.880  28.840  1.00  0.00     0.057 A 
ATOM     77  C   UNL A   1      46.368  31.039  28.556  1.00  0.00     0.134 A 
ATOM     78  C   UNL A   1      44.104  31.265  27.839  1.00  0.00     0.134 A 
ATOM     79  F   UNL A   1      47.313  30.607  29.402  1.00  0.00    -0.206 F 
ATOM     80  C   UNL A   1      46.812  31.598  27.353  1.00  0.00     0.040 A 
ATOM     81  C   UNL A   1      44.535  31.790  26.618  1.00  0.00     0.040 A 
ATOM     82  F   UNL A   1      42.784  31.094  28.013  1.00  0.00    -0.206 F 
ATOM     83  C   UNL A   1      45.894  31.969  26.375  1.00  0.00     0.006 A 
ENDBRANCH  59  76
ENDBRANCH  33  34
ENDBRANCH  25  28
ENDBRANCH  23  24
ENDBRANCH   1  23
TORSDOF 12
ENDMDL
MODEL 3
REMARK VINA RESULT:     -10.9      5.105      9.663
REMARK SMILES Cc1nc(C(=O)NCCCNC(=O)c2ccc(-c3c4nc(c(-c5c(F)cccc5F)c5ccc([nH]5)c(-c5c(F)cccc5F)c5nc(c(-c6c(F)cccc6F)c6ccc3[nH]6)C=C5)C=C4)cc2)nn1-c1cccc(C(F)(F)F)c1
REMARK SMILES IDX 9 1 8 2 7 3 5 4 6 5 4 7 1 8 2 9 3 10 69 11 68 12 70 13 71 14
REMARK SMILES IDX 79 15 72 16 74 17 73 18 75 19 76 20 77 21 78 22 10 23 11 24
REMARK SMILES IDX 12 25 13 27 14 28 15 29 67 30 16 31 66 32 17 33 18 34 19 35
REMARK SMILES IDX 60 36 20 37 65 38 59 39 61 40 21 41 64 42 58 43 57 44 22 46
REMARK SMILES IDX 48 47 31 48 47 49 32 50 35 51 46 52 62 53 33 54 34 55 45 57
REMARK SMILES IDX 63 58 36 59 23 60 24 61 29 62 25 63 26 64 28 65 30 66 27 67
REMARK SMILES IDX 49 68 50 69 55 70 51 71 52 72 54 73 56 74 53 75 37 76 38 77
REMARK SMILES IDX 43 78 39 79 40 80 42 81 44 82 41 83
REMARK H PARENT 7 6 11 26 61 45 35 56
REMARK Flexibility Score: inf
ROOT
ATOM      1  C   UNL A   1      37.786  19.937  24.914  1.00  0.00     0.042 C 
ENDROOT
BRANCH   1   2
ATOM      2  C   UNL A   1      36.600  20.888  25.113  1.00  0.00     0.118 C 
BRANCH   2   3
ATOM      3  N   UNL A   1      35.335  20.187  25.315  1.00  0.00    -0.349 N 
ATOM      4  C   UNL A   1      34.022  20.602  25.158  1.00  0.00     0.290 C 
ATOM      5  O   UNL A   1      33.144  19.786  25.452  1.00  0.00    -0.266 OA
ATOM      6  H   UNL A   1      35.432  19.253  25.615  1.00  0.00     0.163 HD
BRANCH   4   7
ATOM      7  C   UNL A   1      33.709  21.971  24.690  1.00  0.00     0.239 A 
ATOM      8  C   UNL A   1      32.924  24.465  22.252  1.00  0.00     0.090 C 
ATOM      9  C   UNL A   1      33.083  23.570  23.422  1.00  0.00     0.130 A 
ATOM     10  N   UNL A   1      33.374  22.282  23.384  1.00  0.00    -0.207 NA
ATOM     11  N   UNL A   1      33.135  23.992  24.734  1.00  0.00    -0.217 N 
ATOM     12  N   UNL A   1      33.740  23.052  25.479  1.00  0.00    -0.140 NA
BRANCH  11  13
ATOM     13  C   UNL A   1      32.564  25.106  25.390  1.00  0.00     0.067 A 
ATOM     14  C   UNL A   1      31.169  25.162  25.522  1.00  0.00     0.028 A 
ATOM     15  C   UNL A   1      33.351  26.204  25.754  1.00  0.00     0.041 A 
ATOM     16  C   UNL A   1      30.562  26.292  26.061  1.00  0.00     0.003 A 
ATOM     17  C   UNL A   1      32.737  27.369  26.248  1.00  0.00     0.058 A 
ATOM     18  C   UNL A   1      31.342  27.390  26.420  1.00  0.00     0.013 A 
BRANCH  17  19
ATOM     19  C   UNL A   1      33.543  28.610  26.549  1.00  0.00     0.416 C 
ATOM     20  F   UNL A   1      33.545  29.491  25.510  1.00  0.00    -0.166 F 
ATOM     21  F   UNL A   1      33.062  29.294  27.622  1.00  0.00    -0.166 F 
ATOM     22  F   UNL A   1      34.851  28.352  26.821  1.00  0.00    -0.166 F 
ENDBRANCH  17  19
ENDBRANCH  11  13
ENDBRANCH   4   7
ENDBRANCH   2   3
ENDBRANCH   1   2
BRANCH   1  23
ATOM     23  C   UNL A   1      38.976  20.352  25.763  1.00  0.00     0.118 C 
BRANCH  23  24
ATOM     24  N   UNL A   1      40.057  19.359  25.755  1.00  0.00    -0.352 N 
ATOM     25  C   UNL A   1      41.416  19.556  25.932  1.00  0.00     0.251 C 
ATOM     26  H   UNL A   1      39.778  18.428  25.600  1.00  0.00     0.163 HD
ATOM     27  O   UNL A   1      42.221  18.705  25.592  1.00  0.00    -0.269 OA
BRANCH  25  28
ATOM     28  C   UNL A   1      41.876  20.819  26.538  1.00  0.00     0.039 A 
ATOM     29  C   UNL A   1      42.197  21.928  25.753  1.00  0.00     0.014 A 
ATOM     30  C   UNL A   1      41.948  20.890  27.926  1.00  0.00     0.014 A 
ATOM     31  C   UNL A   1      42.505  23.129  26.387  1.00  0.00     0.010 A 
ATOM     32  C   UNL A   1      42.062  22.106  28.542  1.00  0.00     0.010 A 
ATOM     33  C   UNL A   1      42.402  23.218  27.787  1.00  0.00    -0.014 A 
BRANCH  33  34
ATOM     34  C   UNL A   1      42.491  24.506  28.466  1.00  0.00     0.031 A 
ATOM     35  C   UNL A   1      41.320  25.384  28.217  1.00  0.00     0.074 A 
ATOM     36  C   UNL A   1      43.423  24.796  29.402  1.00  0.00     0.049 A 
ATOM     37  N   UNL A   1      41.307  26.482  27.541  1.00  0.00    -0.248 NA
ATOM     38  C   UNL A   1      39.979  24.909  28.604  1.00  0.00     0.031 C 
ATOM     39  C   UNL A   1      44.458  23.919  29.961  1.00  0.00     0.029 A 
ATOM     40  N   UNL A   1      43.574  25.928  30.145  1.00  0.00    -0.354 N 
ATOM     41  C   UNL A   1      40.009  26.969  27.635  1.00  0.00     0.074 A 
ATOM     42  C   UNL A   1      39.201  25.873  28.102  1.00  0.00     0.031 C 
ATOM     43  C   UNL A   1      44.947  24.457  31.100  1.00  0.00     0.029 A 
ATOM     44  C   UNL A   1      44.384  25.782  31.271  1.00  0.00     0.049 A 
ATOM     45  H   UNL A   1      43.146  26.782  29.906  1.00  0.00     0.167 HD
ATOM     46  C   UNL A   1      39.778  28.310  27.608  1.00  0.00     0.037 A 
ATOM     47  C   UNL A   1      44.546  26.679  32.279  1.00  0.00     0.037 A 
ATOM     48  C   UNL A   1      40.914  29.018  27.060  1.00  0.00     0.049 A 
ATOM     49  C   UNL A   1      44.118  28.003  31.758  1.00  0.00     0.074 A 
ATOM     50  C   UNL A   1      41.648  28.910  25.893  1.00  0.00     0.029 A 
ATOM     51  N   UNL A   1      41.712  29.726  27.928  1.00  0.00    -0.354 N 
ATOM     52  N   UNL A   1      44.777  28.666  30.848  1.00  0.00    -0.248 NA
ATOM     53  C   UNL A   1      42.710  28.348  31.889  1.00  0.00     0.031 C 
ATOM     54  C   UNL A   1      43.006  29.077  26.299  1.00  0.00     0.029 A 
ATOM     55  C   UNL A   1      43.011  29.382  27.658  1.00  0.00     0.049 A 
ATOM     56  H   UNL A   1      41.407  30.361  28.616  1.00  0.00     0.167 HD
ATOM     57  C   UNL A   1      43.796  29.144  29.995  1.00  0.00     0.074 A 
ATOM     58  C   UNL A   1      42.538  28.984  30.727  1.00  0.00     0.031 C 
ATOM     59  C   UNL A   1      44.044  29.335  28.666  1.00  0.00     0.037 A 
BRANCH  46  60
ATOM     60  C   UNL A   1      38.743  28.999  28.468  1.00  0.00     0.057 A 
ATOM     61  C   UNL A   1      38.684  28.683  29.837  1.00  0.00     0.134 A 
ATOM     62  C   UNL A   1      37.624  29.696  27.967  1.00  0.00     0.134 A 
ATOM     63  F   UNL A   1      39.681  28.011  30.432  1.00  0.00    -0.206 F 
ATOM     64  C   UNL A   1      37.556  28.953  30.620  1.00  0.00     0.040 A 
ATOM     65  C   UNL A   1      36.517  30.018  28.755  1.00  0.00     0.040 A 
ATOM     66  F   UNL A   1      37.483  30.012  26.675  1.00  0.00    -0.206 F 
ATOM     67  C   UNL A   1      36.463  29.613  30.077  1.00  0.00     0.006 A 
ENDBRANCH  46  60
BRANCH  47  68
ATOM     68  C   UNL A   1      44.768  26.443  33.729  1.00  0.00     0.057 A 
ATOM     69  C   UNL A   1      43.702  26.103  34.580  1.00  0.00     0.134 A 
ATOM     70  C   UNL A   1      46.056  26.258  34.266  1.00  0.00     0.134 A 
ATOM     71  F   UNL A   1      42.434  26.207  34.158  1.00  0.00    -0.206 F 
ATOM     72  C   UNL A   1      43.904  25.574  35.863  1.00  0.00     0.040 A 
ATOM     73  C   UNL A   1      46.270  25.739  35.548  1.00  0.00     0.040 A 
ATOM     74  F   UNL A   1      47.153  26.488  33.532  1.00  0.00    -0.206 F 
ATOM     75  C   UNL A   1      45.192  25.377  36.346  1.00  0.00     0.006 A 
ENDBRANCH  47  68
BRANCH  59  76
ATOM     76  C   UNL A   1      45.467  29.265  28.178  1.00  0.00     0.057 A 
ATOM     77  C   UNL A   1      46.122  28.089  27.784  1.00  0.00     0.134 A 
ATOM     78  C   UNL A   1      46.150  30.467  27.959  1.00  0.00     0.134 A 
ATOM     79  F   UNL A   1      45.518  26.895  27.854  1.00  0.00    -0.206 F 
ATOM     80  C   UNL A   1      47.412  28.107  27.242  1.00  0.00     0.040 A 
ATOM     81  C   UNL A   1      47.421  30.503  27.384  1.00  0.00     0.040 A 
ATOM     82  F   UNL A   1      45.568  31.640  28.258  1.00  0.00    -0.206 F 
ATOM     83  C   UNL A   1      48.063  29.319  27.033  1.00  0.00     0.006 A 
ENDBRANCH  59  76
ENDBRANCH  33  34
ENDBRANCH  25  28
ENDBRANCH  23  24
ENDBRANCH   1  23
TORSDOF 12
ENDMDL
