MODEL 1
REMARK VINA RESULT:     -11.0      0.000      0.000
REMARK SMILES CSc1ncc(Cl)c(C(=O)Nc2ccsc2C(=O)NCCCNC(=O)c2ccc(-c3c4nc(c(-c5c(F)cccc5F)c5ccc([nH]5)c(-c5c(F)cccc5F)c5nc(c(-c6c(F)cccc6F)c6ccc3[nH]6)C=C5)C=C4)cc2)n1
REMARK SMILES IDX 20 1 19 2 17 3 18 4 16 6 12 7 13 8 14 9 15 10 11 11 9 12
REMARK SMILES IDX 10 13 8 15 3 16 4 17 80 18 5 19 6 20 7 21 2 22 1 23 21 24
REMARK SMILES IDX 22 25 23 26 24 27 25 29 26 30 27 31 79 32 28 33 78 34 29 35
REMARK SMILES IDX 30 36 31 37 72 38 32 39 77 40 71 41 73 42 33 43 76 44 70 45
REMARK SMILES IDX 69 46 34 48 60 49 43 50 59 51 44 52 47 53 58 54 74 55 45 56
REMARK SMILES IDX 46 57 57 59 75 60 48 61 35 62 36 63 41 64 37 65 38 66 40 67
REMARK SMILES IDX 42 68 39 69 61 70 62 71 67 72 63 73 64 74 66 75 68 76 65 77
REMARK SMILES IDX 49 78 50 79 55 80 51 81 52 82 54 83 56 84 53 85
REMARK H PARENT 19 5 11 14 23 28 73 47 47 58
REMARK Flexibility Score: inf
ROOT
ATOM      1  C   UNL A   1      31.522  30.809  25.909  1.00  0.00     0.118 C 
ENDROOT
BRANCH   1   2
ATOM      2  N   UNL A   1      32.221  29.782  26.634  1.00  0.00    -0.351 N 
ATOM      3  C   UNL A   1      32.244  28.408  26.477  1.00  0.00     0.263 C 
ATOM      4  O   UNL A   1      33.036  27.856  27.252  1.00  0.00    -0.268 OA
ATOM      5  H   UNL A   1      32.781  30.116  27.372  1.00  0.00     0.163 HD
BRANCH   3   6
ATOM      6  C   UNL A   1      31.389  27.644  25.543  1.00  0.00     0.115 A 
ATOM      7  C   UNL A   1      30.837  26.361  25.474  1.00  0.00     0.065 A 
ATOM      8  C   UNL A   1      30.191  26.090  24.226  1.00  0.00     0.038 A 
ATOM      9  C   UNL A   1      30.247  27.153  23.361  1.00  0.00     0.068 A 
ATOM     10  S   UNL A   1      31.040  28.487  24.051  1.00  0.00    -0.137 S 
BRANCH   7  11
ATOM     11  N   UNL A   1      30.868  25.424  26.485  1.00  0.00    -0.319 N 
ATOM     12  C   UNL A   1      31.548  24.215  26.543  1.00  0.00     0.276 C 
ATOM     13  O   UNL A   1      31.503  23.621  27.626  1.00  0.00    -0.267 OA
ATOM     14  H   UNL A   1      30.333  25.645  27.281  1.00  0.00     0.170 HD
BRANCH  12  15
ATOM     15  C   UNL A   1      32.382  23.627  25.437  1.00  0.00     0.151 A 
ATOM     16  C   UNL A   1      32.700  21.690  24.215  1.00  0.00     0.188 A 
ATOM     17  N   UNL A   1      33.605  22.267  23.417  1.00  0.00    -0.230 NA
ATOM     18  N   UNL A   1      32.017  22.342  25.162  1.00  0.00    -0.216 NA
ATOM     19  C   UNL A   1      33.974  23.517  23.743  1.00  0.00     0.137 A 
ATOM     20  C   UNL A   1      33.470  24.215  24.818  1.00  0.00     0.090 A 
ATOM     21  Cl  UNL A   1      34.405  25.544  25.364  1.00  0.00    -0.080 Cl
BRANCH  16  22
ATOM     22  S   UNL A   1      32.527  19.926  24.142  1.00  0.00    -0.090 SA
ATOM     23  C   UNL A   1      34.203  19.435  24.634  1.00  0.00     0.094 C 
ENDBRANCH  16  22
ENDBRANCH  12  15
ENDBRANCH   7  11
ENDBRANCH   3   6
ENDBRANCH   1   2
BRANCH   1  24
ATOM     24  C   UNL A   1      31.300  32.143  26.589  1.00  0.00     0.042 C 
BRANCH  24  25
ATOM     25  C   UNL A   1      32.516  32.776  27.230  1.00  0.00     0.118 C 
BRANCH  25  26
ATOM     26  N   UNL A   1      32.325  34.165  27.626  1.00  0.00    -0.352 N 
ATOM     27  C   UNL A   1      32.972  34.956  28.546  1.00  0.00     0.251 C 
ATOM     28  H   UNL A   1      31.597  34.622  27.146  1.00  0.00     0.163 HD
ATOM     29  O   UNL A   1      32.542  36.092  28.760  1.00  0.00    -0.269 OA
BRANCH  27  30
ATOM     30  C   UNL A   1      34.144  34.469  29.312  1.00  0.00     0.039 A 
ATOM     31  C   UNL A   1      33.935  33.833  30.541  1.00  0.00     0.014 A 
ATOM     32  C   UNL A   1      35.447  34.644  28.853  1.00  0.00     0.014 A 
ATOM     33  C   UNL A   1      35.017  33.292  31.245  1.00  0.00     0.010 A 
ATOM     34  C   UNL A   1      36.503  33.990  29.479  1.00  0.00     0.010 A 
ATOM     35  C   UNL A   1      36.306  33.314  30.690  1.00  0.00    -0.014 A 
BRANCH  35  36
ATOM     36  C   UNL A   1      37.461  32.652  31.355  1.00  0.00     0.031 A 
ATOM     37  C   UNL A   1      38.168  31.503  30.682  1.00  0.00     0.074 A 
ATOM     38  C   UNL A   1      37.823  33.026  32.599  1.00  0.00     0.049 A 
ATOM     39  N   UNL A   1      39.124  30.735  31.142  1.00  0.00    -0.248 NA
ATOM     40  C   UNL A   1      37.715  31.142  29.329  1.00  0.00     0.031 C 
ATOM     41  C   UNL A   1      37.183  34.080  33.389  1.00  0.00     0.029 A 
ATOM     42  N   UNL A   1      38.811  32.549  33.426  1.00  0.00    -0.354 N 
ATOM     43  C   UNL A   1      39.363  29.792  30.149  1.00  0.00     0.074 A 
ATOM     44  C   UNL A   1      38.413  30.043  29.089  1.00  0.00     0.031 C 
ATOM     45  C   UNL A   1      37.811  34.190  34.571  1.00  0.00     0.029 A 
ATOM     46  C   UNL A   1      38.866  33.184  34.644  1.00  0.00     0.049 A 
ATOM     47  H   UNL A   1      39.423  31.821  33.171  1.00  0.00     0.167 HD
ATOM     48  C   UNL A   1      40.308  28.822  30.109  1.00  0.00     0.037 A 
ATOM     49  C   UNL A   1      39.665  32.973  35.707  1.00  0.00     0.037 A 
ATOM     50  C   UNL A   1      41.279  28.600  31.146  1.00  0.00     0.049 A 
ATOM     51  C   UNL A   1      40.713  31.895  35.634  1.00  0.00     0.074 A 
ATOM     52  C   UNL A   1      42.327  27.696  31.165  1.00  0.00     0.029 A 
ATOM     53  N   UNL A   1      41.320  29.285  32.350  1.00  0.00    -0.354 N 
ATOM     54  N   UNL A   1      40.979  31.066  34.655  1.00  0.00    -0.248 NA
ATOM     55  C   UNL A   1      41.574  31.727  36.813  1.00  0.00     0.031 C 
ATOM     56  C   UNL A   1      42.969  27.796  32.404  1.00  0.00     0.029 A 
ATOM     57  C   UNL A   1      42.357  28.805  33.132  1.00  0.00     0.049 A 
ATOM     58  H   UNL A   1      40.704  30.008  32.611  1.00  0.00     0.167 HD
ATOM     59  C   UNL A   1      42.054  30.299  35.086  1.00  0.00     0.074 A 
ATOM     60  C   UNL A   1      42.402  30.775  36.408  1.00  0.00     0.031 C 
ATOM     61  C   UNL A   1      42.696  29.292  34.445  1.00  0.00     0.037 A 
BRANCH  48  62
ATOM     62  C   UNL A   1      40.342  27.930  28.900  1.00  0.00     0.057 A 
ATOM     63  C   UNL A   1      41.099  28.246  27.764  1.00  0.00     0.134 A 
ATOM     64  C   UNL A   1      39.642  26.716  28.889  1.00  0.00     0.134 A 
ATOM     65  F   UNL A   1      41.784  29.398  27.701  1.00  0.00    -0.206 F 
ATOM     66  C   UNL A   1      41.136  27.403  26.651  1.00  0.00     0.040 A 
ATOM     67  C   UNL A   1      39.697  25.850  27.796  1.00  0.00     0.040 A 
ATOM     68  F   UNL A   1      38.902  26.346  29.946  1.00  0.00    -0.206 F 
ATOM     69  C   UNL A   1      40.441  26.196  26.670  1.00  0.00     0.006 A 
ENDBRANCH  48  62
BRANCH  49  70
ATOM     70  C   UNL A   1      39.519  33.806  36.930  1.00  0.00     0.057 A 
ATOM     71  C   UNL A   1      40.231  35.002  37.080  1.00  0.00     0.134 A 
ATOM     72  C   UNL A   1      38.678  33.421  37.981  1.00  0.00     0.134 A 
ATOM     73  F   UNL A   1      41.067  35.416  36.118  1.00  0.00    -0.206 F 
ATOM     74  C   UNL A   1      40.132  35.773  38.241  1.00  0.00     0.040 A 
ATOM     75  C   UNL A   1      38.546  34.197  39.134  1.00  0.00     0.040 A 
ATOM     76  F   UNL A   1      37.963  32.290  37.898  1.00  0.00    -0.206 F 
ATOM     77  C   UNL A   1      39.282  35.373  39.270  1.00  0.00     0.006 A 
ENDBRANCH  49  70
BRANCH  61  78
ATOM     78  C   UNL A   1      43.863  28.661  35.148  1.00  0.00     0.057 A 
ATOM     79  C   UNL A   1      45.165  29.158  35.018  1.00  0.00     0.134 A 
ATOM     80  C   UNL A   1      43.671  27.564  35.998  1.00  0.00     0.134 A 
ATOM     81  F   UNL A   1      45.418  30.199  34.211  1.00  0.00    -0.206 F 
ATOM     82  C   UNL A   1      46.240  28.572  35.690  1.00  0.00     0.040 A 
ATOM     83  C   UNL A   1      44.732  26.989  36.699  1.00  0.00     0.040 A 
ATOM     84  F   UNL A   1      42.447  27.044  36.176  1.00  0.00    -0.206 F 
ATOM     85  C   UNL A   1      46.022  27.489  36.539  1.00  0.00     0.006 A 
ENDBRANCH  61  78
ENDBRANCH  35  36
ENDBRANCH  27  30
ENDBRANCH  25  26
ENDBRANCH  24  25
ENDBRANCH   1  24
TORSDOF 13
ENDMDL
MODEL 2
REMARK VINA RESULT:     -11.0      4.275      8.113
REMARK SMILES CSc1ncc(Cl)c(C(=O)Nc2ccsc2C(=O)NCCCNC(=O)c2ccc(-c3c4nc(c(-c5c(F)cccc5F)c5ccc([nH]5)c(-c5c(F)cccc5F)c5nc(c(-c6c(F)cccc6F)c6ccc3[nH]6)C=C5)C=C4)cc2)n1
REMARK SMILES IDX 20 1 19 2 17 3 18 4 16 6 12 7 13 8 14 9 15 10 11 11 9 12
REMARK SMILES IDX 10 13 8 15 3 16 4 17 80 18 5 19 6 20 7 21 2 22 1 23 21 24
REMARK SMILES IDX 22 25 23 26 24 27 25 29 26 30 27 31 79 32 28 33 78 34 29 35
REMARK SMILES IDX 30 36 31 37 72 38 32 39 77 40 71 41 73 42 33 43 76 44 70 45
REMARK SMILES IDX 69 46 34 48 60 49 43 50 59 51 44 52 47 53 58 54 74 55 45 56
REMARK SMILES IDX 46 57 57 59 75 60 48 61 35 62 36 63 41 64 37 65 38 66 40 67
REMARK SMILES IDX 42 68 39 69 61 70 62 71 67 72 63 73 64 74 66 75 68 76 65 77
REMARK SMILES IDX 49 78 50 79 55 80 51 81 52 82 54 83 56 84 53 85
REMARK H PARENT 19 5 11 14 23 28 73 47 47 58
REMARK Flexibility Score: inf
ROOT
ATOM      1  C   UNL A   1      32.104  26.835  26.703  1.00  0.00     0.118 C 
ENDROOT
BRANCH   1   2
ATOM      2  N   UNL A   1      30.879  26.628  25.978  1.00  0.00    -0.351 N 
ATOM      3  C   UNL A   1      30.636  26.452  24.628  1.00  0.00     0.263 C 
ATOM      4  O   UNL A   1      29.444  26.221  24.387  1.00  0.00    -0.268 OA
ATOM      5  H   UNL A   1      30.072  26.611  26.542  1.00  0.00     0.163 HD
BRANCH   3   6
ATOM      6  C   UNL A   1      31.649  26.577  23.557  1.00  0.00     0.115 A 
ATOM      7  C   UNL A   1      32.279  25.733  22.637  1.00  0.00     0.065 A 
ATOM      8  C   UNL A   1      33.330  26.375  21.909  1.00  0.00     0.038 A 
ATOM      9  C   UNL A   1      33.493  27.689  22.265  1.00  0.00     0.068 A 
ATOM     10  S   UNL A   1      32.369  28.167  23.445  1.00  0.00    -0.137 S 
BRANCH   7  11
ATOM     11  N   UNL A   1      31.945  24.415  22.407  1.00  0.00    -0.319 N 
ATOM     12  C   UNL A   1      32.299  23.280  23.122  1.00  0.00     0.276 C 
ATOM     13  O   UNL A   1      31.758  22.226  22.768  1.00  0.00    -0.267 OA
ATOM     14  H   UNL A   1      31.372  24.257  21.621  1.00  0.00     0.170 HD
BRANCH  12  15
ATOM     15  C   UNL A   1      33.212  23.250  24.319  1.00  0.00     0.151 A 
ATOM     16  C   UNL A   1      35.416  22.920  24.934  1.00  0.00     0.188 A 
ATOM     17  N   UNL A   1      35.169  23.222  26.214  1.00  0.00    -0.230 NA
ATOM     18  N   UNL A   1      34.504  23.001  23.960  1.00  0.00    -0.216 NA
ATOM     19  C   UNL A   1      33.881  23.416  26.541  1.00  0.00     0.137 A 
ATOM     20  C   UNL A   1      32.837  23.335  25.647  1.00  0.00     0.090 A 
ATOM     21  Cl  UNL A   1      31.278  23.105  26.322  1.00  0.00    -0.080 Cl
BRANCH  16  22
ATOM     22  S   UNL A   1      36.984  22.193  24.535  1.00  0.00    -0.090 SA
ATOM     23  C   UNL A   1      36.650  20.471  25.002  1.00  0.00     0.094 C 
ENDBRANCH  16  22
ENDBRANCH  12  15
ENDBRANCH   7  11
ENDBRANCH   3   6
ENDBRANCH   1   2
BRANCH   1  24
ATOM     24  C   UNL A   1      32.297  28.151  27.426  1.00  0.00     0.042 C 
BRANCH  24  25
ATOM     25  C   UNL A   1      33.631  28.834  27.225  1.00  0.00     0.118 C 
BRANCH  25  26
ATOM     26  N   UNL A   1      33.735  30.138  27.867  1.00  0.00    -0.352 N 
ATOM     27  C   UNL A   1      34.771  30.762  28.521  1.00  0.00     0.251 C 
ATOM     28  H   UNL A   1      32.910  30.673  27.823  1.00  0.00     0.163 HD
ATOM     29  O   UNL A   1      34.563  31.847  29.067  1.00  0.00    -0.269 OA
BRANCH  27  30
ATOM     30  C   UNL A   1      36.117  30.147  28.623  1.00  0.00     0.039 A 
ATOM     31  C   UNL A   1      36.981  30.218  27.524  1.00  0.00     0.014 A 
ATOM     32  C   UNL A   1      36.538  29.487  29.774  1.00  0.00     0.014 A 
ATOM     33  C   UNL A   1      38.284  29.718  27.623  1.00  0.00     0.010 A 
ATOM     34  C   UNL A   1      37.870  29.115  29.920  1.00  0.00     0.010 A 
ATOM     35  C   UNL A   1      38.761  29.215  28.843  1.00  0.00    -0.014 A 
BRANCH  35  36
ATOM     36  C   UNL A   1      40.172  28.778  29.019  1.00  0.00     0.031 A 
ATOM     37  C   UNL A   1      41.201  29.734  29.565  1.00  0.00     0.074 A 
ATOM     38  C   UNL A   1      40.550  27.550  28.608  1.00  0.00     0.049 A 
ATOM     39  N   UNL A   1      42.495  29.575  29.694  1.00  0.00    -0.248 NA
ATOM     40  C   UNL A   1      40.721  31.061  29.984  1.00  0.00     0.031 C 
ATOM     41  C   UNL A   1      39.669  26.548  28.004  1.00  0.00     0.029 A 
ATOM     42  N   UNL A   1      41.780  26.939  28.624  1.00  0.00    -0.354 N 
ATOM     43  C   UNL A   1      42.978  30.783  30.183  1.00  0.00     0.074 A 
ATOM     44  C   UNL A   1      41.853  31.686  30.267  1.00  0.00     0.031 C 
ATOM     45  C   UNL A   1      40.379  25.440  27.734  1.00  0.00     0.029 A 
ATOM     46  C   UNL A   1      41.773  25.668  28.099  1.00  0.00     0.049 A 
ATOM     47  H   UNL A   1      42.592  27.370  28.977  1.00  0.00     0.167 HD
ATOM     48  C   UNL A   1      44.241  31.105  30.554  1.00  0.00     0.037 A 
ATOM     49  C   UNL A   1      42.776  24.788  27.920  1.00  0.00     0.037 A 
ATOM     50  C   UNL A   1      45.351  30.192  30.508  1.00  0.00     0.049 A 
ATOM     51  C   UNL A   1      44.168  25.165  28.349  1.00  0.00     0.074 A 
ATOM     52  C   UNL A   1      46.652  30.395  30.937  1.00  0.00     0.029 A 
ATOM     53  N   UNL A   1      45.295  28.903  30.000  1.00  0.00    -0.354 N 
ATOM     54  N   UNL A   1      44.593  26.284  28.885  1.00  0.00    -0.248 NA
ATOM     55  C   UNL A   1      45.219  24.157  28.155  1.00  0.00     0.031 C 
ATOM     56  C   UNL A   1      47.395  29.249  30.637  1.00  0.00     0.029 A 
ATOM     57  C   UNL A   1      46.544  28.310  30.077  1.00  0.00     0.049 A 
ATOM     58  H   UNL A   1      44.487  28.473  29.638  1.00  0.00     0.167 HD
ATOM     59  C   UNL A   1      45.951  26.104  29.117  1.00  0.00     0.074 A 
ATOM     60  C   UNL A   1      46.274  24.761  28.681  1.00  0.00     0.031 C 
ATOM     61  C   UNL A   1      46.849  26.971  29.644  1.00  0.00     0.037 A 
BRANCH  48  62
ATOM     62  C   UNL A   1      44.488  32.502  31.051  1.00  0.00     0.057 A 
ATOM     63  C   UNL A   1      44.355  32.844  32.403  1.00  0.00     0.134 A 
ATOM     64  C   UNL A   1      44.908  33.508  30.171  1.00  0.00     0.134 A 
ATOM     65  F   UNL A   1      43.946  31.932  33.299  1.00  0.00    -0.206 F 
ATOM     66  C   UNL A   1      44.603  34.141  32.858  1.00  0.00     0.040 A 
ATOM     67  C   UNL A   1      45.189  34.800  30.617  1.00  0.00     0.040 A 
ATOM     68  F   UNL A   1      45.063  33.249  28.863  1.00  0.00    -0.206 F 
ATOM     69  C   UNL A   1      45.030  35.121  31.964  1.00  0.00     0.006 A 
ENDBRANCH  48  62
BRANCH  49  70
ATOM     70  C   UNL A   1      42.505  23.457  27.316  1.00  0.00     0.057 A 
ATOM     71  C   UNL A   1      42.078  22.379  28.102  1.00  0.00     0.134 A 
ATOM     72  C   UNL A   1      42.678  23.226  25.946  1.00  0.00     0.134 A 
ATOM     73  F   UNL A   1      41.912  22.531  29.424  1.00  0.00    -0.206 F 
ATOM     74  C   UNL A   1      41.858  21.114  27.553  1.00  0.00     0.040 A 
ATOM     75  C   UNL A   1      42.432  21.974  25.378  1.00  0.00     0.040 A 
ATOM     76  F   UNL A   1      43.078  24.217  25.136  1.00  0.00    -0.206 F 
ATOM     77  C   UNL A   1      42.030  20.911  26.185  1.00  0.00     0.006 A 
ENDBRANCH  49  70
BRANCH  61  78
ATOM     78  C   UNL A   1      48.260  26.484  29.813  1.00  0.00     0.057 A 
ATOM     79  C   UNL A   1      49.231  26.666  28.822  1.00  0.00     0.134 A 
ATOM     80  C   UNL A   1      48.659  25.861  31.002  1.00  0.00     0.134 A 
ATOM     81  F   UNL A   1      48.912  27.246  27.655  1.00  0.00    -0.206 F 
ATOM     82  C   UNL A   1      50.544  26.223  28.997  1.00  0.00     0.040 A 
ATOM     83  C   UNL A   1      49.975  25.442  31.202  1.00  0.00     0.040 A 
ATOM     84  F   UNL A   1      47.780  25.664  31.998  1.00  0.00    -0.206 F 
ATOM     85  C   UNL A   1      50.919  25.617  30.194  1.00  0.00     0.006 A 
ENDBRANCH  61  78
ENDBRANCH  35  36
ENDBRANCH  27  30
ENDBRANCH  25  26
ENDBRANCH  24  25
ENDBRANCH   1  24
TORSDOF 13
ENDMDL
MODEL 3
REMARK VINA RESULT:     -11.0      5.420     10.667
REMARK SMILES CSc1ncc(Cl)c(C(=O)Nc2ccsc2C(=O)NCCCNC(=O)c2ccc(-c3c4nc(c(-c5c(F)cccc5F)c5ccc([nH]5)c(-c5c(F)cccc5F)c5nc(c(-c6c(F)cccc6F)c6ccc3[nH]6)C=C5)C=C4)cc2)n1
REMARK SMILES IDX 20 1 19 2 17 3 18 4 16 6 12 7 13 8 14 9 15 10 11 11 9 12
REMARK SMILES IDX 10 13 8 15 3 16 4 17 80 18 5 19 6 20 7 21 2 22 1 23 21 24
REMARK SMILES IDX 22 25 23 26 24 27 25 29 26 30 27 31 79 32 28 33 78 34 29 35
REMARK SMILES IDX 30 36 31 37 72 38 32 39 77 40 71 41 73 42 33 43 76 44 70 45
REMARK SMILES IDX 69 46 34 48 60 49 43 50 59 51 44 52 47 53 58 54 74 55 45 56
REMARK SMILES IDX 46 57 57 59 75 60 48 61 35 62 36 63 41 64 37 65 38 66 40 67
REMARK SMILES IDX 42 68 39 69 61 70 62 71 67 72 63 73 64 74 66 75 68 76 65 77
REMARK SMILES IDX 49 78 50 79 55 80 51 81 52 82 54 83 56 84 53 85
REMARK H PARENT 19 5 11 14 23 28 73 47 47 58
REMARK Flexibility Score: inf
ROOT
ATOM      1  C   UNL A   1      36.698  20.680  25.011  1.00  0.00     0.118 C 
ENDROOT
BRANCH   1   2
ATOM      2  N   UNL A   1      36.948  22.040  25.410  1.00  0.00    -0.351 N 
ATOM      3  C   UNL A   1      36.085  23.056  25.778  1.00  0.00     0.263 C 
ATOM      4  O   UNL A   1      36.683  24.079  26.136  1.00  0.00    -0.268 OA
ATOM      5  H   UNL A   1      37.900  22.290  25.422  1.00  0.00     0.163 HD
BRANCH   3   6
ATOM      6  C   UNL A   1      34.609  22.986  25.708  1.00  0.00     0.115 A 
ATOM      7  C   UNL A   1      33.603  23.409  24.834  1.00  0.00     0.065 A 
ATOM      8  C   UNL A   1      32.283  23.203  25.349  1.00  0.00     0.038 A 
ATOM      9  C   UNL A   1      32.287  22.627  26.593  1.00  0.00     0.068 A 
ATOM     10  S   UNL A   1      33.863  22.300  27.133  1.00  0.00    -0.137 S 
BRANCH   7  11
ATOM     11  N   UNL A   1      33.810  23.957  23.586  1.00  0.00    -0.319 N 
ATOM     12  C   UNL A   1      33.495  25.225  23.118  1.00  0.00     0.276 C 
ATOM     13  O   UNL A   1      33.905  25.502  21.986  1.00  0.00    -0.267 OA
ATOM     14  H   UNL A   1      34.245  23.363  22.932  1.00  0.00     0.170 HD
BRANCH  12  15
ATOM     15  C   UNL A   1      32.775  26.292  23.901  1.00  0.00     0.151 A 
ATOM     16  C   UNL A   1      33.116  27.955  25.470  1.00  0.00     0.188 A 
ATOM     17  N   UNL A   1      31.848  28.374  25.393  1.00  0.00    -0.230 NA
ATOM     18  N   UNL A   1      33.631  26.993  24.698  1.00  0.00    -0.216 NA
ATOM     19  C   UNL A   1      31.022  27.634  24.635  1.00  0.00     0.137 A 
ATOM     20  C   UNL A   1      31.410  26.507  23.945  1.00  0.00     0.090 A 
ATOM     21  Cl  UNL A   1      30.156  25.438  23.475  1.00  0.00    -0.080 Cl
BRANCH  16  22
ATOM     22  S   UNL A   1      34.121  28.575  26.794  1.00  0.00    -0.090 SA
ATOM     23  C   UNL A   1      33.292  30.162  27.090  1.00  0.00     0.094 C 
ENDBRANCH  16  22
ENDBRANCH  12  15
ENDBRANCH   7  11
ENDBRANCH   3   6
ENDBRANCH   1   2
BRANCH   1  24
ATOM     24  C   UNL A   1      37.861  19.711  24.999  1.00  0.00     0.042 C 
BRANCH  24  25
ATOM     25  C   UNL A   1      39.108  20.155  25.732  1.00  0.00     0.118 C 
BRANCH  25  26
ATOM     26  N   UNL A   1      40.145  19.135  25.816  1.00  0.00    -0.352 N 
ATOM     27  C   UNL A   1      41.493  19.213  26.073  1.00  0.00     0.251 C 
ATOM     28  H   UNL A   1      39.819  18.220  25.660  1.00  0.00     0.163 HD
ATOM     29  O   UNL A   1      42.174  18.189  25.989  1.00  0.00    -0.269 OA
BRANCH  27  30
ATOM     30  C   UNL A   1      42.154  20.497  26.408  1.00  0.00     0.039 A 
ATOM     31  C   UNL A   1      42.681  21.280  25.374  1.00  0.00     0.014 A 
ATOM     32  C   UNL A   1      42.282  20.936  27.723  1.00  0.00     0.014 A 
ATOM     33  C   UNL A   1      43.237  22.533  25.656  1.00  0.00     0.010 A 
ATOM     34  C   UNL A   1      42.707  22.234  27.989  1.00  0.00     0.010 A 
ATOM     35  C   UNL A   1      43.201  23.048  26.961  1.00  0.00    -0.014 A 
BRANCH  35  36
ATOM     36  C   UNL A   1      43.680  24.420  27.281  1.00  0.00     0.031 A 
ATOM     37  C   UNL A   1      42.702  25.488  27.698  1.00  0.00     0.074 A 
ATOM     38  C   UNL A   1      44.982  24.731  27.115  1.00  0.00     0.049 A 
ATOM     39  N   UNL A   1      42.910  26.762  27.917  1.00  0.00    -0.248 NA
ATOM     40  C   UNL A   1      41.295  25.080  27.850  1.00  0.00     0.031 C 
ATOM     41  C   UNL A   1      46.024  23.810  26.656  1.00  0.00     0.029 A 
ATOM     42  N   UNL A   1      45.650  25.917  27.300  1.00  0.00    -0.354 N 
ATOM     43  C   UNL A   1      41.663  27.305  28.206  1.00  0.00     0.074 A 
ATOM     44  C   UNL A   1      40.696  26.240  28.072  1.00  0.00     0.031 C 
ATOM     45  C   UNL A   1      47.201  24.455  26.623  1.00  0.00     0.029 A 
ATOM     46  C   UNL A   1      46.992  25.846  27.010  1.00  0.00     0.049 A 
ATOM     47  H   UNL A   1      45.210  26.741  27.610  1.00  0.00     0.167 HD
ATOM     48  C   UNL A   1      41.354  28.571  28.576  1.00  0.00     0.037 A 
ATOM     49  C   UNL A   1      47.947  26.795  27.040  1.00  0.00     0.037 A 
ATOM     50  C   UNL A   1      42.323  29.620  28.748  1.00  0.00     0.049 A 
ATOM     51  C   UNL A   1      47.579  28.191  27.463  1.00  0.00     0.074 A 
ATOM     52  C   UNL A   1      42.121  30.914  29.197  1.00  0.00     0.029 A 
ATOM     53  N   UNL A   1      43.676  29.499  28.475  1.00  0.00    -0.354 N 
ATOM     54  N   UNL A   1      46.409  28.669  27.811  1.00  0.00    -0.248 NA
ATOM     55  C   UNL A   1      48.666  29.180  27.503  1.00  0.00     0.031 C 
ATOM     56  C   UNL A   1      43.343  31.591  29.143  1.00  0.00     0.029 A 
ATOM     57  C   UNL A   1      44.317  30.702  28.718  1.00  0.00     0.049 A 
ATOM     58  H   UNL A   1      44.117  28.678  28.156  1.00  0.00     0.167 HD
ATOM     59  C   UNL A   1      46.623  30.001  28.139  1.00  0.00     0.074 A 
ATOM     60  C   UNL A   1      48.038  30.252  27.965  1.00  0.00     0.031 C 
ATOM     61  C   UNL A   1      45.728  30.934  28.546  1.00  0.00     0.037 A 
BRANCH  48  62
ATOM     62  C   UNL A   1      39.907  28.891  28.827  1.00  0.00     0.057 A 
ATOM     63  C   UNL A   1      39.343  28.827  30.109  1.00  0.00     0.134 A 
ATOM     64  C   UNL A   1      39.077  29.311  27.780  1.00  0.00     0.134 A 
ATOM     65  F   UNL A   1      40.078  28.421  31.156  1.00  0.00    -0.206 F 
ATOM     66  C   UNL A   1      38.001  29.141  30.335  1.00  0.00     0.040 A 
ATOM     67  C   UNL A   1      37.742  29.659  27.998  1.00  0.00     0.040 A 
ATOM     68  F   UNL A   1      39.552  29.403  26.528  1.00  0.00    -0.206 F 
ATOM     69  C   UNL A   1      37.200  29.568  29.278  1.00  0.00     0.006 A 
ENDBRANCH  48  62
BRANCH  49  70
ATOM     70  C   UNL A   1      49.347  26.460  26.671  1.00  0.00     0.057 A 
ATOM     71  C   UNL A   1      49.826  26.678  25.373  1.00  0.00     0.134 A 
ATOM     72  C   UNL A   1      50.236  25.903  27.598  1.00  0.00     0.134 A 
ATOM     73  F   UNL A   1      49.018  27.191  24.433  1.00  0.00    -0.206 F 
ATOM     74  C   UNL A   1      51.127  26.331  25.003  1.00  0.00     0.040 A 
ATOM     75  C   UNL A   1      51.549  25.579  27.252  1.00  0.00     0.040 A 
ATOM     76  F   UNL A   1      49.844  25.676  28.861  1.00  0.00    -0.206 F 
ATOM     77  C   UNL A   1      51.995  25.784  25.946  1.00  0.00     0.006 A 
ENDBRANCH  49  70
BRANCH  61  78
ATOM     78  C   UNL A   1      46.257  32.302  28.868  1.00  0.00     0.057 A 
ATOM     79  C   UNL A   1      46.312  33.321  27.910  1.00  0.00     0.134 A 
ATOM     80  C   UNL A   1      46.679  32.613  30.168  1.00  0.00     0.134 A 
ATOM     81  F   UNL A   1      45.933  33.087  26.645  1.00  0.00    -0.206 F 
ATOM     82  C   UNL A   1      46.791  34.595  28.226  1.00  0.00     0.040 A 
ATOM     83  C   UNL A   1      47.131  33.890  30.503  1.00  0.00     0.040 A 
ATOM     84  F   UNL A   1      46.643  31.685  31.137  1.00  0.00    -0.206 F 
ATOM     85  C   UNL A   1      47.194  34.883  29.528  1.00  0.00     0.006 A 
ENDBRANCH  61  78
ENDBRANCH  35  36
ENDBRANCH  27  30
ENDBRANCH  25  26
ENDBRANCH  24  25
ENDBRANCH   1  24
TORSDOF 13
ENDMDL
