MODEL 1
REMARK VINA RESULT:     -10.3      0.000      0.000
REMARK SMILES CCCC#C[C@](C)(O)C[NH2+][C@H](C)C(=O)NCCCNC(=O)c1ccc(-c2c3nc(c(-c4c(F)cccc4F)c4ccc([nH]4)c(-c4c(F)cccc4F)c4nc(c(-c5c(F)cccc5F)c5ccc2[nH]5)C=C4)C=C3)cc1
REMARK SMILES IDX 13 1 14 2 15 3 11 5 12 6 10 7 9 10 6 11 7 12 5 13 4 14 3 15
REMARK SMILES IDX 2 16 1 17 8 18 16 20 17 21 18 22 19 23 20 24 21 26 22 27
REMARK SMILES IDX 23 28 75 29 24 30 74 31 25 32 26 33 27 34 68 35 28 36 73 37
REMARK SMILES IDX 67 38 69 39 29 40 72 41 66 42 65 43 30 45 56 46 39 47 55 48
REMARK SMILES IDX 40 49 43 50 54 51 70 52 41 53 42 54 53 56 71 57 44 58 31 59
REMARK SMILES IDX 32 60 37 61 33 62 34 63 36 64 38 65 35 66 57 67 58 68 63 69
REMARK SMILES IDX 59 70 60 71 62 72 64 73 61 74 45 75 46 76 51 77 47 78 48 79
REMARK SMILES IDX 50 80 52 81 49 82
REMARK H PARENT 15 4 10 8 10 9 8 19 19 25 69 44 43 55
REMARK Flexibility Score: inf
ROOT
ATOM      1  C   UNL A   1      31.776  28.361  27.165  1.00  0.00     0.277 C 
ATOM      2  O   UNL A   1      31.630  27.744  28.225  1.00  0.00    -0.268 OA
ATOM      3  N   UNL A   1      31.535  29.706  27.185  1.00  0.00    -0.351 N 
ATOM      4  H   UNL A   1      31.185  30.057  28.036  1.00  0.00     0.163 HD
ENDROOT
BRANCH   1   5
ATOM      5  C   UNL A   1      32.159  27.618  25.860  1.00  0.00     0.269 C 
ATOM      6  C   UNL A   1      33.195  26.536  26.161  1.00  0.00     0.086 C 
BRANCH   5   7
ATOM      7  N   UNL A   1      30.938  27.271  25.116  1.00  0.00    -0.333 N 
ATOM      8  H   UNL A   1      30.495  26.497  25.611  1.00  0.00     0.347 HD
ATOM      9  H   UNL A   1      30.414  28.146  25.079  1.00  0.00     0.347 HD
BRANCH   7  10
ATOM     10  C   UNL A   1      31.056  26.871  23.712  1.00  0.00     0.310 C 
BRANCH  10  11
ATOM     11  C   UNL A   1      31.128  28.087  22.729  1.00  0.00     0.171 C 
ATOM     12  C   UNL A   1      32.464  28.840  22.686  1.00  0.00     0.063 C 
BRANCH  11  13
ATOM     13  C   UNL A   1      30.065  29.057  23.080  1.00  0.00    -0.063 C 
ATOM     14  C   UNL A   1      29.048  29.859  23.236  1.00  0.00    -0.100 C 
BRANCH  14  15
ATOM     15  C   UNL A   1      27.864  30.794  23.418  1.00  0.00     0.089 C 
BRANCH  15  16
ATOM     16  C   UNL A   1      27.979  32.004  22.491  1.00  0.00     0.010 C 
ATOM     17  C   UNL A   1      28.909  33.087  23.028  1.00  0.00     0.005 C 
ENDBRANCH  15  16
ENDBRANCH  14  15
ENDBRANCH  11  13
BRANCH  11  18
ATOM     18  O   UNL A   1      30.879  27.579  21.411  1.00  0.00    -0.372 OA
ATOM     19  H   UNL A   1      31.704  27.232  21.037  1.00  0.00     0.212 HD
ENDBRANCH  11  18
ENDBRANCH  10  11
ENDBRANCH   7  10
ENDBRANCH   5   7
ENDBRANCH   1   5
BRANCH   3  20
ATOM     20  C   UNL A   1      31.718  30.690  26.142  1.00  0.00     0.118 C 
BRANCH  20  21
ATOM     21  C   UNL A   1      31.454  32.109  26.602  1.00  0.00     0.042 C 
BRANCH  21  22
ATOM     22  C   UNL A   1      32.674  32.755  27.233  1.00  0.00     0.118 C 
BRANCH  22  23
ATOM     23  N   UNL A   1      32.447  34.156  27.573  1.00  0.00    -0.352 N 
ATOM     24  C   UNL A   1      33.013  34.940  28.548  1.00  0.00     0.251 C 
ATOM     25  H   UNL A   1      31.780  34.613  27.012  1.00  0.00     0.163 HD
ATOM     26  O   UNL A   1      32.535  36.038  28.802  1.00  0.00    -0.269 OA
BRANCH  24  27
ATOM     27  C   UNL A   1      34.187  34.453  29.300  1.00  0.00     0.039 A 
ATOM     28  C   UNL A   1      33.988  33.788  30.513  1.00  0.00     0.014 A 
ATOM     29  C   UNL A   1      35.481  34.654  28.816  1.00  0.00     0.014 A 
ATOM     30  C   UNL A   1      35.083  33.261  31.198  1.00  0.00     0.010 A 
ATOM     31  C   UNL A   1      36.555  34.031  29.437  1.00  0.00     0.010 A 
ATOM     32  C   UNL A   1      36.371  33.342  30.642  1.00  0.00    -0.014 A 
BRANCH  32  33
ATOM     33  C   UNL A   1      37.543  32.724  31.308  1.00  0.00     0.031 A 
ATOM     34  C   UNL A   1      38.218  31.531  30.691  1.00  0.00     0.074 A 
ATOM     35  C   UNL A   1      37.950  33.190  32.504  1.00  0.00     0.049 A 
ATOM     36  N   UNL A   1      39.209  30.810  31.151  1.00  0.00    -0.248 NA
ATOM     37  C   UNL A   1      37.685  31.063  29.401  1.00  0.00     0.031 C 
ATOM     38  C   UNL A   1      37.342  34.308  33.231  1.00  0.00     0.029 A 
ATOM     39  N   UNL A   1      38.969  32.776  33.324  1.00  0.00    -0.354 N 
ATOM     40  C   UNL A   1      39.402  29.798  30.220  1.00  0.00     0.074 A 
ATOM     41  C   UNL A   1      38.384  29.956  29.207  1.00  0.00     0.031 C 
ATOM     42  C   UNL A   1      38.024  34.514  34.368  1.00  0.00     0.029 A 
ATOM     43  C   UNL A   1      39.085  33.518  34.473  1.00  0.00     0.049 A 
ATOM     44  H   UNL A   1      39.560  32.019  33.108  1.00  0.00     0.167 HD
ATOM     45  C   UNL A   1      40.358  28.839  30.197  1.00  0.00     0.037 A 
ATOM     46  C   UNL A   1      39.949  33.405  35.500  1.00  0.00     0.037 A 
ATOM     47  C   UNL A   1      41.381  28.700  31.200  1.00  0.00     0.049 A 
ATOM     48  C   UNL A   1      40.992  32.324  35.462  1.00  0.00     0.074 A 
ATOM     49  C   UNL A   1      42.436  27.808  31.238  1.00  0.00     0.029 A 
ATOM     50  N   UNL A   1      41.467  29.473  32.350  1.00  0.00    -0.354 N 
ATOM     51  N   UNL A   1      41.215  31.420  34.537  1.00  0.00    -0.248 NA
ATOM     52  C   UNL A   1      41.908  32.250  36.608  1.00  0.00     0.031 C 
ATOM     53  C   UNL A   1      43.128  28.001  32.439  1.00  0.00     0.029 A 
ATOM     54  C   UNL A   1      42.541  29.056  33.120  1.00  0.00     0.049 A 
ATOM     55  H   UNL A   1      40.856  30.209  32.583  1.00  0.00     0.167 HD
ATOM     56  C   UNL A   1      42.312  30.689  34.976  1.00  0.00     0.074 A 
ATOM     57  C   UNL A   1      42.716  31.264  36.242  1.00  0.00     0.031 C 
ATOM     58  C   UNL A   1      42.930  29.638  34.381  1.00  0.00     0.037 A 
BRANCH  45  59
ATOM     59  C   UNL A   1      40.329  27.866  29.051  1.00  0.00     0.057 A 
ATOM     60  C   UNL A   1      41.086  28.064  27.887  1.00  0.00     0.134 A 
ATOM     61  C   UNL A   1      39.530  26.718  29.110  1.00  0.00     0.134 A 
ATOM     62  F   UNL A   1      41.864  29.150  27.757  1.00  0.00    -0.206 F 
ATOM     63  C   UNL A   1      41.016  27.179  26.809  1.00  0.00     0.040 A 
ATOM     64  C   UNL A   1      39.479  25.808  28.052  1.00  0.00     0.040 A 
ATOM     65  F   UNL A   1      38.785  26.460  30.196  1.00  0.00    -0.206 F 
ATOM     66  C   UNL A   1      40.213  26.044  26.893  1.00  0.00     0.006 A 
ENDBRANCH  45  59
BRANCH  46  67
ATOM     67  C   UNL A   1      39.886  34.368  36.627  1.00  0.00     0.057 A 
ATOM     68  C   UNL A   1      40.574  35.585  36.570  1.00  0.00     0.134 A 
ATOM     69  C   UNL A   1      39.129  34.107  37.775  1.00  0.00     0.134 A 
ATOM     70  F   UNL A   1      41.330  35.885  35.504  1.00  0.00    -0.206 F 
ATOM     71  C   UNL A   1      40.523  36.504  37.620  1.00  0.00     0.040 A 
ATOM     72  C   UNL A   1      39.048  35.029  38.822  1.00  0.00     0.040 A 
ATOM     73  F   UNL A   1      38.437  32.964  37.887  1.00  0.00    -0.206 F 
ATOM     74  C   UNL A   1      39.752  36.229  38.747  1.00  0.00     0.006 A 
ENDBRANCH  46  67
BRANCH  58  75
ATOM     75  C   UNL A   1      44.130  29.064  35.077  1.00  0.00     0.057 A 
ATOM     76  C   UNL A   1      45.424  29.548  34.846  1.00  0.00     0.134 A 
ATOM     77  C   UNL A   1      43.982  28.038  36.020  1.00  0.00     0.134 A 
ATOM     78  F   UNL A   1      45.637  30.520  33.946  1.00  0.00    -0.206 F 
ATOM     79  C   UNL A   1      46.530  29.015  35.511  1.00  0.00     0.040 A 
ATOM     80  C   UNL A   1      45.076  27.519  36.713  1.00  0.00     0.040 A 
ATOM     81  F   UNL A   1      42.770  27.535  36.295  1.00  0.00    -0.206 F 
ATOM     82  C   UNL A   1      46.356  28.004  36.453  1.00  0.00     0.006 A 
ENDBRANCH  58  75
ENDBRANCH  32  33
ENDBRANCH  24  27
ENDBRANCH  22  23
ENDBRANCH  21  22
ENDBRANCH  20  21
ENDBRANCH   3  20
TORSDOF 17
ENDMDL
MODEL 2
REMARK VINA RESULT:     -10.2      0.602      6.577
REMARK SMILES CCCC#C[C@](C)(O)C[NH2+][C@H](C)C(=O)NCCCNC(=O)c1ccc(-c2c3nc(c(-c4c(F)cccc4F)c4ccc([nH]4)c(-c4c(F)cccc4F)c4nc(c(-c5c(F)cccc5F)c5ccc2[nH]5)C=C4)C=C3)cc1
REMARK SMILES IDX 13 1 14 2 15 3 11 5 12 6 10 7 9 10 6 11 7 12 5 13 4 14 3 15
REMARK SMILES IDX 2 16 1 17 8 18 16 20 17 21 18 22 19 23 20 24 21 26 22 27
REMARK SMILES IDX 23 28 75 29 24 30 74 31 25 32 26 33 27 34 68 35 28 36 73 37
REMARK SMILES IDX 67 38 69 39 29 40 72 41 66 42 65 43 30 45 56 46 39 47 55 48
REMARK SMILES IDX 40 49 43 50 54 51 70 52 41 53 42 54 53 56 71 57 44 58 31 59
REMARK SMILES IDX 32 60 37 61 33 62 34 63 36 64 38 65 35 66 57 67 58 68 63 69
REMARK SMILES IDX 59 70 60 71 62 72 64 73 61 74 45 75 46 76 51 77 47 78 48 79
REMARK SMILES IDX 50 80 52 81 49 82
REMARK H PARENT 15 4 10 8 10 9 8 19 19 25 69 44 43 55
REMARK Flexibility Score: inf
ROOT
ATOM      1  C   UNL A   1      31.794  28.468  27.145  1.00  0.00     0.277 C 
ATOM      2  O   UNL A   1      31.680  27.855  28.211  1.00  0.00    -0.268 OA
ATOM      3  N   UNL A   1      31.466  29.795  27.148  1.00  0.00    -0.351 N 
ATOM      4  H   UNL A   1      31.088  30.132  27.992  1.00  0.00     0.163 HD
ENDROOT
BRANCH   1   5
ATOM      5  C   UNL A   1      32.234  27.737  25.852  1.00  0.00     0.269 C 
ATOM      6  C   UNL A   1      33.361  26.754  26.166  1.00  0.00     0.086 C 
BRANCH   5   7
ATOM      7  N   UNL A   1      31.044  27.272  25.121  1.00  0.00    -0.333 N 
ATOM      8  H   UNL A   1      30.641  26.506  25.661  1.00  0.00     0.347 HD
ATOM      9  H   UNL A   1      30.471  28.111  25.024  1.00  0.00     0.347 HD
BRANCH   7  10
ATOM     10  C   UNL A   1      31.202  26.792  23.746  1.00  0.00     0.310 C 
BRANCH  10  11
ATOM     11  C   UNL A   1      31.211  27.945  22.688  1.00  0.00     0.171 C 
ATOM     12  C   UNL A   1      32.494  28.786  22.620  1.00  0.00     0.063 C 
BRANCH  11  13
ATOM     13  C   UNL A   1      30.077  28.859  22.957  1.00  0.00    -0.063 C 
ATOM     14  C   UNL A   1      29.012  29.607  23.035  1.00  0.00    -0.100 C 
BRANCH  14  15
ATOM     15  C   UNL A   1      27.771  30.480  23.126  1.00  0.00     0.089 C 
BRANCH  15  16
ATOM     16  C   UNL A   1      27.949  31.765  22.316  1.00  0.00     0.010 C 
ATOM     17  C   UNL A   1      28.779  32.821  23.038  1.00  0.00     0.005 C 
ENDBRANCH  15  16
ENDBRANCH  14  15
ENDBRANCH  11  13
BRANCH  11  18
ATOM     18  O   UNL A   1      31.028  27.339  21.401  1.00  0.00    -0.372 OA
ATOM     19  H   UNL A   1      31.883  27.027  21.065  1.00  0.00     0.212 HD
ENDBRANCH  11  18
ENDBRANCH  10  11
ENDBRANCH   7  10
ENDBRANCH   5   7
ENDBRANCH   1   5
BRANCH   3  20
ATOM     20  C   UNL A   1      31.593  30.777  26.095  1.00  0.00     0.118 C 
BRANCH  20  21
ATOM     21  C   UNL A   1      31.390  32.200  26.573  1.00  0.00     0.042 C 
BRANCH  21  22
ATOM     22  C   UNL A   1      32.661  32.818  27.125  1.00  0.00     0.118 C 
BRANCH  22  23
ATOM     23  N   UNL A   1      32.448  34.172  27.627  1.00  0.00    -0.352 N 
ATOM     24  C   UNL A   1      33.033  34.837  28.676  1.00  0.00     0.251 C 
ATOM     25  H   UNL A   1      31.776  34.693  27.131  1.00  0.00     0.163 HD
ATOM     26  O   UNL A   1      32.566  35.901  29.061  1.00  0.00    -0.269 OA
BRANCH  24  27
ATOM     27  C   UNL A   1      34.215  34.261  29.350  1.00  0.00     0.039 A 
ATOM     28  C   UNL A   1      34.028  33.453  30.474  1.00  0.00     0.014 A 
ATOM     29  C   UNL A   1      35.503  34.520  28.880  1.00  0.00     0.014 A 
ATOM     30  C   UNL A   1      35.130  32.846  31.077  1.00  0.00     0.010 A 
ATOM     31  C   UNL A   1      36.583  33.826  29.408  1.00  0.00     0.010 A 
ATOM     32  C   UNL A   1      36.412  32.994  30.521  1.00  0.00    -0.014 A 
BRANCH  32  33
ATOM     33  C   UNL A   1      37.591  32.300  31.093  1.00  0.00     0.031 A 
ATOM     34  C   UNL A   1      38.230  32.815  32.352  1.00  0.00     0.074 A 
ATOM     35  C   UNL A   1      38.130  31.254  30.438  1.00  0.00     0.049 A 
ATOM     36  N   UNL A   1      39.303  32.390  32.969  1.00  0.00    -0.248 NA
ATOM     37  C   UNL A   1      37.600  33.986  32.983  1.00  0.00     0.031 C 
ATOM     38  C   UNL A   1      37.632  30.695  29.179  1.00  0.00     0.029 A 
ATOM     39  N   UNL A   1      39.221  30.479  30.738  1.00  0.00    -0.354 N 
ATOM     40  C   UNL A   1      39.485  33.251  34.044  1.00  0.00     0.074 A 
ATOM     41  C   UNL A   1      38.455  34.261  33.956  1.00  0.00     0.031 C 
ATOM     42  C   UNL A   1      38.392  29.643  28.835  1.00  0.00     0.029 A 
ATOM     43  C   UNL A   1      39.454  29.482  29.822  1.00  0.00     0.049 A 
ATOM     44  H   UNL A   1      39.781  30.622  31.534  1.00  0.00     0.167 HD
ATOM     45  C   UNL A   1      40.411  33.191  35.030  1.00  0.00     0.037 A 
ATOM     46  C   UNL A   1      40.421  28.546  29.781  1.00  0.00     0.037 A 
ATOM     47  C   UNL A   1      41.422  32.171  35.122  1.00  0.00     0.049 A 
ATOM     48  C   UNL A   1      41.447  28.507  30.878  1.00  0.00     0.074 A 
ATOM     49  C   UNL A   1      42.365  31.978  36.115  1.00  0.00     0.029 A 
ATOM     50  N   UNL A   1      41.626  31.176  34.176  1.00  0.00    -0.354 N 
ATOM     51  N   UNL A   1      41.563  29.279  31.933  1.00  0.00    -0.248 NA
ATOM     52  C   UNL A   1      42.476  27.462  30.782  1.00  0.00     0.031 C 
ATOM     53  C   UNL A   1      43.178  30.902  35.742  1.00  0.00     0.029 A 
ATOM     54  C   UNL A   1      42.702  30.386  34.547  1.00  0.00     0.049 A 
ATOM     55  H   UNL A   1      41.087  31.052  33.362  1.00  0.00     0.167 HD
ATOM     56  C   UNL A   1      42.658  28.797  32.639  1.00  0.00     0.074 A 
ATOM     57  C   UNL A   1      43.162  27.658  31.900  1.00  0.00     0.031 C 
ATOM     58  C   UNL A   1      43.194  29.255  33.798  1.00  0.00     0.037 A 
BRANCH  45  59
ATOM     59  C   UNL A   1      40.368  34.267  36.080  1.00  0.00     0.057 A 
ATOM     60  C   UNL A   1      39.578  34.151  37.233  1.00  0.00     0.134 A 
ATOM     61  C   UNL A   1      41.124  35.436  35.935  1.00  0.00     0.134 A 
ATOM     62  F   UNL A   1      38.818  33.062  37.431  1.00  0.00    -0.206 F 
ATOM     63  C   UNL A   1      39.509  35.176  38.179  1.00  0.00     0.040 A 
ATOM     64  C   UNL A   1      41.090  36.453  36.891  1.00  0.00     0.040 A 
ATOM     65  F   UNL A   1      41.909  35.613  34.860  1.00  0.00    -0.206 F 
ATOM     66  C   UNL A   1      40.270  36.330  38.010  1.00  0.00     0.006 A 
ENDBRANCH  45  59
BRANCH  46  67
ATOM     67  C   UNL A   1      40.435  27.546  28.685  1.00  0.00     0.057 A 
ATOM     68  C   UNL A   1      39.654  26.387  28.761  1.00  0.00     0.134 A 
ATOM     69  C   UNL A   1      41.209  27.730  27.533  1.00  0.00     0.134 A 
ATOM     70  F   UNL A   1      38.904  26.147  29.846  1.00  0.00    -0.206 F 
ATOM     71  C   UNL A   1      39.653  25.438  27.736  1.00  0.00     0.040 A 
ATOM     72  C   UNL A   1      41.197  26.802  26.489  1.00  0.00     0.040 A 
ATOM     73  F   UNL A   1      41.970  28.825  27.394  1.00  0.00    -0.206 F 
ATOM     74  C   UNL A   1      40.421  25.649  26.593  1.00  0.00     0.006 A 
ENDBRANCH  46  67
BRANCH  58  75
ATOM     75  C   UNL A   1      44.368  28.504  34.356  1.00  0.00     0.057 A 
ATOM     76  C   UNL A   1      44.208  27.392  35.193  1.00  0.00     0.134 A 
ATOM     77  C   UNL A   1      45.676  28.875  34.017  1.00  0.00     0.134 A 
ATOM     78  F   UNL A   1      42.983  26.992  35.566  1.00  0.00    -0.206 F 
ATOM     79  C   UNL A   1      45.308  26.693  35.693  1.00  0.00     0.040 A 
ATOM     80  C   UNL A   1      46.782  28.165  34.486  1.00  0.00     0.040 A 
ATOM     81  F   UNL A   1      45.900  29.925  33.213  1.00  0.00    -0.206 F 
ATOM     82  C   UNL A   1      46.599  27.074  35.333  1.00  0.00     0.006 A 
ENDBRANCH  58  75
ENDBRANCH  32  33
ENDBRANCH  24  27
ENDBRANCH  22  23
ENDBRANCH  21  22
ENDBRANCH  20  21
ENDBRANCH   3  20
TORSDOF 17
ENDMDL
MODEL 3
REMARK VINA RESULT:     -10.1      6.341     11.223
REMARK SMILES CCCC#C[C@](C)(O)C[NH2+][C@H](C)C(=O)NCCCNC(=O)c1ccc(-c2c3nc(c(-c4c(F)cccc4F)c4ccc([nH]4)c(-c4c(F)cccc4F)c4nc(c(-c5c(F)cccc5F)c5ccc2[nH]5)C=C4)C=C3)cc1
REMARK SMILES IDX 13 1 14 2 15 3 11 5 12 6 10 7 9 10 6 11 7 12 5 13 4 14 3 15
REMARK SMILES IDX 2 16 1 17 8 18 16 20 17 21 18 22 19 23 20 24 21 26 22 27
REMARK SMILES IDX 23 28 75 29 24 30 74 31 25 32 26 33 27 34 68 35 28 36 73 37
REMARK SMILES IDX 67 38 69 39 29 40 72 41 66 42 65 43 30 45 56 46 39 47 55 48
REMARK SMILES IDX 40 49 43 50 54 51 70 52 41 53 42 54 53 56 71 57 44 58 31 59
REMARK SMILES IDX 32 60 37 61 33 62 34 63 36 64 38 65 35 66 57 67 58 68 63 69
REMARK SMILES IDX 59 70 60 71 62 72 64 73 61 74 45 75 46 76 51 77 47 78 48 79
REMARK SMILES IDX 50 80 52 81 49 82
REMARK H PARENT 15 4 10 8 10 9 8 19 19 25 69 44 43 55
REMARK Flexibility Score: inf
ROOT
ATOM      1  C   UNL A   1      36.528  22.850  25.809  1.00  0.00     0.277 C 
ATOM      2  O   UNL A   1      37.072  23.835  26.318  1.00  0.00    -0.268 OA
ATOM      3  N   UNL A   1      37.339  21.930  25.206  1.00  0.00    -0.351 N 
ATOM      4  H   UNL A   1      38.291  22.175  25.160  1.00  0.00     0.163 HD
ENDROOT
BRANCH   1   5
ATOM      5  C   UNL A   1      34.985  22.706  25.808  1.00  0.00     0.269 C 
ATOM      6  C   UNL A   1      34.440  22.937  27.216  1.00  0.00     0.086 C 
BRANCH   5   7
ATOM      7  N   UNL A   1      34.422  23.459  24.676  1.00  0.00    -0.333 N 
ATOM      8  H   UNL A   1      33.636  24.001  25.038  1.00  0.00     0.347 HD
ATOM      9  H   UNL A   1      35.214  23.992  24.316  1.00  0.00     0.347 HD
BRANCH   7  10
ATOM     10  C   UNL A   1      33.934  22.721  23.509  1.00  0.00     0.310 C 
BRANCH  10  11
ATOM     11  C   UNL A   1      32.443  22.264  23.649  1.00  0.00     0.171 C 
ATOM     12  C   UNL A   1      31.602  23.017  24.690  1.00  0.00     0.063 C 
BRANCH  11  13
ATOM     13  C   UNL A   1      32.408  20.822  23.986  1.00  0.00    -0.063 C 
ATOM     14  C   UNL A   1      32.537  19.580  24.363  1.00  0.00    -0.100 C 
BRANCH  14  15
ATOM     15  C   UNL A   1      32.687  18.132  24.800  1.00  0.00     0.089 C 
BRANCH  15  16
ATOM     16  C   UNL A   1      34.062  17.587  24.414  1.00  0.00     0.010 C 
ATOM     17  C   UNL A   1      34.033  16.713  23.164  1.00  0.00     0.005 C 
ENDBRANCH  15  16
ENDBRANCH  14  15
ENDBRANCH  11  13
BRANCH  11  18
ATOM     18  O   UNL A   1      31.820  22.460  22.372  1.00  0.00    -0.372 OA
ATOM     19  H   UNL A   1      31.604  21.599  21.982  1.00  0.00     0.212 HD
ENDBRANCH  11  18
ENDBRANCH  10  11
ENDBRANCH   7  10
ENDBRANCH   5   7
ENDBRANCH   1   5
BRANCH   3  20
ATOM     20  C   UNL A   1      37.004  20.649  24.624  1.00  0.00     0.118 C 
BRANCH  20  21
ATOM     21  C   UNL A   1      37.974  19.547  25.001  1.00  0.00     0.042 C 
BRANCH  21  22
ATOM     22  C   UNL A   1      39.216  20.074  25.695  1.00  0.00     0.118 C 
BRANCH  22  23
ATOM     23  N   UNL A   1      40.221  19.036  25.898  1.00  0.00    -0.352 N 
ATOM     24  C   UNL A   1      41.572  19.134  26.127  1.00  0.00     0.251 C 
ATOM     25  H   UNL A   1      39.874  18.115  25.867  1.00  0.00     0.163 HD
ATOM     26  O   UNL A   1      42.276  18.134  26.065  1.00  0.00    -0.269 OA
BRANCH  24  27
ATOM     27  C   UNL A   1      42.177  20.447  26.429  1.00  0.00     0.039 A 
ATOM     28  C   UNL A   1      42.644  21.238  25.376  1.00  0.00     0.014 A 
ATOM     29  C   UNL A   1      42.289  20.896  27.747  1.00  0.00     0.014 A 
ATOM     30  C   UNL A   1      43.153  22.509  25.644  1.00  0.00     0.010 A 
ATOM     31  C   UNL A   1      42.687  22.201  27.999  1.00  0.00     0.010 A 
ATOM     32  C   UNL A   1      43.138  23.017  26.953  1.00  0.00    -0.014 A 
BRANCH  32  33
ATOM     33  C   UNL A   1      43.600  24.393  27.257  1.00  0.00     0.031 A 
ATOM     34  C   UNL A   1      42.616  25.437  27.705  1.00  0.00     0.074 A 
ATOM     35  C   UNL A   1      44.891  24.721  27.055  1.00  0.00     0.049 A 
ATOM     36  N   UNL A   1      42.811  26.707  27.952  1.00  0.00    -0.248 NA
ATOM     37  C   UNL A   1      41.218  25.003  27.863  1.00  0.00     0.031 C 
ATOM     38  C   UNL A   1      45.931  23.810  26.571  1.00  0.00     0.029 A 
ATOM     39  N   UNL A   1      45.546  25.913  27.227  1.00  0.00    -0.354 N 
ATOM     40  C   UNL A   1      41.562  27.224  28.273  1.00  0.00     0.074 A 
ATOM     41  C   UNL A   1      40.608  26.149  28.123  1.00  0.00     0.031 C 
ATOM     42  C   UNL A   1      47.100  24.467  26.522  1.00  0.00     0.029 A 
ATOM     43  C   UNL A   1      46.885  25.852  26.925  1.00  0.00     0.049 A 
ATOM     44  H   UNL A   1      45.100  26.734  27.537  1.00  0.00     0.167 HD
ATOM     45  C   UNL A   1      41.243  28.475  28.682  1.00  0.00     0.037 A 
ATOM     46  C   UNL A   1      47.832  26.808  26.966  1.00  0.00     0.037 A 
ATOM     47  C   UNL A   1      42.201  29.535  28.848  1.00  0.00     0.049 A 
ATOM     48  C   UNL A   1      47.452  28.194  27.408  1.00  0.00     0.074 A 
ATOM     49  C   UNL A   1      41.996  30.818  29.321  1.00  0.00     0.029 A 
ATOM     50  N   UNL A   1      43.550  29.434  28.535  1.00  0.00    -0.354 N 
ATOM     51  N   UNL A   1      46.282  28.652  27.785  1.00  0.00    -0.248 NA
ATOM     52  C   UNL A   1      48.527  29.195  27.435  1.00  0.00     0.031 C 
ATOM     53  C   UNL A   1      43.207  31.513  29.239  1.00  0.00     0.029 A 
ATOM     54  C   UNL A   1      44.182  30.644  28.774  1.00  0.00     0.049 A 
ATOM     55  H   UNL A   1      43.991  28.624  28.193  1.00  0.00     0.167 HD
ATOM     56  C   UNL A   1      46.485  29.985  28.120  1.00  0.00     0.074 A 
ATOM     57  C   UNL A   1      47.892  30.256  27.915  1.00  0.00     0.031 C 
ATOM     58  C   UNL A   1      45.586  30.900  28.562  1.00  0.00     0.037 A 
BRANCH  45  59
ATOM     59  C   UNL A   1      39.794  28.756  28.969  1.00  0.00     0.057 A 
ATOM     60  C   UNL A   1      38.911  29.199  27.973  1.00  0.00     0.134 A 
ATOM     61  C   UNL A   1      39.275  28.585  30.258  1.00  0.00     0.134 A 
ATOM     62  F   UNL A   1      39.344  29.397  26.718  1.00  0.00    -0.206 F 
ATOM     63  C   UNL A   1      37.578  29.503  28.259  1.00  0.00     0.040 A 
ATOM     64  C   UNL A   1      37.935  28.852  30.548  1.00  0.00     0.040 A 
ATOM     65  F   UNL A   1      40.060  28.156  31.258  1.00  0.00    -0.206 F 
ATOM     66  C   UNL A   1      37.086  29.325  29.550  1.00  0.00     0.006 A 
ENDBRANCH  45  59
BRANCH  46  67
ATOM     67  C   UNL A   1      49.234  26.474  26.617  1.00  0.00     0.057 A 
ATOM     68  C   UNL A   1      49.722  26.686  25.323  1.00  0.00     0.134 A 
ATOM     69  C   UNL A   1      50.124  25.953  27.565  1.00  0.00     0.134 A 
ATOM     70  F   UNL A   1      48.914  27.167  24.367  1.00  0.00    -0.206 F 
ATOM     71  C   UNL A   1      51.040  26.380  24.978  1.00  0.00     0.040 A 
ATOM     72  C   UNL A   1      51.452  25.667  27.241  1.00  0.00     0.040 A 
ATOM     73  F   UNL A   1      49.721  25.737  28.826  1.00  0.00    -0.206 F 
ATOM     74  C   UNL A   1      51.911  25.876  25.942  1.00  0.00     0.006 A 
ENDBRANCH  46  67
BRANCH  58  75
ATOM     75  C   UNL A   1      46.104  32.271  28.885  1.00  0.00     0.057 A 
ATOM     76  C   UNL A   1      46.113  33.304  27.939  1.00  0.00     0.134 A 
ATOM     77  C   UNL A   1      46.565  32.572  30.174  1.00  0.00     0.134 A 
ATOM     78  F   UNL A   1      45.697  33.080  26.683  1.00  0.00    -0.206 F 
ATOM     79  C   UNL A   1      46.584  34.579  28.257  1.00  0.00     0.040 A 
ATOM     80  C   UNL A   1      47.010  33.850  30.511  1.00  0.00     0.040 A 
ATOM     81  F   UNL A   1      46.576  31.631  31.130  1.00  0.00    -0.206 F 
ATOM     82  C   UNL A   1      47.026  34.857  29.548  1.00  0.00     0.006 A 
ENDBRANCH  58  75
ENDBRANCH  32  33
ENDBRANCH  24  27
ENDBRANCH  22  23
ENDBRANCH  21  22
ENDBRANCH  20  21
ENDBRANCH   3  20
TORSDOF 17
ENDMDL
