MODEL 1
REMARK VINA RESULT:     -12.2      0.000      0.000
REMARK SMILES O=C(NCCCNC(=O)[C@H]1CCCN(C(=O)c2cc(Br)ccc2Cl)C1)c1ccc(-c2c3nc(c(-c4c(F)cccc4F)c4ccc([nH]4)c(-c4c(F)cccc4F)c4nc(c(-c5c(F)cccc5F)c5ccc2[nH]5)C=C4)C=C3)cc1
REMARK SMILES IDX 5 1 4 2 3 3 1 4 2 5 26 7 27 8 79 9 28 10 78 11 29 12 30 13
REMARK SMILES IDX 31 14 72 15 32 16 77 17 71 18 73 19 33 20 76 21 70 22 69 23
REMARK SMILES IDX 34 25 60 26 43 27 59 28 44 29 47 30 58 31 74 32 45 33 46 34
REMARK SMILES IDX 57 36 75 37 48 38 35 39 36 40 41 41 37 42 38 43 40 44 42 45
REMARK SMILES IDX 39 46 61 47 62 48 67 49 63 50 64 51 66 52 68 53 65 54 49 55
REMARK SMILES IDX 50 56 55 57 51 58 52 59 54 60 56 61 53 62 6 63 7 64 8 65
REMARK SMILES IDX 9 67 10 68 11 69 25 70 12 71 14 72 13 73 15 74 16 75 17 76
REMARK SMILES IDX 18 77 23 78 19 79 22 80 24 81 20 82 21 83
REMARK H PARENT 3 6 73 24 47 35 7 66
REMARK Flexibility Score: inf
ROOT
ATOM      1  C   UNL A   1      37.366  19.917  24.789  1.00  0.00     0.042 C 
ENDROOT
BRANCH   1   2
ATOM      2  C   UNL A   1      38.558  20.450  25.574  1.00  0.00     0.118 C 
BRANCH   2   3
ATOM      3  N   UNL A   1      39.610  19.458  25.706  1.00  0.00    -0.352 N 
ATOM      4  O   UNL A   1      41.716  18.688  25.836  1.00  0.00    -0.269 OA
ATOM      5  C   UNL A   1      40.935  19.625  26.015  1.00  0.00     0.251 C 
ATOM      6  H   UNL A   1      39.329  18.528  25.550  1.00  0.00     0.163 HD
BRANCH   5   7
ATOM      7  C   UNL A   1      41.446  20.903  26.557  1.00  0.00     0.039 A 
ATOM      8  C   UNL A   1      41.891  21.931  25.719  1.00  0.00     0.014 A 
ATOM      9  C   UNL A   1      41.390  21.113  27.939  1.00  0.00     0.014 A 
ATOM     10  C   UNL A   1      42.355  23.129  26.261  1.00  0.00     0.010 A 
ATOM     11  C   UNL A   1      41.793  22.336  28.479  1.00  0.00     0.010 A 
ATOM     12  C   UNL A   1      42.289  23.351  27.645  1.00  0.00    -0.014 A 
BRANCH  12  13
ATOM     13  C   UNL A   1      42.655  24.671  28.216  1.00  0.00     0.031 A 
ATOM     14  C   UNL A   1      41.616  25.730  28.432  1.00  0.00     0.074 A 
ATOM     15  C   UNL A   1      43.948  24.928  28.492  1.00  0.00     0.049 A 
ATOM     16  N   UNL A   1      41.770  26.970  28.821  1.00  0.00    -0.248 NA
ATOM     17  C   UNL A   1      40.221  25.350  28.164  1.00  0.00     0.031 C 
ATOM     18  C   UNL A   1      45.051  23.983  28.312  1.00  0.00     0.029 A 
ATOM     19  N   UNL A   1      44.555  26.064  28.963  1.00  0.00    -0.354 N 
ATOM     20  C   UNL A   1      40.498  27.529  28.821  1.00  0.00     0.074 A 
ATOM     21  C   UNL A   1      39.585  26.495  28.378  1.00  0.00     0.031 C 
ATOM     22  C   UNL A   1      46.200  24.576  28.671  1.00  0.00     0.029 A 
ATOM     23  C   UNL A   1      45.921  25.956  29.057  1.00  0.00     0.049 A 
ATOM     24  H   UNL A   1      44.059  26.878  29.210  1.00  0.00     0.167 HD
ATOM     25  C   UNL A   1      40.128  28.787  29.161  1.00  0.00     0.037 A 
ATOM     26  C   UNL A   1      46.851  26.871  29.384  1.00  0.00     0.037 A 
ATOM     27  C   UNL A   1      41.038  29.808  29.612  1.00  0.00     0.049 A 
ATOM     28  C   UNL A   1      46.421  28.263  29.738  1.00  0.00     0.074 A 
ATOM     29  C   UNL A   1      40.753  31.098  30.021  1.00  0.00     0.029 A 
ATOM     30  N   UNL A   1      42.414  29.653  29.705  1.00  0.00    -0.354 N 
ATOM     31  N   UNL A   1      45.211  28.768  29.768  1.00  0.00    -0.248 NA
ATOM     32  C   UNL A   1      47.480  29.214  30.101  1.00  0.00     0.031 C 
ATOM     33  C   UNL A   1      41.960  31.738  30.327  1.00  0.00     0.029 A 
ATOM     34  C   UNL A   1      42.993  30.832  30.146  1.00  0.00     0.049 A 
ATOM     35  H   UNL A   1      42.905  28.828  29.490  1.00  0.00     0.167 HD
ATOM     36  C   UNL A   1      45.361  30.087  30.171  1.00  0.00     0.074 A 
ATOM     37  C   UNL A   1      46.778  30.304  30.379  1.00  0.00     0.031 C 
ATOM     38  C   UNL A   1      44.405  31.030  30.355  1.00  0.00     0.037 A 
BRANCH  25  39
ATOM     39  C   UNL A   1      38.674  29.133  29.034  1.00  0.00     0.057 A 
ATOM     40  C   UNL A   1      37.795  29.057  30.121  1.00  0.00     0.134 A 
ATOM     41  C   UNL A   1      38.151  29.569  27.809  1.00  0.00     0.134 A 
ATOM     42  F   UNL A   1      38.231  28.638  31.319  1.00  0.00    -0.206 F 
ATOM     43  C   UNL A   1      36.442  29.375  29.989  1.00  0.00     0.040 A 
ATOM     44  C   UNL A   1      36.805  29.910  27.670  1.00  0.00     0.040 A 
ATOM     45  F   UNL A   1      38.940  29.671  26.729  1.00  0.00    -0.206 F 
ATOM     46  C   UNL A   1      35.944  29.806  28.760  1.00  0.00     0.006 A 
ENDBRANCH  25  39
BRANCH  26  47
ATOM     47  C   UNL A   1      48.281  26.483  29.380  1.00  0.00     0.057 A 
ATOM     48  C   UNL A   1      49.085  26.699  28.256  1.00  0.00     0.134 A 
ATOM     49  C   UNL A   1      48.889  25.935  30.517  1.00  0.00     0.134 A 
ATOM     50  F   UNL A   1      48.554  27.207  27.135  1.00  0.00    -0.206 F 
ATOM     51  C   UNL A   1      50.445  26.387  28.263  1.00  0.00     0.040 A 
ATOM     52  C   UNL A   1      50.251  25.637  30.544  1.00  0.00     0.040 A 
ATOM     53  F   UNL A   1      48.170  25.714  31.628  1.00  0.00    -0.206 F 
ATOM     54  C   UNL A   1      51.034  25.862  29.413  1.00  0.00     0.006 A 
ENDBRANCH  26  47
BRANCH  38  55
ATOM     55  C   UNL A   1      44.855  32.376  30.838  1.00  0.00     0.057 A 
ATOM     56  C   UNL A   1      44.998  32.659  32.201  1.00  0.00     0.134 A 
ATOM     57  C   UNL A   1      45.201  33.379  29.925  1.00  0.00     0.134 A 
ATOM     58  F   UNL A   1      44.670  31.742  33.124  1.00  0.00    -0.206 F 
ATOM     59  C   UNL A   1      45.465  33.900  32.640  1.00  0.00     0.040 A 
ATOM     60  C   UNL A   1      45.685  34.616  30.351  1.00  0.00     0.040 A 
ATOM     61  F   UNL A   1      45.089  33.167  28.604  1.00  0.00    -0.206 F 
ATOM     62  C   UNL A   1      45.817  34.879  31.713  1.00  0.00     0.006 A 
ENDBRANCH  38  55
ENDBRANCH  12  13
ENDBRANCH   5   7
ENDBRANCH   2   3
ENDBRANCH   1   2
BRANCH   1  63
ATOM     63  C   UNL A   1      36.068  20.690  25.030  1.00  0.00     0.117 C 
BRANCH  63  64
ATOM     64  N   UNL A   1      34.920  19.799  25.056  1.00  0.00    -0.356 N 
ATOM     65  C   UNL A   1      33.585  20.065  24.999  1.00  0.00     0.224 C 
ATOM     66  H   UNL A   1      35.144  18.844  25.127  1.00  0.00     0.163 HD
ATOM     67  O   UNL A   1      32.822  19.107  25.133  1.00  0.00    -0.275 OA
BRANCH  65  68
ATOM     68  C   UNL A   1      33.072  21.477  24.722  1.00  0.00     0.098 C 
ATOM     69  C   UNL A   1      32.832  21.669  23.206  1.00  0.00     0.017 C 
ATOM     70  C   UNL A   1      31.768  21.785  25.456  1.00  0.00     0.133 C 
ATOM     71  C   UNL A   1      32.231  23.040  22.877  1.00  0.00     0.022 C 
ATOM     72  N   UNL A   1      31.306  23.129  25.130  1.00  0.00    -0.338 N 
ATOM     73  C   UNL A   1      30.991  23.336  23.721  1.00  0.00     0.120 C 
BRANCH  72  74
ATOM     74  C   UNL A   1      31.374  24.114  26.110  1.00  0.00     0.255 C 
ATOM     75  O   UNL A   1      30.868  24.008  27.224  1.00  0.00    -0.269 OA
BRANCH  74  76
ATOM     76  C   UNL A   1      32.126  25.346  25.831  1.00  0.00     0.059 A 
ATOM     77  C   UNL A   1      31.397  26.468  25.416  1.00  0.00     0.031 A 
ATOM     78  C   UNL A   1      33.522  25.390  25.912  1.00  0.00     0.053 A 
ATOM     79  C   UNL A   1      32.074  27.649  25.123  1.00  0.00     0.018 A 
ATOM     80  C   UNL A   1      34.188  26.582  25.618  1.00  0.00     0.022 A 
ATOM     81  Cl  UNL A   1      34.472  24.018  26.351  1.00  0.00    -0.083 Cl
ATOM     82  Br  UNL A   1      31.105  29.174  24.576  1.00  0.00    -0.051 Br
ATOM     83  C   UNL A   1      33.464  27.714  25.228  1.00  0.00     0.017 A 
ENDBRANCH  74  76
ENDBRANCH  72  74
ENDBRANCH  65  68
ENDBRANCH  63  64
ENDBRANCH   1  63
TORSDOF 12
ENDMDL
MODEL 2
REMARK VINA RESULT:     -12.2      4.722      9.229
REMARK SMILES O=C(NCCCNC(=O)[C@H]1CCCN(C(=O)c2cc(Br)ccc2Cl)C1)c1ccc(-c2c3nc(c(-c4c(F)cccc4F)c4ccc([nH]4)c(-c4c(F)cccc4F)c4nc(c(-c5c(F)cccc5F)c5ccc2[nH]5)C=C4)C=C3)cc1
REMARK SMILES IDX 5 1 4 2 3 3 1 4 2 5 26 7 27 8 79 9 28 10 78 11 29 12 30 13
REMARK SMILES IDX 31 14 72 15 32 16 77 17 71 18 73 19 33 20 76 21 70 22 69 23
REMARK SMILES IDX 34 25 60 26 43 27 59 28 44 29 47 30 58 31 74 32 45 33 46 34
REMARK SMILES IDX 57 36 75 37 48 38 35 39 36 40 41 41 37 42 38 43 40 44 42 45
REMARK SMILES IDX 39 46 61 47 62 48 67 49 63 50 64 51 66 52 68 53 65 54 49 55
REMARK SMILES IDX 50 56 55 57 51 58 52 59 54 60 56 61 53 62 6 63 7 64 8 65
REMARK SMILES IDX 9 67 10 68 11 69 25 70 12 71 14 72 13 73 15 74 16 75 17 76
REMARK SMILES IDX 18 77 23 78 19 79 22 80 24 81 20 82 21 83
REMARK H PARENT 3 6 73 24 47 35 7 66
REMARK Flexibility Score: inf
ROOT
ATOM      1  C   UNL A   1      31.028  31.545  25.806  1.00  0.00     0.042 C 
ENDROOT
BRANCH   1   2
ATOM      2  C   UNL A   1      32.067  31.865  26.873  1.00  0.00     0.118 C 
BRANCH   2   3
ATOM      3  N   UNL A   1      32.118  33.284  27.174  1.00  0.00    -0.352 N 
ATOM      4  O   UNL A   1      32.690  35.133  28.315  1.00  0.00    -0.269 OA
ATOM      5  C   UNL A   1      32.964  33.972  28.004  1.00  0.00     0.251 C 
ATOM      6  H   UNL A   1      31.444  33.834  26.713  1.00  0.00     0.163 HD
BRANCH   5   7
ATOM      7  C   UNL A   1      34.199  33.352  28.535  1.00  0.00     0.039 A 
ATOM      8  C   UNL A   1      35.427  34.021  28.507  1.00  0.00     0.014 A 
ATOM      9  C   UNL A   1      34.104  32.105  29.162  1.00  0.00     0.014 A 
ATOM     10  C   UNL A   1      36.570  33.414  29.027  1.00  0.00     0.010 A 
ATOM     11  C   UNL A   1      35.234  31.525  29.741  1.00  0.00     0.010 A 
ATOM     12  C   UNL A   1      36.479  32.170  29.670  1.00  0.00    -0.014 A 
BRANCH  12  13
ATOM     13  C   UNL A   1      37.662  31.579  30.342  1.00  0.00     0.031 A 
ATOM     14  C   UNL A   1      38.518  30.566  29.641  1.00  0.00     0.074 A 
ATOM     15  C   UNL A   1      37.932  31.925  31.616  1.00  0.00     0.049 A 
ATOM     16  N   UNL A   1      39.524  29.870  30.108  1.00  0.00    -0.248 NA
ATOM     17  C   UNL A   1      38.195  30.289  28.234  1.00  0.00     0.031 C 
ATOM     18  C   UNL A   1      37.165  32.888  32.407  1.00  0.00     0.029 A 
ATOM     19  N   UNL A   1      38.910  31.492  32.474  1.00  0.00    -0.354 N 
ATOM     20  C   UNL A   1      39.938  29.055  29.064  1.00  0.00     0.074 A 
ATOM     21  C   UNL A   1      39.065  29.331  27.942  1.00  0.00     0.031 C 
ATOM     22  C   UNL A   1      37.703  32.977  33.632  1.00  0.00     0.029 A 
ATOM     23  C   UNL A   1      38.819  32.040  33.729  1.00  0.00     0.049 A 
ATOM     24  H   UNL A   1      39.611  30.851  32.214  1.00  0.00     0.167 HD
ATOM     25  C   UNL A   1      40.955  28.160  29.043  1.00  0.00     0.037 A 
ATOM     26  C   UNL A   1      39.529  31.796  34.846  1.00  0.00     0.037 A 
ATOM     27  C   UNL A   1      41.828  27.896  30.158  1.00  0.00     0.049 A 
ATOM     28  C   UNL A   1      40.638  30.787  34.806  1.00  0.00     0.074 A 
ATOM     29  C   UNL A   1      42.914  27.041  30.220  1.00  0.00     0.029 A 
ATOM     30  N   UNL A   1      41.709  28.483  31.409  1.00  0.00    -0.354 N 
ATOM     31  N   UNL A   1      41.042  30.048  33.801  1.00  0.00    -0.248 NA
ATOM     32  C   UNL A   1      41.387  30.574  36.051  1.00  0.00     0.031 C 
ATOM     33  C   UNL A   1      43.430  27.081  31.521  1.00  0.00     0.029 A 
ATOM     34  C   UNL A   1      42.690  27.993  32.257  1.00  0.00     0.049 A 
ATOM     35  H   UNL A   1      41.029  29.150  31.658  1.00  0.00     0.167 HD
ATOM     36  C   UNL A   1      42.104  29.298  34.285  1.00  0.00     0.074 A 
ATOM     37  C   UNL A   1      42.285  29.674  35.673  1.00  0.00     0.031 C 
ATOM     38  C   UNL A   1      42.861  28.382  33.634  1.00  0.00     0.037 A 
BRANCH  25  39
ATOM     39  C   UNL A   1      41.160  27.382  27.778  1.00  0.00     0.057 A 
ATOM     40  C   UNL A   1      40.558  26.135  27.567  1.00  0.00     0.134 A 
ATOM     41  C   UNL A   1      41.957  27.896  26.746  1.00  0.00     0.134 A 
ATOM     42  F   UNL A   1      39.791  25.582  28.520  1.00  0.00    -0.206 F 
ATOM     43  C   UNL A   1      40.762  25.416  26.388  1.00  0.00     0.040 A 
ATOM     44  C   UNL A   1      42.151  27.196  25.554  1.00  0.00     0.040 A 
ATOM     45  F   UNL A   1      42.558  29.088  26.880  1.00  0.00    -0.206 F 
ATOM     46  C   UNL A   1      41.558  25.948  25.376  1.00  0.00     0.006 A 
ENDBRANCH  25  39
BRANCH  26  47
ATOM     47  C   UNL A   1      39.195  32.526  36.091  1.00  0.00     0.057 A 
ATOM     48  C   UNL A   1      39.710  33.802  36.340  1.00  0.00     0.134 A 
ATOM     49  C   UNL A   1      38.311  31.988  37.034  1.00  0.00     0.134 A 
ATOM     50  F   UNL A   1      40.573  34.362  35.480  1.00  0.00    -0.206 F 
ATOM     51  C   UNL A   1      39.357  34.519  37.485  1.00  0.00     0.040 A 
ATOM     52  C   UNL A   1      37.933  32.701  38.171  1.00  0.00     0.040 A 
ATOM     53  F   UNL A   1      37.777  30.771  36.843  1.00  0.00    -0.206 F 
ATOM     54  C   UNL A   1      38.458  33.972  38.400  1.00  0.00     0.006 A 
ENDBRANCH  26  47
BRANCH  38  55
ATOM     55  C   UNL A   1      43.980  27.747  34.402  1.00  0.00     0.057 A 
ATOM     56  C   UNL A   1      45.227  28.369  34.537  1.00  0.00     0.134 A 
ATOM     57  C   UNL A   1      43.786  26.526  35.060  1.00  0.00     0.134 A 
ATOM     58  F   UNL A   1      45.477  29.533  33.920  1.00  0.00    -0.206 F 
ATOM     59  C   UNL A   1      46.248  27.792  35.296  1.00  0.00     0.040 A 
ATOM     60  C   UNL A   1      44.792  25.949  35.835  1.00  0.00     0.040 A 
ATOM     61  F   UNL A   1      42.612  25.883  34.971  1.00  0.00    -0.206 F 
ATOM     62  C   UNL A   1      46.028  26.582  35.954  1.00  0.00     0.006 A 
ENDBRANCH  38  55
ENDBRANCH  12  13
ENDBRANCH   5   7
ENDBRANCH   2   3
ENDBRANCH   1   2
BRANCH   1  63
ATOM     63  C   UNL A   1      31.257  30.208  25.097  1.00  0.00     0.117 C 
BRANCH  63  64
ATOM     64  N   UNL A   1      30.473  30.116  23.877  1.00  0.00    -0.356 N 
ATOM     65  C   UNL A   1      30.270  29.072  23.026  1.00  0.00     0.224 C 
ATOM     66  H   UNL A   1      30.010  30.946  23.624  1.00  0.00     0.163 HD
ATOM     67  O   UNL A   1      29.619  29.306  22.005  1.00  0.00    -0.275 OA
BRANCH  65  68
ATOM     68  C   UNL A   1      30.778  27.671  23.359  1.00  0.00     0.098 C 
ATOM     69  C   UNL A   1      29.684  26.870  24.105  1.00  0.00     0.017 C 
ATOM     70  C   UNL A   1      31.186  26.880  22.118  1.00  0.00     0.133 C 
ATOM     71  C   UNL A   1      30.106  25.424  24.388  1.00  0.00     0.022 C 
ATOM     72  N   UNL A   1      31.629  25.542  22.489  1.00  0.00    -0.338 N 
ATOM     73  C   UNL A   1      30.606  24.720  23.127  1.00  0.00     0.120 C 
BRANCH  72  74
ATOM     74  C   UNL A   1      32.981  25.232  22.378  1.00  0.00     0.255 C 
ATOM     75  O   UNL A   1      33.653  25.448  21.373  1.00  0.00    -0.269 OA
BRANCH  74  76
ATOM     76  C   UNL A   1      33.675  24.647  23.535  1.00  0.00     0.059 A 
ATOM     77  C   UNL A   1      33.812  23.254  23.571  1.00  0.00     0.031 A 
ATOM     78  C   UNL A   1      34.129  25.438  24.596  1.00  0.00     0.053 A 
ATOM     79  C   UNL A   1      34.446  22.660  24.659  1.00  0.00     0.018 A 
ATOM     80  C   UNL A   1      34.765  24.829  25.681  1.00  0.00     0.022 A 
ATOM     81  Cl  UNL A   1      33.923  27.151  24.635  1.00  0.00    -0.083 Cl
ATOM     82  Br  UNL A   1      34.652  20.783  24.714  1.00  0.00    -0.051 Br
ATOM     83  C   UNL A   1      34.929  23.440  25.710  1.00  0.00     0.017 A 
ENDBRANCH  74  76
ENDBRANCH  72  74
ENDBRANCH  65  68
ENDBRANCH  63  64
ENDBRANCH   1  63
TORSDOF 12
ENDMDL
MODEL 3
REMARK VINA RESULT:     -12.1      0.513      6.320
REMARK SMILES O=C(NCCCNC(=O)[C@H]1CCCN(C(=O)c2cc(Br)ccc2Cl)C1)c1ccc(-c2c3nc(c(-c4c(F)cccc4F)c4ccc([nH]4)c(-c4c(F)cccc4F)c4nc(c(-c5c(F)cccc5F)c5ccc2[nH]5)C=C4)C=C3)cc1
REMARK SMILES IDX 5 1 4 2 3 3 1 4 2 5 26 7 27 8 79 9 28 10 78 11 29 12 30 13
REMARK SMILES IDX 31 14 72 15 32 16 77 17 71 18 73 19 33 20 76 21 70 22 69 23
REMARK SMILES IDX 34 25 60 26 43 27 59 28 44 29 47 30 58 31 74 32 45 33 46 34
REMARK SMILES IDX 57 36 75 37 48 38 35 39 36 40 41 41 37 42 38 43 40 44 42 45
REMARK SMILES IDX 39 46 61 47 62 48 67 49 63 50 64 51 66 52 68 53 65 54 49 55
REMARK SMILES IDX 50 56 55 57 51 58 52 59 54 60 56 61 53 62 6 63 7 64 8 65
REMARK SMILES IDX 9 67 10 68 11 69 25 70 12 71 14 72 13 73 15 74 16 75 17 76
REMARK SMILES IDX 18 77 23 78 19 79 22 80 24 81 20 82 21 83
REMARK H PARENT 3 6 73 24 47 35 7 66
REMARK Flexibility Score: inf
ROOT
ATOM      1  C   UNL A   1      37.318  19.725  24.870  1.00  0.00     0.042 C 
ENDROOT
BRANCH   1   2
ATOM      2  C   UNL A   1      38.555  20.360  25.491  1.00  0.00     0.118 C 
BRANCH   2   3
ATOM      3  N   UNL A   1      39.616  19.391  25.703  1.00  0.00    -0.352 N 
ATOM      4  O   UNL A   1      41.727  18.659  25.932  1.00  0.00    -0.269 OA
ATOM      5  C   UNL A   1      40.929  19.592  26.041  1.00  0.00     0.251 C 
ATOM      6  H   UNL A   1      39.353  18.450  25.585  1.00  0.00     0.163 HD
BRANCH   5   7
ATOM      7  C   UNL A   1      41.408  20.903  26.534  1.00  0.00     0.039 A 
ATOM      8  C   UNL A   1      41.944  21.862  25.668  1.00  0.00     0.014 A 
ATOM      9  C   UNL A   1      41.226  21.215  27.886  1.00  0.00     0.014 A 
ATOM     10  C   UNL A   1      42.374  23.092  26.163  1.00  0.00     0.010 A 
ATOM     11  C   UNL A   1      41.597  22.472  28.370  1.00  0.00     0.010 A 
ATOM     12  C   UNL A   1      42.183  23.418  27.514  1.00  0.00    -0.014 A 
BRANCH  12  13
ATOM     13  C   UNL A   1      42.515  24.773  28.019  1.00  0.00     0.031 A 
ATOM     14  C   UNL A   1      43.910  25.109  28.458  1.00  0.00     0.074 A 
ATOM     15  C   UNL A   1      41.534  25.688  28.130  1.00  0.00     0.049 A 
ATOM     16  N   UNL A   1      44.357  26.202  29.021  1.00  0.00    -0.248 NA
ATOM     17  C   UNL A   1      44.935  24.075  28.248  1.00  0.00     0.031 C 
ATOM     18  C   UNL A   1      40.137  25.475  27.749  1.00  0.00     0.029 A 
ATOM     19  N   UNL A   1      41.557  26.972  28.613  1.00  0.00    -0.354 N 
ATOM     20  C   UNL A   1      45.707  25.982  29.257  1.00  0.00     0.074 A 
ATOM     21  C   UNL A   1      46.004  24.644  28.789  1.00  0.00     0.031 C 
ATOM     22  C   UNL A   1      39.437  26.590  28.007  1.00  0.00     0.029 A 
ATOM     23  C   UNL A   1      40.323  27.575  28.620  1.00  0.00     0.049 A 
ATOM     24  H   UNL A   1      42.378  27.417  28.923  1.00  0.00     0.167 HD
ATOM     25  C   UNL A   1      46.616  26.822  29.811  1.00  0.00     0.037 A 
ATOM     26  C   UNL A   1      39.938  28.774  29.094  1.00  0.00     0.037 A 
ATOM     27  C   UNL A   1      46.318  28.156  30.264  1.00  0.00     0.049 A 
ATOM     28  C   UNL A   1      40.956  29.679  29.722  1.00  0.00     0.074 A 
ATOM     29  C   UNL A   1      47.180  29.098  30.798  1.00  0.00     0.029 A 
ATOM     30  N   UNL A   1      45.058  28.734  30.242  1.00  0.00    -0.354 N 
ATOM     31  N   UNL A   1      42.237  29.473  29.906  1.00  0.00    -0.248 NA
ATOM     32  C   UNL A   1      40.478  30.980  30.208  1.00  0.00     0.031 C 
ATOM     33  C   UNL A   1      46.434  30.234  31.134  1.00  0.00     0.029 A 
ATOM     34  C   UNL A   1      45.115  30.013  30.771  1.00  0.00     0.049 A 
ATOM     35  H   UNL A   1      44.243  28.300  29.900  1.00  0.00     0.167 HD
ATOM     36  C   UNL A   1      42.723  30.623  30.511  1.00  0.00     0.074 A 
ATOM     37  C   UNL A   1      41.600  31.526  30.659  1.00  0.00     0.031 C 
ATOM     38  C   UNL A   1      43.989  30.903  30.905  1.00  0.00     0.037 A 
BRANCH  25  39
ATOM     39  C   UNL A   1      48.014  26.307  29.979  1.00  0.00     0.057 A 
ATOM     40  C   UNL A   1      48.445  25.703  31.167  1.00  0.00     0.134 A 
ATOM     41  C   UNL A   1      48.938  26.398  28.929  1.00  0.00     0.134 A 
ATOM     42  F   UNL A   1      47.612  25.594  32.213  1.00  0.00    -0.206 F 
ATOM     43  C   UNL A   1      49.752  25.234  31.315  1.00  0.00     0.040 A 
ATOM     44  C   UNL A   1      50.240  25.913  29.058  1.00  0.00     0.040 A 
ATOM     45  F   UNL A   1      48.588  26.958  27.761  1.00  0.00    -0.206 F 
ATOM     46  C   UNL A   1      50.653  25.336  30.256  1.00  0.00     0.006 A 
ENDBRANCH  25  39
BRANCH  26  47
ATOM     47  C   UNL A   1      38.513  29.169  28.992  1.00  0.00     0.057 A 
ATOM     48  C   UNL A   1      37.665  29.106  30.104  1.00  0.00     0.134 A 
ATOM     49  C   UNL A   1      37.980  29.666  27.797  1.00  0.00     0.134 A 
ATOM     50  F   UNL A   1      38.117  28.624  31.270  1.00  0.00    -0.206 F 
ATOM     51  C   UNL A   1      36.337  29.526  30.030  1.00  0.00     0.040 A 
ATOM     52  C   UNL A   1      36.660  30.110  27.715  1.00  0.00     0.040 A 
ATOM     53  F   UNL A   1      38.748  29.759  26.701  1.00  0.00    -0.206 F 
ATOM     54  C   UNL A   1      35.833  30.039  28.835  1.00  0.00     0.006 A 
ENDBRANCH  26  47
BRANCH  38  55
ATOM     55  C   UNL A   1      44.238  32.255  31.502  1.00  0.00     0.057 A 
ATOM     56  C   UNL A   1      44.564  33.361  30.709  1.00  0.00     0.134 A 
ATOM     57  C   UNL A   1      44.092  32.461  32.879  1.00  0.00     0.134 A 
ATOM     58  F   UNL A   1      44.730  33.224  29.385  1.00  0.00    -0.206 F 
ATOM     59  C   UNL A   1      44.746  34.628  31.269  1.00  0.00     0.040 A 
ATOM     60  C   UNL A   1      44.254  33.725  33.447  1.00  0.00     0.040 A 
ATOM     61  F   UNL A   1      43.777  31.440  33.691  1.00  0.00    -0.206 F 
ATOM     62  C   UNL A   1      44.583  34.812  32.641  1.00  0.00     0.006 A 
ENDBRANCH  38  55
ENDBRANCH  12  13
ENDBRANCH   5   7
ENDBRANCH   2   3
ENDBRANCH   1   2
BRANCH   1  63
ATOM     63  C   UNL A   1      36.048  20.564  25.021  1.00  0.00     0.117 C 
BRANCH  63  64
ATOM     64  N   UNL A   1      34.864  19.723  25.090  1.00  0.00    -0.356 N 
ATOM     65  C   UNL A   1      33.541  20.044  25.058  1.00  0.00     0.224 C 
ATOM     66  H   UNL A   1      35.050  18.761  25.174  1.00  0.00     0.163 HD
ATOM     67  O   UNL A   1      32.741  19.121  25.228  1.00  0.00    -0.275 OA
BRANCH  65  68
ATOM     68  C   UNL A   1      33.080  21.470  24.765  1.00  0.00     0.098 C 
ATOM     69  C   UNL A   1      32.860  21.659  23.246  1.00  0.00     0.017 C 
ATOM     70  C   UNL A   1      31.783  21.831  25.486  1.00  0.00     0.133 C 
ATOM     71  C   UNL A   1      32.311  23.048  22.901  1.00  0.00     0.022 C 
ATOM     72  N   UNL A   1      31.371  23.188  25.146  1.00  0.00    -0.338 N 
ATOM     73  C   UNL A   1      31.076  23.394  23.732  1.00  0.00     0.120 C 
BRANCH  72  74
ATOM     74  C   UNL A   1      31.467  24.178  26.118  1.00  0.00     0.255 C 
ATOM     75  O   UNL A   1      31.005  24.071  27.251  1.00  0.00    -0.269 OA
BRANCH  74  76
ATOM     76  C   UNL A   1      32.194  25.417  25.805  1.00  0.00     0.059 A 
ATOM     77  C   UNL A   1      31.438  26.532  25.425  1.00  0.00     0.031 A 
ATOM     78  C   UNL A   1      33.592  25.472  25.822  1.00  0.00     0.053 A 
ATOM     79  C   UNL A   1      32.090  27.719  25.102  1.00  0.00     0.018 A 
ATOM     80  C   UNL A   1      34.234  26.671  25.498  1.00  0.00     0.022 A 
ATOM     81  Cl  UNL A   1      34.573  24.108  26.216  1.00  0.00    -0.083 Cl
ATOM     82  Br  UNL A   1      31.084  29.236  24.601  1.00  0.00    -0.051 Br
ATOM     83  C   UNL A   1      33.483  27.796  25.142  1.00  0.00     0.017 A 
ENDBRANCH  74  76
ENDBRANCH  72  74
ENDBRANCH  65  68
ENDBRANCH  63  64
ENDBRANCH   1  63
TORSDOF 12
ENDMDL
