MODEL 1
REMARK VINA RESULT:     -12.3      0.000      0.000
REMARK SMILES Cc1ccc(NC(=O)C[C@H]([NH2+]Cc2cccnc2)C(=O)NCCCNC(=O)c2ccc(-c3c4nc(c(-c5c(F)cccc5F)c5ccc([nH]5)c(-c5c(F)cccc5F)c5nc(c(-c6c(F)cccc6F)c6ccc3[nH]6)C=C5)C=C4)cc2)cc1Cl
REMARK SMILES IDX 22 1 21 2 19 3 20 4 10 6 9 7 7 8 6 9 8 11 5 12 1 13 2 14
REMARK SMILES IDX 3 15 83 16 4 17 82 18 84 19 11 20 12 23 13 24 14 25 18 26
REMARK SMILES IDX 15 27 17 28 16 29 23 30 24 31 25 32 26 33 27 35 28 36 29 37
REMARK SMILES IDX 81 38 30 39 80 40 31 41 32 42 33 43 74 44 34 45 79 46 73 47
REMARK SMILES IDX 75 48 35 49 78 50 72 51 71 52 36 54 62 55 45 56 61 57 46 58
REMARK SMILES IDX 49 59 60 60 76 61 47 62 48 63 59 65 77 66 50 67 37 68 38 69
REMARK SMILES IDX 43 70 39 71 40 72 42 73 44 74 41 75 63 76 64 77 69 78 65 79
REMARK SMILES IDX 66 80 68 81 70 82 67 83 51 84 52 85 57 86 53 87 54 88 56 89
REMARK SMILES IDX 58 90 55 91
REMARK H PARENT 21 5 6 10 11 21 11 22 25 34 75 53 49 64
REMARK Flexibility Score: inf
ROOT
ATOM      1  C   UNL A   1      34.399  23.167  26.788  1.00  0.00     0.118 C 
ENDROOT
BRANCH   1   2
ATOM      2  N   UNL A   1      34.021  23.914  25.582  1.00  0.00    -0.351 N 
ATOM      3  C   UNL A   1      33.081  23.829  24.603  1.00  0.00     0.278 C 
ATOM      4  O   UNL A   1      33.174  24.701  23.723  1.00  0.00    -0.268 OA
ATOM      5  H   UNL A   1      34.610  24.692  25.444  1.00  0.00     0.163 HD
BRANCH   3   6
ATOM      6  C   UNL A   1      31.968  22.740  24.433  1.00  0.00     0.282 C 
BRANCH   6   7
ATOM      7  C   UNL A   1      30.871  22.718  25.472  1.00  0.00     0.175 C 
BRANCH   7   8
ATOM      8  C   UNL A   1      30.462  23.769  26.493  1.00  0.00     0.230 C 
ATOM      9  N   UNL A   1      30.303  25.103  26.445  1.00  0.00    -0.326 N 
ATOM     10  H   UNL A   1      30.050  25.434  27.337  1.00  0.00     0.169 HD
ATOM     11  O   UNL A   1      30.207  23.305  27.625  1.00  0.00    -0.274 OA
BRANCH   9  12
ATOM     12  C   UNL A   1      30.376  26.184  25.552  1.00  0.00     0.042 A 
ATOM     13  C   UNL A   1      30.303  29.432  22.664  1.00  0.00     0.046 C 
ATOM     14  C   UNL A   1      30.356  28.298  23.642  1.00  0.00    -0.032 A 
ATOM     15  C   UNL A   1      29.511  27.192  23.501  1.00  0.00     0.007 A 
ATOM     16  C   UNL A   1      31.222  28.318  24.731  1.00  0.00     0.046 A 
ATOM     17  C   UNL A   1      29.522  26.153  24.445  1.00  0.00     0.026 A 
ATOM     18  C   UNL A   1      31.238  27.259  25.642  1.00  0.00     0.047 A 
ATOM     19  Cl  UNL A   1      32.326  29.622  25.003  1.00  0.00    -0.084 Cl
ENDBRANCH   9  12
ENDBRANCH   7   8
ENDBRANCH   6   7
BRANCH   6  20
ATOM     20  N   UNL A   1      32.581  21.470  24.001  1.00  0.00    -0.332 N 
ATOM     21  H   UNL A   1      33.582  21.641  23.901  1.00  0.00     0.347 HD
ATOM     22  H   UNL A   1      32.073  21.229  23.151  1.00  0.00     0.347 HD
BRANCH  20  23
ATOM     23  C   UNL A   1      32.432  20.292  24.845  1.00  0.00     0.299 C 
BRANCH  23  24
ATOM     24  C   UNL A   1      33.065  19.090  24.183  1.00  0.00     0.024 A 
ATOM     25  C   UNL A   1      34.257  18.523  24.648  1.00  0.00     0.013 A 
ATOM     26  C   UNL A   1      32.445  18.451  23.110  1.00  0.00     0.120 A 
ATOM     27  C   UNL A   1      34.748  17.356  24.064  1.00  0.00     0.021 A 
ATOM     28  N   UNL A   1      32.902  17.322  22.514  1.00  0.00    -0.264 NA
ATOM     29  C   UNL A   1      34.037  16.795  23.017  1.00  0.00     0.111 A 
ENDBRANCH  23  24
ENDBRANCH  20  23
ENDBRANCH   6  20
ENDBRANCH   3   6
ENDBRANCH   1   2
BRANCH   1  30
ATOM     30  C   UNL A   1      35.177  21.890  26.461  1.00  0.00     0.042 C 
BRANCH  30  31
ATOM     31  C   UNL A   1      36.211  21.964  25.347  1.00  0.00     0.118 C 
BRANCH  31  32
ATOM     32  N   UNL A   1      37.255  20.962  25.464  1.00  0.00    -0.352 N 
ATOM     33  C   UNL A   1      38.577  21.036  25.825  1.00  0.00     0.251 C 
ATOM     34  H   UNL A   1      36.955  20.050  25.243  1.00  0.00     0.163 HD
ATOM     35  O   UNL A   1      39.253  20.006  25.701  1.00  0.00    -0.269 OA
BRANCH  33  36
ATOM     36  C   UNL A   1      39.248  22.266  26.339  1.00  0.00     0.039 A 
ATOM     37  C   UNL A   1      38.778  23.506  25.877  1.00  0.00     0.014 A 
ATOM     38  C   UNL A   1      40.368  22.259  27.172  1.00  0.00     0.014 A 
ATOM     39  C   UNL A   1      39.401  24.703  26.256  1.00  0.00     0.010 A 
ATOM     40  C   UNL A   1      40.928  23.459  27.634  1.00  0.00     0.010 A 
ATOM     41  C   UNL A   1      40.474  24.697  27.159  1.00  0.00    -0.014 A 
BRANCH  41  42
ATOM     42  C   UNL A   1      41.151  25.966  27.559  1.00  0.00     0.031 A 
ATOM     43  C   UNL A   1      42.564  26.259  27.114  1.00  0.00     0.074 A 
ATOM     44  C   UNL A   1      40.508  26.857  28.340  1.00  0.00     0.049 A 
ATOM     45  N   UNL A   1      43.312  27.307  27.365  1.00  0.00    -0.248 NA
ATOM     46  C   UNL A   1      43.237  25.231  26.307  1.00  0.00     0.031 C 
ATOM     47  C   UNL A   1      39.163  26.685  28.890  1.00  0.00     0.029 A 
ATOM     48  N   UNL A   1      40.899  28.090  28.804  1.00  0.00    -0.354 N 
ATOM     49  C   UNL A   1      44.542  27.052  26.766  1.00  0.00     0.074 A 
ATOM     50  C   UNL A   1      44.459  25.728  26.189  1.00  0.00     0.031 C 
ATOM     51  C   UNL A   1      38.826  27.786  29.581  1.00  0.00     0.029 A 
ATOM     52  C   UNL A   1      39.939  28.730  29.550  1.00  0.00     0.049 A 
ATOM     53  H   UNL A   1      41.785  28.480  28.618  1.00  0.00     0.167 HD
ATOM     54  C   UNL A   1      45.633  27.852  26.676  1.00  0.00     0.037 A 
ATOM     55  C   UNL A   1      39.946  29.943  30.134  1.00  0.00     0.037 A 
ATOM     56  C   UNL A   1      45.709  29.186  27.211  1.00  0.00     0.049 A 
ATOM     57  C   UNL A   1      41.153  30.830  29.988  1.00  0.00     0.074 A 
ATOM     58  C   UNL A   1      46.751  30.095  27.121  1.00  0.00     0.029 A 
ATOM     59  N   UNL A   1      44.701  29.807  27.932  1.00  0.00    -0.354 N 
ATOM     60  N   UNL A   1      42.281  30.596  29.364  1.00  0.00    -0.248 NA
ATOM     61  C   UNL A   1      41.078  32.157  30.616  1.00  0.00     0.031 C 
ATOM     62  C   UNL A   1      46.385  31.253  27.816  1.00  0.00     0.029 A 
ATOM     63  C   UNL A   1      45.099  31.082  28.301  1.00  0.00     0.049 A 
ATOM     64  H   UNL A   1      43.832  29.401  28.151  1.00  0.00     0.167 HD
ATOM     65  C   UNL A   1      43.037  31.753  29.499  1.00  0.00     0.074 A 
ATOM     66  C   UNL A   1      42.232  32.694  30.249  1.00  0.00     0.031 C 
ATOM     67  C   UNL A   1      44.287  32.013  29.043  1.00  0.00     0.037 A 
BRANCH  54  68
ATOM     68  C   UNL A   1      46.834  27.306  25.956  1.00  0.00     0.057 A 
ATOM     69  C   UNL A   1      47.816  26.557  26.619  1.00  0.00     0.134 A 
ATOM     70  C   UNL A   1      46.996  27.501  24.578  1.00  0.00     0.134 A 
ATOM     71  F   UNL A   1      47.729  26.341  27.940  1.00  0.00    -0.206 F 
ATOM     72  C   UNL A   1      48.929  26.051  25.946  1.00  0.00     0.040 A 
ATOM     73  C   UNL A   1      48.090  26.976  23.888  1.00  0.00     0.040 A 
ATOM     74  F   UNL A   1      46.089  28.199  23.878  1.00  0.00    -0.206 F 
ATOM     75  C   UNL A   1      49.066  26.255  24.575  1.00  0.00     0.006 A 
ENDBRANCH  54  68
BRANCH  55  76
ATOM     76  C   UNL A   1      38.751  30.418  30.877  1.00  0.00     0.057 A 
ATOM     77  C   UNL A   1      38.580  30.122  32.234  1.00  0.00     0.134 A 
ATOM     78  C   UNL A   1      37.748  31.167  30.249  1.00  0.00     0.134 A 
ATOM     79  F   UNL A   1      39.496  29.391  32.886  1.00  0.00    -0.206 F 
ATOM     80  C   UNL A   1      37.447  30.536  32.938  1.00  0.00     0.040 A 
ATOM     81  C   UNL A   1      36.622  31.608  30.945  1.00  0.00     0.040 A 
ATOM     82  F   UNL A   1      37.855  31.490  28.952  1.00  0.00    -0.206 F 
ATOM     83  C   UNL A   1      36.466  31.287  32.293  1.00  0.00     0.006 A 
ENDBRANCH  55  76
BRANCH  67  84
ATOM     84  C   UNL A   1      44.843  33.381  29.312  1.00  0.00     0.057 A 
ATOM     85  C   UNL A   1      45.620  33.655  30.444  1.00  0.00     0.134 A 
ATOM     86  C   UNL A   1      44.604  34.434  28.420  1.00  0.00     0.134 A 
ATOM     87  F   UNL A   1      45.876  32.692  31.343  1.00  0.00    -0.206 F 
ATOM     88  C   UNL A   1      46.113  34.937  30.697  1.00  0.00     0.040 A 
ATOM     89  C   UNL A   1      45.113  35.713  28.648  1.00  0.00     0.040 A 
ATOM     90  F   UNL A   1      43.874  34.237  27.312  1.00  0.00    -0.206 F 
ATOM     91  C   UNL A   1      45.862  35.970  29.795  1.00  0.00     0.006 A 
ENDBRANCH  67  84
ENDBRANCH  41  42
ENDBRANCH  33  36
ENDBRANCH  31  32
ENDBRANCH  30  31
ENDBRANCH   1  30
TORSDOF 16
ENDMDL
MODEL 2
REMARK VINA RESULT:     -12.2      1.959      3.587
REMARK SMILES Cc1ccc(NC(=O)C[C@H]([NH2+]Cc2cccnc2)C(=O)NCCCNC(=O)c2ccc(-c3c4nc(c(-c5c(F)cccc5F)c5ccc([nH]5)c(-c5c(F)cccc5F)c5nc(c(-c6c(F)cccc6F)c6ccc3[nH]6)C=C5)C=C4)cc2)cc1Cl
REMARK SMILES IDX 22 1 21 2 19 3 20 4 10 6 9 7 7 8 6 9 8 11 5 12 1 13 2 14
REMARK SMILES IDX 3 15 83 16 4 17 82 18 84 19 11 20 12 23 13 24 14 25 18 26
REMARK SMILES IDX 15 27 17 28 16 29 23 30 24 31 25 32 26 33 27 35 28 36 29 37
REMARK SMILES IDX 81 38 30 39 80 40 31 41 32 42 33 43 74 44 34 45 79 46 73 47
REMARK SMILES IDX 75 48 35 49 78 50 72 51 71 52 36 54 62 55 45 56 61 57 46 58
REMARK SMILES IDX 49 59 60 60 76 61 47 62 48 63 59 65 77 66 50 67 37 68 38 69
REMARK SMILES IDX 43 70 39 71 40 72 42 73 44 74 41 75 63 76 64 77 69 78 65 79
REMARK SMILES IDX 66 80 68 81 70 82 67 83 51 84 52 85 57 86 53 87 54 88 56 89
REMARK SMILES IDX 58 90 55 91
REMARK H PARENT 21 5 6 10 11 21 11 22 25 34 75 53 49 64
REMARK Flexibility Score: inf
ROOT
ATOM      1  C   UNL A   1      35.428  20.871  25.554  1.00  0.00     0.118 C 
ENDROOT
BRANCH   1   2
ATOM      2  N   UNL A   1      34.185  20.519  24.858  1.00  0.00    -0.351 N 
ATOM      3  C   UNL A   1      32.962  21.075  24.647  1.00  0.00     0.278 C 
ATOM      4  O   UNL A   1      32.177  20.360  24.001  1.00  0.00    -0.268 OA
ATOM      5  H   UNL A   1      34.256  19.637  24.424  1.00  0.00     0.163 HD
BRANCH   3   6
ATOM      6  C   UNL A   1      32.428  22.450  25.174  1.00  0.00     0.282 C 
BRANCH   6   7
ATOM      7  C   UNL A   1      31.005  22.480  25.679  1.00  0.00     0.175 C 
BRANCH   7   8
ATOM      8  C   UNL A   1      30.304  23.478  26.589  1.00  0.00     0.230 C 
ATOM      9  N   UNL A   1      30.049  24.796  26.507  1.00  0.00    -0.326 N 
ATOM     10  H   UNL A   1      29.587  25.091  27.325  1.00  0.00     0.169 HD
ATOM     11  O   UNL A   1      29.855  22.977  27.643  1.00  0.00    -0.274 OA
BRANCH   9  12
ATOM     12  C   UNL A   1      30.219  25.893  25.647  1.00  0.00     0.042 A 
ATOM     13  C   UNL A   1      30.528  29.140  22.775  1.00  0.00     0.046 C 
ATOM     14  C   UNL A   1      30.456  28.012  23.759  1.00  0.00    -0.032 A 
ATOM     15  C   UNL A   1      29.927  26.772  23.386  1.00  0.00     0.007 A 
ATOM     16  C   UNL A   1      30.884  28.167  25.073  1.00  0.00     0.046 A 
ATOM     17  C   UNL A   1      29.810  25.730  24.320  1.00  0.00     0.026 A 
ATOM     18  C   UNL A   1      30.786  27.107  25.978  1.00  0.00     0.047 A 
ATOM     19  Cl  UNL A   1      31.570  29.648  25.648  1.00  0.00    -0.084 Cl
ENDBRANCH   9  12
ENDBRANCH   7   8
ENDBRANCH   6   7
BRANCH   6  20
ATOM     20  N   UNL A   1      32.908  23.534  24.297  1.00  0.00    -0.332 N 
ATOM     21  H   UNL A   1      32.091  23.918  23.822  1.00  0.00     0.347 HD
ATOM     22  H   UNL A   1      33.606  23.082  23.708  1.00  0.00     0.347 HD
BRANCH  20  23
ATOM     23  C   UNL A   1      33.623  24.656  24.890  1.00  0.00     0.299 C 
BRANCH  23  24
ATOM     24  C   UNL A   1      33.671  25.817  23.923  1.00  0.00     0.024 A 
ATOM     25  C   UNL A   1      33.985  27.118  24.333  1.00  0.00     0.013 A 
ATOM     26  C   UNL A   1      33.465  25.623  22.558  1.00  0.00     0.120 A 
ATOM     27  C   UNL A   1      34.113  28.134  23.387  1.00  0.00     0.021 A 
ATOM     28  N   UNL A   1      33.572  26.592  21.616  1.00  0.00    -0.264 NA
ATOM     29  C   UNL A   1      33.907  27.823  22.054  1.00  0.00     0.111 A 
ENDBRANCH  23  24
ENDBRANCH  20  23
ENDBRANCH   6  20
ENDBRANCH   3   6
ENDBRANCH   1   2
BRANCH   1  30
ATOM     30  C   UNL A   1      36.207  21.973  24.831  1.00  0.00     0.042 C 
BRANCH  30  31
ATOM     31  C   UNL A   1      37.256  22.731  25.631  1.00  0.00     0.118 C 
BRANCH  31  32
ATOM     32  N   UNL A   1      38.388  21.907  26.019  1.00  0.00    -0.352 N 
ATOM     33  C   UNL A   1      39.632  22.213  26.513  1.00  0.00     0.251 C 
ATOM     34  H   UNL A   1      38.231  20.942  25.909  1.00  0.00     0.163 HD
ATOM     35  O   UNL A   1      40.437  21.278  26.626  1.00  0.00    -0.269 OA
BRANCH  33  36
ATOM     36  C   UNL A   1      40.076  23.582  26.904  1.00  0.00     0.039 A 
ATOM     37  C   UNL A   1      40.675  23.738  28.165  1.00  0.00     0.014 A 
ATOM     38  C   UNL A   1      39.849  24.729  26.141  1.00  0.00     0.014 A 
ATOM     39  C   UNL A   1      41.053  25.003  28.636  1.00  0.00     0.010 A 
ATOM     40  C   UNL A   1      40.320  25.980  26.565  1.00  0.00     0.010 A 
ATOM     41  C   UNL A   1      40.899  26.142  27.831  1.00  0.00    -0.014 A 
BRANCH  41  42
ATOM     42  C   UNL A   1      41.288  27.494  28.328  1.00  0.00     0.031 A 
ATOM     43  C   UNL A   1      42.729  27.945  28.286  1.00  0.00     0.074 A 
ATOM     44  C   UNL A   1      40.354  28.321  28.838  1.00  0.00     0.049 A 
ATOM     45  N   UNL A   1      43.254  29.084  28.673  1.00  0.00    -0.248 NA
ATOM     46  C   UNL A   1      43.714  26.985  27.767  1.00  0.00     0.031 C 
ATOM     47  C   UNL A   1      38.935  28.000  28.994  1.00  0.00     0.029 A 
ATOM     48  N   UNL A   1      40.458  29.604  29.317  1.00  0.00    -0.354 N 
ATOM     49  C   UNL A   1      44.625  28.964  28.465  1.00  0.00     0.074 A 
ATOM     50  C   UNL A   1      44.856  27.625  27.970  1.00  0.00     0.031 C 
ATOM     51  C   UNL A   1      38.294  29.071  29.492  1.00  0.00     0.029 A 
ATOM     52  C   UNL A   1      39.259  30.142  29.720  1.00  0.00     0.049 A 
ATOM     53  H   UNL A   1      41.311  30.094  29.368  1.00  0.00     0.167 HD
ATOM     54  C   UNL A   1      45.601  29.888  28.639  1.00  0.00     0.037 A 
ATOM     55  C   UNL A   1      38.965  31.363  30.207  1.00  0.00     0.037 A 
ATOM     56  C   UNL A   1      45.373  31.236  29.091  1.00  0.00     0.049 A 
ATOM     57  C   UNL A   1      40.058  32.386  30.355  1.00  0.00     0.074 A 
ATOM     58  C   UNL A   1      46.291  32.263  29.245  1.00  0.00     0.029 A 
ATOM     59  N   UNL A   1      44.138  31.748  29.458  1.00  0.00    -0.354 N 
ATOM     60  N   UNL A   1      41.336  32.274  30.092  1.00  0.00    -0.248 NA
ATOM     61  C   UNL A   1      39.660  33.711  30.853  1.00  0.00     0.031 C 
ATOM     62  C   UNL A   1      45.616  33.386  29.735  1.00  0.00     0.029 A 
ATOM     63  C   UNL A   1      44.270  33.072  29.845  1.00  0.00     0.049 A 
ATOM     64  H   UNL A   1      43.292  31.246  29.444  1.00  0.00     0.167 HD
ATOM     65  C   UNL A   1      41.891  33.519  30.365  1.00  0.00     0.074 A 
ATOM     66  C   UNL A   1      40.805  34.375  30.796  1.00  0.00     0.031 C 
ATOM     67  C   UNL A   1      43.183  33.917  30.268  1.00  0.00     0.037 A 
BRANCH  54  68
ATOM     68  C   UNL A   1      47.011  29.473  28.325  1.00  0.00     0.057 A 
ATOM     69  C   UNL A   1      47.861  28.943  29.304  1.00  0.00     0.134 A 
ATOM     70  C   UNL A   1      47.516  29.574  27.021  1.00  0.00     0.134 A 
ATOM     71  F   UNL A   1      47.445  28.829  30.575  1.00  0.00    -0.206 F 
ATOM     72  C   UNL A   1      49.170  28.558  29.007  1.00  0.00     0.040 A 
ATOM     73  C   UNL A   1      48.813  29.166  26.706  1.00  0.00     0.040 A 
ATOM     74  F   UNL A   1      46.753  30.063  26.032  1.00  0.00    -0.206 F 
ATOM     75  C   UNL A   1      49.647  28.664  27.703  1.00  0.00     0.006 A 
ENDBRANCH  54  68
BRANCH  55  76
ATOM     76  C   UNL A   1      37.561  31.708  30.549  1.00  0.00     0.057 A 
ATOM     77  C   UNL A   1      36.679  32.189  29.574  1.00  0.00     0.134 A 
ATOM     78  C   UNL A   1      37.070  31.575  31.853  1.00  0.00     0.134 A 
ATOM     79  F   UNL A   1      37.096  32.357  28.311  1.00  0.00    -0.206 F 
ATOM     80  C   UNL A   1      35.365  32.545  29.886  1.00  0.00     0.040 A 
ATOM     81  C   UNL A   1      35.752  31.903  32.175  1.00  0.00     0.040 A 
ATOM     82  F   UNL A   1      37.863  31.112  32.831  1.00  0.00    -0.206 F 
ATOM     83  C   UNL A   1      34.897  32.397  31.191  1.00  0.00     0.006 A 
ENDBRANCH  55  76
BRANCH  67  84
ATOM     84  C   UNL A   1      43.484  35.349  30.599  1.00  0.00     0.057 A 
ATOM     85  C   UNL A   1      43.481  36.352  29.621  1.00  0.00     0.134 A 
ATOM     86  C   UNL A   1      43.770  35.730  31.916  1.00  0.00     0.134 A 
ATOM     87  F   UNL A   1      43.226  36.051  28.339  1.00  0.00    -0.206 F 
ATOM     88  C   UNL A   1      43.785  37.678  29.936  1.00  0.00     0.040 A 
ATOM     89  C   UNL A   1      44.050  37.056  32.248  1.00  0.00     0.040 A 
ATOM     90  F   UNL A   1      43.781  34.820  32.902  1.00  0.00    -0.206 F 
ATOM     91  C   UNL A   1      44.068  38.033  31.254  1.00  0.00     0.006 A 
ENDBRANCH  67  84
ENDBRANCH  41  42
ENDBRANCH  33  36
ENDBRANCH  31  32
ENDBRANCH  30  31
ENDBRANCH   1  30
TORSDOF 16
ENDMDL
MODEL 3
REMARK VINA RESULT:     -12.1      4.255      9.023
REMARK SMILES Cc1ccc(NC(=O)C[C@H]([NH2+]Cc2cccnc2)C(=O)NCCCNC(=O)c2ccc(-c3c4nc(c(-c5c(F)cccc5F)c5ccc([nH]5)c(-c5c(F)cccc5F)c5nc(c(-c6c(F)cccc6F)c6ccc3[nH]6)C=C5)C=C4)cc2)cc1Cl
REMARK SMILES IDX 22 1 21 2 19 3 20 4 10 6 9 7 7 8 6 9 8 11 5 12 1 13 2 14
REMARK SMILES IDX 3 15 83 16 4 17 82 18 84 19 11 20 12 23 13 24 14 25 18 26
REMARK SMILES IDX 15 27 17 28 16 29 23 30 24 31 25 32 26 33 27 35 28 36 29 37
REMARK SMILES IDX 81 38 30 39 80 40 31 41 32 42 33 43 74 44 34 45 79 46 73 47
REMARK SMILES IDX 75 48 35 49 78 50 72 51 71 52 36 54 62 55 45 56 61 57 46 58
REMARK SMILES IDX 49 59 60 60 76 61 47 62 48 63 59 65 77 66 50 67 37 68 38 69
REMARK SMILES IDX 43 70 39 71 40 72 42 73 44 74 41 75 63 76 64 77 69 78 65 79
REMARK SMILES IDX 66 80 68 81 70 82 67 83 51 84 52 85 57 86 53 87 54 88 56 89
REMARK SMILES IDX 58 90 55 91
REMARK H PARENT 21 5 6 10 11 21 11 22 25 34 75 53 49 64
REMARK Flexibility Score: inf
ROOT
ATOM      1  C   UNL A   1      31.196  29.858  25.009  1.00  0.00     0.118 C 
ENDROOT
BRANCH   1   2
ATOM      2  N   UNL A   1      30.650  29.861  23.646  1.00  0.00    -0.351 N 
ATOM      3  C   UNL A   1      30.634  29.029  22.571  1.00  0.00     0.278 C 
ATOM      4  O   UNL A   1      30.056  29.489  21.572  1.00  0.00    -0.268 OA
ATOM      5  H   UNL A   1      30.158  30.694  23.460  1.00  0.00     0.163 HD
BRANCH   3   6
ATOM      6  C   UNL A   1      31.307  27.620  22.436  1.00  0.00     0.282 C 
BRANCH   6   7
ATOM      7  C   UNL A   1      30.432  26.419  22.706  1.00  0.00     0.175 C 
BRANCH   7   8
ATOM      8  C   UNL A   1      29.668  26.019  23.959  1.00  0.00     0.230 C 
ATOM      9  N   UNL A   1      29.876  25.110  24.929  1.00  0.00    -0.326 N 
ATOM     10  H   UNL A   1      29.127  25.136  25.566  1.00  0.00     0.169 HD
ATOM     11  O   UNL A   1      28.620  26.674  24.146  1.00  0.00    -0.274 OA
BRANCH   9  12
ATOM     12  C   UNL A   1      30.802  24.138  25.337  1.00  0.00     0.042 A 
ATOM     13  C   UNL A   1      33.617  21.228  26.920  1.00  0.00     0.046 C 
ATOM     14  C   UNL A   1      32.674  22.248  26.358  1.00  0.00    -0.032 A 
ATOM     15  C   UNL A   1      32.261  23.341  27.128  1.00  0.00     0.007 A 
ATOM     16  C   UNL A   1      32.159  22.129  25.071  1.00  0.00     0.046 A 
ATOM     17  C   UNL A   1      31.338  24.269  26.622  1.00  0.00     0.026 A 
ATOM     18  C   UNL A   1      31.263  23.081  24.577  1.00  0.00     0.047 A 
ATOM     19  Cl  UNL A   1      32.606  20.831  24.019  1.00  0.00    -0.084 Cl
ENDBRANCH   9  12
ENDBRANCH   7   8
ENDBRANCH   6   7
BRANCH   6  20
ATOM     20  N   UNL A   1      32.667  27.667  23.004  1.00  0.00    -0.332 N 
ATOM     21  H   UNL A   1      32.898  28.650  23.144  1.00  0.00     0.347 HD
ATOM     22  H   UNL A   1      33.233  27.159  22.325  1.00  0.00     0.347 HD
BRANCH  20  23
ATOM     23  C   UNL A   1      32.930  26.982  24.262  1.00  0.00     0.299 C 
BRANCH  23  24
ATOM     24  C   UNL A   1      33.811  25.776  24.029  1.00  0.00     0.024 A 
ATOM     25  C   UNL A   1      34.636  25.248  25.029  1.00  0.00     0.013 A 
ATOM     26  C   UNL A   1      33.788  25.095  22.812  1.00  0.00     0.120 A 
ATOM     27  C   UNL A   1      35.354  24.077  24.793  1.00  0.00     0.021 A 
ATOM     28  N   UNL A   1      34.483  23.961  22.549  1.00  0.00    -0.264 NA
ATOM     29  C   UNL A   1      35.239  23.472  23.553  1.00  0.00     0.111 A 
ENDBRANCH  23  24
ENDBRANCH  20  23
ENDBRANCH   6  20
ENDBRANCH   3   6
ENDBRANCH   1   2
BRANCH   1  30
ATOM     30  C   UNL A   1      31.033  31.213  25.703  1.00  0.00     0.042 C 
BRANCH  30  31
ATOM     31  C   UNL A   1      31.931  31.500  26.898  1.00  0.00     0.118 C 
BRANCH  31  32
ATOM     32  N   UNL A   1      32.098  32.918  27.163  1.00  0.00    -0.352 N 
ATOM     33  C   UNL A   1      33.063  33.630  27.832  1.00  0.00     0.251 C 
ATOM     34  H   UNL A   1      31.380  33.478  26.788  1.00  0.00     0.163 HD
ATOM     35  O   UNL A   1      32.853  34.839  28.002  1.00  0.00    -0.269 OA
BRANCH  33  36
ATOM     36  C   UNL A   1      34.325  33.046  28.373  1.00  0.00     0.039 A 
ATOM     37  C   UNL A   1      34.264  31.754  28.917  1.00  0.00     0.014 A 
ATOM     38  C   UNL A   1      35.535  33.737  28.458  1.00  0.00     0.014 A 
ATOM     39  C   UNL A   1      35.389  31.164  29.511  1.00  0.00     0.010 A 
ATOM     40  C   UNL A   1      36.687  33.111  28.957  1.00  0.00     0.010 A 
ATOM     41  C   UNL A   1      36.625  31.829  29.519  1.00  0.00    -0.014 A 
BRANCH  41  42
ATOM     42  C   UNL A   1      37.825  31.214  30.159  1.00  0.00     0.031 A 
ATOM     43  C   UNL A   1      38.179  31.526  31.593  1.00  0.00     0.074 A 
ATOM     44  C   UNL A   1      38.617  30.383  29.451  1.00  0.00     0.049 A 
ATOM     45  N   UNL A   1      39.183  31.087  32.315  1.00  0.00    -0.248 NA
ATOM     46  C   UNL A   1      37.311  32.477  32.303  1.00  0.00     0.031 C 
ATOM     47  C   UNL A   1      38.430  30.033  28.042  1.00  0.00     0.029 A 
ATOM     48  N   UNL A   1      39.737  29.679  29.821  1.00  0.00    -0.354 N 
ATOM     49  C   UNL A   1      39.076  31.723  33.547  1.00  0.00     0.074 A 
ATOM     50  C   UNL A   1      37.944  32.619  33.458  1.00  0.00     0.031 C 
ATOM     51  C   UNL A   1      39.376  29.151  27.679  1.00  0.00     0.029 A 
ATOM     52  C   UNL A   1      40.253  28.895  28.817  1.00  0.00     0.049 A 
ATOM     53  H   UNL A   1      40.132  29.730  30.722  1.00  0.00     0.167 HD
ATOM     54  C   UNL A   1      39.828  31.559  34.664  1.00  0.00     0.037 A 
ATOM     55  C   UNL A   1      41.306  28.055  28.814  1.00  0.00     0.037 A 
ATOM     56  C   UNL A   1      40.930  30.638  34.774  1.00  0.00     0.049 A 
ATOM     57  C   UNL A   1      42.103  27.860  30.075  1.00  0.00     0.074 A 
ATOM     58  C   UNL A   1      41.716  30.360  35.880  1.00  0.00     0.029 A 
ATOM     59  N   UNL A   1      41.398  29.840  33.742  1.00  0.00    -0.354 N 
ATOM     60  N   UNL A   1      41.946  28.422  31.248  1.00  0.00    -0.248 NA
ATOM     61  C   UNL A   1      43.213  26.898  30.013  1.00  0.00     0.031 C 
ATOM     62  C   UNL A   1      42.681  29.418  35.508  1.00  0.00     0.029 A 
ATOM     63  C   UNL A   1      42.468  29.077  34.182  1.00  0.00     0.049 A 
ATOM     64  H   UNL A   1      41.027  29.819  32.831  1.00  0.00     0.167 HD
ATOM     65  C   UNL A   1      42.917  27.863  32.071  1.00  0.00     0.074 A 
ATOM     66  C   UNL A   1      43.646  26.904  31.266  1.00  0.00     0.031 C 
ATOM     67  C   UNL A   1      43.182  28.122  33.375  1.00  0.00     0.037 A 
BRANCH  54  68
ATOM     68  C   UNL A   1      39.473  32.389  35.866  1.00  0.00     0.057 A 
ATOM     69  C   UNL A   1      40.053  33.643  36.095  1.00  0.00     0.134 A 
ATOM     70  C   UNL A   1      38.516  31.944  36.788  1.00  0.00     0.134 A 
ATOM     71  F   UNL A   1      40.983  34.125  35.257  1.00  0.00    -0.206 F 
ATOM     72  C   UNL A   1      39.719  34.411  37.212  1.00  0.00     0.040 A 
ATOM     73  C   UNL A   1      38.153  32.715  37.894  1.00  0.00     0.040 A 
ATOM     74  F   UNL A   1      37.913  30.757  36.625  1.00  0.00    -0.206 F 
ATOM     75  C   UNL A   1      38.762  33.950  38.113  1.00  0.00     0.006 A 
ENDBRANCH  54  68
BRANCH  55  76
ATOM     76  C   UNL A   1      41.646  27.294  27.585  1.00  0.00     0.057 A 
ATOM     77  C   UNL A   1      41.192  25.983  27.400  1.00  0.00     0.134 A 
ATOM     78  C   UNL A   1      42.436  27.851  26.573  1.00  0.00     0.134 A 
ATOM     79  F   UNL A   1      40.447  25.388  28.343  1.00  0.00    -0.206 F 
ATOM     80  C   UNL A   1      41.526  25.245  26.264  1.00  0.00     0.040 A 
ATOM     81  C   UNL A   1      42.759  27.134  25.420  1.00  0.00     0.040 A 
ATOM     82  F   UNL A   1      42.897  29.106  26.686  1.00  0.00    -0.206 F 
ATOM     83  C   UNL A   1      42.309  25.823  25.266  1.00  0.00     0.006 A 
ENDBRANCH  55  76
BRANCH  67  84
ATOM     84  C   UNL A   1      44.282  27.329  34.019  1.00  0.00     0.057 A 
ATOM     85  C   UNL A   1      45.605  27.786  34.047  1.00  0.00     0.134 A 
ATOM     86  C   UNL A   1      44.009  26.097  34.628  1.00  0.00     0.134 A 
ATOM     87  F   UNL A   1      45.935  28.952  33.471  1.00  0.00    -0.206 F 
ATOM     88  C   UNL A   1      46.625  27.030  34.629  1.00  0.00     0.040 A 
ATOM     89  C   UNL A   1      45.015  25.345  35.235  1.00  0.00     0.040 A 
ATOM     90  F   UNL A   1      42.760  25.606  34.643  1.00  0.00    -0.206 F 
ATOM     91  C   UNL A   1      46.330  25.806  35.228  1.00  0.00     0.006 A 
ENDBRANCH  67  84
ENDBRANCH  41  42
ENDBRANCH  33  36
ENDBRANCH  31  32
ENDBRANCH  30  31
ENDBRANCH   1  30
TORSDOF 16
ENDMDL
