MODEL 1
REMARK VINA RESULT:     -12.3      0.000      0.000
REMARK SMILES COc1ccc(C(=O)NCCCNC(=O)c2ccc(-c3c4nc(c(-c5c(F)cccc5F)c5ccc([nH]5)c(-c5c(F)cccc5F)c5nc(c(-c6c(F)cccc6F)c6ccc3[nH]6)C=C5)C=C4)cc2)cc1NC(=S)NC(=O)c1cccc(C)c1OC
REMARK SMILES IDX 7 1 8 2 9 3 6 5 3 6 4 7 71 8 5 9 70 10 2 11 1 12 72 13 73 15
REMARK SMILES IDX 74 16 75 17 76 18 77 20 78 21 79 22 84 23 80 24 82 25 81 26
REMARK SMILES IDX 83 27 85 28 86 29 10 30 11 31 12 32 13 33 14 34 15 36 16 37
REMARK SMILES IDX 17 38 69 39 18 40 68 41 19 42 20 43 21 44 62 45 22 46 67 47
REMARK SMILES IDX 61 48 63 49 23 50 66 51 60 52 59 53 24 55 50 56 33 57 49 58
REMARK SMILES IDX 34 59 37 60 48 61 64 62 35 63 36 64 47 66 65 67 38 68 25 69
REMARK SMILES IDX 26 70 31 71 27 72 28 73 30 74 32 75 29 76 51 77 52 78 57 79
REMARK SMILES IDX 53 80 54 81 56 82 58 83 55 84 39 85 40 86 45 87 41 88 42 89
REMARK SMILES IDX 44 90 46 91 43 92
REMARK H PARENT 9 4 72 14 75 19 13 35 63 54 37 65
REMARK Flexibility Score: inf
ROOT
ATOM      1  C   UNL A   1      35.146  30.429  27.598  1.00  0.00     0.251 C 
ATOM      2  O   UNL A   1      36.431  30.465  27.710  1.00  0.00    -0.269 OA
ATOM      3  N   UNL A   1      35.124  31.830  28.129  1.00  0.00    -0.352 N 
ATOM      4  H   UNL A   1      36.060  32.043  28.350  1.00  0.00     0.163 HD
ENDROOT
BRANCH   1   5
ATOM      5  C   UNL A   1      33.733  28.947  26.960  1.00  0.00     0.042 A 
ATOM      6  C   UNL A   1      31.876  26.762  25.836  1.00  0.00     0.142 A 
ATOM      7  C   UNL A   1      31.387  27.713  26.706  1.00  0.00     0.049 A 
ATOM      8  C   UNL A   1      33.135  26.949  25.363  1.00  0.00     0.084 A 
ATOM      9  C   UNL A   1      32.238  28.775  27.165  1.00  0.00     0.018 A 
ATOM     10  C   UNL A   1      33.954  27.733  26.137  1.00  0.00     0.044 A 
BRANCH   6  11
ATOM     11  O   UNL A   1      31.191  25.603  25.615  1.00  0.00    -0.495 OA
ATOM     12  C   UNL A   1      29.931  25.698  26.312  1.00  0.00     0.278 C 
ENDBRANCH   6  11
BRANCH   8  13
ATOM     13  N   UNL A   1      33.738  26.299  24.280  1.00  0.00    -0.329 N 
ATOM     14  H   UNL A   1      34.599  25.864  24.477  1.00  0.00     0.169 HD
BRANCH  13  15
ATOM     15  C   UNL A   1      33.307  26.179  22.992  1.00  0.00     0.177 C 
ATOM     16  S   UNL A   1      33.267  27.568  22.053  1.00  0.00    -0.040 S 
BRANCH  15  17
ATOM     17  N   UNL A   1      32.976  24.985  22.347  1.00  0.00    -0.299 N 
ATOM     18  C   UNL A   1      33.376  23.637  22.142  1.00  0.00     0.261 C 
ATOM     19  H   UNL A   1      32.145  25.135  21.841  1.00  0.00     0.172 HD
ATOM     20  O   UNL A   1      33.627  23.309  20.978  1.00  0.00    -0.269 OA
BRANCH  18  21
ATOM     21  C   UNL A   1      33.606  22.597  23.216  1.00  0.00     0.082 A 
ATOM     22  C   UNL A   1      32.285  21.342  23.134  1.00  0.00     0.018 A 
ATOM     23  C   UNL A   1      35.173  22.185  24.130  1.00  0.00     0.134 A 
ATOM     24  C   UNL A   1      32.513  19.695  23.845  1.00  0.00     0.001 A 
ATOM     25  C   UNL A   1      35.421  20.496  24.766  1.00  0.00    -0.008 A 
ATOM     26  C   UNL A   1      34.111  19.252  24.636  1.00  0.00     0.007 A 
ATOM     27  C   UNL A   1      36.814  19.985  25.004  1.00  0.00     0.048 C 
BRANCH  23  28
ATOM     28  O   UNL A   1      36.362  22.879  24.157  1.00  0.00    -0.496 OA
ATOM     29  C   UNL A   1      36.659  23.780  25.203  1.00  0.00     0.278 C 
ENDBRANCH  23  28
ENDBRANCH  18  21
ENDBRANCH  15  17
ENDBRANCH  13  15
ENDBRANCH   8  13
ENDBRANCH   1   5
BRANCH   3  30
ATOM     30  C   UNL A   1      34.347  33.043  28.474  1.00  0.00     0.118 C 
BRANCH  30  31
ATOM     31  C   UNL A   1      34.344  33.387  29.959  1.00  0.00     0.042 C 
BRANCH  31  32
ATOM     32  C   UNL A   1      34.600  32.233  30.911  1.00  0.00     0.118 C 
BRANCH  32  33
ATOM     33  N   UNL A   1      35.129  32.666  32.196  1.00  0.00    -0.352 N 
ATOM     34  C   UNL A   1      36.357  32.501  32.786  1.00  0.00     0.251 C 
ATOM     35  H   UNL A   1      34.487  33.174  32.743  1.00  0.00     0.163 HD
ATOM     36  O   UNL A   1      36.482  32.831  33.965  1.00  0.00    -0.269 OA
BRANCH  34  37
ATOM     37  C   UNL A   1      37.526  31.927  32.069  1.00  0.00     0.039 A 
ATOM     38  C   UNL A   1      37.675  32.226  30.708  1.00  0.00     0.014 A 
ATOM     39  C   UNL A   1      38.434  31.053  32.668  1.00  0.00     0.014 A 
ATOM     40  C   UNL A   1      38.745  31.696  29.977  1.00  0.00     0.010 A 
ATOM     41  C   UNL A   1      39.556  30.605  31.968  1.00  0.00     0.010 A 
ATOM     42  C   UNL A   1      39.717  30.906  30.609  1.00  0.00    -0.014 A 
BRANCH  42  43
ATOM     43  C   UNL A   1      40.890  30.385  29.857  1.00  0.00     0.031 A 
ATOM     44  C   UNL A   1      42.059  31.282  29.539  1.00  0.00     0.074 A 
ATOM     45  C   UNL A   1      40.888  29.108  29.423  1.00  0.00     0.049 A 
ATOM     46  N   UNL A   1      43.156  31.009  28.875  1.00  0.00    -0.248 NA
ATOM     47  C   UNL A   1      41.978  32.674  30.008  1.00  0.00     0.031 C 
ATOM     48  C   UNL A   1      39.799  28.149  29.620  1.00  0.00     0.029 A 
ATOM     49  N   UNL A   1      41.831  28.396  28.724  1.00  0.00    -0.354 N 
ATOM     50  C   UNL A   1      43.880  32.195  28.832  1.00  0.00     0.074 A 
ATOM     51  C   UNL A   1      43.080  33.201  29.494  1.00  0.00     0.031 C 
ATOM     52  C   UNL A   1      40.149  26.968  29.089  1.00  0.00     0.029 A 
ATOM     53  C   UNL A   1      41.466  27.094  28.476  1.00  0.00     0.049 A 
ATOM     54  H   UNL A   1      42.687  28.781  28.427  1.00  0.00     0.167 HD
ATOM     55  C   UNL A   1      45.109  32.420  28.309  1.00  0.00     0.037 A 
ATOM     56  C   UNL A   1      42.118  26.113  27.823  1.00  0.00     0.037 A 
ATOM     57  C   UNL A   1      45.917  31.409  27.677  1.00  0.00     0.049 A 
ATOM     58  C   UNL A   1      43.478  26.394  27.246  1.00  0.00     0.074 A 
ATOM     59  C   UNL A   1      47.206  31.521  27.182  1.00  0.00     0.029 A 
ATOM     60  N   UNL A   1      45.513  30.103  27.447  1.00  0.00    -0.354 N 
ATOM     61  N   UNL A   1      44.185  27.497  27.288  1.00  0.00    -0.248 NA
ATOM     62  C   UNL A   1      44.135  25.288  26.534  1.00  0.00     0.031 C 
ATOM     63  C   UNL A   1      47.559  30.298  26.604  1.00  0.00     0.029 A 
ATOM     64  C   UNL A   1      46.515  29.407  26.790  1.00  0.00     0.049 A 
ATOM     65  H   UNL A   1      44.643  29.726  27.712  1.00  0.00     0.167 HD
ATOM     66  C   UNL A   1      45.377  27.211  26.636  1.00  0.00     0.074 A 
ATOM     67  C   UNL A   1      45.307  25.824  26.227  1.00  0.00     0.031 C 
ATOM     68  C   UNL A   1      46.434  28.025  26.394  1.00  0.00     0.037 A 
BRANCH  55  69
ATOM     69  C   UNL A   1      45.664  33.814  28.395  1.00  0.00     0.057 A 
ATOM     70  C   UNL A   1      46.439  34.239  29.483  1.00  0.00     0.134 A 
ATOM     71  C   UNL A   1      45.468  34.726  27.350  1.00  0.00     0.134 A 
ATOM     72  F   UNL A   1      46.658  33.420  30.523  1.00  0.00    -0.206 F 
ATOM     73  C   UNL A   1      46.979  35.525  29.539  1.00  0.00     0.040 A 
ATOM     74  C   UNL A   1      46.027  36.005  27.380  1.00  0.00     0.040 A 
ATOM     75  F   UNL A   1      44.744  34.385  26.273  1.00  0.00    -0.206 F 
ATOM     76  C   UNL A   1      46.781  36.410  28.480  1.00  0.00     0.006 A 
ENDBRANCH  55  69
BRANCH  56  77
ATOM     77  C   UNL A   1      41.508  24.763  27.692  1.00  0.00     0.057 A 
ATOM     78  C   UNL A   1      41.944  23.693  28.484  1.00  0.00     0.134 A 
ATOM     79  C   UNL A   1      40.500  24.501  26.757  1.00  0.00     0.134 A 
ATOM     80  F   UNL A   1      42.922  23.875  29.384  1.00  0.00    -0.206 F 
ATOM     81  C   UNL A   1      41.420  22.409  28.333  1.00  0.00     0.040 A 
ATOM     82  C   UNL A   1      39.945  23.228  26.615  1.00  0.00     0.040 A 
ATOM     83  F   UNL A   1      40.033  25.483  25.971  1.00  0.00    -0.206 F 
ATOM     84  C   UNL A   1      40.414  22.175  27.398  1.00  0.00     0.006 A 
ENDBRANCH  56  77
BRANCH  68  85
ATOM     85  C   UNL A   1      47.613  27.423  25.685  1.00  0.00     0.057 A 
ATOM     86  C   UNL A   1      47.726  27.439  24.288  1.00  0.00     0.134 A 
ATOM     87  C   UNL A   1      48.659  26.838  26.410  1.00  0.00     0.134 A 
ATOM     88  F   UNL A   1      46.752  27.971  23.533  1.00  0.00    -0.206 F 
ATOM     89  C   UNL A   1      48.821  26.867  23.639  1.00  0.00     0.040 A 
ATOM     90  C   UNL A   1      49.773  26.291  25.774  1.00  0.00     0.040 A 
ATOM     91  F   UNL A   1      48.620  26.798  27.751  1.00  0.00    -0.206 F 
ATOM     92  C   UNL A   1      49.852  26.297  24.382  1.00  0.00     0.006 A 
ENDBRANCH  68  85
ENDBRANCH  42  43
ENDBRANCH  34  37
ENDBRANCH  32  33
ENDBRANCH  31  32
ENDBRANCH  30  31
ENDBRANCH   3  30
TORSDOF 16
ENDMDL
MODEL 2
REMARK VINA RESULT:     -12.3      0.498      6.058
REMARK SMILES COc1ccc(C(=O)NCCCNC(=O)c2ccc(-c3c4nc(c(-c5c(F)cccc5F)c5ccc([nH]5)c(-c5c(F)cccc5F)c5nc(c(-c6c(F)cccc6F)c6ccc3[nH]6)C=C5)C=C4)cc2)cc1NC(=S)NC(=O)c1cccc(C)c1OC
REMARK SMILES IDX 7 1 8 2 9 3 6 5 3 6 4 7 71 8 5 9 70 10 2 11 1 12 72 13 73 15
REMARK SMILES IDX 74 16 75 17 76 18 77 20 78 21 79 22 84 23 80 24 82 25 81 26
REMARK SMILES IDX 83 27 85 28 86 29 10 30 11 31 12 32 13 33 14 34 15 36 16 37
REMARK SMILES IDX 17 38 69 39 18 40 68 41 19 42 20 43 21 44 62 45 22 46 67 47
REMARK SMILES IDX 61 48 63 49 23 50 66 51 60 52 59 53 24 55 50 56 33 57 49 58
REMARK SMILES IDX 34 59 37 60 48 61 64 62 35 63 36 64 47 66 65 67 38 68 25 69
REMARK SMILES IDX 26 70 31 71 27 72 28 73 30 74 32 75 29 76 51 77 52 78 57 79
REMARK SMILES IDX 53 80 54 81 56 82 58 83 55 84 39 85 40 86 45 87 41 88 42 89
REMARK SMILES IDX 44 90 46 91 43 92
REMARK H PARENT 9 4 72 14 75 19 13 35 63 54 37 65
REMARK Flexibility Score: inf
ROOT
ATOM      1  C   UNL A   1      35.205  30.331  27.458  1.00  0.00     0.251 C 
ATOM      2  O   UNL A   1      36.495  30.370  27.470  1.00  0.00    -0.269 OA
ATOM      3  N   UNL A   1      35.222  31.748  27.944  1.00  0.00    -0.352 N 
ATOM      4  H   UNL A   1      36.171  31.967  28.087  1.00  0.00     0.163 HD
ENDROOT
BRANCH   1   5
ATOM      5  C   UNL A   1      33.750  28.831  26.977  1.00  0.00     0.042 A 
ATOM      6  C   UNL A   1      31.771  26.667  26.033  1.00  0.00     0.142 A 
ATOM      7  C   UNL A   1      31.494  27.427  27.150  1.00  0.00     0.049 A 
ATOM      8  C   UNL A   1      32.838  27.043  25.282  1.00  0.00     0.084 A 
ATOM      9  C   UNL A   1      32.382  28.486  27.539  1.00  0.00     0.018 A 
ATOM     10  C   UNL A   1      33.797  27.779  25.931  1.00  0.00     0.044 A 
BRANCH   6  11
ATOM     11  O   UNL A   1      31.113  25.493  25.810  1.00  0.00    -0.495 OA
ATOM     12  C   UNL A   1      29.709  25.795  25.672  1.00  0.00     0.278 C 
ENDBRANCH   6  11
BRANCH   8  13
ATOM     13  N   UNL A   1      33.150  26.622  23.984  1.00  0.00    -0.329 N 
ATOM     14  H   UNL A   1      34.110  26.596  23.770  1.00  0.00     0.169 HD
BRANCH  13  15
ATOM     15  C   UNL A   1      32.317  26.241  22.974  1.00  0.00     0.177 C 
ATOM     16  S   UNL A   1      31.199  27.363  22.423  1.00  0.00    -0.040 S 
BRANCH  15  17
ATOM     17  N   UNL A   1      32.365  25.026  22.287  1.00  0.00    -0.299 N 
ATOM     18  C   UNL A   1      33.085  23.808  22.149  1.00  0.00     0.261 C 
ATOM     19  H   UNL A   1      31.609  25.003  21.658  1.00  0.00     0.172 HD
ATOM     20  O   UNL A   1      33.577  23.583  21.039  1.00  0.00    -0.269 OA
BRANCH  18  21
ATOM     21  C   UNL A   1      33.378  22.810  23.248  1.00  0.00     0.082 A 
ATOM     22  C   UNL A   1      32.169  21.447  23.163  1.00  0.00     0.018 A 
ATOM     23  C   UNL A   1      34.954  22.548  24.201  1.00  0.00     0.134 A 
ATOM     24  C   UNL A   1      32.519  19.838  23.911  1.00  0.00     0.001 A 
ATOM     25  C   UNL A   1      35.328  20.897  24.875  1.00  0.00    -0.008 A 
ATOM     26  C   UNL A   1      34.130  19.545  24.743  1.00  0.00     0.007 A 
ATOM     27  C   UNL A   1      36.754  20.509  25.151  1.00  0.00     0.048 C 
BRANCH  23  28
ATOM     28  O   UNL A   1      36.080  23.339  24.238  1.00  0.00    -0.496 OA
ATOM     29  C   UNL A   1      36.413  24.082  25.392  1.00  0.00     0.278 C 
ENDBRANCH  23  28
ENDBRANCH  18  21
ENDBRANCH  15  17
ENDBRANCH  13  15
ENDBRANCH   8  13
ENDBRANCH   1   5
BRANCH   3  30
ATOM     30  C   UNL A   1      34.471  32.971  28.310  1.00  0.00     0.118 C 
BRANCH  30  31
ATOM     31  C   UNL A   1      34.473  33.289  29.801  1.00  0.00     0.042 C 
BRANCH  31  32
ATOM     32  C   UNL A   1      34.779  32.128  30.730  1.00  0.00     0.118 C 
BRANCH  32  33
ATOM     33  N   UNL A   1      35.279  32.558  32.027  1.00  0.00    -0.352 N 
ATOM     34  C   UNL A   1      36.496  32.395  32.641  1.00  0.00     0.251 C 
ATOM     35  H   UNL A   1      34.624  33.059  32.564  1.00  0.00     0.163 HD
ATOM     36  O   UNL A   1      36.596  32.720  33.824  1.00  0.00    -0.269 OA
BRANCH  34  37
ATOM     37  C   UNL A   1      37.682  31.831  31.944  1.00  0.00     0.039 A 
ATOM     38  C   UNL A   1      37.859  32.140  30.590  1.00  0.00     0.014 A 
ATOM     39  C   UNL A   1      38.580  30.956  32.557  1.00  0.00     0.014 A 
ATOM     40  C   UNL A   1      38.945  31.618  29.878  1.00  0.00     0.010 A 
ATOM     41  C   UNL A   1      39.719  30.516  31.878  1.00  0.00     0.010 A 
ATOM     42  C   UNL A   1      39.907  30.827  30.524  1.00  0.00    -0.014 A 
BRANCH  42  43
ATOM     43  C   UNL A   1      41.097  30.315  29.794  1.00  0.00     0.031 A 
ATOM     44  C   UNL A   1      41.122  28.908  29.256  1.00  0.00     0.074 A 
ATOM     45  C   UNL A   1      42.179  31.107  29.647  1.00  0.00     0.049 A 
ATOM     46  N   UNL A   1      42.079  28.282  28.615  1.00  0.00    -0.248 NA
ATOM     47  C   UNL A   1      39.924  28.085  29.486  1.00  0.00     0.031 C 
ATOM     48  C   UNL A   1      42.304  32.472  30.163  1.00  0.00     0.029 A 
ATOM     49  N   UNL A   1      43.381  30.880  29.023  1.00  0.00    -0.354 N 
ATOM     50  C   UNL A   1      41.606  26.996  28.385  1.00  0.00     0.074 A 
ATOM     51  C   UNL A   1      40.298  26.912  28.995  1.00  0.00     0.031 C 
ATOM     52  C   UNL A   1      43.496  32.972  29.804  1.00  0.00     0.029 A 
ATOM     53  C   UNL A   1      44.239  31.953  29.071  1.00  0.00     0.049 A 
ATOM     54  H   UNL A   1      43.607  30.029  28.583  1.00  0.00     0.167 HD
ATOM     55  C   UNL A   1      42.199  25.982  27.708  1.00  0.00     0.037 A 
ATOM     56  C   UNL A   1      45.487  32.097  28.585  1.00  0.00     0.037 A 
ATOM     57  C   UNL A   1      43.489  26.077  27.074  1.00  0.00     0.049 A 
ATOM     58  C   UNL A   1      46.121  30.952  27.844  1.00  0.00     0.074 A 
ATOM     59  C   UNL A   1      44.141  25.131  26.303  1.00  0.00     0.029 A 
ATOM     60  N   UNL A   1      44.325  27.181  27.145  1.00  0.00    -0.354 N 
ATOM     61  N   UNL A   1      45.627  29.771  27.562  1.00  0.00    -0.248 NA
ATOM     62  C   UNL A   1      47.489  31.164  27.348  1.00  0.00     0.031 C 
ATOM     63  C   UNL A   1      45.395  25.641  25.953  1.00  0.00     0.029 A 
ATOM     64  C   UNL A   1      45.501  26.927  26.458  1.00  0.00     0.049 A 
ATOM     65  H   UNL A   1      44.115  28.020  27.615  1.00  0.00     0.167 HD
ATOM     66  C   UNL A   1      46.609  29.111  26.834  1.00  0.00     0.074 A 
ATOM     67  C   UNL A   1      47.717  30.033  26.698  1.00  0.00     0.031 C 
ATOM     68  C   UNL A   1      46.594  27.855  26.325  1.00  0.00     0.037 A 
BRANCH  55  69
ATOM     69  C   UNL A   1      41.460  24.677  27.612  1.00  0.00     0.057 A 
ATOM     70  C   UNL A   1      40.418  24.479  26.694  1.00  0.00     0.134 A 
ATOM     71  C   UNL A   1      41.833  23.586  28.406  1.00  0.00     0.134 A 
ATOM     72  F   UNL A   1      40.004  25.484  25.909  1.00  0.00    -0.206 F 
ATOM     73  C   UNL A   1      39.761  23.252  26.588  1.00  0.00     0.040 A 
ATOM     74  C   UNL A   1      41.202  22.345  28.289  1.00  0.00     0.040 A 
ATOM     75  F   UNL A   1      42.827  23.700  29.300  1.00  0.00    -0.206 F 
ATOM     76  C   UNL A   1      40.159  22.178  27.381  1.00  0.00     0.006 A 
ENDBRANCH  55  69
BRANCH  56  77
ATOM     77  C   UNL A   1      46.218  33.378  28.762  1.00  0.00     0.057 A 
ATOM     78  C   UNL A   1      46.150  34.389  27.795  1.00  0.00     0.134 A 
ATOM     79  C   UNL A   1      47.025  33.615  29.881  1.00  0.00     0.134 A 
ATOM     80  F   UNL A   1      45.410  34.216  26.689  1.00  0.00    -0.206 F 
ATOM     81  C   UNL A   1      46.876  35.574  27.920  1.00  0.00     0.040 A 
ATOM     82  C   UNL A   1      47.734  34.807  30.035  1.00  0.00     0.040 A 
ATOM     83  F   UNL A   1      47.131  32.690  30.847  1.00  0.00    -0.206 F 
ATOM     84  C   UNL A   1      47.668  35.787  29.046  1.00  0.00     0.006 A 
ENDBRANCH  56  77
BRANCH  68  85
ATOM     85  C   UNL A   1      47.801  27.419  25.545  1.00  0.00     0.057 A 
ATOM     86  C   UNL A   1      47.881  27.573  24.154  1.00  0.00     0.134 A 
ATOM     87  C   UNL A   1      48.906  26.856  26.196  1.00  0.00     0.134 A 
ATOM     88  F   UNL A   1      46.851  28.092  23.468  1.00  0.00    -0.206 F 
ATOM     89  C   UNL A   1      49.003  27.155  23.438  1.00  0.00     0.040 A 
ATOM     90  C   UNL A   1      50.045  26.462  25.494  1.00  0.00     0.040 A 
ATOM     91  F   UNL A   1      48.901  26.689  27.528  1.00  0.00    -0.206 F 
ATOM     92  C   UNL A   1      50.092  26.603  24.108  1.00  0.00     0.006 A 
ENDBRANCH  68  85
ENDBRANCH  42  43
ENDBRANCH  34  37
ENDBRANCH  32  33
ENDBRANCH  31  32
ENDBRANCH  30  31
ENDBRANCH   3  30
TORSDOF 16
ENDMDL
MODEL 3
REMARK VINA RESULT:     -12.0      4.566      9.952
REMARK SMILES COc1ccc(C(=O)NCCCNC(=O)c2ccc(-c3c4nc(c(-c5c(F)cccc5F)c5ccc([nH]5)c(-c5c(F)cccc5F)c5nc(c(-c6c(F)cccc6F)c6ccc3[nH]6)C=C5)C=C4)cc2)cc1NC(=S)NC(=O)c1cccc(C)c1OC
REMARK SMILES IDX 7 1 8 2 9 3 6 5 3 6 4 7 71 8 5 9 70 10 2 11 1 12 72 13 73 15
REMARK SMILES IDX 74 16 75 17 76 18 77 20 78 21 79 22 84 23 80 24 82 25 81 26
REMARK SMILES IDX 83 27 85 28 86 29 10 30 11 31 12 32 13 33 14 34 15 36 16 37
REMARK SMILES IDX 17 38 69 39 18 40 68 41 19 42 20 43 21 44 62 45 22 46 67 47
REMARK SMILES IDX 61 48 63 49 23 50 66 51 60 52 59 53 24 55 50 56 33 57 49 58
REMARK SMILES IDX 34 59 37 60 48 61 64 62 35 63 36 64 47 66 65 67 38 68 25 69
REMARK SMILES IDX 26 70 31 71 27 72 28 73 30 74 32 75 29 76 51 77 52 78 57 79
REMARK SMILES IDX 53 80 54 81 56 82 58 83 55 84 39 85 40 86 45 87 41 88 42 89
REMARK SMILES IDX 44 90 46 91 43 92
REMARK H PARENT 9 4 72 14 75 19 13 35 63 54 37 65
REMARK Flexibility Score: inf
ROOT
ATOM      1  C   UNL A   1      37.606  22.297  25.541  1.00  0.00     0.251 C 
ATOM      2  O   UNL A   1      37.626  23.576  25.371  1.00  0.00    -0.269 OA
ATOM      3  N   UNL A   1      38.959  22.424  26.173  1.00  0.00    -0.352 N 
ATOM      4  H   UNL A   1      39.203  23.374  26.084  1.00  0.00     0.163 HD
ENDROOT
BRANCH   1   5
ATOM      5  C   UNL A   1      36.215  20.738  25.060  1.00  0.00     0.042 A 
ATOM      6  C   UNL A   1      34.016  18.672  24.441  1.00  0.00     0.142 A 
ATOM      7  C   UNL A   1      35.320  18.267  24.631  1.00  0.00     0.049 A 
ATOM      8  C   UNL A   1      33.726  19.968  24.724  1.00  0.00     0.084 A 
ATOM      9  C   UNL A   1      36.325  19.225  24.996  1.00  0.00     0.018 A 
ATOM     10  C   UNL A   1      34.784  20.840  24.681  1.00  0.00     0.044 A 
BRANCH   6  11
ATOM     11  O   UNL A   1      33.116  17.853  23.823  1.00  0.00    -0.495 OA
ATOM     12  C   UNL A   1      33.846  16.744  23.259  1.00  0.00     0.278 C 
ENDBRANCH   6  11
BRANCH   8  13
ATOM     13  N   UNL A   1      32.457  20.536  24.882  1.00  0.00    -0.329 N 
ATOM     14  H   UNL A   1      31.863  20.070  25.513  1.00  0.00     0.169 HD
BRANCH  13  15
ATOM     15  C   UNL A   1      31.924  21.643  24.290  1.00  0.00     0.177 C 
ATOM     16  S   UNL A   1      31.908  21.696  22.613  1.00  0.00    -0.040 S 
BRANCH  15  17
ATOM     17  N   UNL A   1      31.304  22.706  24.949  1.00  0.00    -0.299 N 
ATOM     18  C   UNL A   1      31.381  24.101  25.213  1.00  0.00     0.261 C 
ATOM     19  H   UNL A   1      30.505  22.356  25.406  1.00  0.00     0.172 HD
ATOM     20  O   UNL A   1      31.498  24.431  26.397  1.00  0.00    -0.269 OA
BRANCH  18  21
ATOM     21  C   UNL A   1      31.420  25.207  24.181  1.00  0.00     0.082 A 
ATOM     22  C   UNL A   1      29.820  26.081  24.172  1.00  0.00     0.018 A 
ATOM     23  C   UNL A   1      32.897  26.039  23.414  1.00  0.00     0.134 A 
ATOM     24  C   UNL A   1      29.674  27.759  23.513  1.00  0.00     0.001 A 
ATOM     25  C   UNL A   1      32.753  27.760  22.833  1.00  0.00    -0.008 A 
ATOM     26  C   UNL A   1      31.162  28.625  22.871  1.00  0.00     0.007 A 
ATOM     27  C   UNL A   1      33.983  28.617  22.725  1.00  0.00     0.048 C 
BRANCH  23  28
ATOM     28  O   UNL A   1      34.223  25.672  23.478  1.00  0.00    -0.496 OA
ATOM     29  C   UNL A   1      34.603  24.313  23.525  1.00  0.00     0.278 C 
ENDBRANCH  23  28
ENDBRANCH  18  21
ENDBRANCH  15  17
ENDBRANCH  13  15
ENDBRANCH   8  13
ENDBRANCH   1   5
BRANCH   3  30
ATOM     30  C   UNL A   1      40.099  21.782  26.867  1.00  0.00     0.118 C 
BRANCH  30  31
ATOM     31  C   UNL A   1      41.288  21.467  25.967  1.00  0.00     0.042 C 
BRANCH  31  32
ATOM     32  C   UNL A   1      42.652  21.865  26.501  1.00  0.00     0.118 C 
BRANCH  32  33
ATOM     33  N   UNL A   1      43.365  22.770  25.612  1.00  0.00    -0.352 N 
ATOM     34  C   UNL A   1      43.521  24.133  25.623  1.00  0.00     0.251 C 
ATOM     35  H   UNL A   1      43.822  22.321  24.865  1.00  0.00     0.163 HD
ATOM     36  O   UNL A   1      44.043  24.664  24.644  1.00  0.00    -0.269 OA
BRANCH  34  37
ATOM     37  C   UNL A   1      43.072  24.988  26.754  1.00  0.00     0.039 A 
ATOM     38  C   UNL A   1      43.591  26.286  26.845  1.00  0.00     0.014 A 
ATOM     39  C   UNL A   1      42.221  24.533  27.762  1.00  0.00     0.014 A 
ATOM     40  C   UNL A   1      43.221  27.126  27.901  1.00  0.00     0.010 A 
ATOM     41  C   UNL A   1      41.773  25.401  28.759  1.00  0.00     0.010 A 
ATOM     42  C   UNL A   1      42.280  26.704  28.852  1.00  0.00    -0.014 A 
BRANCH  42  43
ATOM     43  C   UNL A   1      41.835  27.608  29.946  1.00  0.00     0.031 A 
ATOM     44  C   UNL A   1      40.636  28.503  29.762  1.00  0.00     0.074 A 
ATOM     45  C   UNL A   1      42.535  27.655  31.098  1.00  0.00     0.049 A 
ATOM     46  N   UNL A   1      40.116  29.373  30.594  1.00  0.00    -0.248 NA
ATOM     47  C   UNL A   1      39.943  28.431  28.466  1.00  0.00     0.031 C 
ATOM     48  C   UNL A   1      43.742  26.877  31.385  1.00  0.00     0.029 A 
ATOM     49  N   UNL A   1      42.335  28.388  32.241  1.00  0.00    -0.354 N 
ATOM     50  C   UNL A   1      39.052  29.959  29.918  1.00  0.00     0.074 A 
ATOM     51  C   UNL A   1      39.029  29.384  28.591  1.00  0.00     0.031 C 
ATOM     52  C   UNL A   1      44.153  27.146  32.633  1.00  0.00     0.029 A 
ATOM     53  C   UNL A   1      43.268  28.145  33.222  1.00  0.00     0.049 A 
ATOM     54  H   UNL A   1      41.594  29.027  32.349  1.00  0.00     0.167 HD
ATOM     55  C   UNL A   1      38.162  30.876  30.367  1.00  0.00     0.037 A 
ATOM     56  C   UNL A   1      43.399  28.673  34.454  1.00  0.00     0.037 A 
ATOM     57  C   UNL A   1      38.169  31.424  31.699  1.00  0.00     0.049 A 
ATOM     58  C   UNL A   1      42.400  29.695  34.923  1.00  0.00     0.074 A 
ATOM     59  C   UNL A   1      37.266  32.303  32.273  1.00  0.00     0.029 A 
ATOM     60  N   UNL A   1      39.129  31.152  32.662  1.00  0.00    -0.354 N 
ATOM     61  N   UNL A   1      41.351  30.176  34.301  1.00  0.00    -0.248 NA
ATOM     62  C   UNL A   1      42.602  30.244  36.272  1.00  0.00     0.031 C 
ATOM     63  C   UNL A   1      37.710  32.605  33.564  1.00  0.00     0.029 A 
ATOM     64  C   UNL A   1      38.858  31.870  33.816  1.00  0.00     0.049 A 
ATOM     65  H   UNL A   1      39.890  30.540  32.544  1.00  0.00     0.167 HD
ATOM     66  C   UNL A   1      40.753  31.060  35.190  1.00  0.00     0.074 A 
ATOM     67  C   UNL A   1      41.544  31.031  36.402  1.00  0.00     0.031 C 
ATOM     68  C   UNL A   1      39.650  31.828  35.017  1.00  0.00     0.037 A 
BRANCH  55  69
ATOM     69  C   UNL A   1      37.101  31.349  29.415  1.00  0.00     0.057 A 
ATOM     70  C   UNL A   1      35.986  30.562  29.095  1.00  0.00     0.134 A 
ATOM     71  C   UNL A   1      37.165  32.632  28.855  1.00  0.00     0.134 A 
ATOM     72  F   UNL A   1      35.866  29.321  29.589  1.00  0.00    -0.206 F 
ATOM     73  C   UNL A   1      34.987  31.024  28.235  1.00  0.00     0.040 A 
ATOM     74  C   UNL A   1      36.158  33.116  28.017  1.00  0.00     0.040 A 
ATOM     75  F   UNL A   1      38.199  33.443  29.124  1.00  0.00    -0.206 F 
ATOM     76  C   UNL A   1      35.067  32.308  27.701  1.00  0.00     0.006 A 
ENDBRANCH  55  69
BRANCH  56  77
ATOM     77  C   UNL A   1      44.505  28.236  35.345  1.00  0.00     0.057 A 
ATOM     78  C   UNL A   1      45.757  28.863  35.304  1.00  0.00     0.134 A 
ATOM     79  C   UNL A   1      44.352  27.166  36.234  1.00  0.00     0.134 A 
ATOM     80  F   UNL A   1      45.974  29.882  34.458  1.00  0.00    -0.206 F 
ATOM     81  C   UNL A   1      46.821  28.427  36.094  1.00  0.00     0.040 A 
ATOM     82  C   UNL A   1      45.399  26.737  37.052  1.00  0.00     0.040 A 
ATOM     83  F   UNL A   1      43.177  26.525  36.326  1.00  0.00    -0.206 F 
ATOM     84  C   UNL A   1      46.642  27.362  36.974  1.00  0.00     0.006 A 
ENDBRANCH  56  77
BRANCH  68  85
ATOM     85  C   UNL A   1      39.215  32.673  36.180  1.00  0.00     0.057 A 
ATOM     86  C   UNL A   1      39.698  33.975  36.372  1.00  0.00     0.134 A 
ATOM     87  C   UNL A   1      38.287  32.186  37.108  1.00  0.00     0.134 A 
ATOM     88  F   UNL A   1      40.600  34.497  35.528  1.00  0.00    -0.206 F 
ATOM     89  C   UNL A   1      39.295  34.748  37.462  1.00  0.00     0.040 A 
ATOM     90  C   UNL A   1      37.854  32.960  38.184  1.00  0.00     0.040 A 
ATOM     91  F   UNL A   1      37.776  30.951  36.979  1.00  0.00    -0.206 F 
ATOM     92  C   UNL A   1      38.366  34.244  38.368  1.00  0.00     0.006 A 
ENDBRANCH  68  85
ENDBRANCH  42  43
ENDBRANCH  34  37
ENDBRANCH  32  33
ENDBRANCH  31  32
ENDBRANCH  30  31
ENDBRANCH   3  30
TORSDOF 16
ENDMDL
