MODEL 1
REMARK VINA RESULT:     -10.6      0.000      0.000
REMARK SMILES CCn1c(=O)n(CC)c2cc(C(=O)NCCCNC(=O)c3ccc(-c4c5nc(c(-c6c(F)cccc6F)c6ccc([nH]6)c(-c6c(F)cccc6F)c6nc(c(-c7c(F)cccc7F)c7ccc4[nH]7)C=C6)C=C5)cc3)ccc21
REMARK SMILES IDX 16 1 15 2 14 3 12 4 13 5 11 7 3 8 4 9 77 10 5 11 6 12 9 13
REMARK SMILES IDX 76 14 10 15 75 16 2 17 1 18 7 19 8 20 17 21 18 22 19 23
REMARK SMILES IDX 20 25 21 26 22 27 74 28 23 29 73 30 24 31 25 32 26 33 67 34
REMARK SMILES IDX 27 35 72 36 66 37 68 38 28 39 71 40 65 41 64 42 29 44 55 45
REMARK SMILES IDX 38 46 54 47 39 48 42 49 53 50 69 51 40 52 41 53 52 55 70 56
REMARK SMILES IDX 43 57 30 58 31 59 36 60 32 61 33 62 35 63 37 64 34 65 56 66
REMARK SMILES IDX 57 67 62 68 58 69 59 70 61 71 63 72 60 73 44 74 45 75 50 76
REMARK SMILES IDX 46 77 47 78 49 79 51 80 48 81
REMARK H PARENT 14 6 18 24 68 43 42 54
REMARK Flexibility Score: inf
ROOT
ATOM      1  C   UNL A   1      34.300  35.347  28.444  1.00  0.00     0.042 C 
ENDROOT
BRANCH   1   2
ATOM      2  C   UNL A   1      32.987  35.074  29.190  1.00  0.00     0.118 C 
BRANCH   2   3
ATOM      3  N   UNL A   1      32.874  35.866  30.405  1.00  0.00    -0.352 N 
ATOM      4  C   UNL A   1      33.464  35.822  31.643  1.00  0.00     0.251 C 
ATOM      5  O   UNL A   1      33.164  36.732  32.420  1.00  0.00    -0.269 OA
ATOM      6  H   UNL A   1      32.226  36.602  30.319  1.00  0.00     0.163 HD
BRANCH   4   7
ATOM      7  C   UNL A   1      34.451  34.795  32.099  1.00  0.00     0.042 A 
ATOM      8  N   UNL A   1      37.521  32.101  32.938  1.00  0.00    -0.292 N 
ATOM      9  C   UNL A   1      38.604  32.732  32.287  1.00  0.00     0.329 A 
ATOM     10  C   UNL A   1      36.381  32.907  32.777  1.00  0.00     0.069 A 
ATOM     11  O   UNL A   1      39.770  32.351  32.231  1.00  0.00    -0.248 OA
ATOM     12  N   UNL A   1      38.089  33.915  31.706  1.00  0.00    -0.292 N 
ATOM     13  C   UNL A   1      36.720  34.005  31.995  1.00  0.00     0.070 A 
ATOM     14  C   UNL A   1      35.111  32.747  33.283  1.00  0.00     0.029 A 
ATOM     15  C   UNL A   1      35.779  34.951  31.637  1.00  0.00     0.042 A 
ATOM     16  C   UNL A   1      34.154  33.721  32.963  1.00  0.00     0.016 A 
BRANCH   8  17
ATOM     17  C   UNL A   1      37.501  30.851  33.669  1.00  0.00     0.124 C 
ATOM     18  C   UNL A   1      38.260  30.822  34.984  1.00  0.00     0.028 C 
ENDBRANCH   8  17
BRANCH  12  19
ATOM     19  C   UNL A   1      38.877  34.887  30.988  1.00  0.00     0.124 C 
ATOM     20  C   UNL A   1      38.967  34.600  29.499  1.00  0.00     0.028 C 
ENDBRANCH  12  19
ENDBRANCH   4   7
ENDBRANCH   2   3
ENDBRANCH   1   2
BRANCH   1  21
ATOM     21  C   UNL A   1      35.219  34.126  28.350  1.00  0.00     0.118 C 
BRANCH  21  22
ATOM     22  N   UNL A   1      34.522  32.900  27.996  1.00  0.00    -0.352 N 
ATOM     23  C   UNL A   1      34.778  31.560  28.037  1.00  0.00     0.251 C 
ATOM     24  H   UNL A   1      33.627  33.087  27.630  1.00  0.00     0.163 HD
ATOM     25  O   UNL A   1      33.846  30.837  27.671  1.00  0.00    -0.269 OA
BRANCH  23  26
ATOM     26  C   UNL A   1      36.063  30.908  28.421  1.00  0.00     0.039 A 
ATOM     27  C   UNL A   1      37.172  31.539  28.975  1.00  0.00     0.014 A 
ATOM     28  C   UNL A   1      36.152  29.523  28.148  1.00  0.00     0.014 A 
ATOM     29  C   UNL A   1      38.356  30.820  29.169  1.00  0.00     0.010 A 
ATOM     30  C   UNL A   1      37.328  28.802  28.347  1.00  0.00     0.010 A 
ATOM     31  C   UNL A   1      38.451  29.459  28.822  1.00  0.00    -0.014 A 
BRANCH  31  32
ATOM     32  C   UNL A   1      39.697  28.748  29.129  1.00  0.00     0.031 A 
ATOM     33  C   UNL A   1      39.989  28.685  30.585  1.00  0.00     0.074 A 
ATOM     34  C   UNL A   1      40.529  28.141  28.252  1.00  0.00     0.049 A 
ATOM     35  N   UNL A   1      40.869  29.382  31.224  1.00  0.00    -0.248 NA
ATOM     36  C   UNL A   1      39.108  27.890  31.453  1.00  0.00     0.031 C 
ATOM     37  C   UNL A   1      40.315  27.855  26.833  1.00  0.00     0.029 A 
ATOM     38  N   UNL A   1      41.769  27.601  28.482  1.00  0.00    -0.354 N 
ATOM     39  C   UNL A   1      40.799  28.971  32.551  1.00  0.00     0.074 A 
ATOM     40  C   UNL A   1      39.603  28.177  32.660  1.00  0.00     0.031 C 
ATOM     41  C   UNL A   1      41.291  27.029  26.383  1.00  0.00     0.029 A 
ATOM     42  C   UNL A   1      42.283  26.845  27.431  1.00  0.00     0.049 A 
ATOM     43  H   UNL A   1      42.258  27.737  29.325  1.00  0.00     0.167 HD
ATOM     44  C   UNL A   1      41.870  29.131  33.377  1.00  0.00     0.037 A 
ATOM     45  C   UNL A   1      43.437  26.124  27.419  1.00  0.00     0.037 A 
ATOM     46  C   UNL A   1      42.799  30.093  32.832  1.00  0.00     0.049 A 
ATOM     47  C   UNL A   1      44.318  26.666  28.476  1.00  0.00     0.074 A 
ATOM     48  C   UNL A   1      42.748  31.427  32.474  1.00  0.00     0.029 A 
ATOM     49  N   UNL A   1      43.933  29.599  32.238  1.00  0.00    -0.354 N 
ATOM     50  N   UNL A   1      44.906  27.823  28.407  1.00  0.00    -0.248 NA
ATOM     51  C   UNL A   1      44.225  26.089  29.806  1.00  0.00     0.031 C 
ATOM     52  C   UNL A   1      43.574  31.535  31.314  1.00  0.00     0.029 A 
ATOM     53  C   UNL A   1      44.133  30.281  31.069  1.00  0.00     0.049 A 
ATOM     54  H   UNL A   1      44.502  28.878  32.591  1.00  0.00     0.167 HD
ATOM     55  C   UNL A   1      44.811  28.331  29.691  1.00  0.00     0.074 A 
ATOM     56  C   UNL A   1      44.492  27.178  30.530  1.00  0.00     0.031 C 
ATOM     57  C   UNL A   1      44.718  29.679  29.897  1.00  0.00     0.037 A 
BRANCH  44  58
ATOM     58  C   UNL A   1      42.308  28.107  34.405  1.00  0.00     0.057 A 
ATOM     59  C   UNL A   1      42.027  28.189  35.783  1.00  0.00     0.134 A 
ATOM     60  C   UNL A   1      42.704  26.830  33.954  1.00  0.00     0.134 A 
ATOM     61  F   UNL A   1      41.627  29.318  36.376  1.00  0.00    -0.206 F 
ATOM     62  C   UNL A   1      42.045  27.074  36.626  1.00  0.00     0.040 A 
ATOM     63  C   UNL A   1      42.678  25.700  34.780  1.00  0.00     0.040 A 
ATOM     64  F   UNL A   1      43.021  26.622  32.667  1.00  0.00    -0.206 F 
ATOM     65  C   UNL A   1      42.326  25.816  36.117  1.00  0.00     0.006 A 
ENDBRANCH  44  58
BRANCH  45  66
ATOM     66  C   UNL A   1      43.784  24.857  26.728  1.00  0.00     0.057 A 
ATOM     67  C   UNL A   1      44.357  24.868  25.447  1.00  0.00     0.134 A 
ATOM     68  C   UNL A   1      43.268  23.621  27.159  1.00  0.00     0.134 A 
ATOM     69  F   UNL A   1      44.819  26.007  24.911  1.00  0.00    -0.206 F 
ATOM     70  C   UNL A   1      44.383  23.733  24.627  1.00  0.00     0.040 A 
ATOM     71  C   UNL A   1      43.285  22.477  26.346  1.00  0.00     0.040 A 
ATOM     72  F   UNL A   1      42.664  23.509  28.350  1.00  0.00    -0.206 F 
ATOM     73  C   UNL A   1      43.831  22.535  25.069  1.00  0.00     0.006 A 
ENDBRANCH  45  66
BRANCH  57  74
ATOM     74  C   UNL A   1      45.065  30.579  28.744  1.00  0.00     0.057 A 
ATOM     75  C   UNL A   1      44.050  30.923  27.843  1.00  0.00     0.134 A 
ATOM     76  C   UNL A   1      46.353  31.058  28.458  1.00  0.00     0.134 A 
ATOM     77  F   UNL A   1      42.803  30.456  28.019  1.00  0.00    -0.206 F 
ATOM     78  C   UNL A   1      44.291  31.731  26.731  1.00  0.00     0.040 A 
ATOM     79  C   UNL A   1      46.600  31.902  27.369  1.00  0.00     0.040 A 
ATOM     80  F   UNL A   1      47.412  30.699  29.196  1.00  0.00    -0.206 F 
ATOM     81  C   UNL A   1      45.565  32.241  26.502  1.00  0.00     0.006 A 
ENDBRANCH  57  74
ENDBRANCH  31  32
ENDBRANCH  23  26
ENDBRANCH  21  22
ENDBRANCH   1  21
TORSDOF 12
ENDMDL
MODEL 2
REMARK VINA RESULT:     -10.6      3.497     10.252
REMARK SMILES CCn1c(=O)n(CC)c2cc(C(=O)NCCCNC(=O)c3ccc(-c4c5nc(c(-c6c(F)cccc6F)c6ccc([nH]6)c(-c6c(F)cccc6F)c6nc(c(-c7c(F)cccc7F)c7ccc4[nH]7)C=C6)C=C5)cc3)ccc21
REMARK SMILES IDX 16 1 15 2 14 3 12 4 13 5 11 7 3 8 4 9 77 10 5 11 6 12 9 13
REMARK SMILES IDX 76 14 10 15 75 16 2 17 1 18 7 19 8 20 17 21 18 22 19 23
REMARK SMILES IDX 20 25 21 26 22 27 74 28 23 29 73 30 24 31 25 32 26 33 67 34
REMARK SMILES IDX 27 35 72 36 66 37 68 38 28 39 71 40 65 41 64 42 29 44 55 45
REMARK SMILES IDX 38 46 54 47 39 48 42 49 53 50 69 51 40 52 41 53 52 55 70 56
REMARK SMILES IDX 43 57 30 58 31 59 36 60 32 61 33 62 35 63 37 64 34 65 56 66
REMARK SMILES IDX 57 67 62 68 58 69 59 70 61 71 63 72 60 73 44 74 45 75 50 76
REMARK SMILES IDX 46 77 47 78 49 79 51 80 48 81
REMARK H PARENT 14 6 18 24 68 43 42 54
REMARK Flexibility Score: inf
ROOT
ATOM      1  C   UNL A   1      43.500  21.262  25.389  1.00  0.00     0.042 C 
ENDROOT
BRANCH   1   2
ATOM      2  C   UNL A   1      44.099  22.555  24.820  1.00  0.00     0.118 C 
BRANCH   2   3
ATOM      3  N   UNL A   1      43.146  23.653  24.838  1.00  0.00    -0.352 N 
ATOM      4  C   UNL A   1      43.188  24.960  25.255  1.00  0.00     0.251 C 
ATOM      5  O   UNL A   1      42.176  25.632  25.038  1.00  0.00    -0.269 OA
ATOM      6  H   UNL A   1      42.269  23.401  24.468  1.00  0.00     0.163 HD
BRANCH   4   7
ATOM      7  C   UNL A   1      44.359  25.626  25.906  1.00  0.00     0.042 A 
ATOM      8  N   UNL A   1      47.853  27.491  27.208  1.00  0.00    -0.292 N 
ATOM      9  C   UNL A   1      48.315  28.049  25.995  1.00  0.00     0.329 A 
ATOM     10  C   UNL A   1      46.638  26.832  26.953  1.00  0.00     0.069 A 
ATOM     11  O   UNL A   1      49.327  28.723  25.818  1.00  0.00    -0.248 OA
ATOM     12  N   UNL A   1      47.375  27.688  25.002  1.00  0.00    -0.292 N 
ATOM     13  C   UNL A   1      46.358  26.926  25.595  1.00  0.00     0.070 A 
ATOM     14  C   UNL A   1      45.781  26.198  27.825  1.00  0.00     0.029 A 
ATOM     15  C   UNL A   1      45.239  26.328  25.049  1.00  0.00     0.042 A 
ATOM     16  C   UNL A   1      44.618  25.623  27.291  1.00  0.00     0.016 A 
BRANCH   8  17
ATOM     17  C   UNL A   1      48.456  27.545  28.524  1.00  0.00     0.124 C 
ATOM     18  C   UNL A   1      49.380  26.399  28.895  1.00  0.00     0.028 C 
ENDBRANCH   8  17
BRANCH  12  19
ATOM     19  C   UNL A   1      47.439  28.101  23.622  1.00  0.00     0.124 C 
ATOM     20  C   UNL A   1      48.433  27.294  22.804  1.00  0.00     0.028 C 
ENDBRANCH  12  19
ENDBRANCH   4   7
ENDBRANCH   2   3
ENDBRANCH   1   2
BRANCH   1  21
ATOM     21  C   UNL A   1      42.724  21.467  26.694  1.00  0.00     0.118 C 
BRANCH  21  22
ATOM     22  N   UNL A   1      41.282  21.392  26.529  1.00  0.00    -0.352 N 
ATOM     23  C   UNL A   1      40.216  22.233  26.680  1.00  0.00     0.251 C 
ATOM     24  H   UNL A   1      40.999  20.499  26.229  1.00  0.00     0.163 HD
ATOM     25  O   UNL A   1      39.123  21.753  26.367  1.00  0.00    -0.269 OA
BRANCH  23  26
ATOM     26  C   UNL A   1      40.243  23.621  27.223  1.00  0.00     0.039 A 
ATOM     27  C   UNL A   1      39.396  24.663  26.860  1.00  0.00     0.014 A 
ATOM     28  C   UNL A   1      41.262  23.889  28.166  1.00  0.00     0.014 A 
ATOM     29  C   UNL A   1      39.619  25.948  27.364  1.00  0.00     0.010 A 
ATOM     30  C   UNL A   1      41.482  25.167  28.676  1.00  0.00     0.010 A 
ATOM     31  C   UNL A   1      40.685  26.214  28.244  1.00  0.00    -0.014 A 
BRANCH  31  32
ATOM     32  C   UNL A   1      40.810  27.568  28.797  1.00  0.00     0.031 A 
ATOM     33  C   UNL A   1      42.008  28.293  28.298  1.00  0.00     0.074 A 
ATOM     34  C   UNL A   1      39.952  28.189  29.638  1.00  0.00     0.049 A 
ATOM     35  N   UNL A   1      43.100  28.515  28.950  1.00  0.00    -0.248 NA
ATOM     36  C   UNL A   1      42.069  28.671  26.879  1.00  0.00     0.031 C 
ATOM     37  C   UNL A   1      38.608  27.778  30.045  1.00  0.00     0.029 A 
ATOM     38  N   UNL A   1      40.109  29.386  30.291  1.00  0.00    -0.354 N 
ATOM     39  C   UNL A   1      43.921  29.241  28.094  1.00  0.00     0.074 A 
ATOM     40  C   UNL A   1      43.305  29.170  26.795  1.00  0.00     0.031 C 
ATOM     41  C   UNL A   1      38.002  28.794  30.708  1.00  0.00     0.029 A 
ATOM     42  C   UNL A   1      38.959  29.872  30.909  1.00  0.00     0.049 A 
ATOM     43  H   UNL A   1      40.969  29.865  30.319  1.00  0.00     0.167 HD
ATOM     44  C   UNL A   1      44.908  30.033  28.597  1.00  0.00     0.037 A 
ATOM     45  C   UNL A   1      38.802  31.067  31.539  1.00  0.00     0.037 A 
ATOM     46  C   UNL A   1      45.208  29.673  29.964  1.00  0.00     0.049 A 
ATOM     47  C   UNL A   1      40.145  31.550  31.929  1.00  0.00     0.074 A 
ATOM     48  C   UNL A   1      45.651  28.537  30.614  1.00  0.00     0.029 A 
ATOM     49  N   UNL A   1      44.706  30.486  30.948  1.00  0.00    -0.354 N 
ATOM     50  N   UNL A   1      40.861  31.016  32.874  1.00  0.00    -0.248 NA
ATOM     51  C   UNL A   1      40.871  32.386  30.990  1.00  0.00     0.031 C 
ATOM     52  C   UNL A   1      44.961  28.531  31.865  1.00  0.00     0.029 A 
ATOM     53  C   UNL A   1      44.191  29.692  31.935  1.00  0.00     0.049 A 
ATOM     54  H   UNL A   1      44.715  31.471  30.944  1.00  0.00     0.167 HD
ATOM     55  C   UNL A   1      42.153  31.036  32.376  1.00  0.00     0.074 A 
ATOM     56  C   UNL A   1      42.116  31.994  31.273  1.00  0.00     0.031 C 
ATOM     57  C   UNL A   1      43.045  30.064  32.727  1.00  0.00     0.037 A 
BRANCH  44  58
ATOM     58  C   UNL A   1      45.260  31.401  28.047  1.00  0.00     0.057 A 
ATOM     59  C   UNL A   1      46.468  31.710  27.390  1.00  0.00     0.134 A 
ATOM     60  C   UNL A   1      44.220  32.333  27.847  1.00  0.00     0.134 A 
ATOM     61  F   UNL A   1      47.551  30.930  27.461  1.00  0.00    -0.206 F 
ATOM     62  C   UNL A   1      46.602  32.803  26.529  1.00  0.00     0.040 A 
ATOM     63  C   UNL A   1      44.331  33.402  26.949  1.00  0.00     0.040 A 
ATOM     64  F   UNL A   1      43.025  32.167  28.433  1.00  0.00    -0.206 F 
ATOM     65  C   UNL A   1      45.519  33.627  26.269  1.00  0.00     0.006 A 
ENDBRANCH  44  58
BRANCH  45  66
ATOM     66  C   UNL A   1      37.621  31.959  31.653  1.00  0.00     0.057 A 
ATOM     67  C   UNL A   1      36.773  31.892  32.769  1.00  0.00     0.134 A 
ATOM     68  C   UNL A   1      37.115  32.654  30.540  1.00  0.00     0.134 A 
ATOM     69  F   UNL A   1      37.127  31.198  33.860  1.00  0.00    -0.206 F 
ATOM     70  C   UNL A   1      35.488  32.447  32.769  1.00  0.00     0.040 A 
ATOM     71  C   UNL A   1      35.828  33.212  30.525  1.00  0.00     0.040 A 
ATOM     72  F   UNL A   1      37.828  32.743  29.407  1.00  0.00    -0.206 F 
ATOM     73  C   UNL A   1      35.003  33.096  31.639  1.00  0.00     0.006 A 
ENDBRANCH  45  66
BRANCH  57  74
ATOM     74  C   UNL A   1      42.696  29.198  33.906  1.00  0.00     0.057 A 
ATOM     75  C   UNL A   1      41.988  28.014  33.672  1.00  0.00     0.134 A 
ATOM     76  C   UNL A   1      42.970  29.517  35.246  1.00  0.00     0.134 A 
ATOM     77  F   UNL A   1      41.640  27.669  32.422  1.00  0.00    -0.206 F 
ATOM     78  C   UNL A   1      41.600  27.166  34.712  1.00  0.00     0.040 A 
ATOM     79  C   UNL A   1      42.622  28.657  36.293  1.00  0.00     0.040 A 
ATOM     80  F   UNL A   1      43.546  30.678  35.583  1.00  0.00    -0.206 F 
ATOM     81  C   UNL A   1      41.935  27.476  36.026  1.00  0.00     0.006 A 
ENDBRANCH  57  74
ENDBRANCH  31  32
ENDBRANCH  23  26
ENDBRANCH  21  22
ENDBRANCH   1  21
TORSDOF 12
ENDMDL
MODEL 3
REMARK VINA RESULT:     -10.5      3.476     10.783
REMARK SMILES CCn1c(=O)n(CC)c2cc(C(=O)NCCCNC(=O)c3ccc(-c4c5nc(c(-c6c(F)cccc6F)c6ccc([nH]6)c(-c6c(F)cccc6F)c6nc(c(-c7c(F)cccc7F)c7ccc4[nH]7)C=C6)C=C5)cc3)ccc21
REMARK SMILES IDX 16 1 15 2 14 3 12 4 13 5 11 7 3 8 4 9 77 10 5 11 6 12 9 13
REMARK SMILES IDX 76 14 10 15 75 16 2 17 1 18 7 19 8 20 17 21 18 22 19 23
REMARK SMILES IDX 20 25 21 26 22 27 74 28 23 29 73 30 24 31 25 32 26 33 67 34
REMARK SMILES IDX 27 35 72 36 66 37 68 38 28 39 71 40 65 41 64 42 29 44 55 45
REMARK SMILES IDX 38 46 54 47 39 48 42 49 53 50 69 51 40 52 41 53 52 55 70 56
REMARK SMILES IDX 43 57 30 58 31 59 36 60 32 61 33 62 35 63 37 64 34 65 56 66
REMARK SMILES IDX 57 67 62 68 58 69 59 70 61 71 63 72 60 73 44 74 45 75 50 76
REMARK SMILES IDX 46 77 47 78 49 79 51 80 48 81
REMARK H PARENT 14 6 18 24 68 43 42 54
REMARK Flexibility Score: inf
ROOT
ATOM      1  C   UNL A   1      42.143  19.510  27.285  1.00  0.00     0.042 C 
ENDROOT
BRANCH   1   2
ATOM      2  C   UNL A   1      42.124  19.293  25.767  1.00  0.00     0.118 C 
BRANCH   2   3
ATOM      3  N   UNL A   1      43.453  19.034  25.235  1.00  0.00    -0.352 N 
ATOM      4  C   UNL A   1      44.548  19.813  24.954  1.00  0.00     0.251 C 
ATOM      5  O   UNL A   1      45.556  19.215  24.570  1.00  0.00    -0.269 OA
ATOM      6  H   UNL A   1      43.601  18.083  25.028  1.00  0.00     0.163 HD
BRANCH   4   7
ATOM      7  C   UNL A   1      44.619  21.299  25.111  1.00  0.00     0.042 A 
ATOM      8  N   UNL A   1      44.664  25.354  26.081  1.00  0.00    -0.292 N 
ATOM      9  C   UNL A   1      44.809  25.282  27.484  1.00  0.00     0.329 A 
ATOM     10  C   UNL A   1      44.658  24.044  25.573  1.00  0.00     0.069 A 
ATOM     11  O   UNL A   1      44.886  26.216  28.279  1.00  0.00    -0.248 OA
ATOM     12  N   UNL A   1      44.859  23.907  27.814  1.00  0.00    -0.292 N 
ATOM     13  C   UNL A   1      44.747  23.154  26.637  1.00  0.00     0.070 A 
ATOM     14  C   UNL A   1      44.606  23.606  24.268  1.00  0.00     0.029 A 
ATOM     15  C   UNL A   1      44.720  21.787  26.435  1.00  0.00     0.042 A 
ATOM     16  C   UNL A   1      44.621  22.222  24.045  1.00  0.00     0.016 A 
BRANCH   8  17
ATOM     17  C   UNL A   1      44.543  26.524  25.236  1.00  0.00     0.124 C 
ATOM     18  C   UNL A   1      45.801  27.350  25.036  1.00  0.00     0.028 C 
ENDBRANCH   8  17
BRANCH  12  19
ATOM     19  C   UNL A   1      45.056  23.389  29.145  1.00  0.00     0.124 C 
ATOM     20  C   UNL A   1      43.756  23.016  29.839  1.00  0.00     0.028 C 
ENDBRANCH  12  19
ENDBRANCH   4   7
ENDBRANCH   2   3
ENDBRANCH   1   2
BRANCH   1  21
ATOM     21  C   UNL A   1      41.536  20.847  27.722  1.00  0.00     0.118 C 
BRANCH  21  22
ATOM     22  N   UNL A   1      40.366  21.232  26.952  1.00  0.00    -0.352 N 
ATOM     23  C   UNL A   1      39.711  22.391  26.647  1.00  0.00     0.251 C 
ATOM     24  H   UNL A   1      39.931  20.451  26.541  1.00  0.00     0.163 HD
ATOM     25  O   UNL A   1      38.749  22.263  25.883  1.00  0.00    -0.269 OA
BRANCH  23  26
ATOM     26  C   UNL A   1      40.009  23.752  27.177  1.00  0.00     0.039 A 
ATOM     27  C   UNL A   1      41.183  24.149  27.809  1.00  0.00     0.014 A 
ATOM     28  C   UNL A   1      38.968  24.700  27.049  1.00  0.00     0.014 A 
ATOM     29  C   UNL A   1      41.274  25.429  28.367  1.00  0.00     0.010 A 
ATOM     30  C   UNL A   1      39.058  25.978  27.597  1.00  0.00     0.010 A 
ATOM     31  C   UNL A   1      40.199  26.335  28.297  1.00  0.00    -0.014 A 
BRANCH  31  32
ATOM     32  C   UNL A   1      40.393  27.688  28.831  1.00  0.00     0.031 A 
ATOM     33  C   UNL A   1      41.533  28.406  28.202  1.00  0.00     0.074 A 
ATOM     34  C   UNL A   1      39.638  28.315  29.762  1.00  0.00     0.049 A 
ATOM     35  N   UNL A   1      42.693  28.620  28.729  1.00  0.00    -0.248 NA
ATOM     36  C   UNL A   1      41.439  28.783  26.785  1.00  0.00     0.031 C 
ATOM     37  C   UNL A   1      38.344  27.912  30.315  1.00  0.00     0.029 A 
ATOM     38  N   UNL A   1      39.874  29.510  30.392  1.00  0.00    -0.354 N 
ATOM     39  C   UNL A   1      43.419  29.340  27.787  1.00  0.00     0.074 A 
ATOM     40  C   UNL A   1      42.662  29.273  26.564  1.00  0.00     0.031 C 
ATOM     41  C   UNL A   1      37.823  28.933  31.040  1.00  0.00     0.029 A 
ATOM     42  C   UNL A   1      38.803  30.004  31.133  1.00  0.00     0.049 A 
ATOM     43  H   UNL A   1      40.735  29.984  30.325  1.00  0.00     0.167 HD
ATOM     44  C   UNL A   1      44.460  30.127  28.177  1.00  0.00     0.037 A 
ATOM     45  C   UNL A   1      38.724  31.200  31.776  1.00  0.00     0.037 A 
ATOM     46  C   UNL A   1      44.908  29.765  29.502  1.00  0.00     0.049 A 
ATOM     47  C   UNL A   1      40.105  31.674  32.015  1.00  0.00     0.074 A 
ATOM     48  C   UNL A   1      45.412  28.625  30.101  1.00  0.00     0.029 A 
ATOM     49  N   UNL A   1      44.523  30.581  30.536  1.00  0.00    -0.354 N 
ATOM     50  N   UNL A   1      40.918  31.135  32.875  1.00  0.00    -0.248 NA
ATOM     51  C   UNL A   1      40.729  32.505  31.000  1.00  0.00     0.031 C 
ATOM     52  C   UNL A   1      44.865  28.624  31.420  1.00  0.00     0.029 A 
ATOM     53  C   UNL A   1      44.115  29.789  31.574  1.00  0.00     0.049 A 
ATOM     54  H   UNL A   1      44.538  31.565  30.530  1.00  0.00     0.167 HD
ATOM     55  C   UNL A   1      42.147  31.147  32.237  1.00  0.00     0.074 A 
ATOM     56  C   UNL A   1      41.994  32.105  31.144  1.00  0.00     0.031 C 
ATOM     57  C   UNL A   1      43.066  30.169  32.488  1.00  0.00     0.037 A 
BRANCH  44  58
ATOM     58  C   UNL A   1      44.758  31.492  27.591  1.00  0.00     0.057 A 
ATOM     59  C   UNL A   1      44.087  32.678  27.948  1.00  0.00     0.134 A 
ATOM     60  C   UNL A   1      45.986  31.683  26.924  1.00  0.00     0.134 A 
ATOM     61  F   UNL A   1      42.918  32.682  28.597  1.00  0.00    -0.206 F 
ATOM     62  C   UNL A   1      44.635  33.948  27.747  1.00  0.00     0.040 A 
ATOM     63  C   UNL A   1      46.565  32.947  26.761  1.00  0.00     0.040 A 
ATOM     64  F   UNL A   1      46.716  30.635  26.510  1.00  0.00    -0.206 F 
ATOM     65  C   UNL A   1      45.898  34.085  27.193  1.00  0.00     0.006 A 
ENDBRANCH  44  58
BRANCH  45  66
ATOM     66  C   UNL A   1      37.569  32.100  32.019  1.00  0.00     0.057 A 
ATOM     67  C   UNL A   1      36.931  32.131  33.269  1.00  0.00     0.134 A 
ATOM     68  C   UNL A   1      36.866  32.696  30.957  1.00  0.00     0.134 A 
ATOM     69  F   UNL A   1      37.482  31.534  34.336  1.00  0.00    -0.206 F 
ATOM     70  C   UNL A   1      35.658  32.685  33.448  1.00  0.00     0.040 A 
ATOM     71  C   UNL A   1      35.588  33.251  31.122  1.00  0.00     0.040 A 
ATOM     72  F   UNL A   1      37.367  32.685  29.713  1.00  0.00    -0.206 F 
ATOM     73  C   UNL A   1      34.973  33.234  32.369  1.00  0.00     0.006 A 
ENDBRANCH  45  66
BRANCH  57  74
ATOM     74  C   UNL A   1      42.844  29.306  33.699  1.00  0.00     0.057 A 
ATOM     75  C   UNL A   1      43.576  29.588  34.857  1.00  0.00     0.134 A 
ATOM     76  C   UNL A   1      41.996  28.188  33.744  1.00  0.00     0.134 A 
ATOM     77  F   UNL A   1      44.450  30.608  34.874  1.00  0.00    -0.206 F 
ATOM     78  C   UNL A   1      43.451  28.821  36.017  1.00  0.00     0.040 A 
ATOM     79  C   UNL A   1      41.832  27.436  34.912  1.00  0.00     0.040 A 
ATOM     80  F   UNL A   1      41.334  27.770  32.657  1.00  0.00    -0.206 F 
ATOM     81  C   UNL A   1      42.561  27.753  36.054  1.00  0.00     0.006 A 
ENDBRANCH  57  74
ENDBRANCH  31  32
ENDBRANCH  23  26
ENDBRANCH  21  22
ENDBRANCH   1  21
TORSDOF 12
ENDMDL
