MODEL 1
REMARK VINA RESULT:     -13.2      0.000      0.000
REMARK SMILES O=C(NCCCNC(=O)[C@H]1CC2(CCN(C(=O)c3cccc(O)c3)CC2)CN1C(=O)C1CC1)c1ccc(-c2c3nc(c(-c4c(F)cccc4F)c4ccc([nH]4)c(-c4c(F)cccc4F)c4nc(c(-c5c(F)cccc5F)c5ccc2[nH]5)C=C4)C=C3)cc1
REMARK SMILES IDX 5 1 4 2 3 3 1 4 2 5 34 7 35 8 87 9 36 10 86 11 37 12 38 13
REMARK SMILES IDX 39 14 80 15 40 16 85 17 79 18 81 19 41 20 84 21 78 22 77 23
REMARK SMILES IDX 42 25 68 26 51 27 67 28 52 29 55 30 66 31 82 32 53 33 54 34
REMARK SMILES IDX 65 36 83 37 56 38 43 39 44 40 49 41 45 42 46 43 48 44 50 45
REMARK SMILES IDX 47 46 69 47 70 48 75 49 71 50 72 51 74 52 76 53 73 54 57 55
REMARK SMILES IDX 58 56 63 57 59 58 60 59 62 60 64 61 61 62 6 63 7 64 8 65
REMARK SMILES IDX 9 67 10 68 11 69 28 70 12 71 27 72 13 73 26 74 14 75 25 76
REMARK SMILES IDX 15 77 16 78 17 79 29 80 30 81 31 82 32 83 33 84 18 85 19 86
REMARK SMILES IDX 24 87 20 88 22 89 21 90 23 91
REMARK H PARENT 3 6 81 24 55 35 7 66 23 92
REMARK Flexibility Score: inf
ROOT
ATOM      1  C   UNL A   1      37.889  19.907  24.880  1.00  0.00     0.042 C 
ENDROOT
BRANCH   1   2
ATOM      2  C   UNL A   1      39.034  20.249  25.823  1.00  0.00     0.118 C 
BRANCH   2   3
ATOM      3  N   UNL A   1      40.029  19.192  25.874  1.00  0.00    -0.352 N 
ATOM      4  O   UNL A   1      42.123  18.355  25.840  1.00  0.00    -0.269 OA
ATOM      5  C   UNL A   1      41.390  19.317  26.017  1.00  0.00     0.251 C 
ATOM      6  H   UNL A   1      39.686  18.272  25.800  1.00  0.00     0.163 HD
BRANCH   5   7
ATOM      7  C   UNL A   1      41.958  20.634  26.375  1.00  0.00     0.039 A 
ATOM      8  C   UNL A   1      42.306  21.547  25.375  1.00  0.00     0.014 A 
ATOM      9  C   UNL A   1      42.119  20.964  27.723  1.00  0.00     0.014 A 
ATOM     10  C   UNL A   1      42.903  22.753  25.720  1.00  0.00     0.010 A 
ATOM     11  C   UNL A   1      42.643  22.211  28.070  1.00  0.00     0.010 A 
ATOM     12  C   UNL A   1      43.039  23.113  27.070  1.00  0.00    -0.014 A 
BRANCH  12  13
ATOM     13  C   UNL A   1      43.463  24.493  27.406  1.00  0.00     0.031 A 
ATOM     14  C   UNL A   1      42.478  25.536  27.843  1.00  0.00     0.074 A 
ATOM     15  C   UNL A   1      44.775  24.787  27.303  1.00  0.00     0.049 A 
ATOM     16  N   UNL A   1      42.696  26.788  28.155  1.00  0.00    -0.248 NA
ATOM     17  C   UNL A   1      41.067  25.129  27.939  1.00  0.00     0.031 C 
ATOM     18  C   UNL A   1      45.815  23.851  26.863  1.00  0.00     0.029 A 
ATOM     19  N   UNL A   1      45.461  25.943  27.563  1.00  0.00    -0.354 N 
ATOM     20  C   UNL A   1      41.453  27.325  28.465  1.00  0.00     0.074 A 
ATOM     21  C   UNL A   1      40.481  26.266  28.290  1.00  0.00     0.031 C 
ATOM     22  C   UNL A   1      47.008  24.459  26.917  1.00  0.00     0.029 A 
ATOM     23  C   UNL A   1      46.811  25.842  27.328  1.00  0.00     0.049 A 
ATOM     24  H   UNL A   1      45.030  26.767  27.887  1.00  0.00     0.167 HD
ATOM     25  C   UNL A   1      41.162  28.586  28.862  1.00  0.00     0.037 A 
ATOM     26  C   UNL A   1      47.782  26.769  27.404  1.00  0.00     0.037 A 
ATOM     27  C   UNL A   1      42.144  29.625  29.048  1.00  0.00     0.049 A 
ATOM     28  C   UNL A   1      47.418  28.163  27.822  1.00  0.00     0.074 A 
ATOM     29  C   UNL A   1      41.953  30.918  29.504  1.00  0.00     0.029 A 
ATOM     30  N   UNL A   1      43.499  29.492  28.781  1.00  0.00    -0.354 N 
ATOM     31  N   UNL A   1      46.247  28.640  28.166  1.00  0.00    -0.248 NA
ATOM     32  C   UNL A   1      48.506  29.147  27.857  1.00  0.00     0.031 C 
ATOM     33  C   UNL A   1      43.182  31.583  29.462  1.00  0.00     0.029 A 
ATOM     34  C   UNL A   1      44.149  30.690  29.030  1.00  0.00     0.049 A 
ATOM     35  H   UNL A   1      43.934  28.668  28.461  1.00  0.00     0.167 HD
ATOM     36  C   UNL A   1      46.458  29.977  28.470  1.00  0.00     0.074 A 
ATOM     37  C   UNL A   1      47.875  30.226  28.297  1.00  0.00     0.031 C 
ATOM     38  C   UNL A   1      45.559  30.917  28.848  1.00  0.00     0.037 A 
BRANCH  25  39
ATOM     39  C   UNL A   1      39.724  28.935  29.112  1.00  0.00     0.057 A 
ATOM     40  C   UNL A   1      38.866  29.328  28.077  1.00  0.00     0.134 A 
ATOM     41  C   UNL A   1      39.168  28.783  30.389  1.00  0.00     0.134 A 
ATOM     42  F   UNL A   1      39.337  29.499  26.832  1.00  0.00    -0.206 F 
ATOM     43  C   UNL A   1      37.509  29.563  28.304  1.00  0.00     0.040 A 
ATOM     44  C   UNL A   1      37.808  28.993  30.625  1.00  0.00     0.040 A 
ATOM     45  F   UNL A   1      39.932  28.402  31.424  1.00  0.00    -0.206 F 
ATOM     46  C   UNL A   1      36.973  29.385  29.579  1.00  0.00     0.006 A 
ENDBRANCH  25  39
BRANCH  26  47
ATOM     47  C   UNL A   1      49.179  26.418  27.044  1.00  0.00     0.057 A 
ATOM     48  C   UNL A   1      49.633  26.498  25.723  1.00  0.00     0.134 A 
ATOM     49  C   UNL A   1      50.091  25.982  28.014  1.00  0.00     0.134 A 
ATOM     50  F   UNL A   1      48.802  26.894  24.747  1.00  0.00    -0.206 F 
ATOM     51  C   UNL A   1      50.934  26.131  25.374  1.00  0.00     0.040 A 
ATOM     52  C   UNL A   1      51.403  25.643  27.685  1.00  0.00     0.040 A 
ATOM     53  F   UNL A   1      49.722  25.894  29.301  1.00  0.00    -0.206 F 
ATOM     54  C   UNL A   1      51.824  25.707  26.358  1.00  0.00     0.006 A 
ENDBRANCH  26  47
BRANCH  38  55
ATOM     55  C   UNL A   1      46.094  32.292  29.116  1.00  0.00     0.057 A 
ATOM     56  C   UNL A   1      46.141  33.271  28.115  1.00  0.00     0.134 A 
ATOM     57  C   UNL A   1      46.551  32.645  30.392  1.00  0.00     0.134 A 
ATOM     58  F   UNL A   1      45.735  32.988  26.868  1.00  0.00    -0.206 F 
ATOM     59  C   UNL A   1      46.648  34.547  28.368  1.00  0.00     0.040 A 
ATOM     60  C   UNL A   1      47.033  33.925  30.664  1.00  0.00     0.040 A 
ATOM     61  F   UNL A   1      46.526  31.754  31.396  1.00  0.00    -0.206 F 
ATOM     62  C   UNL A   1      47.090  34.878  29.648  1.00  0.00     0.006 A 
ENDBRANCH  38  55
ENDBRANCH  12  13
ENDBRANCH   5   7
ENDBRANCH   2   3
ENDBRANCH   1   2
BRANCH   1  63
ATOM     63  C   UNL A   1      36.661  20.786  25.099  1.00  0.00     0.117 C 
BRANCH  63  64
ATOM     64  N   UNL A   1      36.525  21.735  24.016  1.00  0.00    -0.354 N 
ATOM     65  C   UNL A   1      35.728  22.828  23.897  1.00  0.00     0.242 C 
ATOM     66  H   UNL A   1      37.103  21.559  23.239  1.00  0.00     0.163 HD
ATOM     67  O   UNL A   1      35.645  23.327  22.769  1.00  0.00    -0.273 OA
BRANCH  65  68
ATOM     68  C   UNL A   1      34.839  23.351  25.039  1.00  0.00     0.175 C 
ATOM     69  C   UNL A   1      34.412  24.792  24.664  1.00  0.00     0.044 C 
ATOM     70  N   UNL A   1      33.591  22.709  25.448  1.00  0.00    -0.330 N 
ATOM     71  C   UNL A   1      33.005  25.037  25.256  1.00  0.00    -0.006 C 
ATOM     72  C   UNL A   1      32.696  23.728  25.987  1.00  0.00     0.127 C 
ATOM     73  C   UNL A   1      31.889  25.280  24.205  1.00  0.00     0.030 C 
ATOM     74  C   UNL A   1      33.041  26.255  26.203  1.00  0.00     0.030 C 
ATOM     75  C   UNL A   1      31.990  26.625  23.491  1.00  0.00     0.120 C 
ATOM     76  C   UNL A   1      33.197  27.567  25.427  1.00  0.00     0.120 C 
ATOM     77  N   UNL A   1      32.126  27.720  24.448  1.00  0.00    -0.339 N 
ATOM     78  C   UNL A   1      31.502  28.963  24.345  1.00  0.00     0.253 C 
ATOM     79  O   UNL A   1      31.884  29.959  24.957  1.00  0.00    -0.269 OA
BRANCH  70  80
ATOM     80  C   UNL A   1      33.313  21.407  25.873  1.00  0.00     0.226 C 
ATOM     81  O   UNL A   1      33.650  21.063  27.008  1.00  0.00    -0.275 OA
BRANCH  80  82
ATOM     82  C   UNL A   1      32.652  20.337  25.075  1.00  0.00     0.079 C 
ATOM     83  C   UNL A   1      32.528  20.309  23.579  1.00  0.00     0.014 C 
ATOM     84  C   UNL A   1      33.301  19.234  24.298  1.00  0.00     0.014 C 
ENDBRANCH  80  82
ENDBRANCH  70  80
BRANCH  78  85
ATOM     85  C   UNL A   1      30.303  29.117  23.494  1.00  0.00     0.043 A 
ATOM     86  C   UNL A   1      29.156  28.346  23.727  1.00  0.00     0.014 A 
ATOM     87  C   UNL A   1      30.283  30.138  22.538  1.00  0.00     0.060 A 
ATOM     88  C   UNL A   1      28.003  28.575  22.973  1.00  0.00     0.005 A 
ATOM     89  C   UNL A   1      29.126  30.356  21.799  1.00  0.00     0.116 A 
ATOM     90  C   UNL A   1      27.987  29.581  22.005  1.00  0.00     0.046 A 
BRANCH  89  91
ATOM     91  O   UNL A   1      29.142  31.363  20.879  1.00  0.00    -0.508 OA
ATOM     92  H   UNL A   1      29.957  31.676  20.541  1.00  0.00     0.293 HD
ENDBRANCH  89  91
ENDBRANCH  78  85
ENDBRANCH  65  68
ENDBRANCH  63  64
ENDBRANCH   1  63
TORSDOF 14
ENDMDL
MODEL 2
REMARK VINA RESULT:     -13.2      1.033      1.912
REMARK SMILES O=C(NCCCNC(=O)[C@H]1CC2(CCN(C(=O)c3cccc(O)c3)CC2)CN1C(=O)C1CC1)c1ccc(-c2c3nc(c(-c4c(F)cccc4F)c4ccc([nH]4)c(-c4c(F)cccc4F)c4nc(c(-c5c(F)cccc5F)c5ccc2[nH]5)C=C4)C=C3)cc1
REMARK SMILES IDX 5 1 4 2 3 3 1 4 2 5 34 7 35 8 87 9 36 10 86 11 37 12 38 13
REMARK SMILES IDX 39 14 80 15 40 16 85 17 79 18 81 19 41 20 84 21 78 22 77 23
REMARK SMILES IDX 42 25 68 26 51 27 67 28 52 29 55 30 66 31 82 32 53 33 54 34
REMARK SMILES IDX 65 36 83 37 56 38 43 39 44 40 49 41 45 42 46 43 48 44 50 45
REMARK SMILES IDX 47 46 69 47 70 48 75 49 71 50 72 51 74 52 76 53 73 54 57 55
REMARK SMILES IDX 58 56 63 57 59 58 60 59 62 60 64 61 61 62 6 63 7 64 8 65
REMARK SMILES IDX 9 67 10 68 11 69 28 70 12 71 27 72 13 73 26 74 14 75 25 76
REMARK SMILES IDX 15 77 16 78 17 79 29 80 30 81 31 82 32 83 33 84 18 85 19 86
REMARK SMILES IDX 24 87 20 88 22 89 21 90 23 91
REMARK H PARENT 3 6 81 24 55 35 7 66 23 92
REMARK Flexibility Score: inf
ROOT
ATOM      1  C   UNL A   1      37.833  19.924  24.884  1.00  0.00     0.042 C 
ENDROOT
BRANCH   1   2
ATOM      2  C   UNL A   1      38.984  20.347  25.785  1.00  0.00     0.118 C 
BRANCH   2   3
ATOM      3  N   UNL A   1      40.034  19.344  25.832  1.00  0.00    -0.352 N 
ATOM      4  O   UNL A   1      42.171  18.627  25.896  1.00  0.00    -0.269 OA
ATOM      5  C   UNL A   1      41.371  19.530  26.089  1.00  0.00     0.251 C 
ATOM      6  H   UNL A   1      39.753  18.417  25.659  1.00  0.00     0.163 HD
BRANCH   5   7
ATOM      7  C   UNL A   1      41.831  20.842  26.593  1.00  0.00     0.039 A 
ATOM      8  C   UNL A   1      42.236  21.838  25.699  1.00  0.00     0.014 A 
ATOM      9  C   UNL A   1      41.833  21.082  27.969  1.00  0.00     0.014 A 
ATOM     10  C   UNL A   1      42.732  23.040  26.185  1.00  0.00     0.010 A 
ATOM     11  C   UNL A   1      42.254  22.323  28.452  1.00  0.00     0.010 A 
ATOM     12  C   UNL A   1      42.706  23.310  27.562  1.00  0.00    -0.014 A 
BRANCH  12  13
ATOM     13  C   UNL A   1      43.023  24.680  28.033  1.00  0.00     0.031 A 
ATOM     14  C   UNL A   1      41.947  25.690  28.296  1.00  0.00     0.074 A 
ATOM     15  C   UNL A   1      44.321  24.994  28.216  1.00  0.00     0.049 A 
ATOM     16  N   UNL A   1      42.069  26.931  28.694  1.00  0.00    -0.248 NA
ATOM     17  C   UNL A   1      40.556  25.262  28.080  1.00  0.00     0.031 C 
ATOM     18  C   UNL A   1      45.450  24.091  27.965  1.00  0.00     0.029 A 
ATOM     19  N   UNL A   1      44.914  26.147  28.657  1.00  0.00    -0.354 N 
ATOM     20  C   UNL A   1      40.779  27.439  28.760  1.00  0.00     0.074 A 
ATOM     21  C   UNL A   1      39.886  26.376  28.346  1.00  0.00     0.031 C 
ATOM     22  C   UNL A   1      46.592  24.711  28.290  1.00  0.00     0.029 A 
ATOM     23  C   UNL A   1      46.286  26.072  28.704  1.00  0.00     0.049 A 
ATOM     24  H   UNL A   1      44.408  26.950  28.916  1.00  0.00     0.167 HD
ATOM     25  C   UNL A   1      40.385  28.678  29.136  1.00  0.00     0.037 A 
ATOM     26  C   UNL A   1      47.200  27.007  29.016  1.00  0.00     0.037 A 
ATOM     27  C   UNL A   1      41.286  29.720  29.562  1.00  0.00     0.049 A 
ATOM     28  C   UNL A   1      46.728  28.377  29.403  1.00  0.00     0.074 A 
ATOM     29  C   UNL A   1      40.977  30.991  30.018  1.00  0.00     0.029 A 
ATOM     30  N   UNL A   1      42.668  29.616  29.577  1.00  0.00    -0.354 N 
ATOM     31  N   UNL A   1      45.501  28.825  29.514  1.00  0.00    -0.248 NA
ATOM     32  C   UNL A   1      47.765  29.373  29.701  1.00  0.00     0.031 C 
ATOM     33  C   UNL A   1      42.174  31.672  30.258  1.00  0.00     0.029 A 
ATOM     34  C   UNL A   1      43.227  30.810  30.002  1.00  0.00     0.049 A 
ATOM     35  H   UNL A   1      43.177  28.812  29.323  1.00  0.00     0.167 HD
ATOM     36  C   UNL A   1      45.617  30.151  29.907  1.00  0.00     0.074 A 
ATOM     37  C   UNL A   1      47.034  30.424  30.042  1.00  0.00     0.031 C 
ATOM     38  C   UNL A   1      44.640  31.063  30.126  1.00  0.00     0.037 A 
BRANCH  25  39
ATOM     39  C   UNL A   1      38.919  28.998  29.095  1.00  0.00     0.057 A 
ATOM     40  C   UNL A   1      38.106  28.894  30.230  1.00  0.00     0.134 A 
ATOM     41  C   UNL A   1      38.336  29.509  27.927  1.00  0.00     0.134 A 
ATOM     42  F   UNL A   1      38.601  28.406  31.378  1.00  0.00    -0.206 F 
ATOM     43  C   UNL A   1      36.764  29.280  30.204  1.00  0.00     0.040 A 
ATOM     44  C   UNL A   1      37.002  29.918  27.895  1.00  0.00     0.040 A 
ATOM     45  F   UNL A   1      39.061  29.641  26.806  1.00  0.00    -0.206 F 
ATOM     46  C   UNL A   1      36.211  29.804  29.037  1.00  0.00     0.006 A 
ENDBRANCH  25  39
BRANCH  26  47
ATOM     47  C   UNL A   1      48.648  26.689  28.940  1.00  0.00     0.057 A 
ATOM     48  C   UNL A   1      49.328  26.131  30.028  1.00  0.00     0.134 A 
ATOM     49  C   UNL A   1      49.390  26.948  27.780  1.00  0.00     0.134 A 
ATOM     50  F   UNL A   1      48.676  25.875  31.172  1.00  0.00    -0.206 F 
ATOM     51  C   UNL A   1      50.698  25.866  29.975  1.00  0.00     0.040 A 
ATOM     52  C   UNL A   1      50.752  26.659  27.702  1.00  0.00     0.040 A 
ATOM     53  F   UNL A   1      48.794  27.472  26.698  1.00  0.00    -0.206 F 
ATOM     54  C   UNL A   1      51.411  26.126  28.807  1.00  0.00     0.006 A 
ENDBRANCH  26  47
BRANCH  38  55
ATOM     55  C   UNL A   1      45.078  32.432  30.553  1.00  0.00     0.057 A 
ATOM     56  C   UNL A   1      45.286  32.751  31.901  1.00  0.00     0.134 A 
ATOM     57  C   UNL A   1      45.310  33.436  29.604  1.00  0.00     0.134 A 
ATOM     58  F   UNL A   1      45.062  31.837  32.858  1.00  0.00    -0.206 F 
ATOM     59  C   UNL A   1      45.685  34.029  32.293  1.00  0.00     0.040 A 
ATOM     60  C   UNL A   1      45.737  34.709  29.981  1.00  0.00     0.040 A 
ATOM     61  F   UNL A   1      45.135  33.192  28.296  1.00  0.00    -0.206 F 
ATOM     62  C   UNL A   1      45.918  35.011  31.331  1.00  0.00     0.006 A 
ENDBRANCH  38  55
ENDBRANCH  12  13
ENDBRANCH   5   7
ENDBRANCH   2   3
ENDBRANCH   1   2
BRANCH   1  63
ATOM     63  C   UNL A   1      36.581  20.773  25.087  1.00  0.00     0.117 C 
BRANCH  63  64
ATOM     64  N   UNL A   1      36.435  21.716  23.999  1.00  0.00    -0.354 N 
ATOM     65  C   UNL A   1      35.634  22.806  23.880  1.00  0.00     0.242 C 
ATOM     66  H   UNL A   1      37.009  21.538  23.219  1.00  0.00     0.163 HD
ATOM     67  O   UNL A   1      35.543  23.299  22.749  1.00  0.00    -0.273 OA
BRANCH  65  68
ATOM     68  C   UNL A   1      34.751  23.332  25.024  1.00  0.00     0.175 C 
ATOM     69  C   UNL A   1      34.320  24.771  24.646  1.00  0.00     0.044 C 
ATOM     70  N   UNL A   1      33.507  22.690  25.443  1.00  0.00    -0.330 N 
ATOM     71  C   UNL A   1      32.917  25.017  25.245  1.00  0.00    -0.006 C 
ATOM     72  C   UNL A   1      32.614  23.711  25.984  1.00  0.00     0.127 C 
ATOM     73  C   UNL A   1      31.794  25.255  24.199  1.00  0.00     0.030 C 
ATOM     74  C   UNL A   1      32.957  26.239  26.187  1.00  0.00     0.030 C 
ATOM     75  C   UNL A   1      31.889  26.597  23.479  1.00  0.00     0.120 C 
ATOM     76  C   UNL A   1      33.107  27.548  25.405  1.00  0.00     0.120 C 
ATOM     77  N   UNL A   1      32.030  27.696  24.431  1.00  0.00    -0.339 N 
ATOM     78  C   UNL A   1      31.404  28.938  24.327  1.00  0.00     0.253 C 
ATOM     79  O   UNL A   1      31.788  29.937  24.932  1.00  0.00    -0.269 OA
BRANCH  70  80
ATOM     80  C   UNL A   1      33.233  21.391  25.875  1.00  0.00     0.226 C 
ATOM     81  O   UNL A   1      33.577  21.051  27.010  1.00  0.00    -0.275 OA
BRANCH  80  82
ATOM     82  C   UNL A   1      32.568  20.316  25.086  1.00  0.00     0.079 C 
ATOM     83  C   UNL A   1      32.443  20.278  23.590  1.00  0.00     0.014 C 
ATOM     84  C   UNL A   1      33.214  19.206  24.316  1.00  0.00     0.014 C 
ENDBRANCH  80  82
ENDBRANCH  70  80
BRANCH  78  85
ATOM     85  C   UNL A   1      30.199  29.087  23.482  1.00  0.00     0.043 A 
ATOM     86  C   UNL A   1      29.060  28.306  23.717  1.00  0.00     0.014 A 
ATOM     87  C   UNL A   1      30.167  30.112  22.531  1.00  0.00     0.060 A 
ATOM     88  C   UNL A   1      27.901  28.530  22.970  1.00  0.00     0.005 A 
ATOM     89  C   UNL A   1      29.006  30.325  21.799  1.00  0.00     0.116 A 
ATOM     90  C   UNL A   1      27.873  29.540  22.006  1.00  0.00     0.046 A 
BRANCH  89  91
ATOM     91  O   UNL A   1      29.009  31.337  20.884  1.00  0.00    -0.508 OA
ATOM     92  H   UNL A   1      29.632  31.333  20.185  1.00  0.00     0.293 HD
ENDBRANCH  89  91
ENDBRANCH  78  85
ENDBRANCH  65  68
ENDBRANCH  63  64
ENDBRANCH   1  63
TORSDOF 14
ENDMDL
MODEL 3
REMARK VINA RESULT:     -13.1      4.869     10.692
REMARK SMILES O=C(NCCCNC(=O)[C@H]1CC2(CCN(C(=O)c3cccc(O)c3)CC2)CN1C(=O)C1CC1)c1ccc(-c2c3nc(c(-c4c(F)cccc4F)c4ccc([nH]4)c(-c4c(F)cccc4F)c4nc(c(-c5c(F)cccc5F)c5ccc2[nH]5)C=C4)C=C3)cc1
REMARK SMILES IDX 5 1 4 2 3 3 1 4 2 5 34 7 35 8 87 9 36 10 86 11 37 12 38 13
REMARK SMILES IDX 39 14 80 15 40 16 85 17 79 18 81 19 41 20 84 21 78 22 77 23
REMARK SMILES IDX 42 25 68 26 51 27 67 28 52 29 55 30 66 31 82 32 53 33 54 34
REMARK SMILES IDX 65 36 83 37 56 38 43 39 44 40 49 41 45 42 46 43 48 44 50 45
REMARK SMILES IDX 47 46 69 47 70 48 75 49 71 50 72 51 74 52 76 53 73 54 57 55
REMARK SMILES IDX 58 56 63 57 59 58 60 59 62 60 64 61 61 62 6 63 7 64 8 65
REMARK SMILES IDX 9 67 10 68 11 69 28 70 12 71 27 72 13 73 26 74 14 75 25 76
REMARK SMILES IDX 15 77 16 78 17 79 29 80 30 81 31 82 32 83 33 84 18 85 19 86
REMARK SMILES IDX 24 87 20 88 22 89 21 90 23 91
REMARK H PARENT 3 6 81 24 55 35 7 66 23 92
REMARK Flexibility Score: inf
ROOT
ATOM      1  C   UNL A   1      31.414  32.104  26.822  1.00  0.00     0.042 C 
ENDROOT
BRANCH   1   2
ATOM      2  C   UNL A   1      32.682  32.810  27.280  1.00  0.00     0.118 C 
BRANCH   2   3
ATOM      3  N   UNL A   1      32.437  34.202  27.616  1.00  0.00    -0.352 N 
ATOM      4  O   UNL A   1      32.580  36.046  28.906  1.00  0.00    -0.269 OA
ATOM      5  C   UNL A   1      33.029  34.950  28.606  1.00  0.00     0.251 C 
ATOM      6  H   UNL A   1      31.766  34.667  27.067  1.00  0.00     0.163 HD
BRANCH   5   7
ATOM      7  C   UNL A   1      34.209  34.405  29.311  1.00  0.00     0.039 A 
ATOM      8  C   UNL A   1      34.058  33.750  30.537  1.00  0.00     0.014 A 
ATOM      9  C   UNL A   1      35.471  34.531  28.727  1.00  0.00     0.014 A 
ATOM     10  C   UNL A   1      35.179  33.305  31.224  1.00  0.00     0.010 A 
ATOM     11  C   UNL A   1      36.589  34.008  29.380  1.00  0.00     0.010 A 
ATOM     12  C   UNL A   1      36.450  33.392  30.634  1.00  0.00    -0.014 A 
BRANCH  12  13
ATOM     13  C   UNL A   1      37.592  32.705  31.282  1.00  0.00     0.031 A 
ATOM     14  C   UNL A   1      38.250  31.511  30.658  1.00  0.00     0.074 A 
ATOM     15  C   UNL A   1      38.025  33.189  32.464  1.00  0.00     0.049 A 
ATOM     16  N   UNL A   1      39.247  30.795  31.112  1.00  0.00    -0.248 NA
ATOM     17  C   UNL A   1      37.722  31.053  29.363  1.00  0.00     0.031 C 
ATOM     18  C   UNL A   1      37.438  34.333  33.171  1.00  0.00     0.029 A 
ATOM     19  N   UNL A   1      39.053  32.792  33.277  1.00  0.00    -0.354 N 
ATOM     20  C   UNL A   1      39.456  29.794  30.174  1.00  0.00     0.074 A 
ATOM     21  C   UNL A   1      38.472  29.984  29.129  1.00  0.00     0.031 C 
ATOM     22  C   UNL A   1      38.137  34.566  34.290  1.00  0.00     0.029 A 
ATOM     23  C   UNL A   1      39.174  33.552  34.416  1.00  0.00     0.049 A 
ATOM     24  H   UNL A   1      39.649  32.038  33.066  1.00  0.00     0.167 HD
ATOM     25  C   UNL A   1      40.389  28.812  30.190  1.00  0.00     0.037 A 
ATOM     26  C   UNL A   1      40.006  33.426  35.464  1.00  0.00     0.037 A 
ATOM     27  C   UNL A   1      41.373  28.647  31.230  1.00  0.00     0.049 A 
ATOM     28  C   UNL A   1      41.010  32.312  35.459  1.00  0.00     0.074 A 
ATOM     29  C   UNL A   1      42.397  27.718  31.305  1.00  0.00     0.029 A 
ATOM     30  N   UNL A   1      41.452  29.421  32.378  1.00  0.00    -0.354 N 
ATOM     31  N   UNL A   1      41.231  31.407  34.537  1.00  0.00    -0.248 NA
ATOM     32  C   UNL A   1      41.873  32.196  36.641  1.00  0.00     0.031 C 
ATOM     33  C   UNL A   1      43.061  27.896  32.523  1.00  0.00     0.029 A 
ATOM     34  C   UNL A   1      42.485  28.969  33.183  1.00  0.00     0.049 A 
ATOM     35  H   UNL A   1      40.860  30.180  32.589  1.00  0.00     0.167 HD
ATOM     36  C   UNL A   1      42.267  30.621  35.021  1.00  0.00     0.074 A 
ATOM     37  C   UNL A   1      42.648  31.175  36.305  1.00  0.00     0.031 C 
ATOM     38  C   UNL A   1      42.845  29.532  34.458  1.00  0.00     0.037 A 
BRANCH  25  39
ATOM     39  C   UNL A   1      40.394  27.822  29.062  1.00  0.00     0.057 A 
ATOM     40  C   UNL A   1      39.583  26.681  29.075  1.00  0.00     0.134 A 
ATOM     41  C   UNL A   1      41.149  28.065  27.907  1.00  0.00     0.134 A 
ATOM     42  F   UNL A   1      38.841  26.386  30.154  1.00  0.00    -0.206 F 
ATOM     43  C   UNL A   1      39.527  25.813  27.982  1.00  0.00     0.040 A 
ATOM     44  C   UNL A   1      41.085  27.217  26.799  1.00  0.00     0.040 A 
ATOM     45  F   UNL A   1      41.941  29.144  27.826  1.00  0.00    -0.206 F 
ATOM     46  C   UNL A   1      40.271  26.086  26.835  1.00  0.00     0.006 A 
ENDBRANCH  25  39
BRANCH  26  47
ATOM     47  C   UNL A   1      39.902  34.358  36.615  1.00  0.00     0.057 A 
ATOM     48  C   UNL A   1      39.127  34.046  37.737  1.00  0.00     0.134 A 
ATOM     49  C   UNL A   1      40.568  35.591  36.614  1.00  0.00     0.134 A 
ATOM     50  F   UNL A   1      38.454  32.886  37.790  1.00  0.00    -0.206 F 
ATOM     51  C   UNL A   1      38.995  34.935  38.804  1.00  0.00     0.040 A 
ATOM     52  C   UNL A   1      40.470  36.476  37.688  1.00  0.00     0.040 A 
ATOM     53  F   UNL A   1      41.336  35.946  35.573  1.00  0.00    -0.206 F 
ATOM     54  C   UNL A   1      39.672  36.152  38.783  1.00  0.00     0.006 A 
ENDBRANCH  26  47
BRANCH  38  55
ATOM     55  C   UNL A   1      43.961  28.888  35.226  1.00  0.00     0.057 A 
ATOM     56  C   UNL A   1      43.721  27.863  36.150  1.00  0.00     0.134 A 
ATOM     57  C   UNL A   1      45.288  29.287  35.026  1.00  0.00     0.134 A 
ATOM     58  F   UNL A   1      42.469  27.451  36.398  1.00  0.00    -0.206 F 
ATOM     59  C   UNL A   1      44.762  27.273  36.868  1.00  0.00     0.040 A 
ATOM     60  C   UNL A   1      46.340  28.685  35.717  1.00  0.00     0.040 A 
ATOM     61  F   UNL A   1      45.584  30.259  34.151  1.00  0.00    -0.206 F 
ATOM     62  C   UNL A   1      46.077  27.680  36.648  1.00  0.00     0.006 A 
ENDBRANCH  38  55
ENDBRANCH  12  13
ENDBRANCH   5   7
ENDBRANCH   2   3
ENDBRANCH   1   2
BRANCH   1  63
ATOM     63  C   UNL A   1      31.700  30.836  26.022  1.00  0.00     0.117 C 
BRANCH  63  64
ATOM     64  N   UNL A   1      31.532  29.667  26.859  1.00  0.00    -0.354 N 
ATOM     65  C   UNL A   1      31.815  28.362  26.616  1.00  0.00     0.242 C 
ATOM     66  H   UNL A   1      31.150  29.849  27.748  1.00  0.00     0.163 HD
ATOM     67  O   UNL A   1      31.356  27.542  27.420  1.00  0.00    -0.273 OA
BRANCH  65  68
ATOM     68  C   UNL A   1      32.526  27.877  25.341  1.00  0.00     0.175 C 
ATOM     69  C   UNL A   1      33.099  26.470  25.643  1.00  0.00     0.044 C 
ATOM     70  N   UNL A   1      31.853  27.715  24.054  1.00  0.00    -0.330 N 
ATOM     71  C   UNL A   1      33.077  25.659  24.328  1.00  0.00    -0.006 C 
ATOM     72  C   UNL A   1      32.524  26.656  23.306  1.00  0.00     0.127 C 
ATOM     73  C   UNL A   1      32.147  24.415  24.345  1.00  0.00     0.030 C 
ATOM     74  C   UNL A   1      34.503  25.182  23.983  1.00  0.00     0.030 C 
ATOM     75  C   UNL A   1      32.653  23.273  25.220  1.00  0.00     0.120 C 
ATOM     76  C   UNL A   1      34.970  24.072  24.931  1.00  0.00     0.120 C 
ATOM     77  N   UNL A   1      34.042  22.946  24.908  1.00  0.00    -0.339 N 
ATOM     78  C   UNL A   1      34.573  21.659  24.841  1.00  0.00     0.253 C 
ATOM     79  O   UNL A   1      35.777  21.423  24.913  1.00  0.00    -0.269 OA
BRANCH  70  80
ATOM     80  C   UNL A   1      31.127  28.612  23.267  1.00  0.00     0.226 C 
ATOM     81  O   UNL A   1      31.699  29.200  22.346  1.00  0.00    -0.275 OA
BRANCH  80  82
ATOM     82  C   UNL A   1      29.691  28.973  23.430  1.00  0.00     0.079 C 
ATOM     83  C   UNL A   1      29.127  30.364  23.385  1.00  0.00     0.014 C 
ATOM     84  C   UNL A   1      28.708  29.341  22.362  1.00  0.00     0.014 C 
ENDBRANCH  80  82
ENDBRANCH  70  80
BRANCH  78  85
ATOM     85  C   UNL A   1      33.673  20.501  24.642  1.00  0.00     0.043 A 
ATOM     86  C   UNL A   1      33.015  20.309  23.421  1.00  0.00     0.014 A 
ATOM     87  C   UNL A   1      33.596  19.529  25.645  1.00  0.00     0.060 A 
ATOM     88  C   UNL A   1      32.247  19.159  23.222  1.00  0.00     0.005 A 
ATOM     89  C   UNL A   1      32.832  18.389  25.430  1.00  0.00     0.116 A 
ATOM     90  C   UNL A   1      32.152  18.197  24.229  1.00  0.00     0.046 A 
BRANCH  89  91
ATOM     91  O   UNL A   1      32.783  17.460  26.429  1.00  0.00    -0.508 OA
ATOM     92  H   UNL A   1      33.094  16.590  26.274  1.00  0.00     0.293 HD
ENDBRANCH  89  91
ENDBRANCH  78  85
ENDBRANCH  65  68
ENDBRANCH  63  64
ENDBRANCH   1  63
TORSDOF 14
ENDMDL
