MODEL 1
REMARK VINA RESULT:      -9.9      0.000      0.000
REMARK SMILES C[C@H]1CC[C@](C#N)([C@H](O)C(=O)NCCCNC(=O)c2ccc(-c3c4nc(c(-c5c(F)cccc5F)c5ccc([nH]5)c(-c5c(F)cccc5F)c5nc(c(-c6c(F)cccc6F)c6ccc3[nH]6)C=C5)C=C4)cc2)C1
REMARK SMILES IDX 14 1 13 2 12 3 10 4 11 5 8 7 5 8 1 9 2 10 3 11 73 12 4 13
REMARK SMILES IDX 6 14 7 15 9 16 15 18 16 19 17 20 18 22 19 23 20 24 72 25
REMARK SMILES IDX 21 26 71 27 22 28 23 29 24 30 65 31 25 32 70 33 64 34 66 35
REMARK SMILES IDX 26 36 69 37 63 38 62 39 27 41 53 42 36 43 52 44 37 45 40 46
REMARK SMILES IDX 51 47 67 48 38 49 39 50 50 52 68 53 41 54 28 55 29 56 34 57
REMARK SMILES IDX 30 58 31 59 33 60 35 61 32 62 54 63 55 64 60 65 56 66 57 67
REMARK SMILES IDX 59 68 61 69 58 70 42 71 43 72 48 73 44 74 45 75 47 76 49 77
REMARK SMILES IDX 46 78
REMARK H PARENT 12 6 9 17 16 21 66 40 40 51
REMARK Flexibility Score: inf
ROOT
ATOM      1  C   UNL A   1      33.764  33.681  28.113  1.00  0.00     0.042 C 
ENDROOT
BRANCH   1   2
ATOM      2  C   UNL A   1      33.953  34.875  29.013  1.00  0.00     0.117 C 
BRANCH   2   3
ATOM      3  N   UNL A   1      33.051  34.925  30.140  1.00  0.00    -0.354 N 
ATOM      4  C   UNL A   1      33.363  35.215  31.438  1.00  0.00     0.250 C 
ATOM      5  O   UNL A   1      32.449  35.269  32.264  1.00  0.00    -0.272 OA
ATOM      6  H   UNL A   1      32.105  34.730  29.951  1.00  0.00     0.163 HD
BRANCH   4   7
ATOM      7  C   UNL A   1      34.834  35.468  31.865  1.00  0.00     0.223 C 
BRANCH   7   8
ATOM      8  C   UNL A   1      35.671  34.217  32.274  1.00  0.00     0.092 C 
ATOM      9  C   UNL A   1      38.203  32.165  32.499  1.00  0.00     0.008 C 
ATOM     10  C   UNL A   1      37.034  32.312  31.517  1.00  0.00    -0.013 C 
ATOM     11  C   UNL A   1      35.700  31.756  32.026  1.00  0.00     0.005 C 
ATOM     12  C   UNL A   1      36.723  33.775  31.220  1.00  0.00     0.029 C 
ATOM     13  C   UNL A   1      34.784  32.955  32.316  1.00  0.00     0.026 C 
BRANCH   8  14
ATOM     14  C   UNL A   1      36.269  34.403  33.615  1.00  0.00     0.072 C 
ATOM     15  N   UNL A   1      36.726  34.551  34.674  1.00  0.00    -0.198 NA
ENDBRANCH   8  14
ENDBRANCH   7   8
BRANCH   7  16
ATOM     16  O   UNL A   1      34.900  36.481  32.876  1.00  0.00    -0.382 OA
ATOM     17  H   UNL A   1      35.133  37.330  32.469  1.00  0.00     0.211 HD
ENDBRANCH   7  16
ENDBRANCH   4   7
ENDBRANCH   2   3
ENDBRANCH   1   2
BRANCH   1  18
ATOM     18  C   UNL A   1      34.642  32.506  28.477  1.00  0.00     0.118 C 
BRANCH  18  19
ATOM     19  N   UNL A   1      34.036  31.218  28.161  1.00  0.00    -0.352 N 
ATOM     20  C   UNL A   1      34.621  29.984  28.000  1.00  0.00     0.251 C 
ATOM     21  H   UNL A   1      33.058  31.234  28.047  1.00  0.00     0.163 HD
ATOM     22  O   UNL A   1      33.965  29.041  27.568  1.00  0.00    -0.269 OA
BRANCH  20  23
ATOM     23  C   UNL A   1      36.054  29.805  28.312  1.00  0.00     0.039 A 
ATOM     24  C   UNL A   1      36.423  29.307  29.563  1.00  0.00     0.014 A 
ATOM     25  C   UNL A   1      37.032  30.095  27.358  1.00  0.00     0.014 A 
ATOM     26  C   UNL A   1      37.763  29.019  29.819  1.00  0.00     0.010 A 
ATOM     27  C   UNL A   1      38.338  29.680  27.565  1.00  0.00     0.010 A 
ATOM     28  C   UNL A   1      38.724  29.152  28.803  1.00  0.00    -0.014 A 
BRANCH  28  29
ATOM     29  C   UNL A   1      40.140  28.761  29.019  1.00  0.00     0.031 A 
ATOM     30  C   UNL A   1      41.102  29.736  29.644  1.00  0.00     0.074 A 
ATOM     31  C   UNL A   1      40.572  27.558  28.595  1.00  0.00     0.049 A 
ATOM     32  N   UNL A   1      42.385  29.604  29.862  1.00  0.00    -0.248 NA
ATOM     33  C   UNL A   1      40.557  31.043  30.048  1.00  0.00     0.031 C 
ATOM     34  C   UNL A   1      39.750  26.548  27.927  1.00  0.00     0.029 A 
ATOM     35  N   UNL A   1      41.816  26.982  28.661  1.00  0.00    -0.354 N 
ATOM     36  C   UNL A   1      42.797  30.810  30.416  1.00  0.00     0.074 A 
ATOM     37  C   UNL A   1      41.648  31.685  30.433  1.00  0.00     0.031 C 
ATOM     38  C   UNL A   1      40.501  25.463  27.679  1.00  0.00     0.029 A 
ATOM     39  C   UNL A   1      41.868  25.719  28.120  1.00  0.00     0.049 A 
ATOM     40  H   UNL A   1      42.598  27.430  29.056  1.00  0.00     0.167 HD
ATOM     41  C   UNL A   1      44.017  31.147  30.897  1.00  0.00     0.037 A 
ATOM     42  C   UNL A   1      42.902  24.869  27.987  1.00  0.00     0.037 A 
ATOM     43  C   UNL A   1      45.156  30.267  30.888  1.00  0.00     0.049 A 
ATOM     44  C   UNL A   1      44.257  25.280  28.499  1.00  0.00     0.074 A 
ATOM     45  C   UNL A   1      46.421  30.493  31.397  1.00  0.00     0.029 A 
ATOM     46  N   UNL A   1      45.167  28.997  30.332  1.00  0.00    -0.354 N 
ATOM     47  N   UNL A   1      44.615  26.394  29.090  1.00  0.00    -0.248 NA
ATOM     48  C   UNL A   1      45.349  24.311  28.330  1.00  0.00     0.031 C 
ATOM     49  C   UNL A   1      47.219  29.388  31.088  1.00  0.00     0.029 A 
ATOM     50  C   UNL A   1      46.430  28.441  30.454  1.00  0.00     0.049 A 
ATOM     51  H   UNL A   1      44.394  28.555  29.912  1.00  0.00     0.167 HD
ATOM     52  C   UNL A   1      45.963  26.248  29.393  1.00  0.00     0.074 A 
ATOM     53  C   UNL A   1      46.352  24.931  28.935  1.00  0.00     0.031 C 
ATOM     54  C   UNL A   1      46.802  27.125  29.998  1.00  0.00     0.037 A 
BRANCH  41  55
ATOM     55  C   UNL A   1      44.181  32.530  31.465  1.00  0.00     0.057 A 
ATOM     56  C   UNL A   1      44.582  33.617  30.676  1.00  0.00     0.134 A 
ATOM     57  C   UNL A   1      43.908  32.782  32.816  1.00  0.00     0.134 A 
ATOM     58  F   UNL A   1      44.871  33.444  29.377  1.00  0.00    -0.206 F 
ATOM     59  C   UNL A   1      44.738  34.894  31.215  1.00  0.00     0.040 A 
ATOM     60  C   UNL A   1      44.026  34.063  33.359  1.00  0.00     0.040 A 
ATOM     61  F   UNL A   1      43.515  31.791  33.630  1.00  0.00    -0.206 F 
ATOM     62  C   UNL A   1      44.451  35.121  32.559  1.00  0.00     0.006 A 
ENDBRANCH  41  55
BRANCH  42  63
ATOM     63  C   UNL A   1      42.700  23.540  27.353  1.00  0.00     0.057 A 
ATOM     64  C   UNL A   1      42.312  22.427  28.109  1.00  0.00     0.134 A 
ATOM     65  C   UNL A   1      42.903  23.345  25.981  1.00  0.00     0.134 A 
ATOM     66  F   UNL A   1      42.117  22.544  29.431  1.00  0.00    -0.206 F 
ATOM     67  C   UNL A   1      42.159  21.166  27.532  1.00  0.00     0.040 A 
ATOM     68  C   UNL A   1      42.723  22.096  25.385  1.00  0.00     0.040 A 
ATOM     69  F   UNL A   1      43.266  24.370  25.196  1.00  0.00    -0.206 F 
ATOM     70  C   UNL A   1      42.361  20.999  26.163  1.00  0.00     0.006 A 
ENDBRANCH  42  63
BRANCH  54  71
ATOM     71  C   UNL A   1      48.215  26.672  30.242  1.00  0.00     0.057 A 
ATOM     72  C   UNL A   1      49.255  26.958  29.348  1.00  0.00     0.134 A 
ATOM     73  C   UNL A   1      48.543  25.972  31.411  1.00  0.00     0.134 A 
ATOM     74  F   UNL A   1      49.009  27.615  28.204  1.00  0.00    -0.206 F 
ATOM     75  C   UNL A   1      50.563  26.538  29.593  1.00  0.00     0.040 A 
ATOM     76  C   UNL A   1      49.853  25.579  31.684  1.00  0.00     0.040 A 
ATOM     77  F   UNL A   1      47.598  25.676  32.316  1.00  0.00    -0.206 F 
ATOM     78  C   UNL A   1      50.866  25.853  30.769  1.00  0.00     0.006 A 
ENDBRANCH  54  71
ENDBRANCH  28  29
ENDBRANCH  20  23
ENDBRANCH  18  19
ENDBRANCH   1  18
TORSDOF 13
ENDMDL
MODEL 2
REMARK VINA RESULT:      -9.7      3.775      7.010
REMARK SMILES C[C@H]1CC[C@](C#N)([C@H](O)C(=O)NCCCNC(=O)c2ccc(-c3c4nc(c(-c5c(F)cccc5F)c5ccc([nH]5)c(-c5c(F)cccc5F)c5nc(c(-c6c(F)cccc6F)c6ccc3[nH]6)C=C5)C=C4)cc2)C1
REMARK SMILES IDX 14 1 13 2 12 3 10 4 11 5 8 7 5 8 1 9 2 10 3 11 73 12 4 13
REMARK SMILES IDX 6 14 7 15 9 16 15 18 16 19 17 20 18 22 19 23 20 24 72 25
REMARK SMILES IDX 21 26 71 27 22 28 23 29 24 30 65 31 25 32 70 33 64 34 66 35
REMARK SMILES IDX 26 36 69 37 63 38 62 39 27 41 53 42 36 43 52 44 37 45 40 46
REMARK SMILES IDX 51 47 67 48 38 49 39 50 50 52 68 53 41 54 28 55 29 56 34 57
REMARK SMILES IDX 30 58 31 59 33 60 35 61 32 62 54 63 55 64 60 65 56 66 57 67
REMARK SMILES IDX 59 68 61 69 58 70 42 71 43 72 48 73 44 74 45 75 47 76 49 77
REMARK SMILES IDX 46 78
REMARK H PARENT 12 6 9 17 16 21 66 40 40 51
REMARK Flexibility Score: inf
ROOT
ATOM      1  C   UNL A   1      31.371  32.143  26.647  1.00  0.00     0.042 C 
ENDROOT
BRANCH   1   2
ATOM      2  C   UNL A   1      31.605  30.709  26.248  1.00  0.00     0.117 C 
BRANCH   2   3
ATOM      3  N   UNL A   1      32.866  30.161  26.692  1.00  0.00    -0.354 N 
ATOM      4  C   UNL A   1      33.685  29.310  26.008  1.00  0.00     0.250 C 
ATOM      5  O   UNL A   1      34.759  28.988  26.521  1.00  0.00    -0.272 OA
ATOM      6  H   UNL A   1      33.169  30.433  27.589  1.00  0.00     0.163 HD
BRANCH   4   7
ATOM      7  C   UNL A   1      33.275  28.758  24.616  1.00  0.00     0.223 C 
BRANCH   7   8
ATOM      8  C   UNL A   1      32.504  27.403  24.597  1.00  0.00     0.092 C 
ATOM      9  C   UNL A   1      30.258  25.166  23.807  1.00  0.00     0.008 C 
ATOM     10  C   UNL A   1      30.343  26.257  24.881  1.00  0.00    -0.013 C 
ATOM     11  C   UNL A   1      31.221  25.899  26.085  1.00  0.00     0.005 C 
ATOM     12  C   UNL A   1      30.977  27.536  24.343  1.00  0.00     0.029 C 
ATOM     13  C   UNL A   1      32.489  26.763  26.002  1.00  0.00     0.026 C 
BRANCH   8  14
ATOM     14  C   UNL A   1      33.144  26.448  23.665  1.00  0.00     0.072 C 
ATOM     15  N   UNL A   1      33.638  25.701  22.923  1.00  0.00    -0.198 NA
ENDBRANCH   8  14
ENDBRANCH   7   8
BRANCH   7  16
ATOM     16  O   UNL A   1      34.405  28.716  23.735  1.00  0.00    -0.382 OA
ATOM     17  H   UNL A   1      34.575  27.798  23.471  1.00  0.00     0.211 HD
ENDBRANCH   7  16
ENDBRANCH   4   7
ENDBRANCH   2   3
ENDBRANCH   1   2
BRANCH   1  18
ATOM     18  C   UNL A   1      32.585  32.806  27.256  1.00  0.00     0.118 C 
BRANCH  18  19
ATOM     19  N   UNL A   1      32.356  34.200  27.617  1.00  0.00    -0.352 N 
ATOM     20  C   UNL A   1      32.975  34.979  28.566  1.00  0.00     0.251 C 
ATOM     21  H   UNL A   1      31.651  34.654  27.100  1.00  0.00     0.163 HD
ATOM     22  O   UNL A   1      32.531  36.088  28.842  1.00  0.00    -0.269 OA
BRANCH  20  23
ATOM     23  C   UNL A   1      34.157  34.458  29.283  1.00  0.00     0.039 A 
ATOM     24  C   UNL A   1      33.979  33.779  30.490  1.00  0.00     0.014 A 
ATOM     25  C   UNL A   1      35.439  34.608  28.748  1.00  0.00     0.014 A 
ATOM     26  C   UNL A   1      35.075  33.178  31.109  1.00  0.00     0.010 A 
ATOM     27  C   UNL A   1      36.498  33.896  29.289  1.00  0.00     0.010 A 
ATOM     28  C   UNL A   1      36.334  33.185  30.485  1.00  0.00    -0.014 A 
BRANCH  28  29
ATOM     29  C   UNL A   1      37.495  32.472  31.073  1.00  0.00     0.031 A 
ATOM     30  C   UNL A   1      38.113  32.968  32.352  1.00  0.00     0.074 A 
ATOM     31  C   UNL A   1      38.030  31.419  30.424  1.00  0.00     0.049 A 
ATOM     32  N   UNL A   1      39.163  32.518  32.990  1.00  0.00    -0.248 NA
ATOM     33  C   UNL A   1      37.490  34.145  32.980  1.00  0.00     0.031 C 
ATOM     34  C   UNL A   1      37.554  30.877  29.150  1.00  0.00     0.029 A 
ATOM     35  N   UNL A   1      39.097  30.620  30.747  1.00  0.00    -0.354 N 
ATOM     36  C   UNL A   1      39.328  33.361  34.083  1.00  0.00     0.074 A 
ATOM     37  C   UNL A   1      38.319  34.390  33.981  1.00  0.00     0.031 C 
ATOM     38  C   UNL A   1      38.301  29.811  28.819  1.00  0.00     0.029 A 
ATOM     39  C   UNL A   1      39.340  29.627  29.827  1.00  0.00     0.049 A 
ATOM     40  H   UNL A   1      39.638  30.744  31.559  1.00  0.00     0.167 HD
ATOM     41  C   UNL A   1      40.221  33.268  35.096  1.00  0.00     0.037 A 
ATOM     42  C   UNL A   1      40.299  28.683  29.795  1.00  0.00     0.037 A 
ATOM     43  C   UNL A   1      41.216  32.234  35.198  1.00  0.00     0.049 A 
ATOM     44  C   UNL A   1      41.301  28.621  30.916  1.00  0.00     0.074 A 
ATOM     45  C   UNL A   1      42.134  32.019  36.209  1.00  0.00     0.029 A 
ATOM     46  N   UNL A   1      41.430  31.248  34.246  1.00  0.00    -0.354 N 
ATOM     47  N   UNL A   1      41.398  29.378  31.983  1.00  0.00    -0.248 NA
ATOM     48  C   UNL A   1      42.322  27.568  30.831  1.00  0.00     0.031 C 
ATOM     49  C   UNL A   1      42.949  30.946  35.838  1.00  0.00     0.029 A 
ATOM     50  C   UNL A   1      42.490  30.443  34.631  1.00  0.00     0.049 A 
ATOM     51  H   UNL A   1      40.907  31.136  33.419  1.00  0.00     0.167 HD
ATOM     52  C   UNL A   1      42.468  28.873  32.712  1.00  0.00     0.074 A 
ATOM     53  C   UNL A   1      42.975  27.736  31.973  1.00  0.00     0.031 C 
ATOM     54  C   UNL A   1      42.982  29.311  33.887  1.00  0.00     0.037 A 
BRANCH  41  55
ATOM     55  C   UNL A   1      40.163  34.318  36.171  1.00  0.00     0.057 A 
ATOM     56  C   UNL A   1      39.350  34.178  37.305  1.00  0.00     0.134 A 
ATOM     57  C   UNL A   1      40.951  35.472  36.083  1.00  0.00     0.134 A 
ATOM     58  F   UNL A   1      38.560  33.102  37.447  1.00  0.00    -0.206 F 
ATOM     59  C   UNL A   1      39.299  35.161  38.294  1.00  0.00     0.040 A 
ATOM     60  C   UNL A   1      40.935  36.446  37.084  1.00  0.00     0.040 A 
ATOM     61  F   UNL A   1      41.757  35.671  35.030  1.00  0.00    -0.206 F 
ATOM     62  C   UNL A   1      40.100  36.296  38.189  1.00  0.00     0.006 A 
ENDBRANCH  41  55
BRANCH  42  63
ATOM     63  C   UNL A   1      40.353  27.713  28.671  1.00  0.00     0.057 A 
ATOM     64  C   UNL A   1      41.102  27.979  27.517  1.00  0.00     0.134 A 
ATOM     65  C   UNL A   1      39.649  26.503  28.713  1.00  0.00     0.134 A 
ATOM     66  F   UNL A   1      41.786  29.127  27.408  1.00  0.00    -0.206 F 
ATOM     67  C   UNL A   1      41.127  27.094  26.439  1.00  0.00     0.040 A 
ATOM     68  C   UNL A   1      39.691  25.594  27.655  1.00  0.00     0.040 A 
ATOM     69  F   UNL A   1      38.920  26.180  29.791  1.00  0.00    -0.206 F 
ATOM     70  C   UNL A   1      40.423  25.893  26.508  1.00  0.00     0.006 A 
ENDBRANCH  42  63
BRANCH  54  71
ATOM     71  C   UNL A   1      44.126  28.531  34.473  1.00  0.00     0.057 A 
ATOM     72  C   UNL A   1      45.463  28.876  34.237  1.00  0.00     0.134 A 
ATOM     73  C   UNL A   1      43.881  27.440  35.319  1.00  0.00     0.134 A 
ATOM     74  F   UNL A   1      45.769  29.902  33.428  1.00  0.00    -0.206 F 
ATOM     75  C   UNL A   1      46.514  28.147  34.796  1.00  0.00     0.040 A 
ATOM     76  C   UNL A   1      44.922  26.727  35.912  1.00  0.00     0.040 A 
ATOM     77  F   UNL A   1      42.624  27.063  35.598  1.00  0.00    -0.206 F 
ATOM     78  C   UNL A   1      46.244  27.073  35.643  1.00  0.00     0.006 A 
ENDBRANCH  54  71
ENDBRANCH  28  29
ENDBRANCH  20  23
ENDBRANCH  18  19
ENDBRANCH   1  18
TORSDOF 13
ENDMDL
MODEL 3
REMARK VINA RESULT:      -9.7      3.743     10.863
REMARK SMILES C[C@H]1CC[C@](C#N)([C@H](O)C(=O)NCCCNC(=O)c2ccc(-c3c4nc(c(-c5c(F)cccc5F)c5ccc([nH]5)c(-c5c(F)cccc5F)c5nc(c(-c6c(F)cccc6F)c6ccc3[nH]6)C=C5)C=C4)cc2)C1
REMARK SMILES IDX 14 1 13 2 12 3 10 4 11 5 8 7 5 8 1 9 2 10 3 11 73 12 4 13
REMARK SMILES IDX 6 14 7 15 9 16 15 18 16 19 17 20 18 22 19 23 20 24 72 25
REMARK SMILES IDX 21 26 71 27 22 28 23 29 24 30 65 31 25 32 70 33 64 34 66 35
REMARK SMILES IDX 26 36 69 37 63 38 62 39 27 41 53 42 36 43 52 44 37 45 40 46
REMARK SMILES IDX 51 47 67 48 38 49 39 50 50 52 68 53 41 54 28 55 29 56 34 57
REMARK SMILES IDX 30 58 31 59 33 60 35 61 32 62 54 63 55 64 60 65 56 66 57 67
REMARK SMILES IDX 59 68 61 69 58 70 42 71 43 72 48 73 44 74 45 75 47 76 49 77
REMARK SMILES IDX 46 78
REMARK H PARENT 12 6 9 17 16 21 66 40 40 51
REMARK Flexibility Score: inf
ROOT
ATOM      1  C   UNL A   1      40.791  20.335  26.543  1.00  0.00     0.042 C 
ENDROOT
BRANCH   1   2
ATOM      2  C   UNL A   1      42.214  19.837  26.560  1.00  0.00     0.117 C 
BRANCH   2   3
ATOM      3  N   UNL A   1      42.816  19.700  25.254  1.00  0.00    -0.354 N 
ATOM      4  C   UNL A   1      44.041  20.154  24.856  1.00  0.00     0.250 C 
ATOM      5  O   UNL A   1      44.421  19.896  23.712  1.00  0.00    -0.272 OA
ATOM      6  H   UNL A   1      42.284  19.224  24.575  1.00  0.00     0.163 HD
BRANCH   4   7
ATOM      7  C   UNL A   1      44.935  20.980  25.821  1.00  0.00     0.223 C 
BRANCH   7   8
ATOM      8  C   UNL A   1      44.757  22.528  25.791  1.00  0.00     0.092 C 
ATOM      9  C   UNL A   1      44.464  25.600  26.863  1.00  0.00     0.008 C 
ATOM     10  C   UNL A   1      43.466  24.471  26.581  1.00  0.00    -0.013 C 
ATOM     11  C   UNL A   1      43.138  24.265  25.098  1.00  0.00     0.005 C 
ATOM     12  C   UNL A   1      44.006  23.113  27.019  1.00  0.00     0.029 C 
ATOM     13  C   UNL A   1      43.792  22.946  24.661  1.00  0.00     0.026 C 
BRANCH   8  14
ATOM     14  C   UNL A   1      46.055  23.201  25.558  1.00  0.00     0.072 C 
ATOM     15  N   UNL A   1      47.081  23.719  25.383  1.00  0.00    -0.198 NA
ENDBRANCH   8  14
ENDBRANCH   7   8
BRANCH   7  16
ATOM     16  O   UNL A   1      46.313  20.620  25.665  1.00  0.00    -0.382 OA
ATOM     17  H   UNL A   1      46.382  19.846  25.084  1.00  0.00     0.211 HD
ENDBRANCH   7  16
ENDBRANCH   4   7
ENDBRANCH   2   3
ENDBRANCH   1   2
BRANCH   1  18
ATOM     18  C   UNL A   1      40.680  21.837  26.403  1.00  0.00     0.118 C 
BRANCH  18  19
ATOM     19  N   UNL A   1      39.425  22.264  25.795  1.00  0.00    -0.352 N 
ATOM     20  C   UNL A   1      38.697  23.413  25.992  1.00  0.00     0.251 C 
ATOM     21  H   UNL A   1      39.042  21.634  25.143  1.00  0.00     0.163 HD
ATOM     22  O   UNL A   1      37.573  23.522  25.513  1.00  0.00    -0.269 OA
BRANCH  20  23
ATOM     23  C   UNL A   1      39.256  24.504  26.817  1.00  0.00     0.039 A 
ATOM     24  C   UNL A   1      39.990  25.518  26.199  1.00  0.00     0.014 A 
ATOM     25  C   UNL A   1      39.027  24.545  28.193  1.00  0.00     0.014 A 
ATOM     26  C   UNL A   1      40.415  26.614  26.951  1.00  0.00     0.010 A 
ATOM     27  C   UNL A   1      39.327  25.696  28.907  1.00  0.00     0.010 A 
ATOM     28  C   UNL A   1      40.039  26.738  28.299  1.00  0.00    -0.014 A 
BRANCH  28  29
ATOM     29  C   UNL A   1      40.395  27.938  29.096  1.00  0.00     0.031 A 
ATOM     30  C   UNL A   1      41.727  28.010  29.793  1.00  0.00     0.074 A 
ATOM     31  C   UNL A   1      39.497  28.930  29.245  1.00  0.00     0.049 A 
ATOM     32  N   UNL A   1      42.198  28.944  30.579  1.00  0.00    -0.248 NA
ATOM     33  C   UNL A   1      42.638  26.868  29.608  1.00  0.00     0.031 C 
ATOM     34  C   UNL A   1      38.153  28.953  28.665  1.00  0.00     0.029 A 
ATOM     35  N   UNL A   1      39.579  30.113  29.936  1.00  0.00    -0.354 N 
ATOM     36  C   UNL A   1      43.449  28.496  30.987  1.00  0.00     0.074 A 
ATOM     37  C   UNL A   1      43.633  27.179  30.422  1.00  0.00     0.031 C 
ATOM     38  C   UNL A   1      37.552  30.108  28.991  1.00  0.00     0.029 A 
ATOM     39  C   UNL A   1      38.443  30.884  29.847  1.00  0.00     0.049 A 
ATOM     40  H   UNL A   1      40.374  30.385  30.448  1.00  0.00     0.167 HD
ATOM     41  C   UNL A   1      44.374  29.138  31.738  1.00  0.00     0.037 A 
ATOM     42  C   UNL A   1      38.152  32.074  30.401  1.00  0.00     0.037 A 
ATOM     43  C   UNL A   1      44.189  30.455  32.288  1.00  0.00     0.049 A 
ATOM     44  C   UNL A   1      39.184  32.754  31.260  1.00  0.00     0.074 A 
ATOM     45  C   UNL A   1      45.083  31.215  33.018  1.00  0.00     0.029 A 
ATOM     46  N   UNL A   1      43.026  31.202  32.175  1.00  0.00    -0.354 N 
ATOM     47  N   UNL A   1      40.393  32.353  31.575  1.00  0.00    -0.248 NA
ATOM     48  C   UNL A   1      38.813  34.053  31.836  1.00  0.00     0.031 C 
ATOM     49  C   UNL A   1      44.438  32.393  33.408  1.00  0.00     0.029 A 
ATOM     50  C   UNL A   1      43.168  32.401  32.855  1.00  0.00     0.049 A 
ATOM     51  H   UNL A   1      42.218  30.922  31.686  1.00  0.00     0.167 HD
ATOM     52  C   UNL A   1      40.938  33.365  32.355  1.00  0.00     0.074 A 
ATOM     53  C   UNL A   1      39.933  34.403  32.451  1.00  0.00     0.031 C 
ATOM     54  C   UNL A   1      42.160  33.428  32.938  1.00  0.00     0.037 A 
BRANCH  41  55
ATOM     55  C   UNL A   1      45.665  28.419  32.013  1.00  0.00     0.057 A 
ATOM     56  C   UNL A   1      45.835  27.597  33.137  1.00  0.00     0.134 A 
ATOM     57  C   UNL A   1      46.745  28.529  31.127  1.00  0.00     0.134 A 
ATOM     58  F   UNL A   1      44.846  27.456  34.032  1.00  0.00    -0.206 F 
ATOM     59  C   UNL A   1      47.040  26.940  33.386  1.00  0.00     0.040 A 
ATOM     60  C   UNL A   1      47.944  27.847  31.348  1.00  0.00     0.040 A 
ATOM     61  F   UNL A   1      46.653  29.293  30.029  1.00  0.00    -0.206 F 
ATOM     62  C   UNL A   1      48.097  27.058  32.485  1.00  0.00     0.006 A 
ENDBRANCH  41  55
BRANCH  42  63
ATOM     63  C   UNL A   1      36.831  32.710  30.153  1.00  0.00     0.057 A 
ATOM     64  C   UNL A   1      36.640  33.592  29.082  1.00  0.00     0.134 A 
ATOM     65  C   UNL A   1      35.732  32.465  30.986  1.00  0.00     0.134 A 
ATOM     66  F   UNL A   1      37.657  33.880  28.256  1.00  0.00    -0.206 F 
ATOM     67  C   UNL A   1      35.416  34.226  28.863  1.00  0.00     0.040 A 
ATOM     68  C   UNL A   1      34.494  33.067  30.762  1.00  0.00     0.040 A 
ATOM     69  F   UNL A   1      35.844  31.624  32.025  1.00  0.00    -0.206 F 
ATOM     70  C   UNL A   1      34.336  33.961  29.704  1.00  0.00     0.006 A 
ENDBRANCH  42  63
BRANCH  54  71
ATOM     71  C   UNL A   1      42.499  34.682  33.696  1.00  0.00     0.057 A 
ATOM     72  C   UNL A   1      42.993  35.828  33.060  1.00  0.00     0.134 A 
ATOM     73  C   UNL A   1      42.292  34.751  35.080  1.00  0.00     0.134 A 
ATOM     74  F   UNL A   1      43.226  35.826  31.738  1.00  0.00    -0.206 F 
ATOM     75  C   UNL A   1      43.296  36.987  33.776  1.00  0.00     0.040 A 
ATOM     76  C   UNL A   1      42.556  35.916  35.802  1.00  0.00     0.040 A 
ATOM     77  F   UNL A   1      41.810  33.695  35.752  1.00  0.00    -0.206 F 
ATOM     78  C   UNL A   1      43.069  37.035  35.151  1.00  0.00     0.006 A 
ENDBRANCH  54  71
ENDBRANCH  28  29
ENDBRANCH  20  23
ENDBRANCH  18  19
ENDBRANCH   1  18
TORSDOF 13
ENDMDL
