MODEL 1
REMARK VINA RESULT:     -12.6      0.000      0.000
REMARK SMILES CC[C@@H]1CCC[C@@H]([NH+]2CC(n3cc(C(=O)NCCCNC(=O)c4ccc(-c5c6nc(c(-c7c(F)cccc7F)c7ccc([nH]7)c(-c7c(F)cccc7F)c7nc(c(-c8c(F)cccc8F)c8ccc5[nH]8)C=C7)C=C6)cc4)nn3)C2)C1
REMARK SMILES IDX 17 1 16 2 14 3 15 4 13 6 11 7 12 8 78 9 77 10 10 11 8 12
REMARK SMILES IDX 9 13 79 14 7 16 3 17 4 18 80 19 5 20 6 21 2 22 1 23 18 24
REMARK SMILES IDX 19 25 20 26 21 27 22 29 23 30 24 31 76 32 25 33 75 34 26 35
REMARK SMILES IDX 27 36 28 37 69 38 29 39 74 40 68 41 70 42 30 43 73 44 67 45
REMARK SMILES IDX 66 46 31 48 57 49 40 50 56 51 41 52 44 53 55 54 71 55 42 56
REMARK SMILES IDX 43 57 54 59 72 60 45 61 32 62 33 63 38 64 34 65 35 66 37 67
REMARK SMILES IDX 39 68 36 69 58 70 59 71 64 72 60 73 61 74 63 75 65 76 62 77
REMARK SMILES IDX 46 78 47 79 52 80 48 81 49 82 51 83 53 84 50 85
REMARK H PARENT 16 5 8 15 20 28 70 47 44 58
REMARK Flexibility Score: inf
ROOT
ATOM      1  C   UNL A   1      36.340  20.496  25.095  1.00  0.00     0.118 C 
ENDROOT
BRANCH   1   2
ATOM      2  N   UNL A   1      35.244  19.541  24.973  1.00  0.00    -0.351 N 
ATOM      3  C   UNL A   1      33.875  19.753  24.995  1.00  0.00     0.273 C 
ATOM      4  O   UNL A   1      33.137  18.815  24.714  1.00  0.00    -0.267 OA
ATOM      5  H   UNL A   1      35.518  18.602  24.860  1.00  0.00     0.163 HD
BRANCH   3   6
ATOM      6  C   UNL A   1      33.375  21.074  25.348  1.00  0.00     0.170 A 
ATOM      7  N   UNL A   1      32.507  23.058  25.296  1.00  0.00    -0.237 N 
ATOM      8  C   UNL A   1      32.958  22.061  24.493  1.00  0.00     0.145 A 
ATOM      9  N   UNL A   1      32.755  22.787  26.584  1.00  0.00    -0.066 NA
ATOM     10  N   UNL A   1      33.290  21.567  26.633  1.00  0.00    -0.125 NA
BRANCH   7  11
ATOM     11  C   UNL A   1      32.221  24.313  24.717  1.00  0.00     0.218 C 
ATOM     12  N   UNL A   1      30.767  25.685  24.084  1.00  0.00    -0.329 N 
ATOM     13  C   UNL A   1      31.227  25.218  25.421  1.00  0.00     0.296 C 
ATOM     14  C   UNL A   1      31.210  24.348  23.558  1.00  0.00     0.296 C 
ATOM     15  H   UNL A   1      29.825  26.059  23.974  1.00  0.00     0.348 HD
BRANCH  12  16
ATOM     16  C   UNL A   1      31.465  26.841  23.453  1.00  0.00     0.184 C 
ATOM     17  C   UNL A   1      29.627  28.640  23.237  1.00  0.00    -0.006 C 
ATOM     18  C   UNL A   1      30.458  29.619  24.081  1.00  0.00     0.004 C 
ATOM     19  C   UNL A   1      30.526  27.630  22.505  1.00  0.00     0.068 C 
ATOM     20  C   UNL A   1      31.467  28.930  24.989  1.00  0.00     0.006 C 
ATOM     21  C   UNL A   1      32.295  27.875  24.253  1.00  0.00     0.065 C 
BRANCH  17  22
ATOM     22  C   UNL A   1      28.691  29.390  22.278  1.00  0.00     0.000 C 
ATOM     23  C   UNL A   1      27.625  30.164  23.051  1.00  0.00     0.004 C 
ENDBRANCH  17  22
ENDBRANCH  12  16
ENDBRANCH   7  11
ENDBRANCH   3   6
ENDBRANCH   1   2
BRANCH   1  24
ATOM     24  C   UNL A   1      37.690  19.907  24.655  1.00  0.00     0.042 C 
BRANCH  24  25
ATOM     25  C   UNL A   1      38.809  20.333  25.585  1.00  0.00     0.118 C 
BRANCH  25  26
ATOM     26  N   UNL A   1      39.812  19.270  25.752  1.00  0.00    -0.352 N 
ATOM     27  C   UNL A   1      41.173  19.369  26.003  1.00  0.00     0.251 C 
ATOM     28  H   UNL A   1      39.467  18.352  25.674  1.00  0.00     0.163 HD
ATOM     29  O   UNL A   1      41.920  18.430  25.810  1.00  0.00    -0.269 OA
BRANCH  27  30
ATOM     30  C   UNL A   1      41.684  20.643  26.531  1.00  0.00     0.039 A 
ATOM     31  C   UNL A   1      42.398  21.560  25.751  1.00  0.00     0.014 A 
ATOM     32  C   UNL A   1      41.365  20.924  27.849  1.00  0.00     0.014 A 
ATOM     33  C   UNL A   1      42.730  22.792  26.312  1.00  0.00     0.010 A 
ATOM     34  C   UNL A   1      41.422  22.210  28.278  1.00  0.00     0.010 A 
ATOM     35  C   UNL A   1      42.226  23.100  27.580  1.00  0.00    -0.014 A 
BRANCH  35  36
ATOM     36  C   UNL A   1      42.450  24.364  28.261  1.00  0.00     0.031 A 
ATOM     37  C   UNL A   1      41.359  25.357  28.072  1.00  0.00     0.074 A 
ATOM     38  C   UNL A   1      43.373  24.419  29.251  1.00  0.00     0.049 A 
ATOM     39  N   UNL A   1      41.423  26.525  27.523  1.00  0.00    -0.248 NA
ATOM     40  C   UNL A   1      39.982  24.931  28.389  1.00  0.00     0.031 C 
ATOM     41  C   UNL A   1      44.235  23.330  29.751  1.00  0.00     0.029 A 
ATOM     42  N   UNL A   1      43.631  25.417  30.136  1.00  0.00    -0.354 N 
ATOM     43  C   UNL A   1      40.142  27.065  27.636  1.00  0.00     0.074 A 
ATOM     44  C   UNL A   1      39.271  25.964  27.938  1.00  0.00     0.031 C 
ATOM     45  C   UNL A   1      44.724  23.652  30.968  1.00  0.00     0.029 A 
ATOM     46  C   UNL A   1      44.359  25.021  31.260  1.00  0.00     0.049 A 
ATOM     47  H   UNL A   1      43.330  26.344  29.995  1.00  0.00     0.167 HD
ATOM     48  C   UNL A   1      39.948  28.408  27.757  1.00  0.00     0.037 A 
ATOM     49  C   UNL A   1      44.590  25.776  32.364  1.00  0.00     0.037 A 
ATOM     50  C   UNL A   1      41.146  29.126  27.401  1.00  0.00     0.049 A 
ATOM     51  C   UNL A   1      44.284  27.182  31.994  1.00  0.00     0.074 A 
ATOM     52  C   UNL A   1      41.907  29.238  26.254  1.00  0.00     0.029 A 
ATOM     53  N   UNL A   1      41.950  29.551  28.432  1.00  0.00    -0.354 N 
ATOM     54  N   UNL A   1      44.973  27.864  31.118  1.00  0.00    -0.248 NA
ATOM     55  C   UNL A   1      42.919  27.640  32.208  1.00  0.00     0.031 C 
ATOM     56  C   UNL A   1      43.256  29.252  26.712  1.00  0.00     0.029 A 
ATOM     57  C   UNL A   1      43.244  29.241  28.109  1.00  0.00     0.049 A 
ATOM     58  H   UNL A   1      41.647  29.999  29.256  1.00  0.00     0.167 HD
ATOM     59  C   UNL A   1      44.025  28.557  30.378  1.00  0.00     0.074 A 
ATOM     60  C   UNL A   1      42.781  28.424  31.135  1.00  0.00     0.031 C 
ATOM     61  C   UNL A   1      44.263  28.912  29.081  1.00  0.00     0.037 A 
BRANCH  48  62
ATOM     62  C   UNL A   1      38.842  29.060  28.559  1.00  0.00     0.057 A 
ATOM     63  C   UNL A   1      38.744  28.770  29.934  1.00  0.00     0.134 A 
ATOM     64  C   UNL A   1      37.719  29.717  28.014  1.00  0.00     0.134 A 
ATOM     65  F   UNL A   1      39.743  28.151  30.581  1.00  0.00    -0.206 F 
ATOM     66  C   UNL A   1      37.586  29.026  30.680  1.00  0.00     0.040 A 
ATOM     67  C   UNL A   1      36.579  30.024  28.763  1.00  0.00     0.040 A 
ATOM     68  F   UNL A   1      37.610  30.015  26.715  1.00  0.00    -0.206 F 
ATOM     69  C   UNL A   1      36.493  29.645  30.091  1.00  0.00     0.006 A 
ENDBRANCH  48  62
BRANCH  49  70
ATOM     70  C   UNL A   1      44.730  25.333  33.770  1.00  0.00     0.057 A 
ATOM     71  C   UNL A   1      43.613  25.047  34.567  1.00  0.00     0.134 A 
ATOM     72  C   UNL A   1      45.974  24.928  34.285  1.00  0.00     0.134 A 
ATOM     73  F   UNL A   1      42.379  25.350  34.140  1.00  0.00    -0.206 F 
ATOM     74  C   UNL A   1      43.726  24.392  35.803  1.00  0.00     0.040 A 
ATOM     75  C   UNL A   1      46.102  24.275  35.517  1.00  0.00     0.040 A 
ATOM     76  F   UNL A   1      47.098  25.078  33.568  1.00  0.00    -0.206 F 
ATOM     77  C   UNL A   1      44.974  23.995  36.277  1.00  0.00     0.006 A 
ENDBRANCH  49  70
BRANCH  61  78
ATOM     78  C   UNL A   1      45.654  28.730  28.535  1.00  0.00     0.057 A 
ATOM     79  C   UNL A   1      46.080  27.596  27.826  1.00  0.00     0.134 A 
ATOM     80  C   UNL A   1      46.515  29.832  28.537  1.00  0.00     0.134 A 
ATOM     81  F   UNL A   1      45.291  26.526  27.691  1.00  0.00    -0.206 F 
ATOM     82  C   UNL A   1      47.311  27.557  27.162  1.00  0.00     0.040 A 
ATOM     83  C   UNL A   1      47.732  29.818  27.852  1.00  0.00     0.040 A 
ATOM     84  F   UNL A   1      46.151  30.970  29.147  1.00  0.00    -0.206 F 
ATOM     85  C   UNL A   1      48.135  28.677  27.163  1.00  0.00     0.006 A 
ENDBRANCH  61  78
ENDBRANCH  35  36
ENDBRANCH  27  30
ENDBRANCH  25  26
ENDBRANCH  24  25
ENDBRANCH   1  24
TORSDOF 13
ENDMDL
MODEL 2
REMARK VINA RESULT:     -12.4      0.702      1.465
REMARK SMILES CC[C@@H]1CCC[C@@H]([NH+]2CC(n3cc(C(=O)NCCCNC(=O)c4ccc(-c5c6nc(c(-c7c(F)cccc7F)c7ccc([nH]7)c(-c7c(F)cccc7F)c7nc(c(-c8c(F)cccc8F)c8ccc5[nH]8)C=C7)C=C6)cc4)nn3)C2)C1
REMARK SMILES IDX 17 1 16 2 14 3 15 4 13 6 11 7 12 8 78 9 77 10 10 11 8 12
REMARK SMILES IDX 9 13 79 14 7 16 3 17 4 18 80 19 5 20 6 21 2 22 1 23 18 24
REMARK SMILES IDX 19 25 20 26 21 27 22 29 23 30 24 31 76 32 25 33 75 34 26 35
REMARK SMILES IDX 27 36 28 37 69 38 29 39 74 40 68 41 70 42 30 43 73 44 67 45
REMARK SMILES IDX 66 46 31 48 57 49 40 50 56 51 41 52 44 53 55 54 71 55 42 56
REMARK SMILES IDX 43 57 54 59 72 60 45 61 32 62 33 63 38 64 34 65 35 66 37 67
REMARK SMILES IDX 39 68 36 69 58 70 59 71 64 72 60 73 61 74 63 75 65 76 62 77
REMARK SMILES IDX 46 78 47 79 52 80 48 81 49 82 51 83 53 84 50 85
REMARK H PARENT 16 5 8 15 20 28 70 47 44 58
REMARK Flexibility Score: inf
ROOT
ATOM      1  C   UNL A   1      36.348  20.375  25.094  1.00  0.00     0.118 C 
ENDROOT
BRANCH   1   2
ATOM      2  N   UNL A   1      35.288  19.391  24.898  1.00  0.00    -0.351 N 
ATOM      3  C   UNL A   1      33.918  19.516  25.066  1.00  0.00     0.273 C 
ATOM      4  O   UNL A   1      33.201  18.597  24.688  1.00  0.00    -0.267 OA
ATOM      5  H   UNL A   1      35.592  18.503  24.603  1.00  0.00     0.163 HD
BRANCH   3   6
ATOM      6  C   UNL A   1      33.395  20.727  25.682  1.00  0.00     0.170 A 
ATOM      7  N   UNL A   1      32.326  22.568  26.084  1.00  0.00    -0.237 N 
ATOM      8  C   UNL A   1      32.633  21.699  25.087  1.00  0.00     0.145 A 
ATOM      9  N   UNL A   1      32.970  22.250  27.214  1.00  0.00    -0.066 NA
ATOM     10  N   UNL A   1      33.634  21.117  26.982  1.00  0.00    -0.125 NA
BRANCH   7  11
ATOM     11  C   UNL A   1      31.738  23.805  25.743  1.00  0.00     0.218 C 
ATOM     12  N   UNL A   1      31.868  25.590  24.651  1.00  0.00    -0.329 N 
ATOM     13  C   UNL A   1      31.632  24.168  24.274  1.00  0.00     0.296 C 
ATOM     14  C   UNL A   1      32.618  25.062  25.841  1.00  0.00     0.296 C 
ATOM     15  H   UNL A   1      32.260  26.238  23.968  1.00  0.00     0.348 HD
BRANCH  12  16
ATOM     16  C   UNL A   1      30.693  26.437  25.007  1.00  0.00     0.184 C 
ATOM     17  C   UNL A   1      31.582  28.852  24.812  1.00  0.00    -0.006 C 
ATOM     18  C   UNL A   1      30.502  29.186  23.771  1.00  0.00     0.004 C 
ATOM     19  C   UNL A   1      31.123  27.726  25.752  1.00  0.00     0.068 C 
ATOM     20  C   UNL A   1      29.965  27.962  23.041  1.00  0.00     0.006 C 
ATOM     21  C   UNL A   1      29.588  26.829  23.997  1.00  0.00     0.065 C 
BRANCH  17  22
ATOM     22  C   UNL A   1      32.023  30.109  25.576  1.00  0.00     0.000 C 
ATOM     23  C   UNL A   1      32.027  29.855  27.083  1.00  0.00     0.004 C 
ENDBRANCH  17  22
ENDBRANCH  12  16
ENDBRANCH   7  11
ENDBRANCH   3   6
ENDBRANCH   1   2
BRANCH   1  24
ATOM     24  C   UNL A   1      37.721  19.866  24.629  1.00  0.00     0.042 C 
BRANCH  24  25
ATOM     25  C   UNL A   1      38.818  20.273  25.594  1.00  0.00     0.118 C 
BRANCH  25  26
ATOM     26  N   UNL A   1      39.824  19.212  25.753  1.00  0.00    -0.352 N 
ATOM     27  C   UNL A   1      41.186  19.313  25.995  1.00  0.00     0.251 C 
ATOM     28  H   UNL A   1      39.480  18.292  25.675  1.00  0.00     0.163 HD
ATOM     29  O   UNL A   1      41.934  18.375  25.795  1.00  0.00    -0.269 OA
BRANCH  27  30
ATOM     30  C   UNL A   1      41.698  20.587  26.522  1.00  0.00     0.039 A 
ATOM     31  C   UNL A   1      42.418  21.500  25.742  1.00  0.00     0.014 A 
ATOM     32  C   UNL A   1      41.374  20.872  27.838  1.00  0.00     0.014 A 
ATOM     33  C   UNL A   1      42.750  22.733  26.302  1.00  0.00     0.010 A 
ATOM     34  C   UNL A   1      41.433  22.158  28.264  1.00  0.00     0.010 A 
ATOM     35  C   UNL A   1      42.241  23.045  27.568  1.00  0.00    -0.014 A 
BRANCH  35  36
ATOM     36  C   UNL A   1      42.466  24.310  28.246  1.00  0.00     0.031 A 
ATOM     37  C   UNL A   1      41.367  25.296  28.071  1.00  0.00     0.074 A 
ATOM     38  C   UNL A   1      43.400  24.370  29.226  1.00  0.00     0.049 A 
ATOM     39  N   UNL A   1      41.417  26.465  27.522  1.00  0.00    -0.248 NA
ATOM     40  C   UNL A   1      39.996  24.861  28.404  1.00  0.00     0.031 C 
ATOM     41  C   UNL A   1      44.274  23.286  29.714  1.00  0.00     0.029 A 
ATOM     42  N   UNL A   1      43.662  25.370  30.108  1.00  0.00    -0.354 N 
ATOM     43  C   UNL A   1      40.134  26.997  27.649  1.00  0.00     0.074 A 
ATOM     44  C   UNL A   1      39.273  25.891  27.961  1.00  0.00     0.031 C 
ATOM     45  C   UNL A   1      44.775  23.611  30.925  1.00  0.00     0.029 A 
ATOM     46  C   UNL A   1      44.406  24.978  31.222  1.00  0.00     0.049 A 
ATOM     47  H   UNL A   1      43.353  26.294  29.971  1.00  0.00     0.167 HD
ATOM     48  C   UNL A   1      39.932  28.338  27.774  1.00  0.00     0.037 A 
ATOM     49  C   UNL A   1      44.645  25.734  32.324  1.00  0.00     0.037 A 
ATOM     50  C   UNL A   1      41.122  29.064  27.404  1.00  0.00     0.049 A 
ATOM     51  C   UNL A   1      44.326  27.138  31.958  1.00  0.00     0.074 A 
ATOM     52  C   UNL A   1      41.868  29.181  26.249  1.00  0.00     0.029 A 
ATOM     53  N   UNL A   1      41.935  29.494  28.425  1.00  0.00    -0.354 N 
ATOM     54  N   UNL A   1      45.001  27.824  31.075  1.00  0.00    -0.248 NA
ATOM     55  C   UNL A   1      42.961  27.588  32.189  1.00  0.00     0.031 C 
ATOM     56  C   UNL A   1      43.222  29.204  26.690  1.00  0.00     0.029 A 
ATOM     57  C   UNL A   1      43.227  29.192  28.087  1.00  0.00     0.049 A 
ATOM     58  H   UNL A   1      41.640  29.939  29.253  1.00  0.00     0.167 HD
ATOM     59  C   UNL A   1      44.039  28.512  30.346  1.00  0.00     0.074 A 
ATOM     60  C   UNL A   1      42.805  28.371  31.118  1.00  0.00     0.031 C 
ATOM     61  C   UNL A   1      44.260  28.869  29.047  1.00  0.00     0.037 A 
BRANCH  48  62
ATOM     62  C   UNL A   1      38.832  28.983  28.589  1.00  0.00     0.057 A 
ATOM     63  C   UNL A   1      38.732  28.666  29.958  1.00  0.00     0.134 A 
ATOM     64  C   UNL A   1      37.715  29.661  28.058  1.00  0.00     0.134 A 
ATOM     65  F   UNL A   1      39.725  28.025  30.592  1.00  0.00    -0.206 F 
ATOM     66  C   UNL A   1      37.575  28.916  30.708  1.00  0.00     0.040 A 
ATOM     67  C   UNL A   1      36.577  29.962  28.812  1.00  0.00     0.040 A 
ATOM     68  F   UNL A   1      37.609  29.987  26.765  1.00  0.00    -0.206 F 
ATOM     69  C   UNL A   1      36.488  29.557  30.133  1.00  0.00     0.006 A 
ENDBRANCH  48  62
BRANCH  49  70
ATOM     70  C   UNL A   1      44.804  25.291  33.728  1.00  0.00     0.057 A 
ATOM     71  C   UNL A   1      45.722  25.901  34.594  1.00  0.00     0.134 A 
ATOM     72  C   UNL A   1      43.871  24.427  34.329  1.00  0.00     0.134 A 
ATOM     73  F   UNL A   1      46.620  26.777  34.123  1.00  0.00    -0.206 F 
ATOM     74  C   UNL A   1      45.710  25.669  35.978  1.00  0.00     0.040 A 
ATOM     75  C   UNL A   1      43.848  24.186  35.708  1.00  0.00     0.040 A 
ATOM     76  F   UNL A   1      42.897  23.856  33.605  1.00  0.00    -0.206 F 
ATOM     77  C   UNL A   1      44.764  24.816  36.540  1.00  0.00     0.006 A 
ENDBRANCH  49  70
BRANCH  61  78
ATOM     78  C   UNL A   1      45.646  28.696  28.484  1.00  0.00     0.057 A 
ATOM     79  C   UNL A   1      46.086  27.544  27.814  1.00  0.00     0.134 A 
ATOM     80  C   UNL A   1      46.481  29.816  28.427  1.00  0.00     0.134 A 
ATOM     81  F   UNL A   1      45.319  26.452  27.736  1.00  0.00    -0.206 F 
ATOM     82  C   UNL A   1      47.306  27.505  27.131  1.00  0.00     0.040 A 
ATOM     83  C   UNL A   1      47.687  29.800  27.722  1.00  0.00     0.040 A 
ATOM     84  F   UNL A   1      46.101  30.969  28.997  1.00  0.00    -0.206 F 
ATOM     85  C   UNL A   1      48.104  28.642  27.072  1.00  0.00     0.006 A 
ENDBRANCH  61  78
ENDBRANCH  35  36
ENDBRANCH  27  30
ENDBRANCH  25  26
ENDBRANCH  24  25
ENDBRANCH   1  24
TORSDOF 13
ENDMDL
MODEL 3
REMARK VINA RESULT:     -12.3      4.400      9.514
REMARK SMILES CC[C@@H]1CCC[C@@H]([NH+]2CC(n3cc(C(=O)NCCCNC(=O)c4ccc(-c5c6nc(c(-c7c(F)cccc7F)c7ccc([nH]7)c(-c7c(F)cccc7F)c7nc(c(-c8c(F)cccc8F)c8ccc5[nH]8)C=C7)C=C6)cc4)nn3)C2)C1
REMARK SMILES IDX 17 1 16 2 14 3 15 4 13 6 11 7 12 8 78 9 77 10 10 11 8 12
REMARK SMILES IDX 9 13 79 14 7 16 3 17 4 18 80 19 5 20 6 21 2 22 1 23 18 24
REMARK SMILES IDX 19 25 20 26 21 27 22 29 23 30 24 31 76 32 25 33 75 34 26 35
REMARK SMILES IDX 27 36 28 37 69 38 29 39 74 40 68 41 70 42 30 43 73 44 67 45
REMARK SMILES IDX 66 46 31 48 57 49 40 50 56 51 41 52 44 53 55 54 71 55 42 56
REMARK SMILES IDX 43 57 54 59 72 60 45 61 32 62 33 63 38 64 34 65 35 66 37 67
REMARK SMILES IDX 39 68 36 69 58 70 59 71 64 72 60 73 61 74 63 75 65 76 62 77
REMARK SMILES IDX 46 78 47 79 52 80 48 81 49 82 51 83 53 84 50 85
REMARK H PARENT 16 5 8 15 20 28 70 47 44 58
REMARK Flexibility Score: inf
ROOT
ATOM      1  C   UNL A   1      31.611  30.218  26.030  1.00  0.00     0.118 C 
ENDROOT
BRANCH   1   2
ATOM      2  N   UNL A   1      32.561  30.065  24.934  1.00  0.00    -0.351 N 
ATOM      3  C   UNL A   1      32.822  28.966  24.132  1.00  0.00     0.273 C 
ATOM      4  O   UNL A   1      33.557  29.116  23.162  1.00  0.00    -0.267 OA
ATOM      5  H   UNL A   1      33.101  30.864  24.734  1.00  0.00     0.163 HD
BRANCH   3   6
ATOM      6  C   UNL A   1      32.215  27.688  24.474  1.00  0.00     0.170 A 
ATOM      7  N   UNL A   1      31.872  25.644  25.105  1.00  0.00    -0.237 N 
ATOM      8  C   UNL A   1      32.859  26.515  24.772  1.00  0.00     0.145 A 
ATOM      9  N   UNL A   1      30.664  26.181  24.893  1.00  0.00    -0.066 NA
ATOM     10  N   UNL A   1      30.858  27.442  24.504  1.00  0.00    -0.125 NA
BRANCH   7  11
ATOM     11  C   UNL A   1      32.197  24.277  25.241  1.00  0.00     0.218 C 
ATOM     12  N   UNL A   1      32.390  22.399  24.329  1.00  0.00    -0.329 N 
ATOM     13  C   UNL A   1      33.167  23.667  24.246  1.00  0.00     0.296 C 
ATOM     14  C   UNL A   1      31.201  23.249  24.681  1.00  0.00     0.296 C 
ATOM     15  H   UNL A   1      32.413  21.739  23.552  1.00  0.00     0.348 HD
BRANCH  12  16
ATOM     16  C   UNL A   1      32.754  21.408  25.382  1.00  0.00     0.184 C 
ATOM     17  C   UNL A   1      33.309  19.263  24.058  1.00  0.00    -0.006 C 
ATOM     18  C   UNL A   1      34.722  19.233  24.662  1.00  0.00     0.004 C 
ATOM     19  C   UNL A   1      32.317  19.973  24.994  1.00  0.00     0.068 C 
ATOM     20  C   UNL A   1      35.204  20.594  25.145  1.00  0.00     0.006 C 
ATOM     21  C   UNL A   1      34.166  21.311  26.010  1.00  0.00     0.065 C 
BRANCH  17  22
ATOM     22  C   UNL A   1      32.841  17.853  23.671  1.00  0.00     0.000 C 
ATOM     23  C   UNL A   1      34.034  16.921  23.466  1.00  0.00     0.004 C 
ENDBRANCH  17  22
ENDBRANCH  12  16
ENDBRANCH   7  11
ENDBRANCH   3   6
ENDBRANCH   1   2
BRANCH   1  24
ATOM     24  C   UNL A   1      31.365  31.690  26.400  1.00  0.00     0.042 C 
BRANCH  24  25
ATOM     25  C   UNL A   1      32.500  32.247  27.237  1.00  0.00     0.118 C 
BRANCH  25  26
ATOM     26  N   UNL A   1      32.328  33.684  27.499  1.00  0.00    -0.352 N 
ATOM     27  C   UNL A   1      32.985  34.504  28.405  1.00  0.00     0.251 C 
ATOM     28  H   UNL A   1      31.643  34.132  26.951  1.00  0.00     0.163 HD
ATOM     29  O   UNL A   1      32.529  35.584  28.724  1.00  0.00    -0.269 OA
BRANCH  27  30
ATOM     30  C   UNL A   1      34.265  34.033  28.954  1.00  0.00     0.039 A 
ATOM     31  C   UNL A   1      34.387  33.474  30.232  1.00  0.00     0.014 A 
ATOM     32  C   UNL A   1      35.356  34.116  28.105  1.00  0.00     0.014 A 
ATOM     33  C   UNL A   1      35.621  32.945  30.610  1.00  0.00     0.010 A 
ATOM     34  C   UNL A   1      36.444  33.345  28.357  1.00  0.00     0.010 A 
ATOM     35  C   UNL A   1      36.638  32.886  29.652  1.00  0.00    -0.014 A 
BRANCH  35  36
ATOM     36  C   UNL A   1      37.952  32.315  29.894  1.00  0.00     0.031 A 
ATOM     37  C   UNL A   1      38.093  30.904  29.447  1.00  0.00     0.074 A 
ATOM     38  C   UNL A   1      38.992  33.149  30.138  1.00  0.00     0.049 A 
ATOM     39  N   UNL A   1      38.358  29.860  30.160  1.00  0.00    -0.248 NA
ATOM     40  C   UNL A   1      37.732  30.587  28.052  1.00  0.00     0.031 C 
ATOM     41  C   UNL A   1      38.976  34.623  30.212  1.00  0.00     0.029 A 
ATOM     42  N   UNL A   1      40.320  32.872  30.216  1.00  0.00    -0.354 N 
ATOM     43  C   UNL A   1      38.421  28.795  29.261  1.00  0.00     0.074 A 
ATOM     44  C   UNL A   1      37.792  29.256  28.054  1.00  0.00     0.031 C 
ATOM     45  C   UNL A   1      40.232  35.103  30.083  1.00  0.00     0.029 A 
ATOM     46  C   UNL A   1      41.152  33.987  30.090  1.00  0.00     0.049 A 
ATOM     47  H   UNL A   1      40.666  31.961  30.351  1.00  0.00     0.167 HD
ATOM     48  C   UNL A   1      39.238  27.728  29.482  1.00  0.00     0.037 A 
ATOM     49  C   UNL A   1      42.502  33.959  29.955  1.00  0.00     0.037 A 
ATOM     50  C   UNL A   1      39.691  27.714  30.850  1.00  0.00     0.049 A 
ATOM     51  C   UNL A   1      42.946  32.600  30.360  1.00  0.00     0.074 A 
ATOM     52  C   UNL A   1      39.067  27.619  32.078  1.00  0.00     0.029 A 
ATOM     53  N   UNL A   1      40.944  28.220  31.100  1.00  0.00    -0.354 N 
ATOM     54  N   UNL A   1      42.842  32.141  31.578  1.00  0.00    -0.248 NA
ATOM     55  C   UNL A   1      43.019  31.589  29.314  1.00  0.00     0.031 C 
ATOM     56  C   UNL A   1      39.783  28.517  32.921  1.00  0.00     0.029 A 
ATOM     57  C   UNL A   1      40.855  29.040  32.193  1.00  0.00     0.049 A 
ATOM     58  H   UNL A   1      41.761  28.026  30.584  1.00  0.00     0.167 HD
ATOM     59  C   UNL A   1      42.421  30.826  31.429  1.00  0.00     0.074 A 
ATOM     60  C   UNL A   1      42.604  30.526  30.009  1.00  0.00     0.031 C 
ATOM     61  C   UNL A   1      41.684  30.207  32.398  1.00  0.00     0.037 A 
BRANCH  48  62
ATOM     62  C   UNL A   1      39.945  26.933  28.405  1.00  0.00     0.057 A 
ATOM     63  C   UNL A   1      40.796  27.614  27.512  1.00  0.00     0.134 A 
ATOM     64  C   UNL A   1      39.624  25.614  28.023  1.00  0.00     0.134 A 
ATOM     65  F   UNL A   1      41.186  28.874  27.756  1.00  0.00    -0.206 F 
ATOM     66  C   UNL A   1      41.212  27.060  26.294  1.00  0.00     0.040 A 
ATOM     67  C   UNL A   1      40.077  25.034  26.834  1.00  0.00     0.040 A 
ATOM     68  F   UNL A   1      38.782  24.840  28.716  1.00  0.00    -0.206 F 
ATOM     69  C   UNL A   1      40.843  25.769  25.947  1.00  0.00     0.006 A 
ENDBRANCH  48  62
BRANCH  49  70
ATOM     70  C   UNL A   1      43.372  34.892  29.201  1.00  0.00     0.057 A 
ATOM     71  C   UNL A   1      43.620  34.724  27.833  1.00  0.00     0.134 A 
ATOM     72  C   UNL A   1      43.770  36.122  29.754  1.00  0.00     0.134 A 
ATOM     73  F   UNL A   1      43.233  33.605  27.205  1.00  0.00    -0.206 F 
ATOM     74  C   UNL A   1      44.226  35.724  27.056  1.00  0.00     0.040 A 
ATOM     75  C   UNL A   1      44.376  37.128  28.992  1.00  0.00     0.040 A 
ATOM     76  F   UNL A   1      43.505  36.420  31.035  1.00  0.00    -0.206 F 
ATOM     77  C   UNL A   1      44.598  36.935  27.634  1.00  0.00     0.006 A 
ENDBRANCH  49  70
BRANCH  61  78
ATOM     78  C   UNL A   1      41.521  30.901  33.724  1.00  0.00     0.057 A 
ATOM     79  C   UNL A   1      40.435  31.729  34.052  1.00  0.00     0.134 A 
ATOM     80  C   UNL A   1      42.376  30.540  34.770  1.00  0.00     0.134 A 
ATOM     81  F   UNL A   1      39.514  32.057  33.140  1.00  0.00    -0.206 F 
ATOM     82  C   UNL A   1      40.219  32.185  35.357  1.00  0.00     0.040 A 
ATOM     83  C   UNL A   1      42.154  30.962  36.083  1.00  0.00     0.040 A 
ATOM     84  F   UNL A   1      43.402  29.707  34.543  1.00  0.00    -0.206 F 
ATOM     85  C   UNL A   1      41.074  31.789  36.380  1.00  0.00     0.006 A 
ENDBRANCH  61  78
ENDBRANCH  35  36
ENDBRANCH  27  30
ENDBRANCH  25  26
ENDBRANCH  24  25
ENDBRANCH   1  24
TORSDOF 13
ENDMDL
