MODEL 1
REMARK VINA RESULT:      -9.7      0.000      0.000
REMARK SMILES Cc1cc(C(=O)N2C[C@@H](C(=O)NCCCNC(=O)c3ccc(-c4c5nc(c(-c6c(F)cccc6F)c6ccc([nH]6)c(-c6c(F)cccc6F)c6nc(c(-c7c(F)cccc7F)c7ccc4[nH]7)C=C6)C=C5)cc3)[C@H](C3CC3)C2)sc1C
REMARK SMILES IDX 14 1 13 2 12 3 10 4 11 5 9 7 7 8 8 9 77 10 73 11 5 12 6 13
REMARK SMILES IDX 4 14 1 15 2 16 3 17 79 18 78 19 80 20 74 21 75 22 76 23
REMARK SMILES IDX 15 24 16 25 17 26 18 28 19 29 20 30 72 31 21 32 71 33 22 34
REMARK SMILES IDX 23 35 24 36 65 37 25 38 70 39 64 40 66 41 26 42 69 43 63 44
REMARK SMILES IDX 62 45 27 47 53 48 36 49 52 50 37 51 40 52 51 53 67 54 38 55
REMARK SMILES IDX 39 56 50 58 68 59 41 60 28 61 29 62 34 63 30 64 31 65 33 66
REMARK SMILES IDX 35 67 32 68 54 69 55 70 60 71 56 72 57 73 59 74 61 75 58 76
REMARK SMILES IDX 42 77 43 78 48 79 44 80 45 81 47 82 49 83 46 84
REMARK H PARENT 12 6 16 27 66 46 40 57
REMARK Flexibility Score: inf
ROOT
ATOM      1  C   UNL A   1      34.098  33.603  29.144  1.00  0.00     0.042 C 
ENDROOT
BRANCH   1   2
ATOM      2  C   UNL A   1      34.542  33.209  30.536  1.00  0.00     0.117 C 
BRANCH   2   3
ATOM      3  N   UNL A   1      34.573  34.311  31.478  1.00  0.00    -0.356 N 
ATOM      4  C   UNL A   1      35.566  34.692  32.332  1.00  0.00     0.225 C 
ATOM      5  O   UNL A   1      35.420  35.755  32.937  1.00  0.00    -0.275 OA
ATOM      6  H   UNL A   1      33.759  34.865  31.504  1.00  0.00     0.163 HD
BRANCH   4   7
ATOM      7  C   UNL A   1      36.788  33.815  32.529  1.00  0.00     0.103 C 
ATOM      8  N   UNL A   1      38.555  33.405  33.972  1.00  0.00    -0.337 N 
ATOM      9  C   UNL A   1      37.175  33.835  34.008  1.00  0.00     0.133 C 
ATOM     10  C   UNL A   1      39.208  33.989  32.823  1.00  0.00     0.124 C 
ATOM     11  C   UNL A   1      38.070  34.353  31.836  1.00  0.00     0.026 C 
BRANCH   8  12
ATOM     12  C   UNL A   1      39.266  32.574  34.818  1.00  0.00     0.263 C 
ATOM     13  O   UNL A   1      39.666  33.026  35.894  1.00  0.00    -0.268 OA
BRANCH  12  14
ATOM     14  C   UNL A   1      39.632  31.222  34.401  1.00  0.00     0.093 A 
ATOM     15  C   UNL A   1      42.329  28.750  33.493  1.00  0.00     0.045 C 
ATOM     16  C   UNL A   1      41.027  29.446  33.714  1.00  0.00    -0.037 A 
ATOM     17  C   UNL A   1      40.915  30.705  34.392  1.00  0.00     0.029 A 
ATOM     18  C   UNL A   1      39.788  29.015  33.275  1.00  0.00     0.005 A 
ATOM     19  S   UNL A   1      38.564  30.162  33.592  1.00  0.00    -0.135 S 
ATOM     20  C   UNL A   1      39.443  27.759  32.543  1.00  0.00     0.056 C 
ENDBRANCH  12  14
ENDBRANCH   8  12
BRANCH  11  21
ATOM     21  C   UNL A   1      38.432  33.842  30.456  1.00  0.00    -0.005 C 
ATOM     22  C   UNL A   1      37.796  34.300  29.168  1.00  0.00     0.004 C 
ATOM     23  C   UNL A   1      39.224  34.669  29.480  1.00  0.00     0.004 C 
ENDBRANCH  11  21
ENDBRANCH   4   7
ENDBRANCH   2   3
ENDBRANCH   1   2
BRANCH   1  24
ATOM     24  C   UNL A   1      34.722  32.759  28.046  1.00  0.00     0.118 C 
BRANCH  24  25
ATOM     25  N   UNL A   1      34.075  31.463  27.871  1.00  0.00    -0.352 N 
ATOM     26  C   UNL A   1      34.591  30.187  27.863  1.00  0.00     0.251 C 
ATOM     27  H   UNL A   1      33.100  31.509  27.737  1.00  0.00     0.163 HD
ATOM     28  O   UNL A   1      33.884  29.246  27.538  1.00  0.00    -0.269 OA
BRANCH  26  29
ATOM     29  C   UNL A   1      36.009  29.958  28.219  1.00  0.00     0.039 A 
ATOM     30  C   UNL A   1      36.327  29.519  29.507  1.00  0.00     0.014 A 
ATOM     31  C   UNL A   1      37.022  30.164  27.284  1.00  0.00     0.014 A 
ATOM     32  C   UNL A   1      37.649  29.194  29.819  1.00  0.00     0.010 A 
ATOM     33  C   UNL A   1      38.309  29.723  27.553  1.00  0.00     0.010 A 
ATOM     34  C   UNL A   1      38.641  29.239  28.827  1.00  0.00    -0.014 A 
BRANCH  34  35
ATOM     35  C   UNL A   1      40.038  28.811  29.091  1.00  0.00     0.031 A 
ATOM     36  C   UNL A   1      40.999  29.765  29.751  1.00  0.00     0.074 A 
ATOM     37  C   UNL A   1      40.463  27.606  28.664  1.00  0.00     0.049 A 
ATOM     38  N   UNL A   1      42.284  29.636  29.954  1.00  0.00    -0.248 NA
ATOM     39  C   UNL A   1      40.447  31.052  30.208  1.00  0.00     0.031 C 
ATOM     40  C   UNL A   1      39.645  26.613  27.963  1.00  0.00     0.029 A 
ATOM     41  N   UNL A   1      41.699  27.015  28.746  1.00  0.00    -0.354 N 
ATOM     42  C   UNL A   1      42.693  30.824  30.547  1.00  0.00     0.074 A 
ATOM     43  C   UNL A   1      41.537  31.691  30.601  1.00  0.00     0.031 C 
ATOM     44  C   UNL A   1      40.391  25.528  27.705  1.00  0.00     0.029 A 
ATOM     45  C   UNL A   1      41.751  25.764  28.181  1.00  0.00     0.049 A 
ATOM     46  H   UNL A   1      42.474  27.447  29.171  1.00  0.00     0.167 HD
ATOM     47  C   UNL A   1      43.911  31.153  31.036  1.00  0.00     0.037 A 
ATOM     48  C   UNL A   1      42.782  24.908  28.053  1.00  0.00     0.037 A 
ATOM     49  C   UNL A   1      45.052  30.278  31.008  1.00  0.00     0.049 A 
ATOM     50  C   UNL A   1      44.128  25.301  28.596  1.00  0.00     0.074 A 
ATOM     51  C   UNL A   1      46.322  30.500  31.508  1.00  0.00     0.029 A 
ATOM     52  N   UNL A   1      45.054  29.006  30.457  1.00  0.00    -0.354 N 
ATOM     53  N   UNL A   1      44.485  26.409  29.200  1.00  0.00    -0.248 NA
ATOM     54  C   UNL A   1      45.215  24.323  28.445  1.00  0.00     0.031 C 
ATOM     55  C   UNL A   1      47.103  29.374  31.230  1.00  0.00     0.029 A 
ATOM     56  C   UNL A   1      46.306  28.433  30.598  1.00  0.00     0.049 A 
ATOM     57  H   UNL A   1      44.279  28.574  30.029  1.00  0.00     0.167 HD
ATOM     58  C   UNL A   1      45.825  26.247  29.531  1.00  0.00     0.074 A 
ATOM     59  C   UNL A   1      46.211  24.928  29.074  1.00  0.00     0.031 C 
ATOM     60  C   UNL A   1      46.663  27.111  30.154  1.00  0.00     0.037 A 
BRANCH  47  61
ATOM     61  C   UNL A   1      44.060  32.508  31.666  1.00  0.00     0.057 A 
ATOM     62  C   UNL A   1      44.047  32.675  33.057  1.00  0.00     0.134 A 
ATOM     63  C   UNL A   1      44.247  33.651  30.881  1.00  0.00     0.134 A 
ATOM     64  F   UNL A   1      43.856  31.621  33.867  1.00  0.00    -0.206 F 
ATOM     65  C   UNL A   1      44.189  33.932  33.645  1.00  0.00     0.040 A 
ATOM     66  C   UNL A   1      44.419  34.912  31.457  1.00  0.00     0.040 A 
ATOM     67  F   UNL A   1      44.274  33.564  29.542  1.00  0.00    -0.206 F 
ATOM     68  C   UNL A   1      44.384  35.055  32.843  1.00  0.00     0.006 A 
ENDBRANCH  47  61
BRANCH  48  69
ATOM     69  C   UNL A   1      42.589  23.587  27.400  1.00  0.00     0.057 A 
ATOM     70  C   UNL A   1      42.281  22.449  28.156  1.00  0.00     0.134 A 
ATOM     71  C   UNL A   1      42.739  23.420  26.018  1.00  0.00     0.134 A 
ATOM     72  F   UNL A   1      42.142  22.539  29.487  1.00  0.00    -0.206 F 
ATOM     73  C   UNL A   1      42.163  21.188  27.568  1.00  0.00     0.040 A 
ATOM     74  C   UNL A   1      42.595  22.171  25.412  1.00  0.00     0.040 A 
ATOM     75  F   UNL A   1      43.023  24.471  25.236  1.00  0.00    -0.206 F 
ATOM     76  C   UNL A   1      42.317  21.048  26.190  1.00  0.00     0.006 A 
ENDBRANCH  48  69
BRANCH  60  77
ATOM     77  C   UNL A   1      48.060  26.638  30.421  1.00  0.00     0.057 A 
ATOM     78  C   UNL A   1      48.389  25.913  31.574  1.00  0.00     0.134 A 
ATOM     79  C   UNL A   1      49.081  26.876  29.491  1.00  0.00     0.134 A 
ATOM     80  F   UNL A   1      47.459  25.664  32.508  1.00  0.00    -0.206 F 
ATOM     81  C   UNL A   1      49.690  25.465  31.805  1.00  0.00     0.040 A 
ATOM     82  C   UNL A   1      50.378  26.409  29.698  1.00  0.00     0.040 A 
ATOM     83  F   UNL A   1      48.829  27.555  28.362  1.00  0.00    -0.206 F 
ATOM     84  C   UNL A   1      50.687  25.706  30.861  1.00  0.00     0.006 A 
ENDBRANCH  60  77
ENDBRANCH  34  35
ENDBRANCH  26  29
ENDBRANCH  24  25
ENDBRANCH   1  24
TORSDOF 13
ENDMDL
MODEL 2
REMARK VINA RESULT:      -9.5      4.353      8.642
REMARK SMILES Cc1cc(C(=O)N2C[C@@H](C(=O)NCCCNC(=O)c3ccc(-c4c5nc(c(-c6c(F)cccc6F)c6ccc([nH]6)c(-c6c(F)cccc6F)c6nc(c(-c7c(F)cccc7F)c7ccc4[nH]7)C=C6)C=C5)cc3)[C@H](C3CC3)C2)sc1C
REMARK SMILES IDX 14 1 13 2 12 3 10 4 11 5 9 7 7 8 8 9 77 10 73 11 5 12 6 13
REMARK SMILES IDX 4 14 1 15 2 16 3 17 79 18 78 19 80 20 74 21 75 22 76 23
REMARK SMILES IDX 15 24 16 25 17 26 18 28 19 29 20 30 72 31 21 32 71 33 22 34
REMARK SMILES IDX 23 35 24 36 65 37 25 38 70 39 64 40 66 41 26 42 69 43 63 44
REMARK SMILES IDX 62 45 27 47 53 48 36 49 52 50 37 51 40 52 51 53 67 54 38 55
REMARK SMILES IDX 39 56 50 58 68 59 41 60 28 61 29 62 34 63 30 64 31 65 33 66
REMARK SMILES IDX 35 67 32 68 54 69 55 70 60 71 56 72 57 73 59 74 61 75 58 76
REMARK SMILES IDX 42 77 43 78 48 79 44 80 45 81 47 82 49 83 46 84
REMARK H PARENT 12 6 16 27 66 46 40 57
REMARK Flexibility Score: inf
ROOT
ATOM      1  C   UNL A   1      34.729  21.782  26.483  1.00  0.00     0.042 C 
ENDROOT
BRANCH   1   2
ATOM      2  C   UNL A   1      34.221  22.820  27.461  1.00  0.00     0.117 C 
BRANCH   2   3
ATOM      3  N   UNL A   1      32.782  22.810  27.635  1.00  0.00    -0.356 N 
ATOM      4  C   UNL A   1      31.830  23.564  27.014  1.00  0.00     0.225 C 
ATOM      5  O   UNL A   1      30.651  23.275  27.221  1.00  0.00    -0.275 OA
ATOM      6  H   UNL A   1      32.443  22.165  28.298  1.00  0.00     0.163 HD
BRANCH   4   7
ATOM      7  C   UNL A   1      32.230  24.721  26.119  1.00  0.00     0.103 C 
ATOM      8  N   UNL A   1      31.435  26.676  25.160  1.00  0.00    -0.337 N 
ATOM      9  C   UNL A   1      31.267  25.884  26.358  1.00  0.00     0.133 C 
ATOM     10  C   UNL A   1      31.583  25.798  24.023  1.00  0.00     0.124 C 
ATOM     11  C   UNL A   1      32.051  24.439  24.603  1.00  0.00     0.026 C 
BRANCH   8  12
ATOM     12  C   UNL A   1      31.478  28.047  24.981  1.00  0.00     0.263 C 
ATOM     13  O   UNL A   1      30.732  28.557  24.141  1.00  0.00    -0.268 OA
BRANCH  12  14
ATOM     14  C   UNL A   1      32.461  28.862  25.690  1.00  0.00     0.093 A 
ATOM     15  C   UNL A   1      35.700  29.059  27.609  1.00  0.00     0.045 C 
ATOM     16  C   UNL A   1      34.381  29.351  26.974  1.00  0.00    -0.037 A 
ATOM     17  C   UNL A   1      33.716  28.438  26.089  1.00  0.00     0.029 A 
ATOM     18  C   UNL A   1      33.615  30.487  27.171  1.00  0.00     0.005 A 
ATOM     19  S   UNL A   1      32.103  30.380  26.386  1.00  0.00    -0.135 S 
ATOM     20  C   UNL A   1      33.929  31.691  27.998  1.00  0.00     0.056 C 
ENDBRANCH  12  14
ENDBRANCH   8  12
BRANCH  11  21
ATOM     21  C   UNL A   1      33.237  23.943  23.799  1.00  0.00    -0.005 C 
ATOM     22  C   UNL A   1      33.279  22.649  23.027  1.00  0.00     0.004 C 
ATOM     23  C   UNL A   1      33.250  23.967  22.295  1.00  0.00     0.004 C 
ENDBRANCH  11  21
ENDBRANCH   4   7
ENDBRANCH   2   3
ENDBRANCH   1   2
BRANCH   1  24
ATOM     24  C   UNL A   1      35.954  22.229  25.705  1.00  0.00     0.118 C 
BRANCH  24  25
ATOM     25  N   UNL A   1      36.963  21.184  25.561  1.00  0.00    -0.352 N 
ATOM     26  C   UNL A   1      38.328  21.212  25.741  1.00  0.00     0.251 C 
ATOM     27  H   UNL A   1      36.606  20.308  25.288  1.00  0.00     0.163 HD
ATOM     28  O   UNL A   1      39.006  20.253  25.407  1.00  0.00    -0.269 OA
BRANCH  26  29
ATOM     29  C   UNL A   1      38.976  22.415  26.309  1.00  0.00     0.039 A 
ATOM     30  C   UNL A   1      40.054  22.259  27.184  1.00  0.00     0.014 A 
ATOM     31  C   UNL A   1      38.533  23.693  25.973  1.00  0.00     0.014 A 
ATOM     32  C   UNL A   1      40.744  23.385  27.638  1.00  0.00     0.010 A 
ATOM     33  C   UNL A   1      39.292  24.800  26.319  1.00  0.00     0.010 A 
ATOM     34  C   UNL A   1      40.403  24.662  27.164  1.00  0.00    -0.014 A 
BRANCH  34  35
ATOM     35  C   UNL A   1      41.170  25.874  27.547  1.00  0.00     0.031 A 
ATOM     36  C   UNL A   1      40.498  26.964  28.339  1.00  0.00     0.074 A 
ATOM     37  C   UNL A   1      42.435  26.033  27.111  1.00  0.00     0.049 A 
ATOM     38  N   UNL A   1      40.946  28.149  28.663  1.00  0.00    -0.248 NA
ATOM     39  C   UNL A   1      39.122  26.699  28.794  1.00  0.00     0.031 C 
ATOM     40  C   UNL A   1      43.180  25.075  26.290  1.00  0.00     0.029 A 
ATOM     41  N   UNL A   1      43.317  27.069  27.290  1.00  0.00    -0.354 N 
ATOM     42  C   UNL A   1      39.907  28.771  29.344  1.00  0.00     0.074 A 
ATOM     43  C   UNL A   1      38.781  27.864  29.322  1.00  0.00     0.031 C 
ATOM     44  C   UNL A   1      44.413  25.555  26.061  1.00  0.00     0.029 A 
ATOM     45  C   UNL A   1      44.531  26.872  26.678  1.00  0.00     0.049 A 
ATOM     46  H   UNL A   1      43.100  27.877  27.808  1.00  0.00     0.167 HD
ATOM     47  C   UNL A   1      39.901  29.973  29.966  1.00  0.00     0.037 A 
ATOM     48  C   UNL A   1      45.615  27.669  26.616  1.00  0.00     0.037 A 
ATOM     49  C   UNL A   1      41.032  30.861  30.012  1.00  0.00     0.049 A 
ATOM     50  C   UNL A   1      45.579  29.005  27.306  1.00  0.00     0.074 A 
ATOM     51  C   UNL A   1      41.142  32.085  30.645  1.00  0.00     0.029 A 
ATOM     52  N   UNL A   1      42.254  30.608  29.410  1.00  0.00    -0.354 N 
ATOM     53  N   UNL A   1      44.605  29.557  27.990  1.00  0.00    -0.248 NA
ATOM     54  C   UNL A   1      46.794  29.827  27.222  1.00  0.00     0.031 C 
ATOM     55  C   UNL A   1      42.422  32.590  30.398  1.00  0.00     0.029 A 
ATOM     56  C   UNL A   1      43.123  31.659  29.649  1.00  0.00     0.049 A 
ATOM     57  H   UNL A   1      42.472  29.802  28.889  1.00  0.00     0.167 HD
ATOM     58  C   UNL A   1      45.102  30.772  28.445  1.00  0.00     0.074 A 
ATOM     59  C   UNL A   1      46.467  30.869  27.972  1.00  0.00     0.031 C 
ATOM     60  C   UNL A   1      44.485  31.725  29.185  1.00  0.00     0.037 A 
BRANCH  47  61
ATOM     61  C   UNL A   1      38.637  30.382  30.665  1.00  0.00     0.057 A 
ATOM     62  C   UNL A   1      38.389  30.025  31.997  1.00  0.00     0.134 A 
ATOM     63  C   UNL A   1      37.674  31.163  30.016  1.00  0.00     0.134 A 
ATOM     64  F   UNL A   1      39.265  29.264  32.672  1.00  0.00    -0.206 F 
ATOM     65  C   UNL A   1      37.216  30.408  32.651  1.00  0.00     0.040 A 
ATOM     66  C   UNL A   1      36.510  31.577  30.668  1.00  0.00     0.040 A 
ATOM     67  F   UNL A   1      37.849  31.544  28.741  1.00  0.00    -0.206 F 
ATOM     68  C   UNL A   1      36.277  31.194  31.987  1.00  0.00     0.006 A 
ENDBRANCH  47  61
BRANCH  48  69
ATOM     69  C   UNL A   1      46.834  27.227  25.891  1.00  0.00     0.057 A 
ATOM     70  C   UNL A   1      47.002  27.505  24.528  1.00  0.00     0.134 A 
ATOM     71  C   UNL A   1      47.841  26.491  26.526  1.00  0.00     0.134 A 
ATOM     72  F   UNL A   1      46.065  28.192  23.859  1.00  0.00    -0.206 F 
ATOM     73  C   UNL A   1      48.109  27.039  23.816  1.00  0.00     0.040 A 
ATOM     74  C   UNL A   1      48.967  26.043  25.833  1.00  0.00     0.040 A 
ATOM     75  F   UNL A   1      47.747  26.200  27.831  1.00  0.00    -0.206 F 
ATOM     76  C   UNL A   1      49.097  26.307  24.470  1.00  0.00     0.006 A 
ENDBRANCH  48  69
BRANCH  60  77
ATOM     77  C   UNL A   1      45.296  32.926  29.569  1.00  0.00     0.057 A 
ATOM     78  C   UNL A   1      45.303  34.093  28.794  1.00  0.00     0.134 A 
ATOM     79  C   UNL A   1      46.047  32.928  30.752  1.00  0.00     0.134 A 
ATOM     80  F   UNL A   1      44.614  34.150  27.645  1.00  0.00    -0.206 F 
ATOM     81  C   UNL A   1      46.050  35.210  29.169  1.00  0.00     0.040 A 
ATOM     82  C   UNL A   1      46.775  34.048  31.150  1.00  0.00     0.040 A 
ATOM     83  F   UNL A   1      46.074  31.845  31.543  1.00  0.00    -0.206 F 
ATOM     84  C   UNL A   1      46.783  35.192  30.355  1.00  0.00     0.006 A 
ENDBRANCH  60  77
ENDBRANCH  34  35
ENDBRANCH  26  29
ENDBRANCH  24  25
ENDBRANCH   1  24
TORSDOF 13
ENDMDL
MODEL 3
REMARK VINA RESULT:      -9.5      4.391     10.209
REMARK SMILES Cc1cc(C(=O)N2C[C@@H](C(=O)NCCCNC(=O)c3ccc(-c4c5nc(c(-c6c(F)cccc6F)c6ccc([nH]6)c(-c6c(F)cccc6F)c6nc(c(-c7c(F)cccc7F)c7ccc4[nH]7)C=C6)C=C5)cc3)[C@H](C3CC3)C2)sc1C
REMARK SMILES IDX 14 1 13 2 12 3 10 4 11 5 9 7 7 8 8 9 77 10 73 11 5 12 6 13
REMARK SMILES IDX 4 14 1 15 2 16 3 17 79 18 78 19 80 20 74 21 75 22 76 23
REMARK SMILES IDX 15 24 16 25 17 26 18 28 19 29 20 30 72 31 21 32 71 33 22 34
REMARK SMILES IDX 23 35 24 36 65 37 25 38 70 39 64 40 66 41 26 42 69 43 63 44
REMARK SMILES IDX 62 45 27 47 53 48 36 49 52 50 37 51 40 52 51 53 67 54 38 55
REMARK SMILES IDX 39 56 50 58 68 59 41 60 28 61 29 62 34 63 30 64 31 65 33 66
REMARK SMILES IDX 35 67 32 68 54 69 55 70 60 71 56 72 57 73 59 74 61 75 58 76
REMARK SMILES IDX 42 77 43 78 48 79 44 80 45 81 47 82 49 83 46 84
REMARK H PARENT 12 6 16 27 66 46 40 57
REMARK Flexibility Score: inf
ROOT
ATOM      1  C   UNL A   1      38.005  19.933  24.918  1.00  0.00     0.042 C 
ENDROOT
BRANCH   1   2
ATOM      2  C   UNL A   1      37.197  21.163  24.564  1.00  0.00     0.117 C 
BRANCH   2   3
ATOM      3  N   UNL A   1      36.799  21.956  25.711  1.00  0.00    -0.356 N 
ATOM      4  C   UNL A   1      35.752  22.820  25.844  1.00  0.00     0.225 C 
ATOM      5  O   UNL A   1      35.527  23.273  26.967  1.00  0.00    -0.275 OA
ATOM      6  H   UNL A   1      37.367  21.855  26.509  1.00  0.00     0.163 HD
BRANCH   4   7
ATOM      7  C   UNL A   1      34.920  23.210  24.637  1.00  0.00     0.103 C 
ATOM      8  N   UNL A   1      33.602  24.910  23.774  1.00  0.00    -0.337 N 
ATOM      9  C   UNL A   1      34.759  24.731  24.621  1.00  0.00     0.133 C 
ATOM     10  C   UNL A   1      32.641  23.868  24.049  1.00  0.00     0.124 C 
ATOM     11  C   UNL A   1      33.449  22.715  24.697  1.00  0.00     0.026 C 
BRANCH   8  12
ATOM     12  C   UNL A   1      33.324  25.864  22.811  1.00  0.00     0.263 C 
ATOM     13  O   UNL A   1      33.779  25.707  21.674  1.00  0.00    -0.268 OA
BRANCH  12  14
ATOM     14  C   UNL A   1      32.602  27.086  23.157  1.00  0.00     0.093 A 
ATOM     15  C   UNL A   1      31.936  29.838  25.646  1.00  0.00     0.045 C 
ATOM     16  C   UNL A   1      31.886  28.903  24.483  1.00  0.00    -0.037 A 
ATOM     17  C   UNL A   1      32.891  27.911  24.229  1.00  0.00     0.029 A 
ATOM     18  C   UNL A   1      30.878  28.831  23.537  1.00  0.00     0.005 A 
ATOM     19  S   UNL A   1      31.110  27.531  22.455  1.00  0.00    -0.135 S 
ATOM     20  C   UNL A   1      29.653  29.678  23.414  1.00  0.00     0.056 C 
ENDBRANCH  12  14
ENDBRANCH   8  12
BRANCH  11  21
ATOM     21  C   UNL A   1      33.081  21.412  24.016  1.00  0.00    -0.005 C 
ATOM     22  C   UNL A   1      33.598  20.052  24.411  1.00  0.00     0.004 C 
ATOM     23  C   UNL A   1      32.154  20.412  24.650  1.00  0.00     0.004 C 
ENDBRANCH  11  21
ENDBRANCH   4   7
ENDBRANCH   2   3
ENDBRANCH   1   2
BRANCH   1  24
ATOM     24  C   UNL A   1      39.057  20.183  25.984  1.00  0.00     0.118 C 
BRANCH  24  25
ATOM     25  N   UNL A   1      40.209  19.293  25.882  1.00  0.00    -0.352 N 
ATOM     26  C   UNL A   1      41.555  19.530  26.049  1.00  0.00     0.251 C 
ATOM     27  H   UNL A   1      39.985  18.361  25.655  1.00  0.00     0.163 HD
ATOM     28  O   UNL A   1      42.367  18.666  25.757  1.00  0.00    -0.269 OA
BRANCH  26  29
ATOM     29  C   UNL A   1      42.019  20.841  26.554  1.00  0.00     0.039 A 
ATOM     30  C   UNL A   1      42.416  21.821  25.640  1.00  0.00     0.014 A 
ATOM     31  C   UNL A   1      42.052  21.111  27.921  1.00  0.00     0.014 A 
ATOM     32  C   UNL A   1      42.750  23.098  26.098  1.00  0.00     0.010 A 
ATOM     33  C   UNL A   1      42.259  22.409  28.364  1.00  0.00     0.010 A 
ATOM     34  C   UNL A   1      42.619  23.418  27.458  1.00  0.00    -0.014 A 
BRANCH  34  35
ATOM     35  C   UNL A   1      42.871  24.787  27.972  1.00  0.00     0.031 A 
ATOM     36  C   UNL A   1      44.263  25.185  28.388  1.00  0.00     0.074 A 
ATOM     37  C   UNL A   1      41.842  25.639  28.147  1.00  0.00     0.049 A 
ATOM     38  N   UNL A   1      44.671  26.279  28.977  1.00  0.00    -0.248 NA
ATOM     39  C   UNL A   1      45.333  24.202  28.143  1.00  0.00     0.031 C 
ATOM     40  C   UNL A   1      40.438  25.355  27.834  1.00  0.00     0.029 A 
ATOM     41  N   UNL A   1      41.816  26.919  28.642  1.00  0.00    -0.354 N 
ATOM     42  C   UNL A   1      46.034  26.110  29.183  1.00  0.00     0.074 A 
ATOM     43  C   UNL A   1      46.371  24.780  28.726  1.00  0.00     0.031 C 
ATOM     44  C   UNL A   1      39.695  26.436  28.119  1.00  0.00     0.029 A 
ATOM     45  C   UNL A   1      40.559  27.473  28.674  1.00  0.00     0.049 A 
ATOM     46  H   UNL A   1      42.622  27.395  28.945  1.00  0.00     0.167 HD
ATOM     47  C   UNL A   1      46.933  26.995  29.673  1.00  0.00     0.037 A 
ATOM     48  C   UNL A   1      40.149  28.678  29.112  1.00  0.00     0.037 A 
ATOM     49  C   UNL A   1      46.601  28.327  30.099  1.00  0.00     0.049 A 
ATOM     50  C   UNL A   1      41.167  29.639  29.662  1.00  0.00     0.074 A 
ATOM     51  C   UNL A   1      47.442  29.315  30.578  1.00  0.00     0.029 A 
ATOM     52  N   UNL A   1      45.322  28.861  30.083  1.00  0.00    -0.354 N 
ATOM     53  N   UNL A   1      42.461  29.483  29.802  1.00  0.00    -0.248 NA
ATOM     54  C   UNL A   1      40.669  30.948  30.109  1.00  0.00     0.031 C 
ATOM     55  C   UNL A   1      46.667  30.438  30.884  1.00  0.00     0.029 A 
ATOM     56  C   UNL A   1      45.349  30.164  30.552  1.00  0.00     0.049 A 
ATOM     57  H   UNL A   1      44.514  28.386  29.783  1.00  0.00     0.167 HD
ATOM     58  C   UNL A   1      42.935  30.682  30.320  1.00  0.00     0.074 A 
ATOM     59  C   UNL A   1      41.791  31.560  30.455  1.00  0.00     0.031 C 
ATOM     60  C   UNL A   1      44.202  31.026  30.658  1.00  0.00     0.037 A 
BRANCH  47  61
ATOM     61  C   UNL A   1      48.366  26.552  29.749  1.00  0.00     0.057 A 
ATOM     62  C   UNL A   1      49.259  26.775  28.693  1.00  0.00     0.134 A 
ATOM     63  C   UNL A   1      48.867  25.926  30.896  1.00  0.00     0.134 A 
ATOM     64  F   UNL A   1      48.838  27.357  27.558  1.00  0.00    -0.206 F 
ATOM     65  C   UNL A   1      50.592  26.368  28.763  1.00  0.00     0.040 A 
ATOM     66  C   UNL A   1      50.206  25.540  30.990  1.00  0.00     0.040 A 
ATOM     67  F   UNL A   1      48.069  25.685  31.948  1.00  0.00    -0.206 F 
ATOM     68  C   UNL A   1      51.071  25.756  29.919  1.00  0.00     0.006 A 
ENDBRANCH  47  61
BRANCH  48  69
ATOM     69  C   UNL A   1      38.715  29.060  29.036  1.00  0.00     0.057 A 
ATOM     70  C   UNL A   1      38.168  29.571  27.852  1.00  0.00     0.134 A 
ATOM     71  C   UNL A   1      37.867  28.958  30.146  1.00  0.00     0.134 A 
ATOM     72  F   UNL A   1      38.932  29.709  26.760  1.00  0.00    -0.206 F 
ATOM     73  C   UNL A   1      36.840  29.997  27.784  1.00  0.00     0.040 A 
ATOM     74  C   UNL A   1      36.530  29.354  30.083  1.00  0.00     0.040 A 
ATOM     75  F   UNL A   1      38.326  28.468  31.306  1.00  0.00    -0.206 F 
ATOM     76  C   UNL A   1      36.016  29.887  28.901  1.00  0.00     0.006 A 
ENDBRANCH  48  69
BRANCH  60  77
ATOM     77  C   UNL A   1      44.421  32.424  31.156  1.00  0.00     0.057 A 
ATOM     78  C   UNL A   1      44.421  32.732  32.522  1.00  0.00     0.134 A 
ATOM     79  C   UNL A   1      44.677  33.466  30.255  1.00  0.00     0.134 A 
ATOM     80  F   UNL A   1      44.171  31.780  33.433  1.00  0.00    -0.206 F 
ATOM     81  C   UNL A   1      44.642  34.034  32.974  1.00  0.00     0.040 A 
ATOM     82  C   UNL A   1      44.926  34.765  30.697  1.00  0.00     0.040 A 
ATOM     83  F   UNL A   1      44.701  33.235  28.934  1.00  0.00    -0.206 F 
ATOM     84  C   UNL A   1      44.903  35.052  32.060  1.00  0.00     0.006 A 
ENDBRANCH  60  77
ENDBRANCH  34  35
ENDBRANCH  26  29
ENDBRANCH  24  25
ENDBRANCH   1  24
TORSDOF 13
ENDMDL
