MODEL 1
REMARK VINA RESULT:     -13.8      0.000      0.000
REMARK SMILES O=C(NCCCNC(=O)c1cc(N2C(=O)[C@H]3[C@@H]4C=C[C@@H]([C@@H]5C[C@H]45)[C@@H]3C2=O)ccc1Cl)c1ccc(-c2c3nc(c(-c4c(F)cccc4F)c4ccc([nH]4)c(-c4c(F)cccc4F)c4nc(c(-c5c(F)cccc5F)c5ccc2[nH]5)C=C4)C=C3)cc1
REMARK SMILES IDX 4 1 3 2 1 3 2 4 31 6 32 7 84 8 33 9 83 10 34 11 35 12 36 13
REMARK SMILES IDX 77 14 37 15 82 16 76 17 78 18 38 19 81 20 75 21 74 22 39 24
REMARK SMILES IDX 65 25 48 26 64 27 49 28 52 29 63 30 79 31 50 32 51 33 62 35
REMARK SMILES IDX 80 36 53 37 40 38 41 39 46 40 42 41 43 42 45 43 47 44 44 45
REMARK SMILES IDX 66 46 67 47 72 48 68 49 69 50 71 51 73 52 70 53 54 54 55 55
REMARK SMILES IDX 60 56 56 57 57 58 59 59 61 60 58 61 5 62 6 63 7 64 8 65 9 67
REMARK SMILES IDX 10 68 11 69 29 70 12 71 28 72 30 73 27 74 13 75 14 76 25 77
REMARK SMILES IDX 15 78 16 79 24 80 26 81 17 82 20 83 18 84 23 85 19 86 21 87
REMARK SMILES IDX 22 88
REMARK H PARENT 3 5 78 23 52 34 7 66
REMARK Flexibility Score: inf
ROOT
ATOM      1  C   UNL A   1      38.405  20.170  25.456  1.00  0.00     0.118 C 
ENDROOT
BRANCH   1   2
ATOM      2  N   UNL A   1      39.521  19.247  25.625  1.00  0.00    -0.352 N 
ATOM      3  O   UNL A   1      41.660  18.602  25.938  1.00  0.00    -0.269 OA
ATOM      4  C   UNL A   1      40.813  19.486  26.027  1.00  0.00     0.251 C 
ATOM      5  H   UNL A   1      39.316  18.306  25.420  1.00  0.00     0.163 HD
BRANCH   4   6
ATOM      6  C   UNL A   1      41.187  20.817  26.546  1.00  0.00     0.039 A 
ATOM      7  C   UNL A   1      41.623  21.814  25.674  1.00  0.00     0.014 A 
ATOM      8  C   UNL A   1      41.096  21.076  27.916  1.00  0.00     0.014 A 
ATOM      9  C   UNL A   1      42.142  22.994  26.181  1.00  0.00     0.010 A 
ATOM     10  C   UNL A   1      41.498  22.320  28.415  1.00  0.00     0.010 A 
ATOM     11  C   UNL A   1      42.049  23.279  27.552  1.00  0.00    -0.014 A 
BRANCH  11  12
ATOM     12  C   UNL A   1      42.436  24.632  28.023  1.00  0.00     0.031 A 
ATOM     13  C   UNL A   1      41.411  25.699  28.281  1.00  0.00     0.074 A 
ATOM     14  C   UNL A   1      43.743  24.872  28.245  1.00  0.00     0.049 A 
ATOM     15  N   UNL A   1      41.594  26.925  28.702  1.00  0.00    -0.248 NA
ATOM     16  C   UNL A   1      40.002  25.356  28.030  1.00  0.00     0.031 C 
ATOM     17  C   UNL A   1      44.827  23.910  28.016  1.00  0.00     0.029 A 
ATOM     18  N   UNL A   1      44.387  25.981  28.728  1.00  0.00    -0.354 N 
ATOM     19  C   UNL A   1      40.333  27.506  28.750  1.00  0.00     0.074 A 
ATOM     20  C   UNL A   1      39.393  26.505  28.294  1.00  0.00     0.031 C 
ATOM     21  C   UNL A   1      45.988  24.451  28.406  1.00  0.00     0.029 A 
ATOM     22  C   UNL A   1      45.747  25.822  28.830  1.00  0.00     0.049 A 
ATOM     23  H   UNL A   1      43.919  26.811  28.978  1.00  0.00     0.167 HD
ATOM     24  C   UNL A   1      40.001  28.759  29.141  1.00  0.00     0.037 A 
ATOM     25  C   UNL A   1      46.704  26.694  29.193  1.00  0.00     0.037 A 
ATOM     26  C   UNL A   1      40.947  29.741  29.606  1.00  0.00     0.049 A 
ATOM     27  C   UNL A   1      46.301  28.084  29.585  1.00  0.00     0.074 A 
ATOM     28  C   UNL A   1      40.700  31.023  30.067  1.00  0.00     0.029 A 
ATOM     29  N   UNL A   1      42.320  29.555  29.664  1.00  0.00    -0.354 N 
ATOM     30  N   UNL A   1      45.100  28.604  29.667  1.00  0.00    -0.248 NA
ATOM     31  C   UNL A   1      47.386  29.012  29.929  1.00  0.00     0.031 C 
ATOM     32  C   UNL A   1      41.927  31.633  30.347  1.00  0.00     0.029 A 
ATOM     33  C   UNL A   1      42.935  30.711  30.121  1.00  0.00     0.049 A 
ATOM     34  H   UNL A   1      42.789  28.725  29.418  1.00  0.00     0.167 HD
ATOM     35  C   UNL A   1      45.283  29.912  30.091  1.00  0.00     0.074 A 
ATOM     36  C   UNL A   1      46.708  30.096  30.276  1.00  0.00     0.031 C 
ATOM     37  C   UNL A   1      44.355  30.875  30.304  1.00  0.00     0.037 A 
BRANCH  24  38
ATOM     38  C   UNL A   1      38.555  29.162  29.071  1.00  0.00     0.057 A 
ATOM     39  C   UNL A   1      37.714  29.114  30.189  1.00  0.00     0.134 A 
ATOM     40  C   UNL A   1      38.023  29.693  27.887  1.00  0.00     0.134 A 
ATOM     41  F   UNL A   1      38.157  28.610  31.351  1.00  0.00    -0.206 F 
ATOM     42  C   UNL A   1      36.396  29.570  30.132  1.00  0.00     0.040 A 
ATOM     43  C   UNL A   1      36.715  30.175  27.824  1.00  0.00     0.040 A 
ATOM     44  F   UNL A   1      38.776  29.777  26.780  1.00  0.00    -0.206 F 
ATOM     45  C   UNL A   1      35.896  30.113  28.949  1.00  0.00     0.006 A 
ENDBRANCH  24  38
BRANCH  25  46
ATOM     46  C   UNL A   1      48.132  26.289  29.167  1.00  0.00     0.057 A 
ATOM     47  C   UNL A   1      48.916  26.455  28.020  1.00  0.00     0.134 A 
ATOM     48  C   UNL A   1      48.742  25.705  30.285  1.00  0.00     0.134 A 
ATOM     49  F   UNL A   1      48.386  26.997  26.913  1.00  0.00    -0.206 F 
ATOM     50  C   UNL A   1      50.244  26.029  27.974  1.00  0.00     0.040 A 
ATOM     51  C   UNL A   1      50.078  25.306  30.265  1.00  0.00     0.040 A 
ATOM     52  F   UNL A   1      48.050  25.527  31.420  1.00  0.00    -0.206 F 
ATOM     53  C   UNL A   1      50.829  25.455  29.101  1.00  0.00     0.006 A 
ENDBRANCH  25  46
BRANCH  37  54
ATOM     54  C   UNL A   1      44.855  32.203  30.795  1.00  0.00     0.057 A 
ATOM     55  C   UNL A   1      45.021  32.474  32.159  1.00  0.00     0.134 A 
ATOM     56  C   UNL A   1      45.189  33.216  29.888  1.00  0.00     0.134 A 
ATOM     57  F   UNL A   1      44.703  31.551  33.080  1.00  0.00    -0.206 F 
ATOM     58  C   UNL A   1      45.474  33.716  32.605  1.00  0.00     0.040 A 
ATOM     59  C   UNL A   1      45.673  34.450  30.320  1.00  0.00     0.040 A 
ATOM     60  F   UNL A   1      45.060  33.019  28.567  1.00  0.00    -0.206 F 
ATOM     61  C   UNL A   1      45.809  34.707  31.683  1.00  0.00     0.006 A 
ENDBRANCH  37  54
ENDBRANCH  11  12
ENDBRANCH   4   6
ENDBRANCH   1   2
BRANCH   1  62
ATOM     62  C   UNL A   1      37.217  19.540  24.750  1.00  0.00     0.042 C 
BRANCH  62  63
ATOM     63  C   UNL A   1      35.922  20.305  24.949  1.00  0.00     0.118 C 
BRANCH  63  64
ATOM     64  N   UNL A   1      34.818  19.429  25.308  1.00  0.00    -0.352 N 
ATOM     65  C   UNL A   1      33.472  19.640  25.182  1.00  0.00     0.252 C 
ATOM     66  H   UNL A   1      35.075  18.562  25.697  1.00  0.00     0.163 HD
ATOM     67  O   UNL A   1      32.668  18.835  25.642  1.00  0.00    -0.269 OA
BRANCH  65  68
ATOM     68  C   UNL A   1      32.977  20.867  24.540  1.00  0.00     0.060 A 
ATOM     69  C   UNL A   1      33.071  22.051  25.288  1.00  0.00     0.042 A 
ATOM     70  C   UNL A   1      32.396  20.869  23.266  1.00  0.00     0.053 A 
ATOM     71  C   UNL A   1      32.563  23.239  24.763  1.00  0.00     0.053 A 
ATOM     72  C   UNL A   1      31.972  22.073  22.711  1.00  0.00     0.023 A 
ATOM     73  Cl  UNL A   1      32.138  19.437  22.333  1.00  0.00    -0.083 Cl
ATOM     74  C   UNL A   1      32.035  23.245  23.464  1.00  0.00     0.028 A 
BRANCH  71  75
ATOM     75  N   UNL A   1      32.647  24.450  25.474  1.00  0.00    -0.250 N 
ATOM     76  C   UNL A   1      33.707  25.358  25.309  1.00  0.00     0.238 C 
ATOM     77  C   UNL A   1      31.536  25.035  26.117  1.00  0.00     0.238 C 
ATOM     78  O   UNL A   1      34.727  25.258  24.650  1.00  0.00    -0.274 OA
ATOM     79  C   UNL A   1      33.296  26.535  26.134  1.00  0.00     0.100 C 
ATOM     80  C   UNL A   1      31.786  26.480  25.888  1.00  0.00     0.100 C 
ATOM     81  O   UNL A   1      30.525  24.526  26.559  1.00  0.00    -0.274 OA
ATOM     82  C   UNL A   1      33.765  27.998  26.061  1.00  0.00     0.028 C 
ATOM     83  C   UNL A   1      31.155  27.799  26.299  1.00  0.00     0.028 C 
ATOM     84  C   UNL A   1      33.200  28.525  27.403  1.00  0.00    -0.026 C 
ATOM     85  C   UNL A   1      33.070  28.864  24.992  1.00  0.00     0.001 C 
ATOM     86  C   UNL A   1      31.863  28.363  27.540  1.00  0.00    -0.026 C 
ATOM     87  C   UNL A   1      31.541  28.772  25.123  1.00  0.00     0.001 C 
ATOM     88  C   UNL A   1      32.255  28.409  23.818  1.00  0.00     0.009 C 
ENDBRANCH  71  75
ENDBRANCH  65  68
ENDBRANCH  63  64
ENDBRANCH  62  63
ENDBRANCH   1  62
TORSDOF 11
ENDMDL
MODEL 2
REMARK VINA RESULT:     -13.7      0.239      6.065
REMARK SMILES O=C(NCCCNC(=O)c1cc(N2C(=O)[C@H]3[C@@H]4C=C[C@@H]([C@@H]5C[C@H]45)[C@@H]3C2=O)ccc1Cl)c1ccc(-c2c3nc(c(-c4c(F)cccc4F)c4ccc([nH]4)c(-c4c(F)cccc4F)c4nc(c(-c5c(F)cccc5F)c5ccc2[nH]5)C=C4)C=C3)cc1
REMARK SMILES IDX 4 1 3 2 1 3 2 4 31 6 32 7 84 8 33 9 83 10 34 11 35 12 36 13
REMARK SMILES IDX 77 14 37 15 82 16 76 17 78 18 38 19 81 20 75 21 74 22 39 24
REMARK SMILES IDX 65 25 48 26 64 27 49 28 52 29 63 30 79 31 50 32 51 33 62 35
REMARK SMILES IDX 80 36 53 37 40 38 41 39 46 40 42 41 43 42 45 43 47 44 44 45
REMARK SMILES IDX 66 46 67 47 72 48 68 49 69 50 71 51 73 52 70 53 54 54 55 55
REMARK SMILES IDX 60 56 56 57 57 58 59 59 61 60 58 61 5 62 6 63 7 64 8 65 9 67
REMARK SMILES IDX 10 68 11 69 29 70 12 71 28 72 30 73 27 74 13 75 14 76 25 77
REMARK SMILES IDX 15 78 16 79 24 80 26 81 17 82 20 83 18 84 23 85 19 86 21 87
REMARK SMILES IDX 22 88
REMARK H PARENT 3 5 78 23 52 34 7 66
REMARK Flexibility Score: inf
ROOT
ATOM      1  C   UNL A   1      38.417  20.224  25.519  1.00  0.00     0.118 C 
ENDROOT
BRANCH   1   2
ATOM      2  N   UNL A   1      39.541  19.300  25.623  1.00  0.00    -0.352 N 
ATOM      3  O   UNL A   1      41.691  18.655  25.848  1.00  0.00    -0.269 OA
ATOM      4  C   UNL A   1      40.844  19.532  25.992  1.00  0.00     0.251 C 
ATOM      5  H   UNL A   1      39.333  18.366  25.394  1.00  0.00     0.163 HD
BRANCH   4   6
ATOM      6  C   UNL A   1      41.230  20.847  26.543  1.00  0.00     0.039 A 
ATOM      7  C   UNL A   1      41.670  21.863  25.694  1.00  0.00     0.014 A 
ATOM      8  C   UNL A   1      41.146  21.073  27.919  1.00  0.00     0.014 A 
ATOM      9  C   UNL A   1      42.199  23.026  26.228  1.00  0.00     0.010 A 
ATOM     10  C   UNL A   1      41.559  22.300  28.447  1.00  0.00     0.010 A 
ATOM     11  C   UNL A   1      42.113  23.276  27.607  1.00  0.00    -0.014 A 
BRANCH  11  12
ATOM     12  C   UNL A   1      42.512  24.614  28.110  1.00  0.00     0.031 A 
ATOM     13  C   UNL A   1      43.946  24.951  28.402  1.00  0.00     0.074 A 
ATOM     14  C   UNL A   1      41.546  25.541  28.269  1.00  0.00     0.049 A 
ATOM     15  N   UNL A   1      44.450  26.078  28.838  1.00  0.00    -0.248 NA
ATOM     16  C   UNL A   1      44.945  23.891  28.188  1.00  0.00     0.031 C 
ATOM     17  C   UNL A   1      40.116  25.318  28.026  1.00  0.00     0.029 A 
ATOM     18  N   UNL A   1      41.612  26.855  28.652  1.00  0.00    -0.354 N 
ATOM     19  C   UNL A   1      45.816  25.862  28.968  1.00  0.00     0.074 A 
ATOM     20  C   UNL A   1      46.062  24.488  28.586  1.00  0.00     0.031 C 
ATOM     21  C   UNL A   1      39.452  26.465  28.214  1.00  0.00     0.029 A 
ATOM     22  C   UNL A   1      40.389  27.480  28.673  1.00  0.00     0.049 A 
ATOM     23  H   UNL A   1      42.454  27.307  28.888  1.00  0.00     0.167 HD
ATOM     24  C   UNL A   1      46.769  26.736  29.368  1.00  0.00     0.037 A 
ATOM     25  C   UNL A   1      40.050  28.725  29.052  1.00  0.00     0.037 A 
ATOM     26  C   UNL A   1      46.512  28.107  29.732  1.00  0.00     0.049 A 
ATOM     27  C   UNL A   1      41.129  29.653  29.525  1.00  0.00     0.074 A 
ATOM     28  C   UNL A   1      47.419  29.082  30.108  1.00  0.00     0.029 A 
ATOM     29  N   UNL A   1      45.256  28.694  29.773  1.00  0.00    -0.354 N 
ATOM     30  N   UNL A   1      42.421  29.447  29.600  1.00  0.00    -0.248 NA
ATOM     31  C   UNL A   1      40.702  30.985  29.971  1.00  0.00     0.031 C 
ATOM     32  C   UNL A   1      46.708  30.242  30.434  1.00  0.00     0.029 A 
ATOM     33  C   UNL A   1      45.363  30.009  30.200  1.00  0.00     0.049 A 
ATOM     34  H   UNL A   1      44.414  28.245  29.534  1.00  0.00     0.167 HD
ATOM     35  C   UNL A   1      42.965  30.628  30.082  1.00  0.00     0.074 A 
ATOM     36  C   UNL A   1      41.864  31.555  30.255  1.00  0.00     0.031 C 
ATOM     37  C   UNL A   1      44.258  30.919  30.361  1.00  0.00     0.037 A 
BRANCH  24  38
ATOM     38  C   UNL A   1      48.186  26.246  29.457  1.00  0.00     0.057 A 
ATOM     39  C   UNL A   1      49.088  26.380  28.394  1.00  0.00     0.134 A 
ATOM     40  C   UNL A   1      48.680  25.715  30.656  1.00  0.00     0.134 A 
ATOM     41  F   UNL A   1      48.681  26.873  27.215  1.00  0.00    -0.206 F 
ATOM     42  C   UNL A   1      50.425  25.997  28.518  1.00  0.00     0.040 A 
ATOM     43  C   UNL A   1      50.020  25.351  30.801  1.00  0.00     0.040 A 
ATOM     44  F   UNL A   1      47.873  25.566  31.718  1.00  0.00    -0.206 F 
ATOM     45  C   UNL A   1      50.897  25.491  29.728  1.00  0.00     0.006 A 
ENDBRANCH  24  38
BRANCH  25  46
ATOM     46  C   UNL A   1      38.627  29.149  29.035  1.00  0.00     0.057 A 
ATOM     47  C   UNL A   1      38.034  29.662  27.876  1.00  0.00     0.134 A 
ATOM     48  C   UNL A   1      37.831  29.069  30.186  1.00  0.00     0.134 A 
ATOM     49  F   UNL A   1      38.747  29.776  26.746  1.00  0.00    -0.206 F 
ATOM     50  C   UNL A   1      36.712  30.109  27.869  1.00  0.00     0.040 A 
ATOM     51  C   UNL A   1      36.499  29.479  30.184  1.00  0.00     0.040 A 
ATOM     52  F   UNL A   1      38.336  28.576  31.327  1.00  0.00    -0.206 F 
ATOM     53  C   UNL A   1      35.940  30.015  29.026  1.00  0.00     0.006 A 
ENDBRANCH  25  46
BRANCH  37  54
ATOM     54  C   UNL A   1      44.551  32.308  30.849  1.00  0.00     0.057 A 
ATOM     55  C   UNL A   1      44.578  32.624  32.213  1.00  0.00     0.134 A 
ATOM     56  C   UNL A   1      44.826  33.337  29.940  1.00  0.00     0.134 A 
ATOM     57  F   UNL A   1      44.307  31.686  33.134  1.00  0.00    -0.206 F 
ATOM     58  C   UNL A   1      44.839  33.921  32.655  1.00  0.00     0.040 A 
ATOM     59  C   UNL A   1      45.119  34.631  30.372  1.00  0.00     0.040 A 
ATOM     60  F   UNL A   1      44.823  33.101  28.620  1.00  0.00    -0.206 F 
ATOM     61  C   UNL A   1      45.118  34.928  31.733  1.00  0.00     0.006 A 
ENDBRANCH  37  54
ENDBRANCH  11  12
ENDBRANCH   4   6
ENDBRANCH   1   2
BRANCH   1  62
ATOM     62  C   UNL A   1      37.253  19.653  24.729  1.00  0.00     0.042 C 
BRANCH  62  63
ATOM     63  C   UNL A   1      35.953  20.404  24.944  1.00  0.00     0.118 C 
BRANCH  63  64
ATOM     64  N   UNL A   1      34.856  19.515  25.294  1.00  0.00    -0.352 N 
ATOM     65  C   UNL A   1      33.508  19.713  25.165  1.00  0.00     0.252 C 
ATOM     66  H   UNL A   1      35.122  18.649  25.679  1.00  0.00     0.163 HD
ATOM     67  O   UNL A   1      32.712  18.897  25.619  1.00  0.00    -0.269 OA
BRANCH  65  68
ATOM     68  C   UNL A   1      33.003  20.938  24.529  1.00  0.00     0.060 A 
ATOM     69  C   UNL A   1      33.084  22.119  25.283  1.00  0.00     0.042 A 
ATOM     70  C   UNL A   1      32.423  20.940  23.254  1.00  0.00     0.053 A 
ATOM     71  C   UNL A   1      32.566  23.304  24.763  1.00  0.00     0.053 A 
ATOM     72  C   UNL A   1      31.988  22.143  22.704  1.00  0.00     0.023 A 
ATOM     73  Cl  UNL A   1      32.180  19.511  22.314  1.00  0.00    -0.083 Cl
ATOM     74  C   UNL A   1      32.039  23.312  23.463  1.00  0.00     0.028 A 
BRANCH  71  75
ATOM     75  N   UNL A   1      32.638  24.513  25.480  1.00  0.00    -0.250 N 
ATOM     76  C   UNL A   1      33.699  25.423  25.334  1.00  0.00     0.238 C 
ATOM     77  C   UNL A   1      31.517  25.094  26.109  1.00  0.00     0.238 C 
ATOM     78  O   UNL A   1      34.728  25.327  24.689  1.00  0.00    -0.274 OA
ATOM     79  C   UNL A   1      33.274  26.597  26.157  1.00  0.00     0.100 C 
ATOM     80  C   UNL A   1      31.768  26.540  25.889  1.00  0.00     0.100 C 
ATOM     81  O   UNL A   1      30.500  24.582  26.534  1.00  0.00    -0.274 OA
ATOM     82  C   UNL A   1      33.741  28.061  26.097  1.00  0.00     0.028 C 
ATOM     83  C   UNL A   1      31.128  27.857  26.295  1.00  0.00     0.028 C 
ATOM     84  C   UNL A   1      33.156  28.582  27.432  1.00  0.00    -0.026 C 
ATOM     85  C   UNL A   1      33.062  28.930  25.021  1.00  0.00     0.001 C 
ATOM     86  C   UNL A   1      31.818  28.417  27.549  1.00  0.00    -0.026 C 
ATOM     87  C   UNL A   1      31.530  28.835  25.130  1.00  0.00     0.001 C 
ATOM     88  C   UNL A   1      32.264  28.478  23.833  1.00  0.00     0.009 C 
ENDBRANCH  71  75
ENDBRANCH  65  68
ENDBRANCH  63  64
ENDBRANCH  62  63
ENDBRANCH   1  62
TORSDOF 11
ENDMDL
MODEL 3
REMARK VINA RESULT:     -13.7      0.220      6.065
REMARK SMILES O=C(NCCCNC(=O)c1cc(N2C(=O)[C@H]3[C@@H]4C=C[C@@H]([C@@H]5C[C@H]45)[C@@H]3C2=O)ccc1Cl)c1ccc(-c2c3nc(c(-c4c(F)cccc4F)c4ccc([nH]4)c(-c4c(F)cccc4F)c4nc(c(-c5c(F)cccc5F)c5ccc2[nH]5)C=C4)C=C3)cc1
REMARK SMILES IDX 4 1 3 2 1 3 2 4 31 6 32 7 84 8 33 9 83 10 34 11 35 12 36 13
REMARK SMILES IDX 77 14 37 15 82 16 76 17 78 18 38 19 81 20 75 21 74 22 39 24
REMARK SMILES IDX 65 25 48 26 64 27 49 28 52 29 63 30 79 31 50 32 51 33 62 35
REMARK SMILES IDX 80 36 53 37 40 38 41 39 46 40 42 41 43 42 45 43 47 44 44 45
REMARK SMILES IDX 66 46 67 47 72 48 68 49 69 50 71 51 73 52 70 53 54 54 55 55
REMARK SMILES IDX 60 56 56 57 57 58 59 59 61 60 58 61 5 62 6 63 7 64 8 65 9 67
REMARK SMILES IDX 10 68 11 69 29 70 12 71 28 72 30 73 27 74 13 75 14 76 25 77
REMARK SMILES IDX 15 78 16 79 24 80 26 81 17 82 20 83 18 84 23 85 19 86 21 87
REMARK SMILES IDX 22 88
REMARK H PARENT 3 5 78 23 52 34 7 66
REMARK Flexibility Score: inf
ROOT
ATOM      1  C   UNL A   1      38.423  20.244  25.542  1.00  0.00     0.118 C 
ENDROOT
BRANCH   1   2
ATOM      2  N   UNL A   1      39.546  19.321  25.657  1.00  0.00    -0.352 N 
ATOM      3  O   UNL A   1      41.696  18.678  25.893  1.00  0.00    -0.269 OA
ATOM      4  C   UNL A   1      40.849  19.556  26.027  1.00  0.00     0.251 C 
ATOM      5  H   UNL A   1      39.339  18.385  25.435  1.00  0.00     0.163 HD
BRANCH   4   6
ATOM      6  C   UNL A   1      41.233  20.876  26.568  1.00  0.00     0.039 A 
ATOM      7  C   UNL A   1      41.666  21.887  25.710  1.00  0.00     0.014 A 
ATOM      8  C   UNL A   1      41.155  21.110  27.943  1.00  0.00     0.014 A 
ATOM      9  C   UNL A   1      42.194  23.055  26.234  1.00  0.00     0.010 A 
ATOM     10  C   UNL A   1      41.567  22.342  28.461  1.00  0.00     0.010 A 
ATOM     11  C   UNL A   1      42.115  23.314  27.611  1.00  0.00    -0.014 A 
BRANCH  11  12
ATOM     12  C   UNL A   1      42.512  24.657  28.104  1.00  0.00     0.031 A 
ATOM     13  C   UNL A   1      43.947  25.002  28.379  1.00  0.00     0.074 A 
ATOM     14  C   UNL A   1      41.543  25.579  28.269  1.00  0.00     0.049 A 
ATOM     15  N   UNL A   1      44.450  26.134  28.803  1.00  0.00    -0.248 NA
ATOM     16  C   UNL A   1      44.949  23.947  28.158  1.00  0.00     0.031 C 
ATOM     17  C   UNL A   1      40.112  25.348  28.043  1.00  0.00     0.029 A 
ATOM     18  N   UNL A   1      41.607  26.896  28.645  1.00  0.00    -0.354 N 
ATOM     19  C   UNL A   1      45.818  25.926  28.919  1.00  0.00     0.074 A 
ATOM     20  C   UNL A   1      46.067  24.552  28.541  1.00  0.00     0.031 C 
ATOM     21  C   UNL A   1      39.443  26.493  28.233  1.00  0.00     0.029 A 
ATOM     22  C   UNL A   1      40.381  27.514  28.677  1.00  0.00     0.049 A 
ATOM     23  H   UNL A   1      42.449  27.353  28.870  1.00  0.00     0.167 HD
ATOM     24  C   UNL A   1      46.772  26.807  29.305  1.00  0.00     0.037 A 
ATOM     25  C   UNL A   1      40.039  28.759  29.054  1.00  0.00     0.037 A 
ATOM     26  C   UNL A   1      46.511  28.178  29.665  1.00  0.00     0.049 A 
ATOM     27  C   UNL A   1      41.119  29.695  29.510  1.00  0.00     0.074 A 
ATOM     28  C   UNL A   1      47.418  29.160  30.026  1.00  0.00     0.029 A 
ATOM     29  N   UNL A   1      45.253  28.759  29.717  1.00  0.00    -0.354 N 
ATOM     30  N   UNL A   1      42.413  29.496  29.572  1.00  0.00    -0.248 NA
ATOM     31  C   UNL A   1      40.690  31.027  29.955  1.00  0.00     0.031 C 
ATOM     32  C   UNL A   1      46.704  30.317  30.355  1.00  0.00     0.029 A 
ATOM     33  C   UNL A   1      45.358  30.076  30.137  1.00  0.00     0.049 A 
ATOM     34  H   UNL A   1      44.410  28.304  29.490  1.00  0.00     0.167 HD
ATOM     35  C   UNL A   1      42.955  30.683  30.042  1.00  0.00     0.074 A 
ATOM     36  C   UNL A   1      41.851  31.604  30.223  1.00  0.00     0.031 C 
ATOM     37  C   UNL A   1      44.250  30.981  30.306  1.00  0.00     0.037 A 
BRANCH  24  38
ATOM     38  C   UNL A   1      48.192  26.324  29.380  1.00  0.00     0.057 A 
ATOM     39  C   UNL A   1      48.710  25.709  30.526  1.00  0.00     0.134 A 
ATOM     40  C   UNL A   1      49.026  26.394  28.255  1.00  0.00     0.134 A 
ATOM     41  F   UNL A   1      47.969  25.615  31.641  1.00  0.00    -0.206 F 
ATOM     42  C   UNL A   1      50.006  25.189  30.555  1.00  0.00     0.040 A 
ATOM     43  C   UNL A   1      50.314  25.857  28.263  1.00  0.00     0.040 A 
ATOM     44  F   UNL A   1      48.591  26.963  27.120  1.00  0.00    -0.206 F 
ATOM     45  C   UNL A   1      50.807  25.252  29.417  1.00  0.00     0.006 A 
ENDBRANCH  24  38
BRANCH  25  46
ATOM     46  C   UNL A   1      38.614  29.176  29.051  1.00  0.00     0.057 A 
ATOM     47  C   UNL A   1      37.823  29.075  30.201  1.00  0.00     0.134 A 
ATOM     48  C   UNL A   1      38.003  29.666  27.889  1.00  0.00     0.134 A 
ATOM     49  F   UNL A   1      38.347  28.601  31.341  1.00  0.00    -0.206 F 
ATOM     50  C   UNL A   1      36.470  29.417  30.188  1.00  0.00     0.040 A 
ATOM     51  C   UNL A   1      36.661  30.044  27.871  1.00  0.00     0.040 A 
ATOM     52  F   UNL A   1      38.708  29.797  26.755  1.00  0.00    -0.206 F 
ATOM     53  C   UNL A   1      35.887  29.906  29.021  1.00  0.00     0.006 A 
ENDBRANCH  25  46
BRANCH  37  54
ATOM     54  C   UNL A   1      44.541  32.374  30.784  1.00  0.00     0.057 A 
ATOM     55  C   UNL A   1      44.595  32.693  32.147  1.00  0.00     0.134 A 
ATOM     56  C   UNL A   1      44.787  33.404  29.867  1.00  0.00     0.134 A 
ATOM     57  F   UNL A   1      44.352  31.756  33.076  1.00  0.00    -0.206 F 
ATOM     58  C   UNL A   1      44.854  33.994  32.580  1.00  0.00     0.040 A 
ATOM     59  C   UNL A   1      45.078  34.701  30.289  1.00  0.00     0.040 A 
ATOM     60  F   UNL A   1      44.758  33.163  28.548  1.00  0.00    -0.206 F 
ATOM     61  C   UNL A   1      45.104  35.001  31.650  1.00  0.00     0.006 A 
ENDBRANCH  37  54
ENDBRANCH  11  12
ENDBRANCH   4   6
ENDBRANCH   1   2
BRANCH   1  62
ATOM     62  C   UNL A   1      37.270  19.676  24.733  1.00  0.00     0.042 C 
BRANCH  62  63
ATOM     63  C   UNL A   1      35.963  20.415  24.945  1.00  0.00     0.118 C 
BRANCH  63  64
ATOM     64  N   UNL A   1      34.875  19.516  25.297  1.00  0.00    -0.352 N 
ATOM     65  C   UNL A   1      33.525  19.702  25.170  1.00  0.00     0.252 C 
ATOM     66  H   UNL A   1      35.148  18.652  25.681  1.00  0.00     0.163 HD
ATOM     67  O   UNL A   1      32.737  18.879  25.625  1.00  0.00    -0.269 OA
BRANCH  65  68
ATOM     68  C   UNL A   1      33.008  20.923  24.535  1.00  0.00     0.060 A 
ATOM     69  C   UNL A   1      33.101  22.109  25.281  1.00  0.00     0.042 A 
ATOM     70  C   UNL A   1      32.407  20.918  23.270  1.00  0.00     0.053 A 
ATOM     71  C   UNL A   1      32.573  23.291  24.763  1.00  0.00     0.053 A 
ATOM     72  C   UNL A   1      31.961  22.117  22.721  1.00  0.00     0.023 A 
ATOM     73  Cl  UNL A   1      32.149  19.482  22.343  1.00  0.00    -0.083 Cl
ATOM     74  C   UNL A   1      32.024  23.290  23.472  1.00  0.00     0.028 A 
BRANCH  71  75
ATOM     75  N   UNL A   1      32.655  24.504  25.471  1.00  0.00    -0.250 N 
ATOM     76  C   UNL A   1      33.701  25.424  25.287  1.00  0.00     0.238 C 
ATOM     77  C   UNL A   1      31.549  25.077  26.133  1.00  0.00     0.238 C 
ATOM     78  O   UNL A   1      34.711  25.334  24.611  1.00  0.00    -0.274 OA
ATOM     79  C   UNL A   1      33.291  26.597  26.119  1.00  0.00     0.100 C 
ATOM     80  C   UNL A   1      31.778  26.524  25.899  1.00  0.00     0.100 C 
ATOM     81  O   UNL A   1      30.551  24.556  26.593  1.00  0.00    -0.274 OA
ATOM     82  C   UNL A   1      33.742  28.065  26.036  1.00  0.00     0.028 C 
ATOM     83  C   UNL A   1      31.139  27.836  26.319  1.00  0.00     0.028 C 
ATOM     84  C   UNL A   1      33.194  28.587  27.387  1.00  0.00    -0.026 C 
ATOM     85  C   UNL A   1      33.019  28.922  24.979  1.00  0.00     0.001 C 
ATOM     86  C   UNL A   1      31.862  28.409  27.548  1.00  0.00    -0.026 C 
ATOM     87  C   UNL A   1      31.494  28.812  25.137  1.00  0.00     0.001 C 
ATOM     88  C   UNL A   1      32.189  28.457  23.819  1.00  0.00     0.009 C 
ENDBRANCH  71  75
ENDBRANCH  65  68
ENDBRANCH  63  64
ENDBRANCH  62  63
ENDBRANCH   1  62
TORSDOF 11
ENDMDL
