MODEL 1
REMARK VINA RESULT:     -12.2      0.000      0.000
REMARK SMILES Cc1cc(Cl)cc2c1O[C@H](C(F)(F)F)C(C(=O)NCCCNC(=O)c1ccc(-c3c4nc(c(-c5c(F)cccc5F)c5ccc([nH]5)c(-c5c(F)cccc5F)c5nc(c(-c6c(F)cccc6F)c6ccc3[nH]6)C=C5)C=C4)cc1)=C2
REMARK SMILES IDX 20 1 19 2 18 3 16 4 17 5 15 7 1 8 2 9 3 10 8 11 4 12 7 13
REMARK SMILES IDX 9 14 5 15 6 16 79 17 10 18 11 19 12 20 13 21 14 22 21 23
REMARK SMILES IDX 22 24 23 25 24 27 25 28 26 29 78 30 27 31 77 32 28 33 29 34
REMARK SMILES IDX 30 35 71 36 31 37 76 38 70 39 72 40 32 41 75 42 69 43 68 44
REMARK SMILES IDX 33 46 59 47 42 48 58 49 43 50 46 51 57 52 73 53 44 54 45 55
REMARK SMILES IDX 56 57 74 58 47 59 34 60 35 61 40 62 36 63 37 64 39 65 41 66
REMARK SMILES IDX 38 67 60 68 61 69 66 70 62 71 63 72 65 73 67 74 64 75 48 76
REMARK SMILES IDX 49 77 54 78 50 79 51 80 53 81 55 82 52 83
REMARK H PARENT 18 6 22 26 72 45 46 56
REMARK Flexibility Score: inf
ROOT
ATOM      1  C   UNL A   1      37.793  19.463  24.942  1.00  0.00     0.042 C 
ENDROOT
BRANCH   1   2
ATOM      2  C   UNL A   1      36.679  20.443  24.611  1.00  0.00     0.118 C 
BRANCH   2   3
ATOM      3  N   UNL A   1      35.813  20.686  25.756  1.00  0.00    -0.352 N 
ATOM      4  C   UNL A   1      34.870  21.587  26.115  1.00  0.00     0.251 C 
ATOM      5  O   UNL A   1      34.370  21.411  27.229  1.00  0.00    -0.270 OA
ATOM      6  H   UNL A   1      35.952  20.012  26.460  1.00  0.00     0.163 HD
BRANCH   4   7
ATOM      7  C   UNL A   1      34.422  22.734  25.274  1.00  0.00     0.067 C 
ATOM      8  C   UNL A   1      32.974  25.913  21.484  1.00  0.00     0.048 C 
ATOM      9  C   UNL A   1      33.360  26.057  22.929  1.00  0.00    -0.007 A 
ATOM     10  C   UNL A   1      33.282  27.317  23.537  1.00  0.00     0.027 A 
ATOM     11  C   UNL A   1      33.775  24.966  23.704  1.00  0.00     0.131 A 
ATOM     12  C   UNL A   1      33.619  27.472  24.882  1.00  0.00     0.042 A 
ATOM     13  C   UNL A   1      34.108  25.117  25.055  1.00  0.00     0.019 A 
ATOM     14  O   UNL A   1      33.893  23.761  23.070  1.00  0.00    -0.475 OA
ATOM     15  Cl  UNL A   1      33.528  29.032  25.605  1.00  0.00    -0.084 Cl
ATOM     16  C   UNL A   1      34.031  26.381  25.644  1.00  0.00     0.032 A 
ATOM     17  C   UNL A   1      34.556  23.957  25.818  1.00  0.00     0.025 C 
ATOM     18  C   UNL A   1      33.822  22.582  23.907  1.00  0.00     0.314 C 
BRANCH  18  19
ATOM     19  C   UNL A   1      32.369  22.069  23.941  1.00  0.00     0.429 C 
ATOM     20  F   UNL A   1      32.349  20.713  23.871  1.00  0.00    -0.167 F 
ATOM     21  F   UNL A   1      31.724  22.400  25.085  1.00  0.00    -0.167 F 
ATOM     22  F   UNL A   1      31.622  22.540  22.920  1.00  0.00    -0.167 F 
ENDBRANCH  18  19
ENDBRANCH   4   7
ENDBRANCH   2   3
ENDBRANCH   1   2
BRANCH   1  23
ATOM     23  C   UNL A   1      38.919  20.125  25.722  1.00  0.00     0.118 C 
BRANCH  23  24
ATOM     24  N   UNL A   1      40.094  19.259  25.814  1.00  0.00    -0.352 N 
ATOM     25  C   UNL A   1      41.409  19.574  26.028  1.00  0.00     0.251 C 
ATOM     26  H   UNL A   1      39.910  18.298  25.704  1.00  0.00     0.163 HD
ATOM     27  O   UNL A   1      42.286  18.747  25.784  1.00  0.00    -0.269 OA
BRANCH  25  28
ATOM     28  C   UNL A   1      41.773  20.903  26.551  1.00  0.00     0.039 A 
ATOM     29  C   UNL A   1      42.222  21.890  25.672  1.00  0.00     0.014 A 
ATOM     30  C   UNL A   1      41.694  21.162  27.921  1.00  0.00     0.014 A 
ATOM     31  C   UNL A   1      42.531  23.158  26.164  1.00  0.00     0.010 A 
ATOM     32  C   UNL A   1      41.896  22.450  28.394  1.00  0.00     0.010 A 
ATOM     33  C   UNL A   1      42.338  23.455  27.523  1.00  0.00    -0.014 A 
BRANCH  33  34
ATOM     34  C   UNL A   1      42.634  24.798  28.072  1.00  0.00     0.031 A 
ATOM     35  C   UNL A   1      44.042  25.148  28.464  1.00  0.00     0.074 A 
ATOM     36  C   UNL A   1      41.631  25.676  28.263  1.00  0.00     0.049 A 
ATOM     37  N   UNL A   1      44.498  26.241  29.018  1.00  0.00    -0.248 NA
ATOM     38  C   UNL A   1      45.072  24.120  28.231  1.00  0.00     0.031 C 
ATOM     39  C   UNL A   1      40.220  25.429  27.957  1.00  0.00     0.029 A 
ATOM     40  N   UNL A   1      41.645  26.953  28.762  1.00  0.00    -0.354 N 
ATOM     41  C   UNL A   1      45.858  26.029  29.202  1.00  0.00     0.074 A 
ATOM     42  C   UNL A   1      46.143  24.679  28.774  1.00  0.00     0.031 C 
ATOM     43  C   UNL A   1      39.512  26.535  28.236  1.00  0.00     0.029 A 
ATOM     44  C   UNL A   1      40.409  27.551  28.778  1.00  0.00     0.049 A 
ATOM     45  H   UNL A   1      42.464  27.399  29.077  1.00  0.00     0.167 HD
ATOM     46  C   UNL A   1      46.792  26.898  29.653  1.00  0.00     0.037 A 
ATOM     47  C   UNL A   1      40.043  28.782  29.184  1.00  0.00     0.037 A 
ATOM     48  C   UNL A   1      46.505  28.248  30.049  1.00  0.00     0.049 A 
ATOM     49  C   UNL A   1      41.096  29.718  29.708  1.00  0.00     0.074 A 
ATOM     50  C   UNL A   1      47.386  29.224  30.476  1.00  0.00     0.029 A 
ATOM     51  N   UNL A   1      45.238  28.813  30.061  1.00  0.00    -0.354 N 
ATOM     52  N   UNL A   1      42.388  29.525  29.825  1.00  0.00    -0.248 NA
ATOM     53  C   UNL A   1      40.643  31.042  30.157  1.00  0.00     0.031 C 
ATOM     54  C   UNL A   1      46.646  30.367  30.794  1.00  0.00     0.029 A 
ATOM     55  C   UNL A   1      45.311  30.120  30.514  1.00  0.00     0.049 A 
ATOM     56  H   UNL A   1      44.411  28.354  29.789  1.00  0.00     0.167 HD
ATOM     57  C   UNL A   1      42.905  30.706  30.339  1.00  0.00     0.074 A 
ATOM     58  C   UNL A   1      41.789  31.618  30.496  1.00  0.00     0.031 C 
ATOM     59  C   UNL A   1      44.188  31.010  30.657  1.00  0.00     0.037 A 
BRANCH  46  60
ATOM     60  C   UNL A   1      48.214  26.420  29.716  1.00  0.00     0.057 A 
ATOM     61  C   UNL A   1      49.109  26.635  28.661  1.00  0.00     0.134 A 
ATOM     62  C   UNL A   1      48.708  25.785  30.863  1.00  0.00     0.134 A 
ATOM     63  F   UNL A   1      48.696  27.223  27.528  1.00  0.00    -0.206 F 
ATOM     64  C   UNL A   1      50.440  26.219  28.734  1.00  0.00     0.040 A 
ATOM     65  C   UNL A   1      50.044  25.391  30.959  1.00  0.00     0.040 A 
ATOM     66  F   UNL A   1      47.905  25.550  31.912  1.00  0.00    -0.206 F 
ATOM     67  C   UNL A   1      50.913  25.605  29.891  1.00  0.00     0.006 A 
ENDBRANCH  46  60
BRANCH  47  68
ATOM     68  C   UNL A   1      38.626  29.207  29.069  1.00  0.00     0.057 A 
ATOM     69  C   UNL A   1      38.105  29.647  27.846  1.00  0.00     0.134 A 
ATOM     70  C   UNL A   1      37.752  29.166  30.163  1.00  0.00     0.134 A 
ATOM     71  F   UNL A   1      38.896  29.723  26.766  1.00  0.00    -0.206 F 
ATOM     72  C   UNL A   1      36.772  30.041  27.717  1.00  0.00     0.040 A 
ATOM     73  C   UNL A   1      36.410  29.532  30.042  1.00  0.00     0.040 A 
ATOM     74  F   UNL A   1      38.185  28.746  31.361  1.00  0.00    -0.206 F 
ATOM     75  C   UNL A   1      35.919  29.976  28.816  1.00  0.00     0.006 A 
ENDBRANCH  47  68
BRANCH  59  76
ATOM     76  C   UNL A   1      44.463  32.383  31.194  1.00  0.00     0.057 A 
ATOM     77  C   UNL A   1      44.706  33.469  30.344  1.00  0.00     0.134 A 
ATOM     78  C   UNL A   1      44.395  32.638  32.570  1.00  0.00     0.134 A 
ATOM     79  F   UNL A   1      44.792  33.289  29.017  1.00  0.00    -0.206 F 
ATOM     80  C   UNL A   1      44.881  34.759  30.845  1.00  0.00     0.040 A 
ATOM     81  C   UNL A   1      44.541  33.928  33.080  1.00  0.00     0.040 A 
ATOM     82  F   UNL A   1      44.152  31.644  33.437  1.00  0.00    -0.206 F 
ATOM     83  C   UNL A   1      44.786  34.993  32.216  1.00  0.00     0.006 A 
ENDBRANCH  59  76
ENDBRANCH  33  34
ENDBRANCH  25  28
ENDBRANCH  23  24
ENDBRANCH   1  23
TORSDOF 11
ENDMDL
MODEL 2
REMARK VINA RESULT:     -12.2      0.280      6.275
REMARK SMILES Cc1cc(Cl)cc2c1O[C@H](C(F)(F)F)C(C(=O)NCCCNC(=O)c1ccc(-c3c4nc(c(-c5c(F)cccc5F)c5ccc([nH]5)c(-c5c(F)cccc5F)c5nc(c(-c6c(F)cccc6F)c6ccc3[nH]6)C=C5)C=C4)cc1)=C2
REMARK SMILES IDX 20 1 19 2 18 3 16 4 17 5 15 7 1 8 2 9 3 10 8 11 4 12 7 13
REMARK SMILES IDX 9 14 5 15 6 16 79 17 10 18 11 19 12 20 13 21 14 22 21 23
REMARK SMILES IDX 22 24 23 25 24 27 25 28 26 29 78 30 27 31 77 32 28 33 29 34
REMARK SMILES IDX 30 35 71 36 31 37 76 38 70 39 72 40 32 41 75 42 69 43 68 44
REMARK SMILES IDX 33 46 59 47 42 48 58 49 43 50 46 51 57 52 73 53 44 54 45 55
REMARK SMILES IDX 56 57 74 58 47 59 34 60 35 61 40 62 36 63 37 64 39 65 41 66
REMARK SMILES IDX 38 67 60 68 61 69 66 70 62 71 63 72 65 73 67 74 64 75 48 76
REMARK SMILES IDX 49 77 54 78 50 79 51 80 53 81 55 82 52 83
REMARK H PARENT 18 6 22 26 72 45 46 56
REMARK Flexibility Score: inf
ROOT
ATOM      1  C   UNL A   1      37.771  19.638  24.991  1.00  0.00     0.042 C 
ENDROOT
BRANCH   1   2
ATOM      2  C   UNL A   1      36.695  20.661  24.670  1.00  0.00     0.118 C 
BRANCH   2   3
ATOM      3  N   UNL A   1      35.757  20.825  25.772  1.00  0.00    -0.352 N 
ATOM      4  C   UNL A   1      34.772  21.686  26.119  1.00  0.00     0.251 C 
ATOM      5  O   UNL A   1      34.211  21.440  27.190  1.00  0.00    -0.270 OA
ATOM      6  H   UNL A   1      35.871  20.118  26.448  1.00  0.00     0.163 HD
BRANCH   4   7
ATOM      7  C   UNL A   1      34.346  22.865  25.311  1.00  0.00     0.067 C 
ATOM      8  C   UNL A   1      32.964  26.182  21.616  1.00  0.00     0.048 C 
ATOM      9  C   UNL A   1      33.348  26.275  23.066  1.00  0.00    -0.007 A 
ATOM     10  C   UNL A   1      33.287  27.517  23.712  1.00  0.00     0.027 A 
ATOM     11  C   UNL A   1      33.741  25.154  23.808  1.00  0.00     0.131 A 
ATOM     12  C   UNL A   1      33.621  27.625  25.063  1.00  0.00     0.042 A 
ATOM     13  C   UNL A   1      34.071  25.258  25.165  1.00  0.00     0.019 A 
ATOM     14  O   UNL A   1      33.842  23.967  23.139  1.00  0.00    -0.475 OA
ATOM     15  Cl  UNL A   1      33.553  29.164  25.832  1.00  0.00    -0.084 Cl
ATOM     16  C   UNL A   1      34.012  26.504  25.792  1.00  0.00     0.032 A 
ATOM     17  C   UNL A   1      34.497  24.069  25.894  1.00  0.00     0.025 C 
ATOM     18  C   UNL A   1      33.749  22.764  23.939  1.00  0.00     0.314 C 
BRANCH  18  19
ATOM     19  C   UNL A   1      32.288  22.274  23.952  1.00  0.00     0.429 C 
ATOM     20  F   UNL A   1      31.673  22.664  25.098  1.00  0.00    -0.167 F 
ATOM     21  F   UNL A   1      31.555  22.784  22.934  1.00  0.00    -0.167 F 
ATOM     22  F   UNL A   1      32.185  20.930  23.874  1.00  0.00    -0.167 F 
ENDBRANCH  18  19
ENDBRANCH   4   7
ENDBRANCH   2   3
ENDBRANCH   1   2
BRANCH   1  23
ATOM     23  C   UNL A   1      38.936  20.259  25.748  1.00  0.00     0.118 C 
BRANCH  23  24
ATOM     24  N   UNL A   1      40.058  19.327  25.869  1.00  0.00    -0.352 N 
ATOM     25  C   UNL A   1      41.387  19.570  26.098  1.00  0.00     0.251 C 
ATOM     26  H   UNL A   1      39.821  18.377  25.771  1.00  0.00     0.163 HD
ATOM     27  O   UNL A   1      42.218  18.689  25.878  1.00  0.00    -0.269 OA
BRANCH  25  28
ATOM     28  C   UNL A   1      41.820  20.883  26.605  1.00  0.00     0.039 A 
ATOM     29  C   UNL A   1      42.285  21.849  25.711  1.00  0.00     0.014 A 
ATOM     30  C   UNL A   1      41.789  21.149  27.976  1.00  0.00     0.014 A 
ATOM     31  C   UNL A   1      42.660  23.104  26.189  1.00  0.00     0.010 A 
ATOM     32  C   UNL A   1      42.058  22.428  28.438  1.00  0.00     0.010 A 
ATOM     33  C   UNL A   1      42.517  23.412  27.553  1.00  0.00    -0.014 A 
BRANCH  33  34
ATOM     34  C   UNL A   1      42.884  24.743  28.088  1.00  0.00     0.031 A 
ATOM     35  C   UNL A   1      41.819  25.785  28.286  1.00  0.00     0.074 A 
ATOM     36  C   UNL A   1      44.176  25.026  28.342  1.00  0.00     0.049 A 
ATOM     37  N   UNL A   1      41.941  27.025  28.682  1.00  0.00    -0.248 NA
ATOM     38  C   UNL A   1      40.435  25.391  27.968  1.00  0.00     0.031 C 
ATOM     39  C   UNL A   1      45.298  24.105  28.148  1.00  0.00     0.029 A 
ATOM     40  N   UNL A   1      44.763  26.169  28.819  1.00  0.00    -0.354 N 
ATOM     41  C   UNL A   1      40.657  27.555  28.654  1.00  0.00     0.074 A 
ATOM     42  C   UNL A   1      39.782  26.531  28.132  1.00  0.00     0.031 C 
ATOM     43  C   UNL A   1      46.432  24.707  28.543  1.00  0.00     0.029 A 
ATOM     44  C   UNL A   1      46.123  26.066  28.976  1.00  0.00     0.049 A 
ATOM     45  H   UNL A   1      44.256  26.987  29.031  1.00  0.00     0.167 HD
ATOM     46  C   UNL A   1      40.241  28.775  29.065  1.00  0.00     0.037 A 
ATOM     47  C   UNL A   1      47.018  26.968  29.422  1.00  0.00     0.037 A 
ATOM     48  C   UNL A   1      41.115  29.778  29.610  1.00  0.00     0.049 A 
ATOM     49  C   UNL A   1      46.534  28.327  29.844  1.00  0.00     0.074 A 
ATOM     50  C   UNL A   1      40.787  31.029  30.099  1.00  0.00     0.029 A 
ATOM     51  N   UNL A   1      42.488  29.639  29.743  1.00  0.00    -0.354 N 
ATOM     52  N   UNL A   1      45.310  28.796  29.866  1.00  0.00    -0.248 NA
ATOM     53  C   UNL A   1      47.553  29.281  30.303  1.00  0.00     0.031 C 
ATOM     54  C   UNL A   1      41.969  31.667  30.483  1.00  0.00     0.029 A 
ATOM     55  C   UNL A   1      43.027  30.794  30.283  1.00  0.00     0.049 A 
ATOM     56  H   UNL A   1      43.003  28.838  29.490  1.00  0.00     0.167 HD
ATOM     57  C   UNL A   1      45.407  30.090  30.360  1.00  0.00     0.074 A 
ATOM     58  C   UNL A   1      46.809  30.326  30.642  1.00  0.00     0.031 C 
ATOM     59  C   UNL A   1      44.425  31.004  30.560  1.00  0.00     0.037 A 
BRANCH  46  60
ATOM     60  C   UNL A   1      38.775  29.082  28.962  1.00  0.00     0.057 A 
ATOM     61  C   UNL A   1      37.922  28.967  30.067  1.00  0.00     0.134 A 
ATOM     62  C   UNL A   1      38.220  29.544  27.762  1.00  0.00     0.134 A 
ATOM     63  F   UNL A   1      38.387  28.515  31.242  1.00  0.00    -0.206 F 
ATOM     64  C   UNL A   1      36.565  29.284  29.979  1.00  0.00     0.040 A 
ATOM     65  C   UNL A   1      36.871  29.891  27.669  1.00  0.00     0.040 A 
ATOM     66  F   UNL A   1      38.981  29.679  26.666  1.00  0.00    -0.206 F 
ATOM     67  C   UNL A   1      36.039  29.758  28.779  1.00  0.00     0.006 A 
ENDBRANCH  46  60
BRANCH  47  68
ATOM     68  C   UNL A   1      48.452  26.596  29.528  1.00  0.00     0.057 A 
ATOM     69  C   UNL A   1      49.351  26.908  28.501  1.00  0.00     0.134 A 
ATOM     70  C   UNL A   1      48.963  25.945  30.656  1.00  0.00     0.134 A 
ATOM     71  F   UNL A   1      48.919  27.518  27.388  1.00  0.00    -0.206 F 
ATOM     72  C   UNL A   1      50.704  26.577  28.588  1.00  0.00     0.040 A 
ATOM     73  C   UNL A   1      50.319  25.630  30.767  1.00  0.00     0.040 A 
ATOM     74  F   UNL A   1      48.157  25.626  31.679  1.00  0.00    -0.206 F 
ATOM     75  C   UNL A   1      51.193  25.942  29.727  1.00  0.00     0.006 A 
ENDBRANCH  47  68
BRANCH  59  76
ATOM     76  C   UNL A   1      44.822  32.338  31.118  1.00  0.00     0.057 A 
ATOM     77  C   UNL A   1      45.109  33.426  30.285  1.00  0.00     0.134 A 
ATOM     78  C   UNL A   1      44.827  32.560  32.502  1.00  0.00     0.134 A 
ATOM     79  F   UNL A   1      45.129  33.277  28.952  1.00  0.00    -0.206 F 
ATOM     80  C   UNL A   1      45.398  34.687  30.810  1.00  0.00     0.040 A 
ATOM     81  C   UNL A   1      45.088  33.822  33.037  1.00  0.00     0.040 A 
ATOM     82  F   UNL A   1      44.547  31.562  33.353  1.00  0.00    -0.206 F 
ATOM     83  C   UNL A   1      45.376  34.889  32.189  1.00  0.00     0.006 A 
ENDBRANCH  59  76
ENDBRANCH  33  34
ENDBRANCH  25  28
ENDBRANCH  23  24
ENDBRANCH   1  23
TORSDOF 11
ENDMDL
MODEL 3
REMARK VINA RESULT:     -12.1      1.522      6.587
REMARK SMILES Cc1cc(Cl)cc2c1O[C@H](C(F)(F)F)C(C(=O)NCCCNC(=O)c1ccc(-c3c4nc(c(-c5c(F)cccc5F)c5ccc([nH]5)c(-c5c(F)cccc5F)c5nc(c(-c6c(F)cccc6F)c6ccc3[nH]6)C=C5)C=C4)cc1)=C2
REMARK SMILES IDX 20 1 19 2 18 3 16 4 17 5 15 7 1 8 2 9 3 10 8 11 4 12 7 13
REMARK SMILES IDX 9 14 5 15 6 16 79 17 10 18 11 19 12 20 13 21 14 22 21 23
REMARK SMILES IDX 22 24 23 25 24 27 25 28 26 29 78 30 27 31 77 32 28 33 29 34
REMARK SMILES IDX 30 35 71 36 31 37 76 38 70 39 72 40 32 41 75 42 69 43 68 44
REMARK SMILES IDX 33 46 59 47 42 48 58 49 43 50 46 51 57 52 73 53 44 54 45 55
REMARK SMILES IDX 56 57 74 58 47 59 34 60 35 61 40 62 36 63 37 64 39 65 41 66
REMARK SMILES IDX 38 67 60 68 61 69 66 70 62 71 63 72 65 73 67 74 64 75 48 76
REMARK SMILES IDX 49 77 54 78 50 79 51 80 53 81 55 82 52 83
REMARK H PARENT 18 6 22 26 72 45 46 56
REMARK Flexibility Score: inf
ROOT
ATOM      1  C   UNL A   1      37.777  19.733  24.835  1.00  0.00     0.042 C 
ENDROOT
BRANCH   1   2
ATOM      2  C   UNL A   1      36.473  20.491  25.022  1.00  0.00     0.118 C 
BRANCH   2   3
ATOM      3  N   UNL A   1      35.320  19.604  24.985  1.00  0.00    -0.352 N 
ATOM      4  C   UNL A   1      33.973  19.727  24.959  1.00  0.00     0.251 C 
ATOM      5  O   UNL A   1      33.347  18.663  24.935  1.00  0.00    -0.270 OA
ATOM      6  H   UNL A   1      35.595  18.659  24.977  1.00  0.00     0.163 HD
BRANCH   4   7
ATOM      7  C   UNL A   1      33.233  21.022  24.959  1.00  0.00     0.067 C 
ATOM      8  C   UNL A   1      30.216  25.078  25.966  1.00  0.00     0.048 C 
ATOM      9  C   UNL A   1      31.021  24.592  24.794  1.00  0.00    -0.007 A 
ATOM     10  C   UNL A   1      31.108  25.390  23.645  1.00  0.00     0.027 A 
ATOM     11  C   UNL A   1      31.712  23.373  24.816  1.00  0.00     0.131 A 
ATOM     12  C   UNL A   1      31.865  24.968  22.551  1.00  0.00     0.042 A 
ATOM     13  C   UNL A   1      32.476  22.950  23.721  1.00  0.00     0.019 A 
ATOM     14  O   UNL A   1      31.565  22.593  25.927  1.00  0.00    -0.475 OA
ATOM     15  Cl  UNL A   1      31.947  25.959  21.145  1.00  0.00    -0.084 Cl
ATOM     16  C   UNL A   1      32.548  23.754  22.582  1.00  0.00     0.032 A 
ATOM     17  C   UNL A   1      33.162  21.664  23.779  1.00  0.00     0.025 C 
ATOM     18  C   UNL A   1      32.614  21.629  26.183  1.00  0.00     0.314 C 
BRANCH  18  19
ATOM     19  C   UNL A   1      33.652  22.248  27.139  1.00  0.00     0.429 C 
ATOM     20  F   UNL A   1      33.027  22.918  28.140  1.00  0.00    -0.167 F 
ATOM     21  F   UNL A   1      34.435  21.318  27.735  1.00  0.00    -0.167 F 
ATOM     22  F   UNL A   1      34.480  23.119  26.522  1.00  0.00    -0.167 F 
ENDBRANCH  18  19
ENDBRANCH   4   7
ENDBRANCH   2   3
ENDBRANCH   1   2
BRANCH   1  23
ATOM     23  C   UNL A   1      38.885  20.283  25.721  1.00  0.00     0.118 C 
BRANCH  23  24
ATOM     24  N   UNL A   1      40.008  19.351  25.821  1.00  0.00    -0.352 N 
ATOM     25  C   UNL A   1      41.339  19.591  26.044  1.00  0.00     0.251 C 
ATOM     26  H   UNL A   1      39.771  18.402  25.711  1.00  0.00     0.163 HD
ATOM     27  O   UNL A   1      42.168  18.714  25.806  1.00  0.00    -0.269 OA
BRANCH  25  28
ATOM     28  C   UNL A   1      41.775  20.897  26.567  1.00  0.00     0.039 A 
ATOM     29  C   UNL A   1      42.201  21.887  25.680  1.00  0.00     0.014 A 
ATOM     30  C   UNL A   1      41.785  21.132  27.944  1.00  0.00     0.014 A 
ATOM     31  C   UNL A   1      42.579  23.136  26.175  1.00  0.00     0.010 A 
ATOM     32  C   UNL A   1      42.056  22.403  28.426  1.00  0.00     0.010 A 
ATOM     33  C   UNL A   1      42.476  23.412  27.549  1.00  0.00    -0.014 A 
BRANCH  33  34
ATOM     34  C   UNL A   1      42.847  24.734  28.102  1.00  0.00     0.031 A 
ATOM     35  C   UNL A   1      41.787  25.781  28.300  1.00  0.00     0.074 A 
ATOM     36  C   UNL A   1      44.138  25.004  28.374  1.00  0.00     0.049 A 
ATOM     37  N   UNL A   1      41.913  27.016  28.710  1.00  0.00    -0.248 NA
ATOM     38  C   UNL A   1      40.404  25.401  27.963  1.00  0.00     0.031 C 
ATOM     39  C   UNL A   1      45.255  24.078  28.182  1.00  0.00     0.029 A 
ATOM     40  N   UNL A   1      44.727  26.138  28.869  1.00  0.00    -0.354 N 
ATOM     41  C   UNL A   1      40.634  27.556  28.675  1.00  0.00     0.074 A 
ATOM     42  C   UNL A   1      39.757  26.544  28.132  1.00  0.00     0.031 C 
ATOM     43  C   UNL A   1      46.389  24.667  28.595  1.00  0.00     0.029 A 
ATOM     44  C   UNL A   1      46.085  26.024  29.039  1.00  0.00     0.049 A 
ATOM     45  H   UNL A   1      44.224  26.957  29.084  1.00  0.00     0.167 HD
ATOM     46  C   UNL A   1      40.222  28.774  29.094  1.00  0.00     0.037 A 
ATOM     47  C   UNL A   1      46.982  26.914  29.505  1.00  0.00     0.037 A 
ATOM     48  C   UNL A   1      41.097  29.765  29.659  1.00  0.00     0.049 A 
ATOM     49  C   UNL A   1      46.502  28.272  29.936  1.00  0.00     0.074 A 
ATOM     50  C   UNL A   1      40.772  31.013  30.157  1.00  0.00     0.029 A 
ATOM     51  N   UNL A   1      42.467  29.614  29.805  1.00  0.00    -0.354 N 
ATOM     52  N   UNL A   1      45.282  28.750  29.950  1.00  0.00    -0.248 NA
ATOM     53  C   UNL A   1      47.523  29.214  30.416  1.00  0.00     0.031 C 
ATOM     54  C   UNL A   1      41.955  31.638  30.561  1.00  0.00     0.029 A 
ATOM     55  C   UNL A   1      43.009  30.760  30.364  1.00  0.00     0.049 A 
ATOM     56  H   UNL A   1      42.979  28.813  29.549  1.00  0.00     0.167 HD
ATOM     57  C   UNL A   1      45.383  30.038  30.459  1.00  0.00     0.074 A 
ATOM     58  C   UNL A   1      46.783  30.261  30.758  1.00  0.00     0.031 C 
ATOM     59  C   UNL A   1      44.405  30.957  30.658  1.00  0.00     0.037 A 
BRANCH  46  60
ATOM     60  C   UNL A   1      38.759  29.093  28.978  1.00  0.00     0.057 A 
ATOM     61  C   UNL A   1      37.898  28.997  30.079  1.00  0.00     0.134 A 
ATOM     62  C   UNL A   1      38.216  29.546  27.770  1.00  0.00     0.134 A 
ATOM     63  F   UNL A   1      38.352  28.553  31.261  1.00  0.00    -0.206 F 
ATOM     64  C   UNL A   1      36.545  29.325  29.979  1.00  0.00     0.040 A 
ATOM     65  C   UNL A   1      36.871  29.905  27.665  1.00  0.00     0.040 A 
ATOM     66  F   UNL A   1      38.985  29.664  26.677  1.00  0.00    -0.206 F 
ATOM     67  C   UNL A   1      36.031  29.791  28.771  1.00  0.00     0.006 A 
ENDBRANCH  46  60
BRANCH  47  68
ATOM     68  C   UNL A   1      48.411  26.531  29.622  1.00  0.00     0.057 A 
ATOM     69  C   UNL A   1      49.323  26.846  28.608  1.00  0.00     0.134 A 
ATOM     70  C   UNL A   1      48.906  25.866  30.750  1.00  0.00     0.134 A 
ATOM     71  F   UNL A   1      48.907  27.469  27.496  1.00  0.00    -0.206 F 
ATOM     72  C   UNL A   1      50.674  26.504  28.705  1.00  0.00     0.040 A 
ATOM     73  C   UNL A   1      50.259  25.541  30.873  1.00  0.00     0.040 A 
ATOM     74  F   UNL A   1      48.087  25.544  31.762  1.00  0.00    -0.206 F 
ATOM     75  C   UNL A   1      51.145  25.856  29.844  1.00  0.00     0.006 A 
ENDBRANCH  47  68
BRANCH  59  76
ATOM     76  C   UNL A   1      44.805  32.282  31.235  1.00  0.00     0.057 A 
ATOM     77  C   UNL A   1      44.885  32.486  32.618  1.00  0.00     0.134 A 
ATOM     78  C   UNL A   1      45.201  33.334  30.399  1.00  0.00     0.134 A 
ATOM     79  F   UNL A   1      44.512  31.520  33.471  1.00  0.00    -0.206 F 
ATOM     80  C   UNL A   1      45.336  33.695  33.150  1.00  0.00     0.040 A 
ATOM     81  C   UNL A   1      45.679  34.538  30.919  1.00  0.00     0.040 A 
ATOM     82  F   UNL A   1      45.160  33.199  29.066  1.00  0.00    -0.206 F 
ATOM     83  C   UNL A   1      45.745  34.720  32.299  1.00  0.00     0.006 A 
ENDBRANCH  59  76
ENDBRANCH  33  34
ENDBRANCH  25  28
ENDBRANCH  23  24
ENDBRANCH   1  23
TORSDOF 11
ENDMDL
