MODEL 1
REMARK VINA RESULT:     -13.1      0.000      0.000
REMARK SMILES Cc1cc(C(=O)N[C@@H]2C(=O)N3C(C(=O)NCCCNC(=O)c4ccc(-c5c6nc(c(-c7c(F)cccc7F)c7ccc([nH]7)c(-c7c(F)cccc7F)c7nc(c(-c8c(F)cccc8F)c8ccc5[nH]8)C=C7)C=C6)cc4)=C(CSc4nnc(C)s4)CS[C@H]23)n(C)n1
REMARK SMILES IDX 16 1 15 2 13 3 14 4 12 6 8 7 9 8 87 9 10 10 11 11 86 12
REMARK SMILES IDX 85 13 76 14 7 15 5 16 6 17 4 19 1 20 2 21 3 22 90 23 88 24
REMARK SMILES IDX 89 25 77 26 78 27 79 28 80 29 84 30 81 31 82 32 83 33 17 34
REMARK SMILES IDX 18 35 19 36 20 37 21 39 22 40 23 41 75 42 24 43 74 44 25 45
REMARK SMILES IDX 26 46 27 47 68 48 28 49 73 50 67 51 69 52 29 53 72 54 66 55
REMARK SMILES IDX 65 56 30 58 56 59 39 60 55 61 40 62 43 63 54 64 70 65 41 66
REMARK SMILES IDX 42 67 53 69 71 70 44 71 31 72 32 73 37 74 33 75 34 76 36 77
REMARK SMILES IDX 38 78 35 79 57 80 58 81 63 82 59 83 60 84 62 85 64 86 61 87
REMARK SMILES IDX 45 88 46 89 51 90 47 91 48 92 50 93 52 94 49 95
REMARK H PARENT 15 5 7 18 19 38 69 57 43 68
REMARK Flexibility Score: inf
ROOT
ATOM      1  C   UNL A   1      31.071  30.458  25.474  1.00  0.00     0.118 C 
ENDROOT
BRANCH   1   2
ATOM      2  N   UNL A   1      32.397  30.144  24.975  1.00  0.00    -0.351 N 
ATOM      3  C   UNL A   1      32.991  29.114  24.316  1.00  0.00     0.268 C 
ATOM      4  O   UNL A   1      34.127  29.398  23.914  1.00  0.00    -0.268 OA
ATOM      5  H   UNL A   1      33.036  30.868  25.165  1.00  0.00     0.163 HD
BRANCH   3   6
ATOM      6  C   UNL A   1      32.332  27.791  23.887  1.00  0.00     0.111 C 
ATOM      7  C   UNL A   1      32.407  25.140  26.097  1.00  0.00     0.206 C 
ATOM      8  C   UNL A   1      32.323  26.694  26.143  1.00  0.00     0.253 C 
ATOM      9  C   UNL A   1      32.224  25.364  24.569  1.00  0.00     0.181 C 
ATOM     10  O   UNL A   1      32.023  27.495  27.004  1.00  0.00    -0.272 OA
ATOM     11  N   UNL A   1      32.563  26.759  24.793  1.00  0.00    -0.290 N 
ATOM     12  S   UNL A   1      30.526  25.253  23.924  1.00  0.00    -0.129 SA
ATOM     13  C   UNL A   1      31.029  26.154  22.459  1.00  0.00     0.106 C 
ATOM     14  C   UNL A   1      31.450  27.555  22.865  1.00  0.00    -0.020 C 
BRANCH   7  15
ATOM     15  N   UNL A   1      31.396  24.361  26.867  1.00  0.00    -0.336 N 
ATOM     16  C   UNL A   1      31.214  22.992  26.958  1.00  0.00     0.270 C 
ATOM     17  O   UNL A   1      30.313  22.585  27.690  1.00  0.00    -0.268 OA
ATOM     18  H   UNL A   1      30.762  24.902  27.391  1.00  0.00     0.164 HD
BRANCH  16  19
ATOM     19  C   UNL A   1      32.025  22.120  26.138  1.00  0.00     0.126 A 
ATOM     20  C   UNL A   1      32.487  19.229  23.977  1.00  0.00     0.069 C 
ATOM     21  C   UNL A   1      32.625  20.427  24.841  1.00  0.00     0.060 A 
ATOM     22  C   UNL A   1      31.794  21.566  24.888  1.00  0.00     0.059 A 
ATOM     23  N   UNL A   1      33.555  20.472  25.795  1.00  0.00    -0.178 NA
ATOM     24  N   UNL A   1      33.236  21.576  26.511  1.00  0.00    -0.263 N 
ATOM     25  C   UNL A   1      34.131  21.960  27.576  1.00  0.00     0.174 C 
ENDBRANCH  16  19
ENDBRANCH   7  15
BRANCH  14  26
ATOM     26  C   UNL A   1      30.527  28.574  22.233  1.00  0.00     0.111 C 
BRANCH  26  27
ATOM     27  S   UNL A   1      28.887  28.352  22.929  1.00  0.00    -0.089 SA
BRANCH  27  28
ATOM     28  C   UNL A   1      28.080  29.853  22.709  1.00  0.00     0.174 A 
ATOM     29  N   UNL A   1      27.150  30.308  23.517  1.00  0.00    -0.132 NA
ATOM     30  S   UNL A   1      28.791  31.042  21.705  1.00  0.00    -0.091 S 
ATOM     31  N   UNL A   1      27.237  31.689  23.619  1.00  0.00    -0.143 NA
ATOM     32  C   UNL A   1      28.214  32.162  22.869  1.00  0.00     0.115 A 
ATOM     33  C   UNL A   1      28.912  33.454  23.053  1.00  0.00     0.081 C 
ENDBRANCH  27  28
ENDBRANCH  26  27
ENDBRANCH  14  26
ENDBRANCH   3   6
ENDBRANCH   1   2
BRANCH   1  34
ATOM     34  C   UNL A   1      31.042  31.827  26.157  1.00  0.00     0.042 C 
BRANCH  34  35
ATOM     35  C   UNL A   1      32.271  32.206  26.961  1.00  0.00     0.118 C 
BRANCH  35  36
ATOM     36  N   UNL A   1      32.243  33.596  27.371  1.00  0.00    -0.352 N 
ATOM     37  C   UNL A   1      33.040  34.287  28.252  1.00  0.00     0.251 C 
ATOM     38  H   UNL A   1      31.536  34.135  26.947  1.00  0.00     0.163 HD
ATOM     39  O   UNL A   1      32.673  35.401  28.621  1.00  0.00    -0.269 OA
BRANCH  37  40
ATOM     40  C   UNL A   1      34.312  33.725  28.782  1.00  0.00     0.039 A 
ATOM     41  C   UNL A   1      35.512  34.112  28.173  1.00  0.00     0.014 A 
ATOM     42  C   UNL A   1      34.348  32.777  29.806  1.00  0.00     0.014 A 
ATOM     43  C   UNL A   1      36.731  33.583  28.615  1.00  0.00     0.010 A 
ATOM     44  C   UNL A   1      35.567  32.334  30.318  1.00  0.00     0.010 A 
ATOM     45  C   UNL A   1      36.773  32.709  29.711  1.00  0.00    -0.014 A 
BRANCH  45  46
ATOM     46  C   UNL A   1      38.059  32.144  30.203  1.00  0.00     0.031 A 
ATOM     47  C   UNL A   1      38.572  30.835  29.655  1.00  0.00     0.074 A 
ATOM     48  C   UNL A   1      38.753  32.783  31.166  1.00  0.00     0.049 A 
ATOM     49  N   UNL A   1      39.638  30.154  29.995  1.00  0.00    -0.248 NA
ATOM     50  C   UNL A   1      37.764  30.193  28.605  1.00  0.00     0.031 C 
ATOM     51  C   UNL A   1      38.352  34.037  31.806  1.00  0.00     0.029 A 
ATOM     52  N   UNL A   1      39.943  32.468  31.773  1.00  0.00    -0.354 N 
ATOM     53  C   UNL A   1      39.618  29.005  29.213  1.00  0.00     0.074 A 
ATOM     54  C   UNL A   1      38.405  29.047  28.430  1.00  0.00     0.031 C 
ATOM     55  C   UNL A   1      39.297  34.403  32.686  1.00  0.00     0.029 A 
ATOM     56  C   UNL A   1      40.350  33.391  32.704  1.00  0.00     0.049 A 
ATOM     57  H   UNL A   1      40.457  31.655  31.560  1.00  0.00     0.167 HD
ATOM     58  C   UNL A   1      40.542  28.018  29.130  1.00  0.00     0.037 A 
ATOM     59  C   UNL A   1      41.445  33.421  33.486  1.00  0.00     0.037 A 
ATOM     60  C   UNL A   1      41.764  27.988  29.890  1.00  0.00     0.049 A 
ATOM     61  C   UNL A   1      42.450  32.308  33.387  1.00  0.00     0.074 A 
ATOM     62  C   UNL A   1      42.780  27.050  29.852  1.00  0.00     0.029 A 
ATOM     63  N   UNL A   1      42.136  28.945  30.821  1.00  0.00    -0.354 N 
ATOM     64  N   UNL A   1      42.435  31.247  32.616  1.00  0.00    -0.248 NA
ATOM     65  C   UNL A   1      43.627  32.397  34.263  1.00  0.00     0.031 C 
ATOM     66  C   UNL A   1      43.750  27.418  30.790  1.00  0.00     0.029 A 
ATOM     67  C   UNL A   1      43.362  28.613  31.376  1.00  0.00     0.049 A 
ATOM     68  H   UNL A   1      41.608  29.743  31.055  1.00  0.00     0.167 HD
ATOM     69  C   UNL A   1      43.610  30.559  32.892  1.00  0.00     0.074 A 
ATOM     70  C   UNL A   1      44.320  31.330  33.892  1.00  0.00     0.031 C 
ATOM     71  C   UNL A   1      44.060  29.394  32.364  1.00  0.00     0.037 A 
BRANCH  58  72
ATOM     72  C   UNL A   1      40.271  26.893  28.171  1.00  0.00     0.057 A 
ATOM     73  C   UNL A   1      40.807  26.884  26.875  1.00  0.00     0.134 A 
ATOM     74  C   UNL A   1      39.497  25.791  28.555  1.00  0.00     0.134 A 
ATOM     75  F   UNL A   1      41.547  27.914  26.438  1.00  0.00    -0.206 F 
ATOM     76  C   UNL A   1      40.560  25.834  25.989  1.00  0.00     0.040 A 
ATOM     77  C   UNL A   1      39.267  24.721  27.687  1.00  0.00     0.040 A 
ATOM     78  F   UNL A   1      38.958  25.730  29.782  1.00  0.00    -0.206 F 
ATOM     79  C   UNL A   1      39.794  24.744  26.397  1.00  0.00     0.006 A 
ENDBRANCH  58  72
BRANCH  59  80
ATOM     80  C   UNL A   1      41.667  34.566  34.408  1.00  0.00     0.057 A 
ATOM     81  C   UNL A   1      42.300  35.732  33.966  1.00  0.00     0.134 A 
ATOM     82  C   UNL A   1      41.249  34.524  35.743  1.00  0.00     0.134 A 
ATOM     83  F   UNL A   1      42.740  35.825  32.703  1.00  0.00    -0.206 F 
ATOM     84  C   UNL A   1      42.522  36.813  34.822  1.00  0.00     0.040 A 
ATOM     85  C   UNL A   1      41.442  35.607  36.603  1.00  0.00     0.040 A 
ATOM     86  F   UNL A   1      40.629  33.437  36.227  1.00  0.00    -0.206 F 
ATOM     87  C   UNL A   1      42.086  36.755  36.144  1.00  0.00     0.006 A 
ENDBRANCH  59  80
BRANCH  71  88
ATOM     88  C   UNL A   1      45.398  28.899  32.830  1.00  0.00     0.057 A 
ATOM     89  C   UNL A   1      45.525  27.991  33.889  1.00  0.00     0.134 A 
ATOM     90  C   UNL A   1      46.571  29.301  32.178  1.00  0.00     0.134 A 
ATOM     91  F   UNL A   1      44.441  27.575  34.561  1.00  0.00    -0.206 F 
ATOM     92  C   UNL A   1      46.773  27.520  34.298  1.00  0.00     0.040 A 
ATOM     93  C   UNL A   1      47.821  28.815  32.560  1.00  0.00     0.040 A 
ATOM     94  F   UNL A   1      46.518  30.160  31.149  1.00  0.00    -0.206 F 
ATOM     95  C   UNL A   1      47.926  27.927  33.628  1.00  0.00     0.006 A 
ENDBRANCH  71  88
ENDBRANCH  45  46
ENDBRANCH  37  40
ENDBRANCH  35  36
ENDBRANCH  34  35
ENDBRANCH   1  34
TORSDOF 15
ENDMDL
MODEL 2
REMARK VINA RESULT:     -13.0      1.527      5.881
REMARK SMILES Cc1cc(C(=O)N[C@@H]2C(=O)N3C(C(=O)NCCCNC(=O)c4ccc(-c5c6nc(c(-c7c(F)cccc7F)c7ccc([nH]7)c(-c7c(F)cccc7F)c7nc(c(-c8c(F)cccc8F)c8ccc5[nH]8)C=C7)C=C6)cc4)=C(CSc4nnc(C)s4)CS[C@H]23)n(C)n1
REMARK SMILES IDX 16 1 15 2 13 3 14 4 12 6 8 7 9 8 87 9 10 10 11 11 86 12
REMARK SMILES IDX 85 13 76 14 7 15 5 16 6 17 4 19 1 20 2 21 3 22 90 23 88 24
REMARK SMILES IDX 89 25 77 26 78 27 79 28 80 29 84 30 81 31 82 32 83 33 17 34
REMARK SMILES IDX 18 35 19 36 20 37 21 39 22 40 23 41 75 42 24 43 74 44 25 45
REMARK SMILES IDX 26 46 27 47 68 48 28 49 73 50 67 51 69 52 29 53 72 54 66 55
REMARK SMILES IDX 65 56 30 58 56 59 39 60 55 61 40 62 43 63 54 64 70 65 41 66
REMARK SMILES IDX 42 67 53 69 71 70 44 71 31 72 32 73 37 74 33 75 34 76 36 77
REMARK SMILES IDX 38 78 35 79 57 80 58 81 63 82 59 83 60 84 62 85 64 86 61 87
REMARK SMILES IDX 45 88 46 89 51 90 47 91 48 92 50 93 52 94 49 95
REMARK H PARENT 15 5 7 18 19 38 69 57 43 68
REMARK Flexibility Score: inf
ROOT
ATOM      1  C   UNL A   1      30.956  30.572  25.162  1.00  0.00     0.118 C 
ENDROOT
BRANCH   1   2
ATOM      2  N   UNL A   1      32.320  30.186  24.853  1.00  0.00    -0.351 N 
ATOM      3  C   UNL A   1      32.949  29.104  24.323  1.00  0.00     0.268 C 
ATOM      4  O   UNL A   1      34.137  29.326  24.057  1.00  0.00    -0.268 OA
ATOM      5  H   UNL A   1      32.959  30.896  25.090  1.00  0.00     0.163 HD
BRANCH   3   6
ATOM      6  C   UNL A   1      32.294  27.785  23.873  1.00  0.00     0.111 C 
ATOM      7  C   UNL A   1      32.306  25.125  26.074  1.00  0.00     0.206 C 
ATOM      8  C   UNL A   1      32.228  26.679  26.124  1.00  0.00     0.253 C 
ATOM      9  C   UNL A   1      32.161  25.355  24.544  1.00  0.00     0.181 C 
ATOM     10  O   UNL A   1      31.911  27.479  26.981  1.00  0.00    -0.272 OA
ATOM     11  N   UNL A   1      32.500  26.748  24.780  1.00  0.00    -0.290 N 
ATOM     12  S   UNL A   1      30.477  25.255  23.858  1.00  0.00    -0.129 SA
ATOM     13  C   UNL A   1      31.018  26.159  22.409  1.00  0.00     0.106 C 
ATOM     14  C   UNL A   1      31.436  27.557  22.830  1.00  0.00    -0.020 C 
BRANCH   7  15
ATOM     15  N   UNL A   1      31.274  24.348  26.817  1.00  0.00    -0.336 N 
ATOM     16  C   UNL A   1      31.101  22.978  26.921  1.00  0.00     0.270 C 
ATOM     17  O   UNL A   1      30.178  22.573  27.625  1.00  0.00    -0.268 OA
ATOM     18  H   UNL A   1      30.617  24.890  27.309  1.00  0.00     0.164 HD
BRANCH  16  19
ATOM     19  C   UNL A   1      31.950  22.103  26.144  1.00  0.00     0.126 A 
ATOM     20  C   UNL A   1      32.528  19.157  24.087  1.00  0.00     0.069 C 
ATOM     21  C   UNL A   1      32.618  20.385  24.914  1.00  0.00     0.060 A 
ATOM     22  C   UNL A   1      31.757  21.503  24.909  1.00  0.00     0.059 A 
ATOM     23  N   UNL A   1      33.529  20.486  25.882  1.00  0.00    -0.178 NA
ATOM     24  N   UNL A   1      33.168  21.603  26.555  1.00  0.00    -0.263 N 
ATOM     25  C   UNL A   1      34.033  22.046  27.623  1.00  0.00     0.174 C 
ENDBRANCH  16  19
ENDBRANCH   7  15
BRANCH  14  26
ATOM     26  C   UNL A   1      30.532  28.582  22.181  1.00  0.00     0.111 C 
BRANCH  26  27
ATOM     27  S   UNL A   1      28.865  28.330  22.798  1.00  0.00    -0.089 SA
BRANCH  27  28
ATOM     28  C   UNL A   1      28.078  29.850  22.650  1.00  0.00     0.174 A 
ATOM     29  N   UNL A   1      27.168  30.287  23.490  1.00  0.00    -0.132 NA
ATOM     30  S   UNL A   1      28.792  31.068  21.684  1.00  0.00    -0.091 S 
ATOM     31  N   UNL A   1      27.278  31.661  23.646  1.00  0.00    -0.143 NA
ATOM     32  C   UNL A   1      28.250  32.149  22.900  1.00  0.00     0.115 A 
ATOM     33  C   UNL A   1      28.972  33.422  23.125  1.00  0.00     0.081 C 
ENDBRANCH  27  28
ENDBRANCH  26  27
ENDBRANCH  14  26
ENDBRANCH   3   6
ENDBRANCH   1   2
BRANCH   1  34
ATOM     34  C   UNL A   1      30.915  31.852  25.999  1.00  0.00     0.042 C 
BRANCH  34  35
ATOM     35  C   UNL A   1      32.105  32.104  26.905  1.00  0.00     0.118 C 
BRANCH  35  36
ATOM     36  N   UNL A   1      32.250  33.509  27.232  1.00  0.00    -0.352 N 
ATOM     37  C   UNL A   1      33.120  34.147  28.083  1.00  0.00     0.251 C 
ATOM     38  H   UNL A   1      31.621  34.106  26.765  1.00  0.00     0.163 HD
ATOM     39  O   UNL A   1      32.894  35.318  28.379  1.00  0.00    -0.269 OA
BRANCH  37  40
ATOM     40  C   UNL A   1      34.306  33.463  28.666  1.00  0.00     0.039 A 
ATOM     41  C   UNL A   1      34.092  32.384  29.531  1.00  0.00     0.014 A 
ATOM     42  C   UNL A   1      35.612  33.902  28.443  1.00  0.00     0.014 A 
ATOM     43  C   UNL A   1      35.177  31.731  30.130  1.00  0.00     0.010 A 
ATOM     44  C   UNL A   1      36.696  33.187  28.951  1.00  0.00     0.010 A 
ATOM     45  C   UNL A   1      36.493  32.109  29.824  1.00  0.00    -0.014 A 
BRANCH  45  46
ATOM     46  C   UNL A   1      37.660  31.423  30.442  1.00  0.00     0.031 A 
ATOM     47  C   UNL A   1      38.036  31.707  31.875  1.00  0.00     0.074 A 
ATOM     48  C   UNL A   1      38.405  30.570  29.711  1.00  0.00     0.049 A 
ATOM     49  N   UNL A   1      39.048  31.254  32.572  1.00  0.00    -0.248 NA
ATOM     50  C   UNL A   1      37.177  32.647  32.613  1.00  0.00     0.031 C 
ATOM     51  C   UNL A   1      38.172  30.233  28.306  1.00  0.00     0.029 A 
ATOM     52  N   UNL A   1      39.510  29.828  30.050  1.00  0.00    -0.354 N 
ATOM     53  C   UNL A   1      38.952  31.862  33.818  1.00  0.00     0.074 A 
ATOM     54  C   UNL A   1      37.825  32.764  33.762  1.00  0.00     0.031 C 
ATOM     55  C   UNL A   1      39.079  29.325  27.915  1.00  0.00     0.029 A 
ATOM     56  C   UNL A   1      39.984  29.045  29.026  1.00  0.00     0.049 A 
ATOM     57  H   UNL A   1      39.923  29.856  30.943  1.00  0.00     0.167 HD
ATOM     58  C   UNL A   1      39.713  31.665  34.921  1.00  0.00     0.037 A 
ATOM     59  C   UNL A   1      41.029  28.198  28.984  1.00  0.00     0.037 A 
ATOM     60  C   UNL A   1      40.820  30.747  34.986  1.00  0.00     0.049 A 
ATOM     61  C   UNL A   1      41.869  28.006  30.217  1.00  0.00     0.074 A 
ATOM     62  C   UNL A   1      41.632  30.450  36.067  1.00  0.00     0.029 A 
ATOM     63  N   UNL A   1      41.265  29.972  33.925  1.00  0.00    -0.354 N 
ATOM     64  N   UNL A   1      41.743  28.560  31.398  1.00  0.00    -0.248 NA
ATOM     65  C   UNL A   1      42.994  27.065  30.112  1.00  0.00     0.031 C 
ATOM     66  C   UNL A   1      42.594  29.525  35.649  1.00  0.00     0.029 A 
ATOM     67  C   UNL A   1      42.350  29.207  34.322  1.00  0.00     0.049 A 
ATOM     68  H   UNL A   1      40.869  29.967  33.023  1.00  0.00     0.167 HD
ATOM     69  C   UNL A   1      42.751  28.017  32.183  1.00  0.00     0.074 A 
ATOM     70  C   UNL A   1      43.472  27.079  31.348  1.00  0.00     0.031 C 
ATOM     71  C   UNL A   1      43.052  28.272  33.481  1.00  0.00     0.037 A 
BRANCH  58  72
ATOM     72  C   UNL A   1      39.365  32.450  36.154  1.00  0.00     0.057 A 
ATOM     73  C   UNL A   1      38.428  31.982  37.085  1.00  0.00     0.134 A 
ATOM     74  C   UNL A   1      39.996  33.669  36.433  1.00  0.00     0.134 A 
ATOM     75  F   UNL A   1      37.776  30.828  36.873  1.00  0.00    -0.206 F 
ATOM     76  C   UNL A   1      38.112  32.710  38.234  1.00  0.00     0.040 A 
ATOM     77  C   UNL A   1      39.709  34.392  37.593  1.00  0.00     0.040 A 
ATOM     78  F   UNL A   1      40.908  34.174  35.588  1.00  0.00    -0.206 F 
ATOM     79  C   UNL A   1      38.759  33.915  38.494  1.00  0.00     0.006 A 
ENDBRANCH  58  72
BRANCH  59  80
ATOM     80  C   UNL A   1      41.320  27.438  27.741  1.00  0.00     0.057 A 
ATOM     81  C   UNL A   1      42.152  27.971  26.751  1.00  0.00     0.134 A 
ATOM     82  C   UNL A   1      40.782  26.166  27.514  1.00  0.00     0.134 A 
ATOM     83  F   UNL A   1      42.684  29.194  26.901  1.00  0.00    -0.206 F 
ATOM     84  C   UNL A   1      42.430  27.274  25.574  1.00  0.00     0.040 A 
ATOM     85  C   UNL A   1      41.071  25.446  26.354  1.00  0.00     0.040 A 
ATOM     86  F   UNL A   1      39.982  25.596  28.429  1.00  0.00    -0.206 F 
ATOM     87  C   UNL A   1      41.893  26.003  25.376  1.00  0.00     0.006 A 
ENDBRANCH  59  80
BRANCH  71  88
ATOM     88  C   UNL A   1      44.187  27.501  34.089  1.00  0.00     0.057 A 
ATOM     89  C   UNL A   1      45.495  28.002  34.112  1.00  0.00     0.134 A 
ATOM     90  C   UNL A   1      43.958  26.261  34.698  1.00  0.00     0.134 A 
ATOM     91  F   UNL A   1      45.783  29.179  33.537  1.00  0.00    -0.206 F 
ATOM     92  C   UNL A   1      46.538  27.286  34.701  1.00  0.00     0.040 A 
ATOM     93  C   UNL A   1      44.987  25.549  35.314  1.00  0.00     0.040 A 
ATOM     94  F   UNL A   1      42.726  25.730  34.720  1.00  0.00    -0.206 F 
ATOM     95  C   UNL A   1      46.284  26.058  35.310  1.00  0.00     0.006 A 
ENDBRANCH  71  88
ENDBRANCH  45  46
ENDBRANCH  37  40
ENDBRANCH  35  36
ENDBRANCH  34  35
ENDBRANCH   1  34
TORSDOF 15
ENDMDL
MODEL 3
REMARK VINA RESULT:     -12.9      3.443      9.373
REMARK SMILES Cc1cc(C(=O)N[C@@H]2C(=O)N3C(C(=O)NCCCNC(=O)c4ccc(-c5c6nc(c(-c7c(F)cccc7F)c7ccc([nH]7)c(-c7c(F)cccc7F)c7nc(c(-c8c(F)cccc8F)c8ccc5[nH]8)C=C7)C=C6)cc4)=C(CSc4nnc(C)s4)CS[C@H]23)n(C)n1
REMARK SMILES IDX 16 1 15 2 13 3 14 4 12 6 8 7 9 8 87 9 10 10 11 11 86 12
REMARK SMILES IDX 85 13 76 14 7 15 5 16 6 17 4 19 1 20 2 21 3 22 90 23 88 24
REMARK SMILES IDX 89 25 77 26 78 27 79 28 80 29 84 30 81 31 82 32 83 33 17 34
REMARK SMILES IDX 18 35 19 36 20 37 21 39 22 40 23 41 75 42 24 43 74 44 25 45
REMARK SMILES IDX 26 46 27 47 68 48 28 49 73 50 67 51 69 52 29 53 72 54 66 55
REMARK SMILES IDX 65 56 30 58 56 59 39 60 55 61 40 62 43 63 54 64 70 65 41 66
REMARK SMILES IDX 42 67 53 69 71 70 44 71 31 72 32 73 37 74 33 75 34 76 36 77
REMARK SMILES IDX 38 78 35 79 57 80 58 81 63 82 59 83 60 84 62 85 64 86 61 87
REMARK SMILES IDX 45 88 46 89 51 90 47 91 48 92 50 93 52 94 49 95
REMARK H PARENT 15 5 7 18 19 38 69 57 43 68
REMARK Flexibility Score: inf
ROOT
ATOM      1  C   UNL A   1      35.914  20.458  24.892  1.00  0.00     0.118 C 
ENDROOT
BRANCH   1   2
ATOM      2  N   UNL A   1      35.606  21.049  26.182  1.00  0.00    -0.351 N 
ATOM      3  C   UNL A   1      34.640  21.854  26.698  1.00  0.00     0.268 C 
ATOM      4  O   UNL A   1      34.686  21.922  27.933  1.00  0.00    -0.268 OA
ATOM      5  H   UNL A   1      36.272  20.801  26.862  1.00  0.00     0.163 HD
BRANCH   3   6
ATOM      6  C   UNL A   1      33.457  22.480  25.938  1.00  0.00     0.111 C 
ATOM      7  C   UNL A   1      33.972  25.476  24.300  1.00  0.00     0.206 C 
ATOM      8  C   UNL A   1      34.772  24.187  24.653  1.00  0.00     0.253 C 
ATOM      9  C   UNL A   1      32.774  24.658  24.860  1.00  0.00     0.181 C 
ATOM     10  O   UNL A   1      35.816  23.709  24.256  1.00  0.00    -0.272 OA
ATOM     11  N   UNL A   1      33.745  23.754  25.454  1.00  0.00    -0.290 N 
ATOM     12  S   UNL A   1      31.768  23.747  23.647  1.00  0.00    -0.129 SA
ATOM     13  C   UNL A   1      31.131  22.709  24.962  1.00  0.00     0.106 C 
ATOM     14  C   UNL A   1      32.276  21.904  25.550  1.00  0.00    -0.020 C 
BRANCH   7  15
ATOM     15  N   UNL A   1      33.970  25.932  22.882  1.00  0.00    -0.336 N 
ATOM     16  C   UNL A   1      33.510  27.117  22.333  1.00  0.00     0.270 C 
ATOM     17  O   UNL A   1      33.646  27.273  21.121  1.00  0.00    -0.268 OA
ATOM     18  H   UNL A   1      34.356  25.296  22.238  1.00  0.00     0.164 HD
BRANCH  16  19
ATOM     19  C   UNL A   1      32.827  28.065  23.184  1.00  0.00     0.126 A 
ATOM     20  C   UNL A   1      32.438  29.915  26.294  1.00  0.00     0.069 C 
ATOM     21  C   UNL A   1      32.305  29.292  24.954  1.00  0.00     0.060 A 
ATOM     22  C   UNL A   1      33.312  29.087  23.987  1.00  0.00     0.059 A 
ATOM     23  N   UNL A   1      31.156  28.732  24.577  1.00  0.00    -0.178 NA
ATOM     24  N   UNL A   1      31.471  28.078  23.434  1.00  0.00    -0.263 N 
ATOM     25  C   UNL A   1      30.394  27.440  22.714  1.00  0.00     0.174 C 
ENDBRANCH  16  19
ENDBRANCH   7  15
BRANCH  14  26
ATOM     26  C   UNL A   1      32.039  20.428  25.319  1.00  0.00     0.111 C 
BRANCH  26  27
ATOM     27  S   UNL A   1      32.488  20.047  23.623  1.00  0.00    -0.089 SA
BRANCH  27  28
ATOM     28  C   UNL A   1      32.698  18.342  23.568  1.00  0.00     0.174 A 
ATOM     29  N   UNL A   1      33.173  17.698  22.528  1.00  0.00    -0.132 NA
ATOM     30  S   UNL A   1      32.758  17.462  25.034  1.00  0.00    -0.091 S 
ATOM     31  N   UNL A   1      33.940  16.617  22.940  1.00  0.00    -0.143 NA
ATOM     32  C   UNL A   1      33.967  16.528  24.256  1.00  0.00     0.115 A 
ATOM     33  C   UNL A   1      35.002  15.846  25.066  1.00  0.00     0.081 C 
ENDBRANCH  27  28
ENDBRANCH  26  27
ENDBRANCH  14  26
ENDBRANCH   3   6
ENDBRANCH   1   2
BRANCH   1  34
ATOM     34  C   UNL A   1      37.182  19.604  24.960  1.00  0.00     0.042 C 
BRANCH  34  35
ATOM     35  C   UNL A   1      38.461  20.322  25.347  1.00  0.00     0.118 C 
BRANCH  35  36
ATOM     36  N   UNL A   1      39.543  19.396  25.615  1.00  0.00    -0.352 N 
ATOM     37  C   UNL A   1      40.831  19.621  26.040  1.00  0.00     0.251 C 
ATOM     38  H   UNL A   1      39.318  18.449  25.469  1.00  0.00     0.163 HD
ATOM     39  O   UNL A   1      41.640  18.699  25.964  1.00  0.00    -0.269 OA
BRANCH  37  40
ATOM     40  C   UNL A   1      41.275  20.939  26.567  1.00  0.00     0.039 A 
ATOM     41  C   UNL A   1      41.131  21.189  27.938  1.00  0.00     0.014 A 
ATOM     42  C   UNL A   1      41.757  21.957  25.742  1.00  0.00     0.014 A 
ATOM     43  C   UNL A   1      41.504  22.427  28.474  1.00  0.00     0.010 A 
ATOM     44  C   UNL A   1      42.229  23.149  26.290  1.00  0.00     0.010 A 
ATOM     45  C   UNL A   1      42.083  23.411  27.659  1.00  0.00    -0.014 A 
BRANCH  45  46
ATOM     46  C   UNL A   1      42.494  24.731  28.210  1.00  0.00     0.031 A 
ATOM     47  C   UNL A   1      41.474  25.824  28.405  1.00  0.00     0.074 A 
ATOM     48  C   UNL A   1      43.789  24.964  28.506  1.00  0.00     0.049 A 
ATOM     49  N   UNL A   1      41.645  27.055  28.818  1.00  0.00    -0.248 NA
ATOM     50  C   UNL A   1      40.079  25.499  28.063  1.00  0.00     0.031 C 
ATOM     51  C   UNL A   1      44.882  24.006  28.333  1.00  0.00     0.029 A 
ATOM     52  N   UNL A   1      44.405  26.080  29.017  1.00  0.00    -0.354 N 
ATOM     53  C   UNL A   1      40.389  27.649  28.772  1.00  0.00     0.074 A 
ATOM     54  C   UNL A   1      39.478  26.667  28.230  1.00  0.00     0.031 C 
ATOM     55  C   UNL A   1      46.025  24.560  28.766  1.00  0.00     0.029 A 
ATOM     56  C   UNL A   1      45.756  25.925  29.208  1.00  0.00     0.049 A 
ATOM     57  H   UNL A   1      43.923  26.913  29.226  1.00  0.00     0.167 HD
ATOM     58  C   UNL A   1      40.020  28.889  29.173  1.00  0.00     0.037 A 
ATOM     59  C   UNL A   1      46.676  26.785  29.684  1.00  0.00     0.037 A 
ATOM     60  C   UNL A   1      40.922  29.859  29.737  1.00  0.00     0.049 A 
ATOM     61  C   UNL A   1      46.245  28.161  30.110  1.00  0.00     0.074 A 
ATOM     62  C   UNL A   1      40.639  31.129  30.206  1.00  0.00     0.029 A 
ATOM     63  N   UNL A   1      42.283  29.659  29.914  1.00  0.00    -0.354 N 
ATOM     64  N   UNL A   1      45.048  28.694  30.095  1.00  0.00    -0.248 NA
ATOM     65  C   UNL A   1      47.294  29.053  30.625  1.00  0.00     0.031 C 
ATOM     66  C   UNL A   1      41.836  31.715  30.630  1.00  0.00     0.029 A 
ATOM     67  C   UNL A   1      42.856  30.790  30.473  1.00  0.00     0.049 A 
ATOM     68  H   UNL A   1      42.770  28.837  29.677  1.00  0.00     0.167 HD
ATOM     69  C   UNL A   1      45.192  29.970  30.622  1.00  0.00     0.074 A 
ATOM     70  C   UNL A   1      46.592  30.127  30.961  1.00  0.00     0.031 C 
ATOM     71  C   UNL A   1      44.250  30.928  30.810  1.00  0.00     0.037 A 
BRANCH  58  72
ATOM     72  C   UNL A   1      38.571  29.262  29.028  1.00  0.00     0.057 A 
ATOM     73  C   UNL A   1      37.688  29.224  30.116  1.00  0.00     0.134 A 
ATOM     74  C   UNL A   1      38.060  29.697  27.798  1.00  0.00     0.134 A 
ATOM     75  F   UNL A   1      38.108  28.805  31.319  1.00  0.00    -0.206 F 
ATOM     76  C   UNL A   1      36.345  29.580  29.980  1.00  0.00     0.040 A 
ATOM     77  C   UNL A   1      36.725  30.083  27.657  1.00  0.00     0.040 A 
ATOM     78  F   UNL A   1      38.851  29.764  26.717  1.00  0.00    -0.206 F 
ATOM     79  C   UNL A   1      35.862  30.018  28.749  1.00  0.00     0.006 A 
ENDBRANCH  58  72
BRANCH  59  80
ATOM     80  C   UNL A   1      48.093  26.357  29.816  1.00  0.00     0.057 A 
ATOM     81  C   UNL A   1      49.001  26.542  28.768  1.00  0.00     0.134 A 
ATOM     82  C   UNL A   1      48.574  25.762  30.989  1.00  0.00     0.134 A 
ATOM     83  F   UNL A   1      48.597  27.090  27.613  1.00  0.00    -0.206 F 
ATOM     84  C   UNL A   1      50.334  26.139  28.875  1.00  0.00     0.040 A 
ATOM     85  C   UNL A   1      49.909  25.379  31.119  1.00  0.00     0.040 A 
ATOM     86  F   UNL A   1      47.755  25.564  32.033  1.00  0.00    -0.206 F 
ATOM     87  C   UNL A   1      50.793  25.561  30.056  1.00  0.00     0.006 A 
ENDBRANCH  59  80
BRANCH  71  88
ATOM     88  C   UNL A   1      44.692  32.215  31.442  1.00  0.00     0.057 A 
ATOM     89  C   UNL A   1      44.678  32.403  32.830  1.00  0.00     0.134 A 
ATOM     90  C   UNL A   1      45.180  33.263  30.652  1.00  0.00     0.134 A 
ATOM     91  F   UNL A   1      44.213  31.441  33.642  1.00  0.00    -0.206 F 
ATOM     92  C   UNL A   1      45.114  33.596  33.408  1.00  0.00     0.040 A 
ATOM     93  C   UNL A   1      45.644  34.450  31.220  1.00  0.00     0.040 A 
ATOM     94  F   UNL A   1      45.230  33.144  29.317  1.00  0.00    -0.206 F 
ATOM     95  C   UNL A   1      45.605  34.622  32.602  1.00  0.00     0.006 A 
ENDBRANCH  71  88
ENDBRANCH  45  46
ENDBRANCH  37  40
ENDBRANCH  35  36
ENDBRANCH  34  35
ENDBRANCH   1  34
TORSDOF 15
ENDMDL
