MODEL 1
REMARK VINA RESULT:     -11.2      0.000      0.000
REMARK SMILES O=C(NC[C@@H]1CCOC1)NC[C@@H]1CC[C@H](C(=O)NCCCNC(=O)c2ccc(-c3c4nc(c(-c5c(F)cccc5F)c5ccc([nH]5)c(-c5c(F)cccc5F)c5nc(c(-c6c(F)cccc6F)c6ccc3[nH]6)C=C5)C=C4)cc2)O1
REMARK SMILES IDX 19 1 18 2 16 3 17 4 15 6 12 7 13 8 79 9 14 10 11 11 10 12
REMARK SMILES IDX 1 13 2 14 3 15 4 18 5 19 6 20 9 21 7 22 8 23 20 24 21 25
REMARK SMILES IDX 22 26 23 27 24 29 25 30 26 31 78 32 27 33 77 34 28 35 29 36
REMARK SMILES IDX 30 37 71 38 31 39 76 40 70 41 72 42 32 43 75 44 69 45 68 46
REMARK SMILES IDX 33 48 59 49 42 50 58 51 43 52 46 53 57 54 73 55 44 56 45 57
REMARK SMILES IDX 56 59 74 60 47 61 34 62 35 63 40 64 36 65 37 66 39 67 41 68
REMARK SMILES IDX 38 69 60 70 61 71 66 72 62 73 63 74 65 75 67 76 64 77 48 78
REMARK SMILES IDX 49 79 54 80 50 81 51 82 53 83 55 84 52 85
REMARK H PARENT 18 5 3 16 10 17 22 28 72 47 46 58
REMARK Flexibility Score: inf
ROOT
ATOM      1  C   UNL A   1      38.123  21.742  25.260  1.00  0.00     0.117 C 
ENDROOT
BRANCH   1   2
ATOM      2  N   UNL A   1      37.389  22.332  24.162  1.00  0.00    -0.354 N 
ATOM      3  C   UNL A   1      36.377  23.244  24.193  1.00  0.00     0.249 C 
ATOM      4  O   UNL A   1      35.873  23.567  23.111  1.00  0.00    -0.272 OA
ATOM      5  H   UNL A   1      37.659  22.032  23.265  1.00  0.00     0.163 HD
BRANCH   3   6
ATOM      6  C   UNL A   1      35.816  23.807  25.522  1.00  0.00     0.207 C 
ATOM      7  C   UNL A   1      34.027  23.374  26.970  1.00  0.00     0.138 C 
ATOM      8  C   UNL A   1      33.526  24.383  25.953  1.00  0.00     0.037 C 
ATOM      9  O   UNL A   1      35.265  22.861  26.438  1.00  0.00    -0.363 OA
ATOM     10  C   UNL A   1      34.785  24.906  25.306  1.00  0.00     0.045 C 
BRANCH   7  11
ATOM     11  C   UNL A   1      33.075  22.206  27.327  1.00  0.00     0.149 C 
BRANCH  11  12
ATOM     12  N   UNL A   1      33.117  21.065  26.421  1.00  0.00    -0.336 N 
ATOM     13  O   UNL A   1      31.408  21.760  25.080  1.00  0.00    -0.249 OA
ATOM     14  C   UNL A   1      32.266  20.929  25.373  1.00  0.00     0.314 C 
ATOM     15  N   UNL A   1      32.346  19.788  24.649  1.00  0.00    -0.338 N 
ATOM     16  H   UNL A   1      31.570  19.625  24.064  1.00  0.00     0.165 HD
ATOM     17  H   UNL A   1      33.790  20.364  26.576  1.00  0.00     0.165 HD
BRANCH  15  18
ATOM     18  C   UNL A   1      33.370  18.764  24.582  1.00  0.00     0.123 C 
BRANCH  18  19
ATOM     19  C   UNL A   1      32.917  17.350  24.177  1.00  0.00     0.036 C 
ATOM     20  C   UNL A   1      32.518  16.429  25.316  1.00  0.00     0.036 C 
ATOM     21  C   UNL A   1      33.989  16.553  23.456  1.00  0.00     0.165 C 
ATOM     22  C   UNL A   1      33.668  15.448  25.453  1.00  0.00     0.160 C 
ATOM     23  O   UNL A   1      34.633  15.750  24.441  1.00  0.00    -0.381 OA
ENDBRANCH  18  19
ENDBRANCH  15  18
ENDBRANCH  11  12
ENDBRANCH   7  11
ENDBRANCH   3   6
ENDBRANCH   1   2
BRANCH   1  24
ATOM     24  C   UNL A   1      38.509  20.302  24.953  1.00  0.00     0.042 C 
BRANCH  24  25
ATOM     25  C   UNL A   1      39.087  19.572  26.150  1.00  0.00     0.118 C 
BRANCH  25  26
ATOM     26  N   UNL A   1      40.348  18.909  25.851  1.00  0.00    -0.352 N 
ATOM     27  C   UNL A   1      41.645  19.323  25.977  1.00  0.00     0.251 C 
ATOM     28  H   UNL A   1      40.247  17.997  25.493  1.00  0.00     0.163 HD
ATOM     29  O   UNL A   1      42.551  18.581  25.595  1.00  0.00    -0.269 OA
BRANCH  27  30
ATOM     30  C   UNL A   1      41.992  20.668  26.489  1.00  0.00     0.039 A 
ATOM     31  C   UNL A   1      42.223  21.676  25.546  1.00  0.00     0.014 A 
ATOM     32  C   UNL A   1      42.110  20.961  27.849  1.00  0.00     0.014 A 
ATOM     33  C   UNL A   1      42.540  22.968  25.963  1.00  0.00     0.010 A 
ATOM     34  C   UNL A   1      42.313  22.274  28.266  1.00  0.00     0.010 A 
ATOM     35  C   UNL A   1      42.564  23.283  27.329  1.00  0.00    -0.014 A 
BRANCH  35  36
ATOM     36  C   UNL A   1      42.923  24.647  27.783  1.00  0.00     0.031 A 
ATOM     37  C   UNL A   1      44.369  25.062  27.844  1.00  0.00     0.074 A 
ATOM     38  C   UNL A   1      41.951  25.504  28.150  1.00  0.00     0.049 A 
ATOM     39  N   UNL A   1      44.885  26.208  28.209  1.00  0.00    -0.248 NA
ATOM     40  C   UNL A   1      45.369  24.047  27.474  1.00  0.00     0.031 C 
ATOM     41  C   UNL A   1      40.519  25.200  28.181  1.00  0.00     0.029 A 
ATOM     42  N   UNL A   1      42.022  26.811  28.561  1.00  0.00    -0.354 N 
ATOM     43  C   UNL A   1      46.263  26.044  28.127  1.00  0.00     0.074 A 
ATOM     44  C   UNL A   1      46.505  24.670  27.746  1.00  0.00     0.031 C 
ATOM     45  C   UNL A   1      39.844  26.300  28.550  1.00  0.00     0.029 A 
ATOM     46  C   UNL A   1      40.796  27.375  28.813  1.00  0.00     0.049 A 
ATOM     47  H   UNL A   1      42.872  27.297  28.666  1.00  0.00     0.167 HD
ATOM     48  C   UNL A   1      47.240  26.961  28.318  1.00  0.00     0.037 A 
ATOM     49  C   UNL A   1      40.478  28.623  29.205  1.00  0.00     0.037 A 
ATOM     50  C   UNL A   1      46.993  28.334  28.666  1.00  0.00     0.049 A 
ATOM     51  C   UNL A   1      41.580  29.628  29.396  1.00  0.00     0.074 A 
ATOM     52  C   UNL A   1      47.904  29.361  28.836  1.00  0.00     0.029 A 
ATOM     53  N   UNL A   1      45.735  28.873  28.897  1.00  0.00    -0.354 N 
ATOM     54  N   UNL A   1      42.875  29.476  29.250  1.00  0.00    -0.248 NA
ATOM     55  C   UNL A   1      41.173  30.982  29.792  1.00  0.00     0.031 C 
ATOM     56  C   UNL A   1      47.202  30.510  29.212  1.00  0.00     0.029 A 
ATOM     57  C   UNL A   1      45.848  30.214  29.223  1.00  0.00     0.049 A 
ATOM     58  H   UNL A   1      44.888  28.376  28.839  1.00  0.00     0.167 HD
ATOM     59  C   UNL A   1      43.435  30.721  29.506  1.00  0.00     0.074 A 
ATOM     60  C   UNL A   1      42.335  31.620  29.795  1.00  0.00     0.031 C 
ATOM     61  C   UNL A   1      44.739  31.092  29.504  1.00  0.00     0.037 A 
BRANCH  48  62
ATOM     62  C   UNL A   1      48.660  26.504  28.147  1.00  0.00     0.057 A 
ATOM     63  C   UNL A   1      49.423  26.031  29.225  1.00  0.00     0.134 A 
ATOM     64  C   UNL A   1      49.272  26.522  26.887  1.00  0.00     0.134 A 
ATOM     65  F   UNL A   1      48.904  26.001  30.462  1.00  0.00    -0.206 F 
ATOM     66  C   UNL A   1      50.748  25.624  29.062  1.00  0.00     0.040 A 
ATOM     67  C   UNL A   1      50.588  26.089  26.706  1.00  0.00     0.040 A 
ATOM     68  F   UNL A   1      48.602  26.959  25.810  1.00  0.00    -0.206 F 
ATOM     69  C   UNL A   1      51.332  25.646  27.797  1.00  0.00     0.006 A 
ENDBRANCH  48  62
BRANCH  49  70
ATOM     70  C   UNL A   1      39.057  29.003  29.403  1.00  0.00     0.057 A 
ATOM     71  C   UNL A   1      38.428  28.831  30.643  1.00  0.00     0.134 A 
ATOM     72  C   UNL A   1      38.288  29.535  28.362  1.00  0.00     0.134 A 
ATOM     73  F   UNL A   1      39.107  28.313  31.678  1.00  0.00    -0.206 F 
ATOM     74  C   UNL A   1      37.082  29.148  30.833  1.00  0.00     0.040 A 
ATOM     75  C   UNL A   1      36.949  29.882  28.543  1.00  0.00     0.040 A 
ATOM     76  F   UNL A   1      38.834  29.738  27.153  1.00  0.00    -0.206 F 
ATOM     77  C   UNL A   1      36.340  29.679  29.780  1.00  0.00     0.006 A 
ENDBRANCH  49  70
BRANCH  61  78
ATOM     78  C   UNL A   1      45.038  32.535  29.785  1.00  0.00     0.057 A 
ATOM     79  C   UNL A   1      45.066  33.499  28.768  1.00  0.00     0.134 A 
ATOM     80  C   UNL A   1      45.290  32.968  31.093  1.00  0.00     0.134 A 
ATOM     81  F   UNL A   1      44.844  33.150  27.492  1.00  0.00    -0.206 F 
ATOM     82  C   UNL A   1      45.373  34.834  29.038  1.00  0.00     0.040 A 
ATOM     83  C   UNL A   1      45.567  34.305  31.379  1.00  0.00     0.040 A 
ATOM     84  F   UNL A   1      45.266  32.099  32.115  1.00  0.00    -0.206 F 
ATOM     85  C   UNL A   1      45.620  35.240  30.348  1.00  0.00     0.006 A 
ENDBRANCH  61  78
ENDBRANCH  35  36
ENDBRANCH  27  30
ENDBRANCH  25  26
ENDBRANCH  24  25
ENDBRANCH   1  24
TORSDOF 14
ENDMDL
MODEL 2
REMARK VINA RESULT:     -11.1      0.868      1.943
REMARK SMILES O=C(NC[C@@H]1CCOC1)NC[C@@H]1CC[C@H](C(=O)NCCCNC(=O)c2ccc(-c3c4nc(c(-c5c(F)cccc5F)c5ccc([nH]5)c(-c5c(F)cccc5F)c5nc(c(-c6c(F)cccc6F)c6ccc3[nH]6)C=C5)C=C4)cc2)O1
REMARK SMILES IDX 19 1 18 2 16 3 17 4 15 6 12 7 13 8 79 9 14 10 11 11 10 12
REMARK SMILES IDX 1 13 2 14 3 15 4 18 5 19 6 20 9 21 7 22 8 23 20 24 21 25
REMARK SMILES IDX 22 26 23 27 24 29 25 30 26 31 78 32 27 33 77 34 28 35 29 36
REMARK SMILES IDX 30 37 71 38 31 39 76 40 70 41 72 42 32 43 75 44 69 45 68 46
REMARK SMILES IDX 33 48 59 49 42 50 58 51 43 52 46 53 57 54 73 55 44 56 45 57
REMARK SMILES IDX 56 59 74 60 47 61 34 62 35 63 40 64 36 65 37 66 39 67 41 68
REMARK SMILES IDX 38 69 60 70 61 71 66 72 62 73 63 74 65 75 67 76 64 77 48 78
REMARK SMILES IDX 49 79 54 80 50 81 51 82 53 83 55 84 52 85
REMARK H PARENT 18 5 3 16 10 17 22 28 72 47 46 58
REMARK Flexibility Score: inf
ROOT
ATOM      1  C   UNL A   1      37.978  21.653  25.321  1.00  0.00     0.117 C 
ENDROOT
BRANCH   1   2
ATOM      2  N   UNL A   1      37.330  22.242  24.169  1.00  0.00    -0.354 N 
ATOM      3  C   UNL A   1      36.367  23.204  24.119  1.00  0.00     0.249 C 
ATOM      4  O   UNL A   1      35.935  23.515  23.004  1.00  0.00    -0.272 OA
ATOM      5  H   UNL A   1      37.628  21.899  23.297  1.00  0.00     0.163 HD
BRANCH   3   6
ATOM      6  C   UNL A   1      35.771  23.839  25.400  1.00  0.00     0.207 C 
ATOM      7  C   UNL A   1      33.919  23.515  26.796  1.00  0.00     0.138 C 
ATOM      8  C   UNL A   1      33.483  24.490  25.717  1.00  0.00     0.037 C 
ATOM      9  O   UNL A   1      35.161  22.949  26.335  1.00  0.00    -0.363 OA
ATOM     10  C   UNL A   1      34.778  24.952  25.097  1.00  0.00     0.045 C 
BRANCH   7  11
ATOM     11  C   UNL A   1      32.923  22.388  27.167  1.00  0.00     0.149 C 
BRANCH  11  12
ATOM     12  N   UNL A   1      32.999  21.191  26.340  1.00  0.00    -0.336 N 
ATOM     13  O   UNL A   1      31.462  21.867  24.796  1.00  0.00    -0.249 OA
ATOM     14  C   UNL A   1      32.248  21.022  25.222  1.00  0.00     0.314 C 
ATOM     15  N   UNL A   1      32.342  19.834  24.580  1.00  0.00    -0.338 N 
ATOM     16  H   UNL A   1      31.620  19.666  23.932  1.00  0.00     0.165 HD
ATOM     17  H   UNL A   1      33.620  20.474  26.603  1.00  0.00     0.165 HD
BRANCH  15  18
ATOM     18  C   UNL A   1      33.318  18.766  24.677  1.00  0.00     0.123 C 
BRANCH  18  19
ATOM     19  C   UNL A   1      32.862  17.363  24.242  1.00  0.00     0.036 C 
ATOM     20  C   UNL A   1      32.512  16.401  25.363  1.00  0.00     0.036 C 
ATOM     21  C   UNL A   1      33.914  16.600  23.456  1.00  0.00     0.165 C 
ATOM     22  C   UNL A   1      33.674  15.426  25.426  1.00  0.00     0.160 C 
ATOM     23  O   UNL A   1      34.600  15.770  24.390  1.00  0.00    -0.381 OA
ENDBRANCH  18  19
ENDBRANCH  15  18
ENDBRANCH  11  12
ENDBRANCH   7  11
ENDBRANCH   3   6
ENDBRANCH   1   2
BRANCH   1  24
ATOM     24  C   UNL A   1      38.538  20.276  24.993  1.00  0.00     0.042 C 
BRANCH  24  25
ATOM     25  C   UNL A   1      39.252  19.629  26.164  1.00  0.00     0.118 C 
BRANCH  25  26
ATOM     26  N   UNL A   1      40.550  19.081  25.800  1.00  0.00    -0.352 N 
ATOM     27  C   UNL A   1      41.812  19.599  25.885  1.00  0.00     0.251 C 
ATOM     28  H   UNL A   1      40.511  18.171  25.424  1.00  0.00     0.163 HD
ATOM     29  O   UNL A   1      42.761  18.944  25.450  1.00  0.00    -0.269 OA
BRANCH  27  30
ATOM     30  C   UNL A   1      42.067  20.957  26.415  1.00  0.00     0.039 A 
ATOM     31  C   UNL A   1      42.067  21.116  27.806  1.00  0.00     0.014 A 
ATOM     32  C   UNL A   1      42.289  22.068  25.599  1.00  0.00     0.014 A 
ATOM     33  C   UNL A   1      42.314  22.366  28.370  1.00  0.00     0.010 A 
ATOM     34  C   UNL A   1      42.649  23.289  26.162  1.00  0.00     0.010 A 
ATOM     35  C   UNL A   1      42.631  23.460  27.552  1.00  0.00    -0.014 A 
BRANCH  35  36
ATOM     36  C   UNL A   1      42.873  24.798  28.140  1.00  0.00     0.031 A 
ATOM     37  C   UNL A   1      44.268  25.204  28.534  1.00  0.00     0.074 A 
ATOM     38  C   UNL A   1      41.838  25.639  28.330  1.00  0.00     0.049 A 
ATOM     39  N   UNL A   1      44.684  26.329  29.059  1.00  0.00    -0.248 NA
ATOM     40  C   UNL A   1      45.332  24.206  28.341  1.00  0.00     0.031 C 
ATOM     41  C   UNL A   1      40.436  25.338  28.033  1.00  0.00     0.029 A 
ATOM     42  N   UNL A   1      41.808  26.923  28.810  1.00  0.00    -0.354 N 
ATOM     43  C   UNL A   1      46.048  26.164  29.271  1.00  0.00     0.074 A 
ATOM     44  C   UNL A   1      46.377  24.810  28.884  1.00  0.00     0.031 C 
ATOM     45  C   UNL A   1      39.688  26.421  28.301  1.00  0.00     0.029 A 
ATOM     46  C   UNL A   1      40.552  27.478  28.818  1.00  0.00     0.049 A 
ATOM     47  H   UNL A   1      42.611  27.401  29.122  1.00  0.00     0.167 HD
ATOM     48  C   UNL A   1      46.953  27.067  29.715  1.00  0.00     0.037 A 
ATOM     49  C   UNL A   1      40.148  28.706  29.192  1.00  0.00     0.037 A 
ATOM     50  C   UNL A   1      46.626  28.422  30.069  1.00  0.00     0.049 A 
ATOM     51  C   UNL A   1      41.174  29.697  29.668  1.00  0.00     0.074 A 
ATOM     52  C   UNL A   1      47.471  29.435  30.484  1.00  0.00     0.029 A 
ATOM     53  N   UNL A   1      45.344  28.953  30.047  1.00  0.00    -0.354 N 
ATOM     54  N   UNL A   1      42.471  29.548  29.800  1.00  0.00    -0.248 NA
ATOM     55  C   UNL A   1      40.681  31.031  30.032  1.00  0.00     0.031 C 
ATOM     56  C   UNL A   1      46.695  30.567  30.754  1.00  0.00     0.029 A 
ATOM     57  C   UNL A   1      45.374  30.276  30.456  1.00  0.00     0.049 A 
ATOM     58  H   UNL A   1      44.533  28.462  29.782  1.00  0.00     0.167 HD
ATOM     59  C   UNL A   1      42.952  30.776  30.233  1.00  0.00     0.074 A 
ATOM     60  C   UNL A   1      41.810  31.664  30.320  1.00  0.00     0.031 C 
ATOM     61  C   UNL A   1      44.224  31.142  30.533  1.00  0.00     0.037 A 
BRANCH  48  62
ATOM     62  C   UNL A   1      48.380  26.614  29.834  1.00  0.00     0.057 A 
ATOM     63  C   UNL A   1      49.315  26.827  28.811  1.00  0.00     0.134 A 
ATOM     64  C   UNL A   1      48.832  25.968  30.992  1.00  0.00     0.134 A 
ATOM     65  F   UNL A   1      48.946  27.426  27.668  1.00  0.00    -0.206 F 
ATOM     66  C   UNL A   1      50.635  26.388  28.921  1.00  0.00     0.040 A 
ATOM     67  C   UNL A   1      50.158  25.551  31.127  1.00  0.00     0.040 A 
ATOM     68  F   UNL A   1      47.993  25.733  32.013  1.00  0.00    -0.206 F 
ATOM     69  C   UNL A   1      51.062  25.753  30.086  1.00  0.00     0.006 A 
ENDBRANCH  48  62
BRANCH  49  70
ATOM     70  C   UNL A   1      38.714  29.081  29.096  1.00  0.00     0.057 A 
ATOM     71  C   UNL A   1      38.162  29.525  27.888  1.00  0.00     0.134 A 
ATOM     72  C   UNL A   1      37.864  29.016  30.205  1.00  0.00     0.134 A 
ATOM     73  F   UNL A   1      38.928  29.622  26.791  1.00  0.00    -0.206 F 
ATOM     74  C   UNL A   1      36.826  29.917  27.793  1.00  0.00     0.040 A 
ATOM     75  C   UNL A   1      36.520  29.379  30.120  1.00  0.00     0.040 A 
ATOM     76  F   UNL A   1      38.327  28.586  31.389  1.00  0.00    -0.206 F 
ATOM     77  C   UNL A   1      35.999  29.841  28.912  1.00  0.00     0.006 A 
ENDBRANCH  49  70
BRANCH  61  78
ATOM     78  C   UNL A   1      44.443  32.568  30.942  1.00  0.00     0.057 A 
ATOM     79  C   UNL A   1      44.407  32.970  32.285  1.00  0.00     0.134 A 
ATOM     80  C   UNL A   1      44.706  33.553  29.981  1.00  0.00     0.134 A 
ATOM     81  F   UNL A   1      44.149  32.080  33.255  1.00  0.00    -0.206 F 
ATOM     82  C   UNL A   1      44.584  34.305  32.651  1.00  0.00     0.040 A 
ATOM     83  C   UNL A   1      44.917  34.884  30.337  1.00  0.00     0.040 A 
ATOM     84  F   UNL A   1      44.767  33.234  28.679  1.00  0.00    -0.206 F 
ATOM     85  C   UNL A   1      44.845  35.266  31.676  1.00  0.00     0.006 A 
ENDBRANCH  61  78
ENDBRANCH  35  36
ENDBRANCH  27  30
ENDBRANCH  25  26
ENDBRANCH  24  25
ENDBRANCH   1  24
TORSDOF 14
ENDMDL
MODEL 3
REMARK VINA RESULT:     -11.0      1.831      3.823
REMARK SMILES O=C(NC[C@@H]1CCOC1)NC[C@@H]1CC[C@H](C(=O)NCCCNC(=O)c2ccc(-c3c4nc(c(-c5c(F)cccc5F)c5ccc([nH]5)c(-c5c(F)cccc5F)c5nc(c(-c6c(F)cccc6F)c6ccc3[nH]6)C=C5)C=C4)cc2)O1
REMARK SMILES IDX 19 1 18 2 16 3 17 4 15 6 12 7 13 8 79 9 14 10 11 11 10 12
REMARK SMILES IDX 1 13 2 14 3 15 4 18 5 19 6 20 9 21 7 22 8 23 20 24 21 25
REMARK SMILES IDX 22 26 23 27 24 29 25 30 26 31 78 32 27 33 77 34 28 35 29 36
REMARK SMILES IDX 30 37 71 38 31 39 76 40 70 41 72 42 32 43 75 44 69 45 68 46
REMARK SMILES IDX 33 48 59 49 42 50 58 51 43 52 46 53 57 54 73 55 44 56 45 57
REMARK SMILES IDX 56 59 74 60 47 61 34 62 35 63 40 64 36 65 37 66 39 67 41 68
REMARK SMILES IDX 38 69 60 70 61 71 66 72 62 73 63 74 65 75 67 76 64 77 48 78
REMARK SMILES IDX 49 79 54 80 50 81 51 82 53 83 55 84 52 85
REMARK H PARENT 18 5 3 16 10 17 22 28 72 47 46 58
REMARK Flexibility Score: inf
ROOT
ATOM      1  C   UNL A   1      37.600  21.406  24.758  1.00  0.00     0.117 C 
ENDROOT
BRANCH   1   2
ATOM      2  N   UNL A   1      36.744  21.614  25.906  1.00  0.00    -0.354 N 
ATOM      3  C   UNL A   1      35.398  21.436  26.023  1.00  0.00     0.249 C 
ATOM      4  O   UNL A   1      34.881  21.726  27.107  1.00  0.00    -0.272 OA
ATOM      5  H   UNL A   1      37.200  21.929  26.719  1.00  0.00     0.163 HD
BRANCH   3   6
ATOM      6  C   UNL A   1      34.525  20.962  24.835  1.00  0.00     0.207 C 
ATOM      7  C   UNL A   1      32.780  21.806  23.521  1.00  0.00     0.138 C 
ATOM      8  C   UNL A   1      32.133  21.102  24.701  1.00  0.00     0.037 C 
ATOM      9  O   UNL A   1      34.173  21.947  23.863  1.00  0.00    -0.363 OA
ATOM     10  C   UNL A   1      33.247  20.269  25.285  1.00  0.00     0.045 C 
BRANCH   7  11
ATOM     11  C   UNL A   1      32.189  23.177  23.112  1.00  0.00     0.149 C 
BRANCH  11  12
ATOM     12  N   UNL A   1      32.734  24.329  23.820  1.00  0.00    -0.336 N 
ATOM     13  O   UNL A   1      33.667  25.317  21.988  1.00  0.00    -0.249 OA
ATOM     14  C   UNL A   1      33.444  25.304  23.198  1.00  0.00     0.314 C 
ATOM     15  N   UNL A   1      33.971  26.282  23.971  1.00  0.00    -0.338 N 
ATOM     16  H   UNL A   1      34.664  26.822  23.525  1.00  0.00     0.165 HD
ATOM     17  H   UNL A   1      32.582  24.402  24.790  1.00  0.00     0.165 HD
BRANCH  15  18
ATOM     18  C   UNL A   1      33.695  26.676  25.339  1.00  0.00     0.123 C 
BRANCH  18  19
ATOM     19  C   UNL A   1      32.614  27.751  25.551  1.00  0.00     0.036 C 
ATOM     20  C   UNL A   1      32.782  28.628  26.779  1.00  0.00     0.036 C 
ATOM     21  C   UNL A   1      31.219  27.180  25.731  1.00  0.00     0.165 C 
ATOM     22  C   UNL A   1      31.738  28.136  27.763  1.00  0.00     0.160 C 
ATOM     23  O   UNL A   1      30.993  27.088  27.136  1.00  0.00    -0.381 OA
ENDBRANCH  18  19
ENDBRANCH  15  18
ENDBRANCH  11  12
ENDBRANCH   7  11
ENDBRANCH   3   6
ENDBRANCH   1   2
BRANCH   1  24
ATOM     24  C   UNL A   1      38.182  20.000  24.753  1.00  0.00     0.042 C 
BRANCH  24  25
ATOM     25  C   UNL A   1      38.948  19.667  26.019  1.00  0.00     0.118 C 
BRANCH  25  26
ATOM     26  N   UNL A   1      40.241  19.056  25.751  1.00  0.00    -0.352 N 
ATOM     27  C   UNL A   1      41.517  19.492  25.976  1.00  0.00     0.251 C 
ATOM     28  H   UNL A   1      40.186  18.167  25.331  1.00  0.00     0.163 HD
ATOM     29  O   UNL A   1      42.464  18.799  25.600  1.00  0.00    -0.269 OA
BRANCH  27  30
ATOM     30  C   UNL A   1      41.798  20.809  26.590  1.00  0.00     0.039 A 
ATOM     31  C   UNL A   1      42.060  21.879  25.727  1.00  0.00     0.014 A 
ATOM     32  C   UNL A   1      41.825  21.019  27.970  1.00  0.00     0.014 A 
ATOM     33  C   UNL A   1      42.317  23.149  26.241  1.00  0.00     0.010 A 
ATOM     34  C   UNL A   1      41.968  22.307  28.479  1.00  0.00     0.010 A 
ATOM     35  C   UNL A   1      42.250  23.378  27.623  1.00  0.00    -0.014 A 
BRANCH  35  36
ATOM     36  C   UNL A   1      42.546  24.719  28.182  1.00  0.00     0.031 A 
ATOM     37  C   UNL A   1      43.956  25.077  28.569  1.00  0.00     0.074 A 
ATOM     38  C   UNL A   1      41.546  25.605  28.351  1.00  0.00     0.049 A 
ATOM     39  N   UNL A   1      44.417  26.195  29.069  1.00  0.00    -0.248 NA
ATOM     40  C   UNL A   1      44.978  24.032  28.399  1.00  0.00     0.031 C 
ATOM     41  C   UNL A   1      40.133  25.355  28.059  1.00  0.00     0.029 A 
ATOM     42  N   UNL A   1      41.568  26.899  28.803  1.00  0.00    -0.354 N 
ATOM     43  C   UNL A   1      45.773  25.980  29.286  1.00  0.00     0.074 A 
ATOM     44  C   UNL A   1      46.047  24.605  28.930  1.00  0.00     0.031 C 
ATOM     45  C   UNL A   1      39.430  26.473  28.302  1.00  0.00     0.029 A 
ATOM     46  C   UNL A   1      40.335  27.505  28.796  1.00  0.00     0.049 A 
ATOM     47  H   UNL A   1      42.389  27.351  29.105  1.00  0.00     0.167 HD
ATOM     48  C   UNL A   1      46.714  26.855  29.711  1.00  0.00     0.037 A 
ATOM     49  C   UNL A   1      39.981  28.756  29.142  1.00  0.00     0.037 A 
ATOM     50  C   UNL A   1      46.441  28.230  30.034  1.00  0.00     0.049 A 
ATOM     51  C   UNL A   1      41.047  29.715  29.597  1.00  0.00     0.074 A 
ATOM     52  C   UNL A   1      47.327  29.217  30.428  1.00  0.00     0.029 A 
ATOM     53  N   UNL A   1      45.182  28.812  29.999  1.00  0.00    -0.354 N 
ATOM     54  N   UNL A   1      42.336  29.517  29.734  1.00  0.00    -0.248 NA
ATOM     55  C   UNL A   1      40.607  31.076  29.931  1.00  0.00     0.031 C 
ATOM     56  C   UNL A   1      46.598  30.385  30.672  1.00  0.00     0.029 A 
ATOM     57  C   UNL A   1      45.265  30.141  30.378  1.00  0.00     0.049 A 
ATOM     58  H   UNL A   1      44.352  28.349  29.743  1.00  0.00     0.167 HD
ATOM     59  C   UNL A   1      42.867  30.734  30.140  1.00  0.00     0.074 A 
ATOM     60  C   UNL A   1      41.761  31.669  30.207  1.00  0.00     0.031 C 
ATOM     61  C   UNL A   1      44.151  31.054  30.434  1.00  0.00     0.037 A 
BRANCH  48  62
ATOM     62  C   UNL A   1      48.121  26.347  29.843  1.00  0.00     0.057 A 
ATOM     63  C   UNL A   1      48.600  25.788  31.036  1.00  0.00     0.134 A 
ATOM     64  C   UNL A   1      49.007  26.404  28.759  1.00  0.00     0.134 A 
ATOM     65  F   UNL A   1      47.810  25.717  32.118  1.00  0.00    -0.206 F 
ATOM     66  C   UNL A   1      49.914  25.334  31.157  1.00  0.00     0.040 A 
ATOM     67  C   UNL A   1      50.315  25.925  28.858  1.00  0.00     0.040 A 
ATOM     68  F   UNL A   1      48.616  26.923  27.585  1.00  0.00    -0.206 F 
ATOM     69  C   UNL A   1      50.775  25.396  30.063  1.00  0.00     0.006 A 
ENDBRANCH  48  62
BRANCH  49  70
ATOM     70  C   UNL A   1      38.564  29.187  29.036  1.00  0.00     0.057 A 
ATOM     71  C   UNL A   1      37.703  29.120  30.138  1.00  0.00     0.134 A 
ATOM     72  C   UNL A   1      38.031  29.663  27.832  1.00  0.00     0.134 A 
ATOM     73  F   UNL A   1      38.149  28.660  31.317  1.00  0.00    -0.206 F 
ATOM     74  C   UNL A   1      36.358  29.485  30.041  1.00  0.00     0.040 A 
ATOM     75  C   UNL A   1      36.697  30.056  27.727  1.00  0.00     0.040 A 
ATOM     76  F   UNL A   1      38.807  29.764  26.742  1.00  0.00    -0.206 F 
ATOM     77  C   UNL A   1      35.854  29.959  28.832  1.00  0.00     0.006 A 
ENDBRANCH  49  70
BRANCH  61  78
ATOM     78  C   UNL A   1      44.429  32.480  30.812  1.00  0.00     0.057 A 
ATOM     79  C   UNL A   1      44.425  32.908  32.146  1.00  0.00     0.134 A 
ATOM     80  C   UNL A   1      44.714  33.435  29.828  1.00  0.00     0.134 A 
ATOM     81  F   UNL A   1      44.148  32.048  33.137  1.00  0.00    -0.206 F 
ATOM     82  C   UNL A   1      44.656  34.243  32.484  1.00  0.00     0.040 A 
ATOM     83  C   UNL A   1      44.978  34.764  30.155  1.00  0.00     0.040 A 
ATOM     84  F   UNL A   1      44.746  33.088  28.532  1.00  0.00    -0.206 F 
ATOM     85  C   UNL A   1      44.938  35.174  31.486  1.00  0.00     0.006 A 
ENDBRANCH  61  78
ENDBRANCH  35  36
ENDBRANCH  27  30
ENDBRANCH  25  26
ENDBRANCH  24  25
ENDBRANCH   1  24
TORSDOF 14
ENDMDL
